
  -OEChem-03222214083D

 33 33  0     1  0  0  0  0  0999 V2000
   -3.4990   -4.4049    0.6668 H   0  0  0  0  0  0  0  0  0  0  0  0
   -3.3292   -3.5126    0.0569 C   0  0  0  0  0  0  0  0  0  0  0  0
   -4.1446   -2.8068    0.2323 H   0  0  0  0  0  0  0  0  0  0  0  0
   -3.3264   -3.8040   -0.9962 H   0  0  0  0  0  0  0  0  0  0  0  0
   -2.0017   -2.8759    0.4245 C   0  0  0  0  0  0  0  0  0  0  0  0
   -1.3303   -3.3601    1.3163 O   0  0  0  0  0  0  0  0  0  0  0  0
   -1.5620   -1.7640   -0.2699 N   0  0  0  0  0  0  0  0  0  0  0  0
   -2.1284   -1.4708   -1.0599 H   0  0  0  0  0  0  0  0  0  0  0  0
   -0.2589   -1.0985   -0.0550 C   0  0  1  0  0  0  0  0  0  0  0  0
    0.5608   -1.7993   -0.2471 H   0  0  0  0  0  0  0  0  0  0  0  0
   -0.2204    0.0550   -1.0848 C   0  0  0  0  0  0  0  0  0  0  0  0
   -0.3429   -0.3878   -2.0786 H   0  0  0  0  0  0  0  0  0  0  0  0
   -1.0881    0.6981   -0.9038 H   0  0  0  0  0  0  0  0  0  0  0  0
    1.0006    0.9587   -1.1498 C   0  0  0  0  0  0  0  0  0  0  0  0
    0.9822    1.9944   -2.0997 C   0  0  0  0  0  0  0  0  0  0  0  0
    0.0941    2.1583   -2.7029 H   0  0  0  0  0  0  0  0  0  0  0  0
    2.0859    2.8366   -2.2775 C   0  0  0  0  0  0  0  0  0  0  0  0
    2.0354    3.6392   -3.0050 H   0  0  0  0  0  0  0  0  0  0  0  0
    3.2446    2.6387   -1.5277 C   0  0  0  0  0  0  0  0  0  0  0  0
    4.3285    3.4526   -1.6904 O   0  0  0  0  0  0  0  0  0  0  0  0
    4.1296    4.1475   -2.3359 H   0  0  0  0  0  0  0  0  0  0  0  0
    3.2976    1.5875   -0.6177 C   0  0  0  0  0  0  0  0  0  0  0  0
    4.2085    1.4211   -0.0518 H   0  0  0  0  0  0  0  0  0  0  0  0
    2.1967    0.7426   -0.4385 C   0  0  0  0  0  0  0  0  0  0  0  0
    2.3179   -0.0872    0.2472 H   0  0  0  0  0  0  0  0  0  0  0  0
   -0.1311   -0.5826    1.4033 C   0  0  0  0  0  0  0  0  0  0  0  0
    0.8885   -0.7683    2.0544 O   0  0  0  0  0  0  0  0  0  0  0  0
   -1.1872    0.0881    1.9964 N   0  0  0  0  0  0  0  0  0  0  0  0
   -2.0636    0.0940    1.4873 H   0  0  0  0  0  0  0  0  0  0  0  0
   -1.1880    0.4758    3.4013 C   0  0  0  0  0  0  0  0  0  0  0  0
   -0.3494    1.1470    3.6144 H   0  0  0  0  0  0  0  0  0  0  0  0
   -2.1175    0.9965    3.6499 H   0  0  0  0  0  0  0  0  0  0  0  0
   -1.1024   -0.4089    4.0411 H   0  0  0  0  0  0  0  0  0  0  0  0
  1  2  1  0  0  0  0
  2  3  1  0  0  0  0
  2  4  1  0  0  0  0
  2  5  1  0  0  0  0
  5  6  2  0  0  0  0
  5  7  1  0  0  0  0
  7  8  1  0  0  0  0
  7  9  1  0  0  0  0
  9 10  1  0  0  0  0
  9 11  1  0  0  0  0
  9 26  1  0  0  0  0
 11 12  1  0  0  0  0
 11 13  1  0  0  0  0
 11 14  1  0  0  0  0
 14 15  2  0  0  0  0
 14 24  1  0  0  0  0
 15 16  1  0  0  0  0
 15 17  1  0  0  0  0
 17 18  1  0  0  0  0
 17 19  2  0  0  0  0
 19 20  1  0  0  0  0
 19 22  1  0  0  0  0
 20 21  1  0  0  0  0
 22 23  1  0  0  0  0
 22 24  2  0  0  0  0
 24 25  1  0  0  0  0
 26 27  2  0  0  0  0
 26 28  1  0  0  0  0
 28 29  1  0  0  0  0
 28 30  1  0  0  0  0
 30 31  1  0  0  0  0
 30 32  1  0  0  0  0
 30 33  1  0  0  0  0
M  END
$$$$

  -OEChem-03222214083D

 33 33  0     1  0  0  0  0  0999 V2000
   -3.4722   -4.4492    0.6849 H   0  0  0  0  0  0  0  0  0  0  0  0
   -3.3297   -3.5506    0.0776 C   0  0  0  0  0  0  0  0  0  0  0  0
   -4.1494   -2.8567    0.2779 H   0  0  0  0  0  0  0  0  0  0  0  0
   -3.3498   -3.8340   -0.9775 H   0  0  0  0  0  0  0  0  0  0  0  0
   -2.0023   -2.8981    0.4164 C   0  0  0  0  0  0  0  0  0  0  0  0
   -1.3066   -3.3678    1.2975 O   0  0  0  0  0  0  0  0  0  0  0  0
   -1.5926   -1.7816   -0.2876 N   0  0  0  0  0  0  0  0  0  0  0  0
   -2.1818   -1.4917   -1.0620 H   0  0  0  0  0  0  0  0  0  0  0  0
   -0.2966   -1.0981   -0.0963 C   0  0  1  0  0  0  0  0  0  0  0  0
    0.5162   -1.8037   -0.2985 H   0  0  0  0  0  0  0  0  0  0  0  0
   -0.2626    0.0437   -1.1357 C   0  0  0  0  0  0  0  0  0  0  0  0
   -0.3780   -0.3993   -2.1301 H   0  0  0  0  0  0  0  0  0  0  0  0
   -1.1306    0.6878   -0.9603 H   0  0  0  0  0  0  0  0  0  0  0  0
    0.9713    0.9282   -1.1765 C   0  0  0  0  0  0  0  0  0  0  0  0
    0.8876    2.1453   -1.8730 C   0  0  0  0  0  0  0  0  0  0  0  0
   -0.0541    2.4509   -2.3190 H   0  0  0  0  0  0  0  0  0  0  0  0
    2.0020    2.9827   -1.9994 C   0  0  0  0  0  0  0  0  0  0  0  0
    1.9070    3.9228   -2.5313 H   0  0  0  0  0  0  0  0  0  0  0  0
    3.2271    2.6062   -1.4485 C   0  0  0  0  0  0  0  0  0  0  0  0
    4.3206    3.4152   -1.5646 O   0  0  0  0  0  0  0  0  0  0  0  0
    4.0786    4.2391   -2.0139 H   0  0  0  0  0  0  0  0  0  0  0  0
    3.3337    1.3878   -0.7840 C   0  0  0  0  0  0  0  0  0  0  0  0
    4.2906    1.0934   -0.3653 H   0  0  0  0  0  0  0  0  0  0  0  0
    2.2226    0.5471   -0.6556 C   0  0  0  0  0  0  0  0  0  0  0  0
    2.3622   -0.4013   -0.1463 H   0  0  0  0  0  0  0  0  0  0  0  0
   -0.1147   -0.5650    1.3482 C   0  0  0  0  0  0  0  0  0  0  0  0
    0.9528   -0.6927    1.9332 O   0  0  0  0  0  0  0  0  0  0  0  0
   -1.1493    0.1050    1.9785 N   0  0  0  0  0  0  0  0  0  0  0  0
   -2.0522    0.0825    1.5185 H   0  0  0  0  0  0  0  0  0  0  0  0
   -1.0752    0.5510    3.3642 C   0  0  0  0  0  0  0  0  0  0  0  0
   -0.2451    1.2530    3.4965 H   0  0  0  0  0  0  0  0  0  0  0  0
   -2.0023    1.0566    3.6497 H   0  0  0  0  0  0  0  0  0  0  0  0
   -0.9247   -0.3028    4.0334 H   0  0  0  0  0  0  0  0  0  0  0  0
  1  2  1  0  0  0  0
  2  3  1  0  0  0  0
  2  4  1  0  0  0  0
  2  5  1  0  0  0  0
  5  6  2  0  0  0  0
  5  7  1  0  0  0  0
  7  8  1  0  0  0  0
  7  9  1  0  0  0  0
  9 10  1  0  0  0  0
  9 11  1  0  0  0  0
  9 26  1  0  0  0  0
 11 12  1  0  0  0  0
 11 13  1  0  0  0  0
 11 14  1  0  0  0  0
 14 15  2  0  0  0  0
 14 24  1  0  0  0  0
 15 16  1  0  0  0  0
 15 17  1  0  0  0  0
 17 18  1  0  0  0  0
 17 19  2  0  0  0  0
 19 20  1  0  0  0  0
 19 22  1  0  0  0  0
 20 21  1  0  0  0  0
 22 23  1  0  0  0  0
 22 24  2  0  0  0  0
 24 25  1  0  0  0  0
 26 27  2  0  0  0  0
 26 28  1  0  0  0  0
 28 29  1  0  0  0  0
 28 30  1  0  0  0  0
 30 31  1  0  0  0  0
 30 32  1  0  0  0  0
 30 33  1  0  0  0  0
M  END
$$$$

  -OEChem-03222214083D

 33 33  0     1  0  0  0  0  0999 V2000
   -3.4329   -4.4854    0.7186 H   0  0  0  0  0  0  0  0  0  0  0  0
   -3.3170   -3.5900    0.1011 C   0  0  0  0  0  0  0  0  0  0  0  0
   -4.1479   -2.9114    0.3072 H   0  0  0  0  0  0  0  0  0  0  0  0
   -3.3460   -3.8839   -0.9508 H   0  0  0  0  0  0  0  0  0  0  0  0
   -1.9987   -2.9072    0.4143 C   0  0  0  0  0  0  0  0  0  0  0  0
   -1.2815   -3.3533    1.2906 O   0  0  0  0  0  0  0  0  0  0  0  0
   -1.6224   -1.7860   -0.3005 N   0  0  0  0  0  0  0  0  0  0  0  0
   -2.2233   -1.5160   -1.0732 H   0  0  0  0  0  0  0  0  0  0  0  0
   -0.3319   -1.0868   -0.1368 C   0  0  1  0  0  0  0  0  0  0  0  0
    0.4739   -1.7967   -0.3491 H   0  0  0  0  0  0  0  0  0  0  0  0
   -0.3070    0.0456   -1.1851 C   0  0  0  0  0  0  0  0  0  0  0  0
   -0.4203   -0.3988   -2.1789 H   0  0  0  0  0  0  0  0  0  0  0  0
   -1.1754    0.6896   -1.0124 H   0  0  0  0  0  0  0  0  0  0  0  0
    0.9379    0.9130   -1.2101 C   0  0  0  0  0  0  0  0  0  0  0  0
    0.8230    2.2540   -1.6121 C   0  0  0  0  0  0  0  0  0  0  0  0
   -0.1489    2.6655   -1.8669 H   0  0  0  0  0  0  0  0  0  0  0  0
    1.9509    3.0793   -1.6911 C   0  0  0  0  0  0  0  0  0  0  0  0
    1.8362    4.1124   -2.0000 H   0  0  0  0  0  0  0  0  0  0  0  0
    3.2132    2.5735   -1.3775 C   0  0  0  0  0  0  0  0  0  0  0  0
    4.3202    3.3691   -1.4503 O   0  0  0  0  0  0  0  0  0  0  0  0
    4.0643    4.2740   -1.6838 H   0  0  0  0  0  0  0  0  0  0  0  0
    3.3423    1.2422   -0.9917 C   0  0  0  0  0  0  0  0  0  0  0  0
    4.3256    0.8541   -0.7465 H   0  0  0  0  0  0  0  0  0  0  0  0
    2.2189    0.4123   -0.9135 C   0  0  0  0  0  0  0  0  0  0  0  0
    2.3637   -0.6189   -0.6067 H   0  0  0  0  0  0  0  0  0  0  0  0
   -0.0998   -0.5414    1.2931 C   0  0  0  0  0  0  0  0  0  0  0  0
    1.0026   -0.6275    1.8181 O   0  0  0  0  0  0  0  0  0  0  0  0
   -1.1150    0.1254    1.9568 N   0  0  0  0  0  0  0  0  0  0  0  0
   -2.0404    0.0642    1.5473 H   0  0  0  0  0  0  0  0  0  0  0  0
   -0.9810    0.6020    3.3275 C   0  0  0  0  0  0  0  0  0  0  0  0
   -0.1464    1.3064    3.4081 H   0  0  0  0  0  0  0  0  0  0  0  0
   -1.8949    1.1146    3.6413 H   0  0  0  0  0  0  0  0  0  0  0  0
   -0.8008   -0.2368    4.0080 H   0  0  0  0  0  0  0  0  0  0  0  0
  1  2  1  0  0  0  0
  2  3  1  0  0  0  0
  2  4  1  0  0  0  0
  2  5  1  0  0  0  0
  5  6  2  0  0  0  0
  5  7  1  0  0  0  0
  7  8  1  0  0  0  0
  7  9  1  0  0  0  0
  9 10  1  0  0  0  0
  9 11  1  0  0  0  0
  9 26  1  0  0  0  0
 11 12  1  0  0  0  0
 11 13  1  0  0  0  0
 11 14  1  0  0  0  0
 14 15  2  0  0  0  0
 14 24  1  0  0  0  0
 15 16  1  0  0  0  0
 15 17  1  0  0  0  0
 17 18  1  0  0  0  0
 17 19  2  0  0  0  0
 19 20  1  0  0  0  0
 19 22  1  0  0  0  0
 20 21  1  0  0  0  0
 22 23  1  0  0  0  0
 22 24  2  0  0  0  0
 24 25  1  0  0  0  0
 26 27  2  0  0  0  0
 26 28  1  0  0  0  0
 28 29  1  0  0  0  0
 28 30  1  0  0  0  0
 30 31  1  0  0  0  0
 30 32  1  0  0  0  0
 30 33  1  0  0  0  0
M  END
$$$$

  -OEChem-03222214083D

 33 33  0     1  0  0  0  0  0999 V2000
   -3.3863   -4.5115    0.7429 H   0  0  0  0  0  0  0  0  0  0  0  0
   -3.2902   -3.6181    0.1191 C   0  0  0  0  0  0  0  0  0  0  0  0
   -4.1324   -2.9532    0.3253 H   0  0  0  0  0  0  0  0  0  0  0  0
   -3.3191   -3.9195   -0.9308 H   0  0  0  0  0  0  0  0  0  0  0  0
   -1.9829   -2.9094    0.4211 C   0  0  0  0  0  0  0  0  0  0  0  0
   -1.2557   -3.3331    1.3002 O   0  0  0  0  0  0  0  0  0  0  0  0
   -1.6302   -1.7882   -0.3053 N   0  0  0  0  0  0  0  0  0  0  0  0
   -2.2377   -1.5394   -1.0801 H   0  0  0  0  0  0  0  0  0  0  0  0
   -0.3460   -1.0731   -0.1639 C   0  0  1  0  0  0  0  0  0  0  0  0
    0.4647   -1.7759   -0.3814 H   0  0  0  0  0  0  0  0  0  0  0  0
   -0.3436    0.0540   -1.2160 C   0  0  0  0  0  0  0  0  0  0  0  0
   -0.4573   -0.3902   -2.2100 H   0  0  0  0  0  0  0  0  0  0  0  0
   -1.2140    0.6947   -1.0411 H   0  0  0  0  0  0  0  0  0  0  0  0
    0.9068    0.9095   -1.2281 C   0  0  0  0  0  0  0  0  0  0  0  0
    0.7952    2.3073   -1.3053 C   0  0  0  0  0  0  0  0  0  0  0  0
   -0.1832    2.7776   -1.3248 H   0  0  0  0  0  0  0  0  0  0  0  0
    1.9385    3.1137   -1.3540 C   0  0  0  0  0  0  0  0  0  0  0  0
    1.8298    4.1912   -1.4079 H   0  0  0  0  0  0  0  0  0  0  0  0
    3.2079    2.5336   -1.3353 C   0  0  0  0  0  0  0  0  0  0  0  0
    4.3293    3.3107   -1.3842 O   0  0  0  0  0  0  0  0  0  0  0  0
    4.0854    4.2481   -1.3522 H   0  0  0  0  0  0  0  0  0  0  0  0
    3.3293    1.1479   -1.2706 C   0  0  0  0  0  0  0  0  0  0  0  0
    4.3187    0.7030   -1.2534 H   0  0  0  0  0  0  0  0  0  0  0  0
    2.1903    0.3371   -1.2209 C   0  0  0  0  0  0  0  0  0  0  0  0
    2.3199   -0.7393   -1.1683 H   0  0  0  0  0  0  0  0  0  0  0  0
   -0.0900   -0.5131    1.2550 C   0  0  0  0  0  0  0  0  0  0  0  0
    1.0292   -0.5640    1.7475 O   0  0  0  0  0  0  0  0  0  0  0  0
   -1.0987    0.1493    1.9329 N   0  0  0  0  0  0  0  0  0  0  0  0
   -2.0347    0.0511    1.5560 H   0  0  0  0  0  0  0  0  0  0  0  0
   -0.9379    0.6418    3.2949 C   0  0  0  0  0  0  0  0  0  0  0  0
   -0.1083    1.3548    3.3488 H   0  0  0  0  0  0  0  0  0  0  0  0
   -1.8495    1.1490    3.6247 H   0  0  0  0  0  0  0  0  0  0  0  0
   -0.7339   -0.1884    3.9794 H   0  0  0  0  0  0  0  0  0  0  0  0
  1  2  1  0  0  0  0
  2  3  1  0  0  0  0
  2  4  1  0  0  0  0
  2  5  1  0  0  0  0
  5  6  2  0  0  0  0
  5  7  1  0  0  0  0
  7  8  1  0  0  0  0
  7  9  1  0  0  0  0
  9 10  1  0  0  0  0
  9 11  1  0  0  0  0
  9 26  1  0  0  0  0
 11 12  1  0  0  0  0
 11 13  1  0  0  0  0
 11 14  1  0  0  0  0
 14 15  2  0  0  0  0
 14 24  1  0  0  0  0
 15 16  1  0  0  0  0
 15 17  1  0  0  0  0
 17 18  1  0  0  0  0
 17 19  2  0  0  0  0
 19 20  1  0  0  0  0
 19 22  1  0  0  0  0
 20 21  1  0  0  0  0
 22 23  1  0  0  0  0
 22 24  2  0  0  0  0
 24 25  1  0  0  0  0
 26 27  2  0  0  0  0
 26 28  1  0  0  0  0
 28 29  1  0  0  0  0
 28 30  1  0  0  0  0
 30 31  1  0  0  0  0
 30 32  1  0  0  0  0
 30 33  1  0  0  0  0
M  END
$$$$

  -OEChem-03222214083D

 33 33  0     1  0  0  0  0  0999 V2000
   -3.3387   -4.5240    0.7739 H   0  0  0  0  0  0  0  0  0  0  0  0
   -3.2603   -3.6339    0.1428 C   0  0  0  0  0  0  0  0  0  0  0  0
   -4.1082   -2.9778    0.3532 H   0  0  0  0  0  0  0  0  0  0  0  0
   -3.2970   -3.9429   -0.9046 H   0  0  0  0  0  0  0  0  0  0  0  0
   -1.9590   -2.9070    0.4260 C   0  0  0  0  0  0  0  0  0  0  0  0
   -1.2178   -3.3151    1.3008 O   0  0  0  0  0  0  0  0  0  0  0  0
   -1.6282   -1.7858   -0.3107 N   0  0  0  0  0  0  0  0  0  0  0  0
   -2.2461   -1.5502   -1.0815 H   0  0  0  0  0  0  0  0  0  0  0  0
   -0.3493   -1.0571   -0.1909 C   0  0  1  0  0  0  0  0  0  0  0  0
    0.4703   -1.7471   -0.4178 H   0  0  0  0  0  0  0  0  0  0  0  0
   -0.3731    0.0683   -1.2429 C   0  0  0  0  0  0  0  0  0  0  0  0
   -0.4932   -0.3735   -2.2371 H   0  0  0  0  0  0  0  0  0  0  0  0
   -1.2427    0.7081   -1.0619 H   0  0  0  0  0  0  0  0  0  0  0  0
    0.8809    0.9125   -1.2470 C   0  0  0  0  0  0  0  0  0  0  0  0
    0.8119    2.2919   -0.9957 C   0  0  0  0  0  0  0  0  0  0  0  0
   -0.1409    2.7608   -0.7700 H   0  0  0  0  0  0  0  0  0  0  0  0
    1.9699    3.0780   -1.0242 C   0  0  0  0  0  0  0  0  0  0  0  0
    1.8983    4.1410   -0.8229 H   0  0  0  0  0  0  0  0  0  0  0  0
    3.2066    2.4965   -1.3096 C   0  0  0  0  0  0  0  0  0  0  0  0
    4.3412    3.2549   -1.3391 O   0  0  0  0  0  0  0  0  0  0  0  0
    4.1442    4.1557   -1.0408 H   0  0  0  0  0  0  0  0  0  0  0  0
    3.2817    1.1296   -1.5667 C   0  0  0  0  0  0  0  0  0  0  0  0
    4.2470    0.6840   -1.7825 H   0  0  0  0  0  0  0  0  0  0  0  0
    2.1284    0.3385   -1.5378 C   0  0  0  0  0  0  0  0  0  0  0  0
    2.2123   -0.7255   -1.7369 H   0  0  0  0  0  0  0  0  0  0  0  0
   -0.0820   -0.4892    1.2232 C   0  0  0  0  0  0  0  0  0  0  0  0
    1.0450   -0.5153    1.6994 O   0  0  0  0  0  0  0  0  0  0  0  0
   -1.0915    0.1642    1.9087 N   0  0  0  0  0  0  0  0  0  0  0  0
   -2.0308    0.0388    1.5484 H   0  0  0  0  0  0  0  0  0  0  0  0
   -0.9229    0.6609    3.2682 C   0  0  0  0  0  0  0  0  0  0  0  0
   -0.0986    1.3804    3.3142 H   0  0  0  0  0  0  0  0  0  0  0  0
   -1.8356    1.1619    3.6042 H   0  0  0  0  0  0  0  0  0  0  0  0
   -0.7066   -0.1664    3.9523 H   0  0  0  0  0  0  0  0  0  0  0  0
  1  2  1  0  0  0  0
  2  3  1  0  0  0  0
  2  4  1  0  0  0  0
  2  5  1  0  0  0  0
  5  6  2  0  0  0  0
  5  7  1  0  0  0  0
  7  8  1  0  0  0  0
  7  9  1  0  0  0  0
  9 10  1  0  0  0  0
  9 11  1  0  0  0  0
  9 26  1  0  0  0  0
 11 12  1  0  0  0  0
 11 13  1  0  0  0  0
 11 14  1  0  0  0  0
 14 15  2  0  0  0  0
 14 24  1  0  0  0  0
 15 16  1  0  0  0  0
 15 17  1  0  0  0  0
 17 18  1  0  0  0  0
 17 19  2  0  0  0  0
 19 20  1  0  0  0  0
 19 22  1  0  0  0  0
 20 21  1  0  0  0  0
 22 23  1  0  0  0  0
 22 24  2  0  0  0  0
 24 25  1  0  0  0  0
 26 27  2  0  0  0  0
 26 28  1  0  0  0  0
 28 29  1  0  0  0  0
 28 30  1  0  0  0  0
 30 31  1  0  0  0  0
 30 32  1  0  0  0  0
 30 33  1  0  0  0  0
M  END
$$$$

  -OEChem-03222214083D

 33 33  0     1  0  0  0  0  0999 V2000
   -3.3128   -4.5359    0.7728 H   0  0  0  0  0  0  0  0  0  0  0  0
   -3.2446   -3.6441    0.1430 C   0  0  0  0  0  0  0  0  0  0  0  0
   -4.1028   -3.0007    0.3512 H   0  0  0  0  0  0  0  0  0  0  0  0
   -3.2729   -3.9532   -0.9048 H   0  0  0  0  0  0  0  0  0  0  0  0
   -1.9540   -2.8997    0.4310 C   0  0  0  0  0  0  0  0  0  0  0  0
   -1.2119   -3.2971    1.3098 O   0  0  0  0  0  0  0  0  0  0  0  0
   -1.6322   -1.7780   -0.3093 N   0  0  0  0  0  0  0  0  0  0  0  0
   -2.2490   -1.5554   -1.0846 H   0  0  0  0  0  0  0  0  0  0  0  0
   -0.3537   -1.0460   -0.2020 C   0  0  1  0  0  0  0  0  0  0  0  0
    0.4690   -1.7300   -0.4370 H   0  0  0  0  0  0  0  0  0  0  0  0
   -0.3902    0.0764   -1.2563 C   0  0  0  0  0  0  0  0  0  0  0  0
   -0.5224   -0.3662   -2.2486 H   0  0  0  0  0  0  0  0  0  0  0  0
   -1.2553    0.7207   -1.0693 H   0  0  0  0  0  0  0  0  0  0  0  0
    0.8658    0.9153   -1.2640 C   0  0  0  0  0  0  0  0  0  0  0  0
    0.8702    2.2073   -0.7159 C   0  0  0  0  0  0  0  0  0  0  0  0
   -0.0299    2.6116   -0.2627 H   0  0  0  0  0  0  0  0  0  0  0  0
    2.0363    2.9816   -0.7351 C   0  0  0  0  0  0  0  0  0  0  0  0
    2.0238    3.9752   -0.3014 H   0  0  0  0  0  0  0  0  0  0  0  0
    3.2067    2.4745   -1.3037 C   0  0  0  0  0  0  0  0  0  0  0  0
    4.3494    3.2209   -1.3253 O   0  0  0  0  0  0  0  0  0  0  0  0
    4.2252    4.0296   -0.8055 H   0  0  0  0  0  0  0  0  0  0  0  0
    3.2085    1.1927   -1.8499 C   0  0  0  0  0  0  0  0  0  0  0  0
    4.1244    0.8038   -2.2825 H   0  0  0  0  0  0  0  0  0  0  0  0
    2.0469    0.4131   -1.8302 C   0  0  0  0  0  0  0  0  0  0  0  0
    2.0704   -0.5868   -2.2526 H   0  0  0  0  0  0  0  0  0  0  0  0
   -0.0773   -0.4773    1.2104 C   0  0  0  0  0  0  0  0  0  0  0  0
    1.0541   -0.4915    1.6767 O   0  0  0  0  0  0  0  0  0  0  0  0
   -1.0843    0.1729    1.9030 N   0  0  0  0  0  0  0  0  0  0  0  0
   -2.0260    0.0396    1.5512 H   0  0  0  0  0  0  0  0  0  0  0  0
   -0.9069    0.6683    3.2622 C   0  0  0  0  0  0  0  0  0  0  0  0
   -0.0858    1.3918    3.3022 H   0  0  0  0  0  0  0  0  0  0  0  0
   -1.8193    1.1634    3.6075 H   0  0  0  0  0  0  0  0  0  0  0  0
   -0.6802   -0.1590    3.9430 H   0  0  0  0  0  0  0  0  0  0  0  0
  1  2  1  0  0  0  0
  2  3  1  0  0  0  0
  2  4  1  0  0  0  0
  2  5  1  0  0  0  0
  5  6  2  0  0  0  0
  5  7  1  0  0  0  0
  7  8  1  0  0  0  0
  7  9  1  0  0  0  0
  9 10  1  0  0  0  0
  9 11  1  0  0  0  0
  9 26  1  0  0  0  0
 11 12  1  0  0  0  0
 11 13  1  0  0  0  0
 11 14  1  0  0  0  0
 14 15  2  0  0  0  0
 14 24  1  0  0  0  0
 15 16  1  0  0  0  0
 15 17  1  0  0  0  0
 17 18  1  0  0  0  0
 17 19  2  0  0  0  0
 19 20  1  0  0  0  0
 19 22  1  0  0  0  0
 20 21  1  0  0  0  0
 22 23  1  0  0  0  0
 22 24  2  0  0  0  0
 24 25  1  0  0  0  0
 26 27  2  0  0  0  0
 26 28  1  0  0  0  0
 28 29  1  0  0  0  0
 28 30  1  0  0  0  0
 30 31  1  0  0  0  0
 30 32  1  0  0  0  0
 30 33  1  0  0  0  0
M  END
$$$$

  -OEChem-03222214083D

 33 33  0     1  0  0  0  0  0999 V2000
   -3.3216   -4.5253    0.7693 H   0  0  0  0  0  0  0  0  0  0  0  0
   -3.2494   -3.6305    0.1442 C   0  0  0  0  0  0  0  0  0  0  0  0
   -4.1024   -2.9824    0.3585 H   0  0  0  0  0  0  0  0  0  0  0  0
   -3.2830   -3.9330   -0.9052 H   0  0  0  0  0  0  0  0  0  0  0  0
   -1.9534   -2.8954    0.4319 C   0  0  0  0  0  0  0  0  0  0  0  0
   -1.2144   -3.2975    1.3114 O   0  0  0  0  0  0  0  0  0  0  0  0
   -1.6272   -1.7725   -0.3048 N   0  0  0  0  0  0  0  0  0  0  0  0
   -2.2439   -1.5448   -1.0788 H   0  0  0  0  0  0  0  0  0  0  0  0
   -0.3464   -1.0445   -0.1955 C   0  0  1  0  0  0  0  0  0  0  0  0
    0.4765   -1.7288   -0.4299 H   0  0  0  0  0  0  0  0  0  0  0  0
   -0.3806    0.0734   -1.2566 C   0  0  0  0  0  0  0  0  0  0  0  0
   -0.5232   -0.3753   -2.2448 H   0  0  0  0  0  0  0  0  0  0  0  0
   -1.2416    0.7233   -1.0689 H   0  0  0  0  0  0  0  0  0  0  0  0
    0.8716    0.9190   -1.2779 C   0  0  0  0  0  0  0  0  0  0  0  0
    0.9787    2.0723   -0.4844 C   0  0  0  0  0  0  0  0  0  0  0  0
    0.1597    2.3656    0.1655 H   0  0  0  0  0  0  0  0  0  0  0  0
    2.1450    2.8459   -0.5103 C   0  0  0  0  0  0  0  0  0  0  0  0
    2.2119    3.7292    0.1149 H   0  0  0  0  0  0  0  0  0  0  0  0
    3.2144    2.4768   -1.3290 C   0  0  0  0  0  0  0  0  0  0  0  0
    4.3570    3.2231   -1.3591 O   0  0  0  0  0  0  0  0  0  0  0  0
    4.3225    3.9050   -0.6708 H   0  0  0  0  0  0  0  0  0  0  0  0
    3.1155    1.3323   -2.1175 C   0  0  0  0  0  0  0  0  0  0  0  0
    3.9546    1.0492   -2.7441 H   0  0  0  0  0  0  0  0  0  0  0  0
    1.9537    0.5531   -2.0923 C   0  0  0  0  0  0  0  0  0  0  0  0
    1.9008   -0.3411   -2.7059 H   0  0  0  0  0  0  0  0  0  0  0  0
   -0.0775   -0.4849    1.2219 C   0  0  0  0  0  0  0  0  0  0  0  0
    1.0513   -0.4980    1.6942 O   0  0  0  0  0  0  0  0  0  0  0  0
   -1.0884    0.1622    1.9119 N   0  0  0  0  0  0  0  0  0  0  0  0
   -2.0282    0.0244    1.5565 H   0  0  0  0  0  0  0  0  0  0  0  0
   -0.9209    0.6399    3.2786 C   0  0  0  0  0  0  0  0  0  0  0  0
   -0.0997    1.3623    3.3343 H   0  0  0  0  0  0  0  0  0  0  0  0
   -1.8355    1.1316    3.6231 H   0  0  0  0  0  0  0  0  0  0  0  0
   -0.6998   -0.1960    3.9510 H   0  0  0  0  0  0  0  0  0  0  0  0
  1  2  1  0  0  0  0
  2  3  1  0  0  0  0
  2  4  1  0  0  0  0
  2  5  1  0  0  0  0
  5  6  2  0  0  0  0
  5  7  1  0  0  0  0
  7  8  1  0  0  0  0
  7  9  1  0  0  0  0
  9 10  1  0  0  0  0
  9 11  1  0  0  0  0
  9 26  1  0  0  0  0
 11 12  1  0  0  0  0
 11 13  1  0  0  0  0
 11 14  1  0  0  0  0
 14 15  2  0  0  0  0
 14 24  1  0  0  0  0
 15 16  1  0  0  0  0
 15 17  1  0  0  0  0
 17 18  1  0  0  0  0
 17 19  2  0  0  0  0
 19 20  1  0  0  0  0
 19 22  1  0  0  0  0
 20 21  1  0  0  0  0
 22 23  1  0  0  0  0
 22 24  2  0  0  0  0
 24 25  1  0  0  0  0
 26 27  2  0  0  0  0
 26 28  1  0  0  0  0
 28 29  1  0  0  0  0
 28 30  1  0  0  0  0
 30 31  1  0  0  0  0
 30 32  1  0  0  0  0
 30 33  1  0  0  0  0
M  END
$$$$

  -OEChem-03222214083D

 33 33  0     1  0  0  0  0  0999 V2000
   -3.3536   -4.5048    0.7476 H   0  0  0  0  0  0  0  0  0  0  0  0
   -3.2601   -3.6138    0.1201 C   0  0  0  0  0  0  0  0  0  0  0  0
   -4.1099   -2.9557    0.3154 H   0  0  0  0  0  0  0  0  0  0  0  0
   -3.2771   -3.9205   -0.9285 H   0  0  0  0  0  0  0  0  0  0  0  0
   -1.9619   -2.8923    0.4302 C   0  0  0  0  0  0  0  0  0  0  0  0
   -1.2352   -3.3110    1.3121 O   0  0  0  0  0  0  0  0  0  0  0  0
   -1.6192   -1.7643   -0.2908 N   0  0  0  0  0  0  0  0  0  0  0  0
   -2.2258   -1.5247   -1.0692 H   0  0  0  0  0  0  0  0  0  0  0  0
   -0.3333   -1.0476   -0.1629 C   0  0  1  0  0  0  0  0  0  0  0  0
    0.4881   -1.7362   -0.3898 H   0  0  0  0  0  0  0  0  0  0  0  0
   -0.3506    0.0677   -1.2316 C   0  0  0  0  0  0  0  0  0  0  0  0
   -0.5009   -0.3914   -2.2140 H   0  0  0  0  0  0  0  0  0  0  0  0
   -1.2093    0.7215   -1.0475 H   0  0  0  0  0  0  0  0  0  0  0  0
    0.8924    0.9319   -1.2762 C   0  0  0  0  0  0  0  0  0  0  0  0
    1.1468    1.9160   -0.3059 C   0  0  0  0  0  0  0  0  0  0  0  0
    0.4454    2.0838    0.5058 H   0  0  0  0  0  0  0  0  0  0  0  0
    2.3111    2.6904   -0.3643 C   0  0  0  0  0  0  0  0  0  0  0  0
    2.4908    3.4375    0.4007 H   0  0  0  0  0  0  0  0  0  0  0  0
    3.2335    2.4958   -1.3931 C   0  0  0  0  0  0  0  0  0  0  0  0
    4.3732    3.2440   -1.4552 O   0  0  0  0  0  0  0  0  0  0  0  0
    4.4535    3.7870   -0.6559 H   0  0  0  0  0  0  0  0  0  0  0  0
    2.9899    1.5241   -2.3607 C   0  0  0  0  0  0  0  0  0  0  0  0
    3.7151    1.3758   -3.1538 H   0  0  0  0  0  0  0  0  0  0  0  0
    1.8308    0.7429   -2.3035 C   0  0  0  0  0  0  0  0  0  0  0  0
    1.6691   -0.0157   -3.0633 H   0  0  0  0  0  0  0  0  0  0  0  0
   -0.0887   -0.5124    1.2681 C   0  0  0  0  0  0  0  0  0  0  0  0
    1.0311   -0.5332    1.7617 O   0  0  0  0  0  0  0  0  0  0  0  0
   -1.1103    0.1285    1.9482 N   0  0  0  0  0  0  0  0  0  0  0  0
   -2.0436   -0.0025    1.5733 H   0  0  0  0  0  0  0  0  0  0  0  0
   -0.9697    0.5868    3.3246 C   0  0  0  0  0  0  0  0  0  0  0  0
   -0.1499    1.3082    3.4068 H   0  0  0  0  0  0  0  0  0  0  0  0
   -1.8910    1.0740    3.6575 H   0  0  0  0  0  0  0  0  0  0  0  0
   -0.7627   -0.2589    3.9891 H   0  0  0  0  0  0  0  0  0  0  0  0
  1  2  1  0  0  0  0
  2  3  1  0  0  0  0
  2  4  1  0  0  0  0
  2  5  1  0  0  0  0
  5  6  2  0  0  0  0
  5  7  1  0  0  0  0
  7  8  1  0  0  0  0
  7  9  1  0  0  0  0
  9 10  1  0  0  0  0
  9 11  1  0  0  0  0
  9 26  1  0  0  0  0
 11 12  1  0  0  0  0
 11 13  1  0  0  0  0
 11 14  1  0  0  0  0
 14 15  2  0  0  0  0
 14 24  1  0  0  0  0
 15 16  1  0  0  0  0
 15 17  1  0  0  0  0
 17 18  1  0  0  0  0
 17 19  2  0  0  0  0
 19 20  1  0  0  0  0
 19 22  1  0  0  0  0
 20 21  1  0  0  0  0
 22 23  1  0  0  0  0
 22 24  2  0  0  0  0
 24 25  1  0  0  0  0
 26 27  2  0  0  0  0
 26 28  1  0  0  0  0
 28 29  1  0  0  0  0
 28 30  1  0  0  0  0
 30 31  1  0  0  0  0
 30 32  1  0  0  0  0
 30 33  1  0  0  0  0
M  END
$$$$

  -OEChem-03222214083D

 33 33  0     1  0  0  0  0  0999 V2000
   -3.3998   -4.4861    0.6889 H   0  0  0  0  0  0  0  0  0  0  0  0
   -3.2812   -3.5865    0.0779 C   0  0  0  0  0  0  0  0  0  0  0  0
   -4.1241   -2.9180    0.2691 H   0  0  0  0  0  0  0  0  0  0  0  0
   -3.2842   -3.8760   -0.9756 H   0  0  0  0  0  0  0  0  0  0  0  0
   -1.9774   -2.8908    0.4216 C   0  0  0  0  0  0  0  0  0  0  0  0
   -1.2703   -3.3382    1.3052 O   0  0  0  0  0  0  0  0  0  0  0  0
   -1.6048   -1.7568   -0.2756 N   0  0  0  0  0  0  0  0  0  0  0  0
   -2.1977   -1.4915   -1.0563 H   0  0  0  0  0  0  0  0  0  0  0  0
   -0.3132   -1.0567   -0.1119 C   0  0  1  0  0  0  0  0  0  0  0  0
    0.5062   -1.7525   -0.3239 H   0  0  0  0  0  0  0  0  0  0  0  0
   -0.3016    0.0564   -1.1884 C   0  0  0  0  0  0  0  0  0  0  0  0
   -0.4513   -0.4175   -2.1637 H   0  0  0  0  0  0  0  0  0  0  0  0
   -1.1625    0.7099   -1.0151 H   0  0  0  0  0  0  0  0  0  0  0  0
    0.9272    0.9486   -1.2597 C   0  0  0  0  0  0  0  0  0  0  0  0
    1.3619    1.7526   -0.1898 C   0  0  0  0  0  0  0  0  0  0  0  0
    0.8071    1.7991    0.7410 H   0  0  0  0  0  0  0  0  0  0  0  0
    2.5189    2.5319   -0.3017 C   0  0  0  0  0  0  0  0  0  0  0  0
    2.8328    3.1370    0.5416 H   0  0  0  0  0  0  0  0  0  0  0  0
    3.2599    2.5266   -1.4832 C   0  0  0  0  0  0  0  0  0  0  0  0
    4.3912    3.2814   -1.5991 O   0  0  0  0  0  0  0  0  0  0  0  0
    4.6002    3.6943   -0.7469 H   0  0  0  0  0  0  0  0  0  0  0  0
    2.8394    1.7408   -2.5522 C   0  0  0  0  0  0  0  0  0  0  0  0
    3.4216    1.7391   -3.4678 H   0  0  0  0  0  0  0  0  0  0  0  0
    1.6870    0.9555   -2.4427 C   0  0  0  0  0  0  0  0  0  0  0  0
    1.3920    0.3439   -3.2900 H   0  0  0  0  0  0  0  0  0  0  0  0
   -0.1073   -0.5505    1.3347 C   0  0  0  0  0  0  0  0  0  0  0  0
    0.9933   -0.6069    1.8674 O   0  0  0  0  0  0  0  0  0  0  0  0
   -1.1421    0.0876    1.9971 N   0  0  0  0  0  0  0  0  0  0  0  0
   -2.0628   -0.0098    1.5829 H   0  0  0  0  0  0  0  0  0  0  0  0
   -1.0440    0.5073    3.3893 C   0  0  0  0  0  0  0  0  0  0  0  0
   -0.2212    1.2183    3.5190 H   0  0  0  0  0  0  0  0  0  0  0  0
   -1.9720    0.9939    3.7042 H   0  0  0  0  0  0  0  0  0  0  0  0
   -0.8672   -0.3578    4.0372 H   0  0  0  0  0  0  0  0  0  0  0  0
  1  2  1  0  0  0  0
  2  3  1  0  0  0  0
  2  4  1  0  0  0  0
  2  5  1  0  0  0  0
  5  6  2  0  0  0  0
  5  7  1  0  0  0  0
  7  8  1  0  0  0  0
  7  9  1  0  0  0  0
  9 10  1  0  0  0  0
  9 11  1  0  0  0  0
  9 26  1  0  0  0  0
 11 12  1  0  0  0  0
 11 13  1  0  0  0  0
 11 14  1  0  0  0  0
 14 15  2  0  0  0  0
 14 24  1  0  0  0  0
 15 16  1  0  0  0  0
 15 17  1  0  0  0  0
 17 18  1  0  0  0  0
 17 19  2  0  0  0  0
 19 20  1  0  0  0  0
 19 22  1  0  0  0  0
 20 21  1  0  0  0  0
 22 23  1  0  0  0  0
 22 24  2  0  0  0  0
 24 25  1  0  0  0  0
 26 27  2  0  0  0  0
 26 28  1  0  0  0  0
 28 29  1  0  0  0  0
 28 30  1  0  0  0  0
 30 31  1  0  0  0  0
 30 32  1  0  0  0  0
 30 33  1  0  0  0  0
M  END
$$$$

  -OEChem-03222214083D

 33 33  0     1  0  0  0  0  0999 V2000
   -3.4614   -4.4500    0.6293 H   0  0  0  0  0  0  0  0  0  0  0  0
   -3.3117   -3.5444    0.0341 C   0  0  0  0  0  0  0  0  0  0  0  0
   -4.1426   -2.8600    0.2206 H   0  0  0  0  0  0  0  0  0  0  0  0
   -3.3027   -3.8181   -1.0237 H   0  0  0  0  0  0  0  0  0  0  0  0
   -1.9989   -2.8839    0.4121 C   0  0  0  0  0  0  0  0  0  0  0  0
   -1.3208   -3.3603    1.3034 O   0  0  0  0  0  0  0  0  0  0  0  0
   -1.5850   -1.7515   -0.2644 N   0  0  0  0  0  0  0  0  0  0  0  0
   -2.1556   -1.4633   -1.0534 H   0  0  0  0  0  0  0  0  0  0  0  0
   -0.2852   -1.0763   -0.0583 C   0  0  1  0  0  0  0  0  0  0  0  0
    0.5305   -1.7819   -0.2520 H   0  0  0  0  0  0  0  0  0  0  0  0
   -0.2389    0.0385   -1.1358 C   0  0  0  0  0  0  0  0  0  0  0  0
   -0.3774   -0.4482   -2.1067 H   0  0  0  0  0  0  0  0  0  0  0  0
   -1.1032    0.6919   -0.9786 H   0  0  0  0  0  0  0  0  0  0  0  0
    0.9790    0.9519   -1.2294 C   0  0  0  0  0  0  0  0  0  0  0  0
    1.6156    1.5620   -0.1307 C   0  0  0  0  0  0  0  0  0  0  0  0
    1.2401    1.4667    0.8797 H   0  0  0  0  0  0  0  0  0  0  0  0
    2.7544    2.3567   -0.3070 C   0  0  0  0  0  0  0  0  0  0  0  0
    3.2212    2.8102    0.5606 H   0  0  0  0  0  0  0  0  0  0  0  0
    3.2804    2.5644   -1.5808 C   0  0  0  0  0  0  0  0  0  0  0  0
    4.3923    3.3356   -1.7594 O   0  0  0  0  0  0  0  0  0  0  0  0
    4.7390    3.6181   -0.8989 H   0  0  0  0  0  0  0  0  0  0  0  0
    2.6599    1.9789   -2.6787 C   0  0  0  0  0  0  0  0  0  0  0  0
    3.0728    2.1445   -3.6683 H   0  0  0  0  0  0  0  0  0  0  0  0
    1.5242    1.1809   -2.5068 C   0  0  0  0  0  0  0  0  0  0  0  0
    1.0727    0.7331   -3.3869 H   0  0  0  0  0  0  0  0  0  0  0  0
   -0.1261   -0.5911    1.4013 C   0  0  0  0  0  0  0  0  0  0  0  0
    0.9383   -0.7248    1.9915 O   0  0  0  0  0  0  0  0  0  0  0  0
   -1.1715    0.0568    2.0365 N   0  0  0  0  0  0  0  0  0  0  0  0
   -2.0713    0.0184    1.5700 H   0  0  0  0  0  0  0  0  0  0  0  0
   -1.1299    0.4248    3.4463 C   0  0  0  0  0  0  0  0  0  0  0  0
   -0.2934    1.1040    3.6413 H   0  0  0  0  0  0  0  0  0  0  0  0
   -2.0573    0.9297    3.7327 H   0  0  0  0  0  0  0  0  0  0  0  0
   -1.0119   -0.4671    4.0707 H   0  0  0  0  0  0  0  0  0  0  0  0
  1  2  1  0  0  0  0
  2  3  1  0  0  0  0
  2  4  1  0  0  0  0
  2  5  1  0  0  0  0
  5  6  2  0  0  0  0
  5  7  1  0  0  0  0
  7  8  1  0  0  0  0
  7  9  1  0  0  0  0
  9 10  1  0  0  0  0
  9 11  1  0  0  0  0
  9 26  1  0  0  0  0
 11 12  1  0  0  0  0
 11 13  1  0  0  0  0
 11 14  1  0  0  0  0
 14 15  2  0  0  0  0
 14 24  1  0  0  0  0
 15 16  1  0  0  0  0
 15 17  1  0  0  0  0
 17 18  1  0  0  0  0
 17 19  2  0  0  0  0
 19 20  1  0  0  0  0
 19 22  1  0  0  0  0
 20 21  1  0  0  0  0
 22 23  1  0  0  0  0
 22 24  2  0  0  0  0
 24 25  1  0  0  0  0
 26 27  2  0  0  0  0
 26 28  1  0  0  0  0
 28 29  1  0  0  0  0
 28 30  1  0  0  0  0
 30 31  1  0  0  0  0
 30 32  1  0  0  0  0
 30 33  1  0  0  0  0
M  END
$$$$

  -OEChem-03222214083D

 33 33  0     1  0  0  0  0  0999 V2000
   -3.5568   -4.3751    0.6070 H   0  0  0  0  0  0  0  0  0  0  0  0
   -3.3590   -3.4771    0.0145 C   0  0  0  0  0  0  0  0  0  0  0  0
   -4.1637   -2.7584    0.1867 H   0  0  0  0  0  0  0  0  0  0  0  0
   -3.3427   -3.7519   -1.0429 H   0  0  0  0  0  0  0  0  0  0  0  0
   -2.0262   -2.8720    0.4143 C   0  0  0  0  0  0  0  0  0  0  0  0
   -1.3798   -3.3802    1.3113 O   0  0  0  0  0  0  0  0  0  0  0  0
   -1.5567   -1.7576   -0.2559 N   0  0  0  0  0  0  0  0  0  0  0  0
   -2.1071   -1.4437   -1.0493 H   0  0  0  0  0  0  0  0  0  0  0  0
   -0.2435   -1.1184   -0.0184 C   0  0  1  0  0  0  0  0  0  0  0  0
    0.5637   -1.8385   -0.1927 H   0  0  0  0  0  0  0  0  0  0  0  0
   -0.1663   -0.0002   -1.0914 C   0  0  0  0  0  0  0  0  0  0  0  0
   -0.2964   -0.4914   -2.0615 H   0  0  0  0  0  0  0  0  0  0  0  0
   -1.0283    0.6588   -0.9447 H   0  0  0  0  0  0  0  0  0  0  0  0
    1.0512    0.9138   -1.2038 C   0  0  0  0  0  0  0  0  0  0  0  0
    1.8957    1.3060   -0.1459 C   0  0  0  0  0  0  0  0  0  0  0  0
    1.7370    0.9966    0.8759 H   0  0  0  0  0  0  0  0  0  0  0  0
    2.9932    2.1456   -0.3716 C   0  0  0  0  0  0  0  0  0  0  0  0
    3.6237    2.4258    0.4655 H   0  0  0  0  0  0  0  0  0  0  0  0
    3.2712    2.6171   -1.6530 C   0  0  0  0  0  0  0  0  0  0  0  0
    4.3408    3.4340   -1.8793 O   0  0  0  0  0  0  0  0  0  0  0  0
    4.8394    3.5592   -1.0570 H   0  0  0  0  0  0  0  0  0  0  0  0
    2.4447    2.2491   -2.7085 C   0  0  0  0  0  0  0  0  0  0  0  0
    2.6638    2.6195   -3.7045 H   0  0  0  0  0  0  0  0  0  0  0  0
    1.3489    1.4093   -2.4874 C   0  0  0  0  0  0  0  0  0  0  0  0
    0.7268    1.1410   -3.3360 H   0  0  0  0  0  0  0  0  0  0  0  0
   -0.1274   -0.6319    1.4462 C   0  0  0  0  0  0  0  0  0  0  0  0
    0.8817   -0.8572    2.1025 O   0  0  0  0  0  0  0  0  0  0  0  0
   -1.1779    0.0460    2.0403 N   0  0  0  0  0  0  0  0  0  0  0  0
   -2.0481    0.0708    1.5202 H   0  0  0  0  0  0  0  0  0  0  0  0
   -1.2011    0.3739    3.4602 C   0  0  0  0  0  0  0  0  0  0  0  0
   -0.3439    1.0030    3.7224 H   0  0  0  0  0  0  0  0  0  0  0  0
   -2.1167    0.9191    3.7084 H   0  0  0  0  0  0  0  0  0  0  0  0
   -1.1657   -0.5398    4.0635 H   0  0  0  0  0  0  0  0  0  0  0  0
  1  2  1  0  0  0  0
  2  3  1  0  0  0  0
  2  4  1  0  0  0  0
  2  5  1  0  0  0  0
  5  6  2  0  0  0  0
  5  7  1  0  0  0  0
  7  8  1  0  0  0  0
  7  9  1  0  0  0  0
  9 10  1  0  0  0  0
  9 11  1  0  0  0  0
  9 26  1  0  0  0  0
 11 12  1  0  0  0  0
 11 13  1  0  0  0  0
 11 14  1  0  0  0  0
 14 15  2  0  0  0  0
 14 24  1  0  0  0  0
 15 16  1  0  0  0  0
 15 17  1  0  0  0  0
 17 18  1  0  0  0  0
 17 19  2  0  0  0  0
 19 20  1  0  0  0  0
 19 22  1  0  0  0  0
 20 21  1  0  0  0  0
 22 23  1  0  0  0  0
 22 24  2  0  0  0  0
 24 25  1  0  0  0  0
 26 27  2  0  0  0  0
 26 28  1  0  0  0  0
 28 29  1  0  0  0  0
 28 30  1  0  0  0  0
 30 31  1  0  0  0  0
 30 32  1  0  0  0  0
 30 33  1  0  0  0  0
M  END
$$$$

  -OEChem-03222214083D

 33 33  0     1  0  0  0  0  0999 V2000
   -3.6219   -4.3150    0.6589 H   0  0  0  0  0  0  0  0  0  0  0  0
   -3.4037   -3.4305    0.0535 C   0  0  0  0  0  0  0  0  0  0  0  0
   -4.1802   -2.6828    0.2312 H   0  0  0  0  0  0  0  0  0  0  0  0
   -3.4147   -3.7166   -1.0009 H   0  0  0  0  0  0  0  0  0  0  0  0
   -2.0451   -2.8666    0.4260 C   0  0  0  0  0  0  0  0  0  0  0  0
   -1.4006   -3.3890    1.3160 O   0  0  0  0  0  0  0  0  0  0  0  0
   -1.5503   -1.7742   -0.2624 N   0  0  0  0  0  0  0  0  0  0  0  0
   -2.1023   -1.4496   -1.0503 H   0  0  0  0  0  0  0  0  0  0  0  0
   -0.2227   -1.1611   -0.0371 C   0  0  1  0  0  0  0  0  0  0  0  0
    0.5750   -1.8909   -0.2143 H   0  0  0  0  0  0  0  0  0  0  0  0
   -0.1457   -0.0331   -1.0977 C   0  0  0  0  0  0  0  0  0  0  0  0
   -0.2898   -0.5078   -2.0743 H   0  0  0  0  0  0  0  0  0  0  0  0
   -0.9970    0.6356   -0.9324 H   0  0  0  0  0  0  0  0  0  0  0  0
    1.0825    0.8602   -1.2213 C   0  0  0  0  0  0  0  0  0  0  0  0
    2.1136    0.9920   -0.2712 C   0  0  0  0  0  0  0  0  0  0  0  0
    2.1446    0.4132    0.6393 H   0  0  0  0  0  0  0  0  0  0  0  0
    3.1794    1.8747   -0.4825 C   0  0  0  0  0  0  0  0  0  0  0  0
    3.9598    1.9476    0.2673 H   0  0  0  0  0  0  0  0  0  0  0  0
    3.2393    2.6462   -1.6413 C   0  0  0  0  0  0  0  0  0  0  0  0
    4.2760    3.5081   -1.8522 O   0  0  0  0  0  0  0  0  0  0  0  0
    4.8994    3.4606   -1.1108 H   0  0  0  0  0  0  0  0  0  0  0  0
    2.2289    2.5315   -2.5898 C   0  0  0  0  0  0  0  0  0  0  0  0
    2.2795    3.1348   -3.4902 H   0  0  0  0  0  0  0  0  0  0  0  0
    1.1625    1.6510   -2.3820 C   0  0  0  0  0  0  0  0  0  0  0  0
    0.3862    1.5878   -3.1387 H   0  0  0  0  0  0  0  0  0  0  0  0
   -0.1042   -0.6558    1.4244 C   0  0  0  0  0  0  0  0  0  0  0  0
    0.8780   -0.9206    2.1058 O   0  0  0  0  0  0  0  0  0  0  0  0
   -1.1446    0.0521    2.0018 N   0  0  0  0  0  0  0  0  0  0  0  0
   -2.0030    0.1120    1.4656 H   0  0  0  0  0  0  0  0  0  0  0  0
   -1.1764    0.3991    3.4172 C   0  0  0  0  0  0  0  0  0  0  0  0
   -0.3116    1.0172    3.6800 H   0  0  0  0  0  0  0  0  0  0  0  0
   -2.0851    0.9629    3.6485 H   0  0  0  0  0  0  0  0  0  0  0  0
   -1.1628   -0.5067    4.0327 H   0  0  0  0  0  0  0  0  0  0  0  0
  1  2  1  0  0  0  0
  2  3  1  0  0  0  0
  2  4  1  0  0  0  0
  2  5  1  0  0  0  0
  5  6  2  0  0  0  0
  5  7  1  0  0  0  0
  7  8  1  0  0  0  0
  7  9  1  0  0  0  0
  9 10  1  0  0  0  0
  9 11  1  0  0  0  0
  9 26  1  0  0  0  0
 11 12  1  0  0  0  0
 11 13  1  0  0  0  0
 11 14  1  0  0  0  0
 14 15  2  0  0  0  0
 14 24  1  0  0  0  0
 15 16  1  0  0  0  0
 15 17  1  0  0  0  0
 17 18  1  0  0  0  0
 17 19  2  0  0  0  0
 19 20  1  0  0  0  0
 19 22  1  0  0  0  0
 20 21  1  0  0  0  0
 22 23  1  0  0  0  0
 22 24  2  0  0  0  0
 24 25  1  0  0  0  0
 26 27  2  0  0  0  0
 26 28  1  0  0  0  0
 28 29  1  0  0  0  0
 28 30  1  0  0  0  0
 30 31  1  0  0  0  0
 30 32  1  0  0  0  0
 30 33  1  0  0  0  0
M  END
$$$$

  -OEChem-03222214083D

 33 33  0     1  0  0  0  0  0999 V2000
   -3.5973   -4.3330    0.7371 H   0  0  0  0  0  0  0  0  0  0  0  0
   -3.4008   -3.4600    0.1078 C   0  0  0  0  0  0  0  0  0  0  0  0
   -4.1828   -2.7177    0.2834 H   0  0  0  0  0  0  0  0  0  0  0  0
   -3.4286   -3.7699   -0.9397 H   0  0  0  0  0  0  0  0  0  0  0  0
   -2.0422   -2.8723    0.4407 C   0  0  0  0  0  0  0  0  0  0  0  0
   -1.3702   -3.3730    1.3230 O   0  0  0  0  0  0  0  0  0  0  0  0
   -1.5745   -1.7871   -0.2770 N   0  0  0  0  0  0  0  0  0  0  0  0
   -2.1481   -1.4784   -1.0561 H   0  0  0  0  0  0  0  0  0  0  0  0
   -0.2462   -1.1632   -0.0932 C   0  0  1  0  0  0  0  0  0  0  0  0
    0.5487   -1.8916   -0.2870 H   0  0  0  0  0  0  0  0  0  0  0  0
   -0.1939   -0.0297   -1.1460 C   0  0  0  0  0  0  0  0  0  0  0  0
   -0.3509   -0.4878   -2.1282 H   0  0  0  0  0  0  0  0  0  0  0  0
   -1.0400    0.6399   -0.9587 H   0  0  0  0  0  0  0  0  0  0  0  0
    1.0461    0.8431   -1.2631 C   0  0  0  0  0  0  0  0  0  0  0  0
    2.2064    0.7148   -0.4763 C   0  0  0  0  0  0  0  0  0  0  0  0
    2.3265   -0.0857    0.2423 H   0  0  0  0  0  0  0  0  0  0  0  0
    3.2793    1.6005   -0.6293 C   0  0  0  0  0  0  0  0  0  0  0  0
    4.1609    1.4722   -0.0106 H   0  0  0  0  0  0  0  0  0  0  0  0
    3.2171    2.6291   -1.5683 C   0  0  0  0  0  0  0  0  0  0  0  0
    4.2600    3.4959   -1.7219 O   0  0  0  0  0  0  0  0  0  0  0  0
    4.9649    3.2770   -1.0927 H   0  0  0  0  0  0  0  0  0  0  0  0
    2.0795    2.7665   -2.3575 C   0  0  0  0  0  0  0  0  0  0  0  0
    2.0372    3.5678   -3.0879 H   0  0  0  0  0  0  0  0  0  0  0  0
    1.0044    1.8846   -2.2061 C   0  0  0  0  0  0  0  0  0  0  0  0
    0.1253    2.0197   -2.8291 H   0  0  0  0  0  0  0  0  0  0  0  0
   -0.0853   -0.6322    1.3568 C   0  0  0  0  0  0  0  0  0  0  0  0
    0.9284   -0.8559    2.0058 O   0  0  0  0  0  0  0  0  0  0  0  0
   -1.1119    0.0808    1.9524 N   0  0  0  0  0  0  0  0  0  0  0  0
   -1.9879    0.1257    1.4442 H   0  0  0  0  0  0  0  0  0  0  0  0
   -1.0898    0.4822    3.3534 C   0  0  0  0  0  0  0  0  0  0  0  0
   -0.2240    1.1216    3.5552 H   0  0  0  0  0  0  0  0  0  0  0  0
   -1.9965    1.0422    3.6016 H   0  0  0  0  0  0  0  0  0  0  0  0
   -1.0363   -0.3987    4.0020 H   0  0  0  0  0  0  0  0  0  0  0  0
  1  2  1  0  0  0  0
  2  3  1  0  0  0  0
  2  4  1  0  0  0  0
  2  5  1  0  0  0  0
  5  6  2  0  0  0  0
  5  7  1  0  0  0  0
  7  8  1  0  0  0  0
  7  9  1  0  0  0  0
  9 10  1  0  0  0  0
  9 11  1  0  0  0  0
  9 26  1  0  0  0  0
 11 12  1  0  0  0  0
 11 13  1  0  0  0  0
 11 14  1  0  0  0  0
 14 15  2  0  0  0  0
 14 24  1  0  0  0  0
 15 16  1  0  0  0  0
 15 17  1  0  0  0  0
 17 18  1  0  0  0  0
 17 19  2  0  0  0  0
 19 20  1  0  0  0  0
 19 22  1  0  0  0  0
 20 21  1  0  0  0  0
 22 23  1  0  0  0  0
 22 24  2  0  0  0  0
 24 25  1  0  0  0  0
 26 27  2  0  0  0  0
 26 28  1  0  0  0  0
 28 29  1  0  0  0  0
 28 30  1  0  0  0  0
 30 31  1  0  0  0  0
 30 32  1  0  0  0  0
 30 33  1  0  0  0  0
M  END
$$$$

  -OEChem-03222214083D

 33 33  0     1  0  0  0  0  0999 V2000
   -3.5246   -4.4005    0.7614 H   0  0  0  0  0  0  0  0  0  0  0  0
   -3.3697   -3.5221    0.1283 C   0  0  0  0  0  0  0  0  0  0  0  0
   -4.1721   -2.8057    0.3198 H   0  0  0  0  0  0  0  0  0  0  0  0
   -3.4085   -3.8338   -0.9183 H   0  0  0  0  0  0  0  0  0  0  0  0
   -2.0244   -2.8903    0.4338 C   0  0  0  0  0  0  0  0  0  0  0  0
   -1.3207   -3.3627    1.3070 O   0  0  0  0  0  0  0  0  0  0  0  0
   -1.6048   -1.7927   -0.2938 N   0  0  0  0  0  0  0  0  0  0  0  0
   -2.1989   -1.5057   -1.0657 H   0  0  0  0  0  0  0  0  0  0  0  0
   -0.2904   -1.1353   -0.1387 C   0  0  1  0  0  0  0  0  0  0  0  0
    0.5064   -1.8565   -0.3497 H   0  0  0  0  0  0  0  0  0  0  0  0
   -0.2637   -0.0048   -1.1919 C   0  0  0  0  0  0  0  0  0  0  0  0
   -0.4147   -0.4577   -2.1772 H   0  0  0  0  0  0  0  0  0  0  0  0
   -1.1164    0.6552   -1.0005 H   0  0  0  0  0  0  0  0  0  0  0  0
    0.9798    0.8628   -1.2841 C   0  0  0  0  0  0  0  0  0  0  0  0
    2.2171    0.5300   -0.7015 C   0  0  0  0  0  0  0  0  0  0  0  0
    2.3588   -0.4029   -0.1658 H   0  0  0  0  0  0  0  0  0  0  0  0
    3.3143    1.3918   -0.8103 C   0  0  0  0  0  0  0  0  0  0  0  0
    4.2533    1.1109   -0.3459 H   0  0  0  0  0  0  0  0  0  0  0  0
    3.1993    2.5946   -1.5066 C   0  0  0  0  0  0  0  0  0  0  0  0
    4.2649    3.4400   -1.6161 O   0  0  0  0  0  0  0  0  0  0  0  0
    5.0183    3.0846   -1.1195 H   0  0  0  0  0  0  0  0  0  0  0  0
    1.9842    2.9318   -2.0958 C   0  0  0  0  0  0  0  0  0  0  0  0
    1.9029    3.8685   -2.6373 H   0  0  0  0  0  0  0  0  0  0  0  0
    0.8834    2.0756   -1.9861 C   0  0  0  0  0  0  0  0  0  0  0  0
   -0.0547    2.3642   -2.4506 H   0  0  0  0  0  0  0  0  0  0  0  0
   -0.0761   -0.5897    1.2971 C   0  0  0  0  0  0  0  0  0  0  0  0
    0.9931   -0.7412    1.8743 O   0  0  0  0  0  0  0  0  0  0  0  0
   -1.0881    0.1078    1.9336 N   0  0  0  0  0  0  0  0  0  0  0  0
   -1.9969    0.1012    1.4843 H   0  0  0  0  0  0  0  0  0  0  0  0
   -0.9876    0.5613    3.3147 C   0  0  0  0  0  0  0  0  0  0  0  0
   -0.1345    1.2375    3.4349 H   0  0  0  0  0  0  0  0  0  0  0  0
   -1.8958    1.0979    3.6046 H   0  0  0  0  0  0  0  0  0  0  0  0
   -0.8578   -0.2927    3.9877 H   0  0  0  0  0  0  0  0  0  0  0  0
  1  2  1  0  0  0  0
  2  3  1  0  0  0  0
  2  4  1  0  0  0  0
  2  5  1  0  0  0  0
  5  6  2  0  0  0  0
  5  7  1  0  0  0  0
  7  8  1  0  0  0  0
  7  9  1  0  0  0  0
  9 10  1  0  0  0  0
  9 11  1  0  0  0  0
  9 26  1  0  0  0  0
 11 12  1  0  0  0  0
 11 13  1  0  0  0  0
 11 14  1  0  0  0  0
 14 15  2  0  0  0  0
 14 24  1  0  0  0  0
 15 16  1  0  0  0  0
 15 17  1  0  0  0  0
 17 18  1  0  0  0  0
 17 19  2  0  0  0  0
 19 20  1  0  0  0  0
 19 22  1  0  0  0  0
 20 21  1  0  0  0  0
 22 23  1  0  0  0  0
 22 24  2  0  0  0  0
 24 25  1  0  0  0  0
 26 27  2  0  0  0  0
 26 28  1  0  0  0  0
 28 29  1  0  0  0  0
 28 30  1  0  0  0  0
 30 31  1  0  0  0  0
 30 32  1  0  0  0  0
 30 33  1  0  0  0  0
M  END
$$$$

  -OEChem-03222214083D

 33 33  0     1  0  0  0  0  0999 V2000
   -3.4465   -4.4663    0.7683 H   0  0  0  0  0  0  0  0  0  0  0  0
   -3.3311   -3.5821    0.1349 C   0  0  0  0  0  0  0  0  0  0  0  0
   -4.1528   -2.8924    0.3415 H   0  0  0  0  0  0  0  0  0  0  0  0
   -3.3775   -3.8928   -0.9115 H   0  0  0  0  0  0  0  0  0  0  0  0
   -2.0022   -2.9073    0.4192 C   0  0  0  0  0  0  0  0  0  0  0  0
   -1.2685   -3.3569    1.2799 O   0  0  0  0  0  0  0  0  0  0  0  0
   -1.6324   -1.7924   -0.3086 N   0  0  0  0  0  0  0  0  0  0  0  0
   -2.2480   -1.5199   -1.0687 H   0  0  0  0  0  0  0  0  0  0  0  0
   -0.3346   -1.1008   -0.1735 C   0  0  1  0  0  0  0  0  0  0  0  0
    0.4631   -1.8163   -0.3981 H   0  0  0  0  0  0  0  0  0  0  0  0
   -0.3257    0.0249   -1.2295 C   0  0  0  0  0  0  0  0  0  0  0  0
   -0.4636   -0.4255   -2.2176 H   0  0  0  0  0  0  0  0  0  0  0  0
   -1.1869    0.6746   -1.0413 H   0  0  0  0  0  0  0  0  0  0  0  0
    0.9204    0.8890   -1.2904 C   0  0  0  0  0  0  0  0  0  0  0  0
    2.2000    0.4104   -0.9534 C   0  0  0  0  0  0  0  0  0  0  0  0
    2.3462   -0.6104   -0.6134 H   0  0  0  0  0  0  0  0  0  0  0  0
    3.3187    1.2472   -1.0334 C   0  0  0  0  0  0  0  0  0  0  0  0
    4.2914    0.8566   -0.7553 H   0  0  0  0  0  0  0  0  0  0  0  0
    3.1807    2.5682   -1.4594 C   0  0  0  0  0  0  0  0  0  0  0  0
    4.2674    3.3897   -1.5377 O   0  0  0  0  0  0  0  0  0  0  0  0
    5.0519    2.9278   -1.2035 H   0  0  0  0  0  0  0  0  0  0  0  0
    1.9214    3.0499   -1.8065 C   0  0  0  0  0  0  0  0  0  0  0  0
    1.8233    4.0783   -2.1379 H   0  0  0  0  0  0  0  0  0  0  0  0
    0.7988    2.2194   -1.7237 C   0  0  0  0  0  0  0  0  0  0  0  0
   -0.1721    2.6192   -2.0002 H   0  0  0  0  0  0  0  0  0  0  0  0
   -0.0722   -0.5496    1.2495 C   0  0  0  0  0  0  0  0  0  0  0  0
    1.0384   -0.6444    1.7564 O   0  0  0  0  0  0  0  0  0  0  0  0
   -1.0699    0.1271    1.9292 N   0  0  0  0  0  0  0  0  0  0  0  0
   -2.0020    0.0800    1.5332 H   0  0  0  0  0  0  0  0  0  0  0  0
   -0.9058    0.6189    3.2913 C   0  0  0  0  0  0  0  0  0  0  0  0
   -0.0650    1.3185    3.3472 H   0  0  0  0  0  0  0  0  0  0  0  0
   -1.8102    1.1412    3.6172 H   0  0  0  0  0  0  0  0  0  0  0  0
   -0.7178   -0.2135    3.9776 H   0  0  0  0  0  0  0  0  0  0  0  0
  1  2  1  0  0  0  0
  2  3  1  0  0  0  0
  2  4  1  0  0  0  0
  2  5  1  0  0  0  0
  5  6  2  0  0  0  0
  5  7  1  0  0  0  0
  7  8  1  0  0  0  0
  7  9  1  0  0  0  0
  9 10  1  0  0  0  0
  9 11  1  0  0  0  0
  9 26  1  0  0  0  0
 11 12  1  0  0  0  0
 11 13  1  0  0  0  0
 11 14  1  0  0  0  0
 14 15  2  0  0  0  0
 14 24  1  0  0  0  0
 15 16  1  0  0  0  0
 15 17  1  0  0  0  0
 17 18  1  0  0  0  0
 17 19  2  0  0  0  0
 19 20  1  0  0  0  0
 19 22  1  0  0  0  0
 20 21  1  0  0  0  0
 22 23  1  0  0  0  0
 22 24  2  0  0  0  0
 24 25  1  0  0  0  0
 26 27  2  0  0  0  0
 26 28  1  0  0  0  0
 28 29  1  0  0  0  0
 28 30  1  0  0  0  0
 30 31  1  0  0  0  0
 30 32  1  0  0  0  0
 30 33  1  0  0  0  0
M  END
$$$$

  -OEChem-03222214083D

 33 33  0     1  0  0  0  0  0999 V2000
   -3.3750   -4.5047    0.7946 H   0  0  0  0  0  0  0  0  0  0  0  0
   -3.2906   -3.6181    0.1595 C   0  0  0  0  0  0  0  0  0  0  0  0
   -4.1217   -2.9452    0.3839 H   0  0  0  0  0  0  0  0  0  0  0  0
   -3.3525   -3.9291   -0.8862 H   0  0  0  0  0  0  0  0  0  0  0  0
   -1.9700   -2.9165    0.4163 C   0  0  0  0  0  0  0  0  0  0  0  0
   -1.2106   -3.3489    1.2636 O   0  0  0  0  0  0  0  0  0  0  0  0
   -1.6379   -1.7945   -0.3188 N   0  0  0  0  0  0  0  0  0  0  0  0
   -2.2751   -1.5324   -1.0648 H   0  0  0  0  0  0  0  0  0  0  0  0
   -0.3536   -1.0752   -0.2064 C   0  0  1  0  0  0  0  0  0  0  0  0
    0.4522   -1.7784   -0.4396 H   0  0  0  0  0  0  0  0  0  0  0  0
   -0.3730    0.0462   -1.2652 C   0  0  0  0  0  0  0  0  0  0  0  0
   -0.5048   -0.4043   -2.2540 H   0  0  0  0  0  0  0  0  0  0  0  0
   -1.2419    0.6857   -1.0773 H   0  0  0  0  0  0  0  0  0  0  0  0
    0.8739    0.9066   -1.3075 C   0  0  0  0  0  0  0  0  0  0  0  0
    2.1626    0.3464   -1.2642 C   0  0  0  0  0  0  0  0  0  0  0  0
    2.2985   -0.7273   -1.1808 H   0  0  0  0  0  0  0  0  0  0  0  0
    3.2972    1.1644   -1.3101 C   0  0  0  0  0  0  0  0  0  0  0  0
    4.2804    0.7093   -1.2627 H   0  0  0  0  0  0  0  0  0  0  0  0
    3.1620    2.5497   -1.4092 C   0  0  0  0  0  0  0  0  0  0  0  0
    4.2641    3.3538   -1.4499 O   0  0  0  0  0  0  0  0  0  0  0  0
    5.0623    2.8242   -1.2987 H   0  0  0  0  0  0  0  0  0  0  0  0
    1.8899    3.1141   -1.4646 C   0  0  0  0  0  0  0  0  0  0  0  0
    1.7940    4.1920   -1.5434 H   0  0  0  0  0  0  0  0  0  0  0  0
    0.7520    2.3017   -1.4126 C   0  0  0  0  0  0  0  0  0  0  0  0
   -0.2278    2.7674   -1.4534 H   0  0  0  0  0  0  0  0  0  0  0  0
   -0.0663   -0.5126    1.2055 C   0  0  0  0  0  0  0  0  0  0  0  0
    1.0637   -0.5668    1.6736 O   0  0  0  0  0  0  0  0  0  0  0  0
   -1.0602    0.1478    1.9064 N   0  0  0  0  0  0  0  0  0  0  0  0
   -2.0029    0.0673    1.5420 H   0  0  0  0  0  0  0  0  0  0  0  0
   -0.8676    0.6601    3.2568 C   0  0  0  0  0  0  0  0  0  0  0  0
   -0.0360    1.3724    3.2818 H   0  0  0  0  0  0  0  0  0  0  0  0
   -1.7707    1.1741    3.5988 H   0  0  0  0  0  0  0  0  0  0  0  0
   -0.6501   -0.1601    3.9489 H   0  0  0  0  0  0  0  0  0  0  0  0
  1  2  1  0  0  0  0
  2  3  1  0  0  0  0
  2  4  1  0  0  0  0
  2  5  1  0  0  0  0
  5  6  2  0  0  0  0
  5  7  1  0  0  0  0
  7  8  1  0  0  0  0
  7  9  1  0  0  0  0
  9 10  1  0  0  0  0
  9 11  1  0  0  0  0
  9 26  1  0  0  0  0
 11 12  1  0  0  0  0
 11 13  1  0  0  0  0
 11 14  1  0  0  0  0
 14 15  2  0  0  0  0
 14 24  1  0  0  0  0
 15 16  1  0  0  0  0
 15 17  1  0  0  0  0
 17 18  1  0  0  0  0
 17 19  2  0  0  0  0
 19 20  1  0  0  0  0
 19 22  1  0  0  0  0
 20 21  1  0  0  0  0
 22 23  1  0  0  0  0
 22 24  2  0  0  0  0
 24 25  1  0  0  0  0
 26 27  2  0  0  0  0
 26 28  1  0  0  0  0
 28 29  1  0  0  0  0
 28 30  1  0  0  0  0
 30 31  1  0  0  0  0
 30 32  1  0  0  0  0
 30 33  1  0  0  0  0
M  END
$$$$

  -OEChem-03222214083D

 33 33  0     1  0  0  0  0  0999 V2000
   -3.3085   -4.5294    0.8122 H   0  0  0  0  0  0  0  0  0  0  0  0
   -3.2447   -3.6466    0.1694 C   0  0  0  0  0  0  0  0  0  0  0  0
   -4.0901   -2.9903    0.3889 H   0  0  0  0  0  0  0  0  0  0  0  0
   -3.3001   -3.9677   -0.8736 H   0  0  0  0  0  0  0  0  0  0  0  0
   -1.9400   -2.9133    0.4183 C   0  0  0  0  0  0  0  0  0  0  0  0
   -1.1697   -3.3225    1.2672 O   0  0  0  0  0  0  0  0  0  0  0  0
   -1.6356   -1.7888   -0.3245 N   0  0  0  0  0  0  0  0  0  0  0  0
   -2.2805   -1.5471   -1.0709 H   0  0  0  0  0  0  0  0  0  0  0  0
   -0.3620   -1.0479   -0.2299 C   0  0  1  0  0  0  0  0  0  0  0  0
    0.4571   -1.7342   -0.4700 H   0  0  0  0  0  0  0  0  0  0  0  0
   -0.4110    0.0700   -1.2890 C   0  0  0  0  0  0  0  0  0  0  0  0
   -0.5425   -0.3797   -2.2784 H   0  0  0  0  0  0  0  0  0  0  0  0
   -1.2834    0.7034   -1.0990 H   0  0  0  0  0  0  0  0  0  0  0  0
    0.8349    0.9264   -1.3186 C   0  0  0  0  0  0  0  0  0  0  0  0
    2.0907    0.3596   -1.5874 C   0  0  0  0  0  0  0  0  0  0  0  0
    2.1827   -0.7064   -1.7715 H   0  0  0  0  0  0  0  0  0  0  0  0
    3.2405    1.1573   -1.6085 C   0  0  0  0  0  0  0  0  0  0  0  0
    4.2023    0.6987   -1.8097 H   0  0  0  0  0  0  0  0  0  0  0  0
    3.1482    2.5290   -1.3666 C   0  0  0  0  0  0  0  0  0  0  0  0
    4.2650    3.3133   -1.3824 O   0  0  0  0  0  0  0  0  0  0  0  0
    5.0549    2.7579   -1.4692 H   0  0  0  0  0  0  0  0  0  0  0  0
    1.9052    3.1001   -1.1032 C   0  0  0  0  0  0  0  0  0  0  0  0
    1.8443    4.1664   -0.9127 H   0  0  0  0  0  0  0  0  0  0  0  0
    0.7531    2.3066   -1.0751 C   0  0  0  0  0  0  0  0  0  0  0  0
   -0.2030    2.7725   -0.8571 H   0  0  0  0  0  0  0  0  0  0  0  0
   -0.0657   -0.4751    1.1762 C   0  0  0  0  0  0  0  0  0  0  0  0
    1.0725   -0.4997    1.6260 O   0  0  0  0  0  0  0  0  0  0  0  0
   -1.0617    0.1718    1.8869 N   0  0  0  0  0  0  0  0  0  0  0  0
   -2.0088    0.0557    1.5445 H   0  0  0  0  0  0  0  0  0  0  0  0
   -0.8591    0.6904    3.2336 C   0  0  0  0  0  0  0  0  0  0  0  0
   -0.0407    1.4181    3.2448 H   0  0  0  0  0  0  0  0  0  0  0  0
   -1.7666    1.1880    3.5881 H   0  0  0  0  0  0  0  0  0  0  0  0
   -0.6156   -0.1243    3.9237 H   0  0  0  0  0  0  0  0  0  0  0  0
  1  2  1  0  0  0  0
  2  3  1  0  0  0  0
  2  4  1  0  0  0  0
  2  5  1  0  0  0  0
  5  6  2  0  0  0  0
  5  7  1  0  0  0  0
  7  8  1  0  0  0  0
  7  9  1  0  0  0  0
  9 10  1  0  0  0  0
  9 11  1  0  0  0  0
  9 26  1  0  0  0  0
 11 12  1  0  0  0  0
 11 13  1  0  0  0  0
 11 14  1  0  0  0  0
 14 15  2  0  0  0  0
 14 24  1  0  0  0  0
 15 16  1  0  0  0  0
 15 17  1  0  0  0  0
 17 18  1  0  0  0  0
 17 19  2  0  0  0  0
 19 20  1  0  0  0  0
 19 22  1  0  0  0  0
 20 21  1  0  0  0  0
 22 23  1  0  0  0  0
 22 24  2  0  0  0  0
 24 25  1  0  0  0  0
 26 27  2  0  0  0  0
 26 28  1  0  0  0  0
 28 29  1  0  0  0  0
 28 30  1  0  0  0  0
 30 31  1  0  0  0  0
 30 32  1  0  0  0  0
 30 33  1  0  0  0  0
M  END
$$$$

  -OEChem-03222214083D

 33 33  0     1  0  0  0  0  0999 V2000
   -3.2806   -4.5368    0.8101 H   0  0  0  0  0  0  0  0  0  0  0  0
   -3.2243   -3.6526    0.1685 C   0  0  0  0  0  0  0  0  0  0  0  0
   -4.0746   -3.0033    0.3894 H   0  0  0  0  0  0  0  0  0  0  0  0
   -3.2785   -3.9731   -0.8747 H   0  0  0  0  0  0  0  0  0  0  0  0
   -1.9247   -2.9099    0.4175 C   0  0  0  0  0  0  0  0  0  0  0  0
   -1.1508   -3.3152    1.2648 O   0  0  0  0  0  0  0  0  0  0  0  0
   -1.6282   -1.7824   -0.3244 N   0  0  0  0  0  0  0  0  0  0  0  0
   -2.2777   -1.5415   -1.0669 H   0  0  0  0  0  0  0  0  0  0  0  0
   -0.3591   -1.0332   -0.2323 C   0  0  1  0  0  0  0  0  0  0  0  0
    0.4686   -1.7078   -0.4768 H   0  0  0  0  0  0  0  0  0  0  0  0
   -0.4210    0.0851   -1.2891 C   0  0  0  0  0  0  0  0  0  0  0  0
   -0.5575   -0.3615   -2.2793 H   0  0  0  0  0  0  0  0  0  0  0  0
   -1.2925    0.7187   -1.0945 H   0  0  0  0  0  0  0  0  0  0  0  0
    0.8231    0.9411   -1.3118 C   0  0  0  0  0  0  0  0  0  0  0  0
    2.0093    0.4518   -1.8794 C   0  0  0  0  0  0  0  0  0  0  0  0
    2.0406   -0.5495   -2.2982 H   0  0  0  0  0  0  0  0  0  0  0  0
    3.1636    1.2431   -1.9024 C   0  0  0  0  0  0  0  0  0  0  0  0
    4.0730    0.8468   -2.3401 H   0  0  0  0  0  0  0  0  0  0  0  0
    3.1431    2.5303   -1.3614 C   0  0  0  0  0  0  0  0  0  0  0  0
    4.2646    3.3083   -1.3768 O   0  0  0  0  0  0  0  0  0  0  0  0
    5.0225    2.7867   -1.6823 H   0  0  0  0  0  0  0  0  0  0  0  0
    1.9683    3.0225   -0.7967 C   0  0  0  0  0  0  0  0  0  0  0  0
    1.9649    4.0208   -0.3721 H   0  0  0  0  0  0  0  0  0  0  0  0
    0.8127    2.2344   -0.7666 C   0  0  0  0  0  0  0  0  0  0  0  0
   -0.0881    2.6318   -0.3088 H   0  0  0  0  0  0  0  0  0  0  0  0
   -0.0695   -0.4625    1.1763 C   0  0  0  0  0  0  0  0  0  0  0  0
    1.0682   -0.4725    1.6272 O   0  0  0  0  0  0  0  0  0  0  0  0
   -1.0732    0.1741    1.8859 N   0  0  0  0  0  0  0  0  0  0  0  0
   -2.0189    0.0409    1.5454 H   0  0  0  0  0  0  0  0  0  0  0  0
   -0.8783    0.6871    3.2360 C   0  0  0  0  0  0  0  0  0  0  0  0
   -0.0648    1.4202    3.2539 H   0  0  0  0  0  0  0  0  0  0  0  0
   -1.7901    1.1770    3.5907 H   0  0  0  0  0  0  0  0  0  0  0  0
   -0.6312   -0.1297    3.9224 H   0  0  0  0  0  0  0  0  0  0  0  0
  1  2  1  0  0  0  0
  2  3  1  0  0  0  0
  2  4  1  0  0  0  0
  2  5  1  0  0  0  0
  5  6  2  0  0  0  0
  5  7  1  0  0  0  0
  7  8  1  0  0  0  0
  7  9  1  0  0  0  0
  9 10  1  0  0  0  0
  9 11  1  0  0  0  0
  9 26  1  0  0  0  0
 11 12  1  0  0  0  0
 11 13  1  0  0  0  0
 11 14  1  0  0  0  0
 14 15  2  0  0  0  0
 14 24  1  0  0  0  0
 15 16  1  0  0  0  0
 15 17  1  0  0  0  0
 17 18  1  0  0  0  0
 17 19  2  0  0  0  0
 19 20  1  0  0  0  0
 19 22  1  0  0  0  0
 20 21  1  0  0  0  0
 22 23  1  0  0  0  0
 22 24  2  0  0  0  0
 24 25  1  0  0  0  0
 26 27  2  0  0  0  0
 26 28  1  0  0  0  0
 28 29  1  0  0  0  0
 28 30  1  0  0  0  0
 30 31  1  0  0  0  0
 30 32  1  0  0  0  0
 30 33  1  0  0  0  0
M  END
$$$$

  -OEChem-03222214083D

 33 33  0     1  0  0  0  0  0999 V2000
   -3.3002   -4.5290    0.7830 H   0  0  0  0  0  0  0  0  0  0  0  0
   -3.2332   -3.6397    0.1495 C   0  0  0  0  0  0  0  0  0  0  0  0
   -4.0823   -2.9878    0.3681 H   0  0  0  0  0  0  0  0  0  0  0  0
   -3.2786   -3.9506   -0.8970 H   0  0  0  0  0  0  0  0  0  0  0  0
   -1.9324   -2.9062    0.4169 C   0  0  0  0  0  0  0  0  0  0  0  0
   -1.1713   -3.3197    1.2718 O   0  0  0  0  0  0  0  0  0  0  0  0
   -1.6235   -1.7759   -0.3156 N   0  0  0  0  0  0  0  0  0  0  0  0
   -2.2631   -1.5313   -1.0654 H   0  0  0  0  0  0  0  0  0  0  0  0
   -0.3505   -1.0347   -0.2108 C   0  0  1  0  0  0  0  0  0  0  0  0
    0.4774   -1.7101   -0.4531 H   0  0  0  0  0  0  0  0  0  0  0  0
   -0.4023    0.0860   -1.2675 C   0  0  0  0  0  0  0  0  0  0  0  0
   -0.5454   -0.3602   -2.2569 H   0  0  0  0  0  0  0  0  0  0  0  0
   -1.2689    0.7260   -1.0725 H   0  0  0  0  0  0  0  0  0  0  0  0
    0.8409    0.9444   -1.2910 C   0  0  0  0  0  0  0  0  0  0  0  0
    1.9211    0.5984   -2.1167 C   0  0  0  0  0  0  0  0  0  0  0  0
    1.8770   -0.3014   -2.7232 H   0  0  0  0  0  0  0  0  0  0  0  0
    3.0672    1.4013   -2.1608 C   0  0  0  0  0  0  0  0  0  0  0  0
    3.8945    1.1149   -2.8006 H   0  0  0  0  0  0  0  0  0  0  0  0
    3.1428    2.5602   -1.3855 C   0  0  0  0  0  0  0  0  0  0  0  0
    4.2566    3.3485   -1.4208 O   0  0  0  0  0  0  0  0  0  0  0  0
    4.9535    2.9126   -1.9345 H   0  0  0  0  0  0  0  0  0  0  0  0
    2.0717    2.9129   -0.5675 C   0  0  0  0  0  0  0  0  0  0  0  0
    2.1412    3.8114    0.0365 H   0  0  0  0  0  0  0  0  0  0  0  0
    0.9254    2.1124   -0.5165 C   0  0  0  0  0  0  0  0  0  0  0  0
    0.1068    2.3994    0.1367 H   0  0  0  0  0  0  0  0  0  0  0  0
   -0.0753   -0.4783    1.2063 C   0  0  0  0  0  0  0  0  0  0  0  0
    1.0570   -0.4914    1.6703 O   0  0  0  0  0  0  0  0  0  0  0  0
   -1.0858    0.1557    1.9088 N   0  0  0  0  0  0  0  0  0  0  0  0
   -2.0280    0.0200    1.5594 H   0  0  0  0  0  0  0  0  0  0  0  0
   -0.9066    0.6520    3.2672 C   0  0  0  0  0  0  0  0  0  0  0  0
   -0.0938    1.3851    3.3035 H   0  0  0  0  0  0  0  0  0  0  0  0
   -1.8228    1.1368    3.6169 H   0  0  0  0  0  0  0  0  0  0  0  0
   -0.6674   -0.1731    3.9463 H   0  0  0  0  0  0  0  0  0  0  0  0
  1  2  1  0  0  0  0
  2  3  1  0  0  0  0
  2  4  1  0  0  0  0
  2  5  1  0  0  0  0
  5  6  2  0  0  0  0
  5  7  1  0  0  0  0
  7  8  1  0  0  0  0
  7  9  1  0  0  0  0
  9 10  1  0  0  0  0
  9 11  1  0  0  0  0
  9 26  1  0  0  0  0
 11 12  1  0  0  0  0
 11 13  1  0  0  0  0
 11 14  1  0  0  0  0
 14 15  2  0  0  0  0
 14 24  1  0  0  0  0
 15 16  1  0  0  0  0
 15 17  1  0  0  0  0
 17 18  1  0  0  0  0
 17 19  2  0  0  0  0
 19 20  1  0  0  0  0
 19 22  1  0  0  0  0
 20 21  1  0  0  0  0
 22 23  1  0  0  0  0
 22 24  2  0  0  0  0
 24 25  1  0  0  0  0
 26 27  2  0  0  0  0
 26 28  1  0  0  0  0
 28 29  1  0  0  0  0
 28 30  1  0  0  0  0
 30 31  1  0  0  0  0
 30 32  1  0  0  0  0
 30 33  1  0  0  0  0
M  END
$$$$

  -OEChem-03222214083D

 33 33  0     1  0  0  0  0  0999 V2000
   -3.3494   -4.5079    0.7472 H   0  0  0  0  0  0  0  0  0  0  0  0
   -3.2638   -3.6105    0.1275 C   0  0  0  0  0  0  0  0  0  0  0  0
   -4.1020   -2.9469    0.3532 H   0  0  0  0  0  0  0  0  0  0  0  0
   -3.3110   -3.9050   -0.9238 H   0  0  0  0  0  0  0  0  0  0  0  0
   -1.9512   -2.9043    0.4107 C   0  0  0  0  0  0  0  0  0  0  0  0
   -1.2048   -3.3403    1.2673 O   0  0  0  0  0  0  0  0  0  0  0  0
   -1.6172   -1.7700   -0.3048 N   0  0  0  0  0  0  0  0  0  0  0  0
   -2.2451   -1.5064   -1.0582 H   0  0  0  0  0  0  0  0  0  0  0  0
   -0.3351   -1.0470   -0.1755 C   0  0  1  0  0  0  0  0  0  0  0  0
    0.4882   -1.7316   -0.4088 H   0  0  0  0  0  0  0  0  0  0  0  0
   -0.3573    0.0748   -1.2360 C   0  0  0  0  0  0  0  0  0  0  0  0
   -0.5035   -0.3772   -2.2222 H   0  0  0  0  0  0  0  0  0  0  0  0
   -1.2187    0.7240   -1.0485 H   0  0  0  0  0  0  0  0  0  0  0  0
    0.8855    0.9390   -1.2668 C   0  0  0  0  0  0  0  0  0  0  0  0
    1.8253    0.7759   -2.2971 C   0  0  0  0  0  0  0  0  0  0  0  0
    1.6880   -0.0012   -3.0432 H   0  0  0  0  0  0  0  0  0  0  0  0
    2.9534    1.6018   -2.3721 C   0  0  0  0  0  0  0  0  0  0  0  0
    3.6721    1.4521   -3.1701 H   0  0  0  0  0  0  0  0  0  0  0  0
    3.1485    2.6110   -1.4276 C   0  0  0  0  0  0  0  0  0  0  0  0
    4.2443    3.4224   -1.4919 O   0  0  0  0  0  0  0  0  0  0  0  0
    4.8455    3.1126   -2.1862 H   0  0  0  0  0  0  0  0  0  0  0  0
    2.2120    2.7932   -0.4131 C   0  0  0  0  0  0  0  0  0  0  0  0
    2.3693    3.5789    0.3182 H   0  0  0  0  0  0  0  0  0  0  0  0
    1.0843    1.9695   -0.3326 C   0  0  0  0  0  0  0  0  0  0  0  0
    0.3695    2.1366    0.4674 H   0  0  0  0  0  0  0  0  0  0  0  0
   -0.0828   -0.5159    1.2551 C   0  0  0  0  0  0  0  0  0  0  0  0
    1.0391   -0.5466    1.7427 O   0  0  0  0  0  0  0  0  0  0  0  0
   -1.1011    0.1187    1.9458 N   0  0  0  0  0  0  0  0  0  0  0  0
   -2.0364    0.0012    1.5718 H   0  0  0  0  0  0  0  0  0  0  0  0
   -0.9497    0.5822    3.3191 C   0  0  0  0  0  0  0  0  0  0  0  0
   -0.1319    1.3072    3.3917 H   0  0  0  0  0  0  0  0  0  0  0  0
   -1.8699    1.0670    3.6587 H   0  0  0  0  0  0  0  0  0  0  0  0
   -0.7338   -0.2608    3.9841 H   0  0  0  0  0  0  0  0  0  0  0  0
  1  2  1  0  0  0  0
  2  3  1  0  0  0  0
  2  4  1  0  0  0  0
  2  5  1  0  0  0  0
  5  6  2  0  0  0  0
  5  7  1  0  0  0  0
  7  8  1  0  0  0  0
  7  9  1  0  0  0  0
  9 10  1  0  0  0  0
  9 11  1  0  0  0  0
  9 26  1  0  0  0  0
 11 12  1  0  0  0  0
 11 13  1  0  0  0  0
 11 14  1  0  0  0  0
 14 15  2  0  0  0  0
 14 24  1  0  0  0  0
 15 16  1  0  0  0  0
 15 17  1  0  0  0  0
 17 18  1  0  0  0  0
 17 19  2  0  0  0  0
 19 20  1  0  0  0  0
 19 22  1  0  0  0  0
 20 21  1  0  0  0  0
 22 23  1  0  0  0  0
 22 24  2  0  0  0  0
 24 25  1  0  0  0  0
 26 27  2  0  0  0  0
 26 28  1  0  0  0  0
 28 29  1  0  0  0  0
 28 30  1  0  0  0  0
 30 31  1  0  0  0  0
 30 32  1  0  0  0  0
 30 33  1  0  0  0  0
M  END
$$$$

  -OEChem-03222214083D

 33 33  0     1  0  0  0  0  0999 V2000
   -3.4133   -4.4816    0.6838 H   0  0  0  0  0  0  0  0  0  0  0  0
   -3.2986   -3.5764    0.0801 C   0  0  0  0  0  0  0  0  0  0  0  0
   -4.1297   -2.9014    0.2981 H   0  0  0  0  0  0  0  0  0  0  0  0
   -3.3291   -3.8540   -0.9764 H   0  0  0  0  0  0  0  0  0  0  0  0
   -1.9795   -2.8988    0.4022 C   0  0  0  0  0  0  0  0  0  0  0  0
   -1.2578   -3.3645    1.2643 O   0  0  0  0  0  0  0  0  0  0  0  0
   -1.6092   -1.7606   -0.2891 N   0  0  0  0  0  0  0  0  0  0  0  0
   -2.2215   -1.4693   -1.0449 H   0  0  0  0  0  0  0  0  0  0  0  0
   -0.3164   -1.0629   -0.1261 C   0  0  1  0  0  0  0  0  0  0  0  0
    0.4996   -1.7604   -0.3455 H   0  0  0  0  0  0  0  0  0  0  0  0
   -0.2981    0.0568   -1.1935 C   0  0  0  0  0  0  0  0  0  0  0  0
   -0.4419   -0.4079   -2.1742 H   0  0  0  0  0  0  0  0  0  0  0  0
   -1.1558    0.7151   -1.0214 H   0  0  0  0  0  0  0  0  0  0  0  0
    0.9424    0.9319   -1.2405 C   0  0  0  0  0  0  0  0  0  0  0  0
    1.7055    0.9714   -2.4206 C   0  0  0  0  0  0  0  0  0  0  0  0
    1.4495    0.3300   -3.2587 H   0  0  0  0  0  0  0  0  0  0  0  0
    2.8115    1.8219   -2.5356 C   0  0  0  0  0  0  0  0  0  0  0  0
    3.3926    1.8224   -3.4512 H   0  0  0  0  0  0  0  0  0  0  0  0
    3.1592    2.6659   -1.4808 C   0  0  0  0  0  0  0  0  0  0  0  0
    4.2350    3.5001   -1.5821 O   0  0  0  0  0  0  0  0  0  0  0  0
    4.7061    3.3346   -2.4128 H   0  0  0  0  0  0  0  0  0  0  0  0
    2.3918    2.6633   -0.3196 C   0  0  0  0  0  0  0  0  0  0  0  0
    2.6602    3.3281    0.4947 H   0  0  0  0  0  0  0  0  0  0  0  0
    1.2854    1.8155   -0.2008 C   0  0  0  0  0  0  0  0  0  0  0  0
    0.7009    1.8649    0.7117 H   0  0  0  0  0  0  0  0  0  0  0  0
   -0.0954   -0.5630    1.3203 C   0  0  0  0  0  0  0  0  0  0  0  0
    1.0111   -0.6246    1.8391 O   0  0  0  0  0  0  0  0  0  0  0  0
   -1.1210    0.0750    1.9969 N   0  0  0  0  0  0  0  0  0  0  0  0
   -2.0471   -0.0153    1.5935 H   0  0  0  0  0  0  0  0  0  0  0  0
   -1.0006    0.5011    3.3857 C   0  0  0  0  0  0  0  0  0  0  0  0
   -0.1781    1.2153    3.4980 H   0  0  0  0  0  0  0  0  0  0  0  0
   -1.9244    0.9863    3.7146 H   0  0  0  0  0  0  0  0  0  0  0  0
   -0.8094   -0.3602    4.0346 H   0  0  0  0  0  0  0  0  0  0  0  0
  1  2  1  0  0  0  0
  2  3  1  0  0  0  0
  2  4  1  0  0  0  0
  2  5  1  0  0  0  0
  5  6  2  0  0  0  0
  5  7  1  0  0  0  0
  7  8  1  0  0  0  0
  7  9  1  0  0  0  0
  9 10  1  0  0  0  0
  9 11  1  0  0  0  0
  9 26  1  0  0  0  0
 11 12  1  0  0  0  0
 11 13  1  0  0  0  0
 11 14  1  0  0  0  0
 14 15  2  0  0  0  0
 14 24  1  0  0  0  0
 15 16  1  0  0  0  0
 15 17  1  0  0  0  0
 17 18  1  0  0  0  0
 17 19  2  0  0  0  0
 19 20  1  0  0  0  0
 19 22  1  0  0  0  0
 20 21  1  0  0  0  0
 22 23  1  0  0  0  0
 22 24  2  0  0  0  0
 24 25  1  0  0  0  0
 26 27  2  0  0  0  0
 26 28  1  0  0  0  0
 28 29  1  0  0  0  0
 28 30  1  0  0  0  0
 30 31  1  0  0  0  0
 30 32  1  0  0  0  0
 30 33  1  0  0  0  0
M  END
$$$$

  -OEChem-03222214083D

 33 33  0     1  0  0  0  0  0999 V2000
   -3.4813   -4.4393    0.6177 H   0  0  0  0  0  0  0  0  0  0  0  0
   -3.3314   -3.5282    0.0314 C   0  0  0  0  0  0  0  0  0  0  0  0
   -4.1482   -2.8348    0.2449 H   0  0  0  0  0  0  0  0  0  0  0  0
   -3.3485   -3.7875   -1.0298 H   0  0  0  0  0  0  0  0  0  0  0  0
   -2.0017   -2.8915    0.3894 C   0  0  0  0  0  0  0  0  0  0  0  0
   -1.3071   -3.3923    1.2540 O   0  0  0  0  0  0  0  0  0  0  0  0
   -1.5892   -1.7537   -0.2782 N   0  0  0  0  0  0  0  0  0  0  0  0
   -2.1812   -1.4344   -1.0389 H   0  0  0  0  0  0  0  0  0  0  0  0
   -0.2869   -1.0840   -0.0739 C   0  0  1  0  0  0  0  0  0  0  0  0
    0.5228   -1.7940   -0.2759 H   0  0  0  0  0  0  0  0  0  0  0  0
   -0.2320    0.0346   -1.1453 C   0  0  0  0  0  0  0  0  0  0  0  0
   -0.3685   -0.4441   -2.1204 H   0  0  0  0  0  0  0  0  0  0  0  0
   -1.0907    0.6955   -0.9893 H   0  0  0  0  0  0  0  0  0  0  0  0
    0.9997    0.9280   -1.2157 C   0  0  0  0  0  0  0  0  0  0  0  0
    1.5509    1.1896   -2.4839 C   0  0  0  0  0  0  0  0  0  0  0  0
    1.1448    0.7046   -3.3664 H   0  0  0  0  0  0  0  0  0  0  0  0
    2.6369    2.0581   -2.6407 C   0  0  0  0  0  0  0  0  0  0  0  0
    3.0521    2.2209   -3.6291 H   0  0  0  0  0  0  0  0  0  0  0  0
    3.1756    2.7116   -1.5339 C   0  0  0  0  0  0  0  0  0  0  0  0
    4.2341    3.5622   -1.6732 O   0  0  0  0  0  0  0  0  0  0  0  0
    4.5428    3.5613   -2.5919 H   0  0  0  0  0  0  0  0  0  0  0  0
    2.6123    2.5048   -0.2789 C   0  0  0  0  0  0  0  0  0  0  0  0
    3.0216    3.0302    0.5777 H   0  0  0  0  0  0  0  0  0  0  0  0
    1.5263    1.6371   -0.1183 C   0  0  0  0  0  0  0  0  0  0  0  0
    1.1074    1.5552    0.8770 H   0  0  0  0  0  0  0  0  0  0  0  0
   -0.1078   -0.6097    1.3865 C   0  0  0  0  0  0  0  0  0  0  0  0
    0.9695   -0.7347    1.9541 O   0  0  0  0  0  0  0  0  0  0  0  0
   -1.1420    0.0378    2.0405 N   0  0  0  0  0  0  0  0  0  0  0  0
   -2.0502    0.0039    1.5906 H   0  0  0  0  0  0  0  0  0  0  0  0
   -1.0698    0.4181    3.4459 C   0  0  0  0  0  0  0  0  0  0  0  0
   -0.2392    1.1121    3.6132 H   0  0  0  0  0  0  0  0  0  0  0  0
   -1.9971    0.9107    3.7533 H   0  0  0  0  0  0  0  0  0  0  0  0
   -0.9216   -0.4668    4.0742 H   0  0  0  0  0  0  0  0  0  0  0  0
  1  2  1  0  0  0  0
  2  3  1  0  0  0  0
  2  4  1  0  0  0  0
  2  5  1  0  0  0  0
  5  6  2  0  0  0  0
  5  7  1  0  0  0  0
  7  8  1  0  0  0  0
  7  9  1  0  0  0  0
  9 10  1  0  0  0  0
  9 11  1  0  0  0  0
  9 26  1  0  0  0  0
 11 12  1  0  0  0  0
 11 13  1  0  0  0  0
 11 14  1  0  0  0  0
 14 15  2  0  0  0  0
 14 24  1  0  0  0  0
 15 16  1  0  0  0  0
 15 17  1  0  0  0  0
 17 18  1  0  0  0  0
 17 19  2  0  0  0  0
 19 20  1  0  0  0  0
 19 22  1  0  0  0  0
 20 21  1  0  0  0  0
 22 23  1  0  0  0  0
 22 24  2  0  0  0  0
 24 25  1  0  0  0  0
 26 27  2  0  0  0  0
 26 28  1  0  0  0  0
 28 29  1  0  0  0  0
 28 30  1  0  0  0  0
 30 31  1  0  0  0  0
 30 32  1  0  0  0  0
 30 33  1  0  0  0  0
M  END
$$$$

  -OEChem-03222214083D

 33 33  0     1  0  0  0  0  0999 V2000
   -3.5426   -4.3821    0.5804 H   0  0  0  0  0  0  0  0  0  0  0  0
   -3.3549   -3.4723    0.0030 C   0  0  0  0  0  0  0  0  0  0  0  0
   -4.1530   -2.7551    0.2086 H   0  0  0  0  0  0  0  0  0  0  0  0
   -3.3639   -3.7244   -1.0601 H   0  0  0  0  0  0  0  0  0  0  0  0
   -2.0114   -2.8798    0.3861 C   0  0  0  0  0  0  0  0  0  0  0  0
   -1.3477   -3.4082    1.2583 O   0  0  0  0  0  0  0  0  0  0  0  0
   -1.5524   -1.7519   -0.2686 N   0  0  0  0  0  0  0  0  0  0  0  0
   -2.1226   -1.4106   -1.0362 H   0  0  0  0  0  0  0  0  0  0  0  0
   -0.2434   -1.1066   -0.0259 C   0  0  1  0  0  0  0  0  0  0  0  0
    0.5665   -1.8214   -0.2094 H   0  0  0  0  0  0  0  0  0  0  0  0
   -0.1690    0.0197   -1.0905 C   0  0  0  0  0  0  0  0  0  0  0  0
   -0.2948   -0.4643   -2.0647 H   0  0  0  0  0  0  0  0  0  0  0  0
   -1.0334    0.6745   -0.9402 H   0  0  0  0  0  0  0  0  0  0  0  0
    1.0462    0.9378   -1.1889 C   0  0  0  0  0  0  0  0  0  0  0  0
    1.3552    1.4435   -2.4663 C   0  0  0  0  0  0  0  0  0  0  0  0
    0.7638    1.1454   -3.3270 H   0  0  0  0  0  0  0  0  0  0  0  0
    2.4232    2.3252   -2.6663 C   0  0  0  0  0  0  0  0  0  0  0  0
    2.6397    2.6859   -3.6659 H   0  0  0  0  0  0  0  0  0  0  0  0
    3.1989    2.7389   -1.5857 C   0  0  0  0  0  0  0  0  0  0  0  0
    4.2460    3.5962   -1.7645 O   0  0  0  0  0  0  0  0  0  0  0  0
    4.3656    3.7843   -2.7076 H   0  0  0  0  0  0  0  0  0  0  0  0
    2.8918    2.2769   -0.3106 C   0  0  0  0  0  0  0  0  0  0  0  0
    3.4894    2.6118    0.5311 H   0  0  0  0  0  0  0  0  0  0  0  0
    1.8243    1.3951   -0.1064 C   0  0  0  0  0  0  0  0  0  0  0  0
    1.6348    1.1075    0.9174 H   0  0  0  0  0  0  0  0  0  0  0  0
   -0.1218   -0.6396    1.4440 C   0  0  0  0  0  0  0  0  0  0  0  0
    0.8972   -0.8593    2.0860 O   0  0  0  0  0  0  0  0  0  0  0  0
   -1.1719    0.0230    2.0558 N   0  0  0  0  0  0  0  0  0  0  0  0
   -2.0469    0.0541    1.5446 H   0  0  0  0  0  0  0  0  0  0  0  0
   -1.1754    0.3560    3.4747 C   0  0  0  0  0  0  0  0  0  0  0  0
   -0.3360    1.0169    3.7148 H   0  0  0  0  0  0  0  0  0  0  0  0
   -2.1045    0.8683    3.7415 H   0  0  0  0  0  0  0  0  0  0  0  0
   -1.0932   -0.5529    4.0804 H   0  0  0  0  0  0  0  0  0  0  0  0
  1  2  1  0  0  0  0
  2  3  1  0  0  0  0
  2  4  1  0  0  0  0
  2  5  1  0  0  0  0
  5  6  2  0  0  0  0
  5  7  1  0  0  0  0
  7  8  1  0  0  0  0
  7  9  1  0  0  0  0
  9 10  1  0  0  0  0
  9 11  1  0  0  0  0
  9 26  1  0  0  0  0
 11 12  1  0  0  0  0
 11 13  1  0  0  0  0
 11 14  1  0  0  0  0
 14 15  2  0  0  0  0
 14 24  1  0  0  0  0
 15 16  1  0  0  0  0
 15 17  1  0  0  0  0
 17 18  1  0  0  0  0
 17 19  2  0  0  0  0
 19 20  1  0  0  0  0
 19 22  1  0  0  0  0
 20 21  1  0  0  0  0
 22 23  1  0  0  0  0
 22 24  2  0  0  0  0
 24 25  1  0  0  0  0
 26 27  2  0  0  0  0
 26 28  1  0  0  0  0
 28 29  1  0  0  0  0
 28 30  1  0  0  0  0
 30 31  1  0  0  0  0
 30 32  1  0  0  0  0
 30 33  1  0  0  0  0
M  END
$$$$

  -OEChem-03222214083D

 33 33  0     1  0  0  0  0  0999 V2000
   -3.5472   -4.3576    0.6163 H   0  0  0  0  0  0  0  0  0  0  0  0
   -3.3515   -3.4565    0.0280 C   0  0  0  0  0  0  0  0  0  0  0  0
   -4.1428   -2.7296    0.2255 H   0  0  0  0  0  0  0  0  0  0  0  0
   -3.3629   -3.7208   -1.0321 H   0  0  0  0  0  0  0  0  0  0  0  0
   -2.0029   -2.8714    0.4042 C   0  0  0  0  0  0  0  0  0  0  0  0
   -1.3436   -3.3968    1.2815 O   0  0  0  0  0  0  0  0  0  0  0  0
   -1.5337   -1.7562   -0.2652 N   0  0  0  0  0  0  0  0  0  0  0  0
   -2.0985   -1.4227   -1.0400 H   0  0  0  0  0  0  0  0  0  0  0  0
   -0.2245   -1.1112   -0.0211 C   0  0  1  0  0  0  0  0  0  0  0  0
    0.5935   -1.8168   -0.2036 H   0  0  0  0  0  0  0  0  0  0  0  0
   -0.1691    0.0360   -1.0619 C   0  0  0  0  0  0  0  0  0  0  0  0
   -0.2928   -0.4266   -2.0471 H   0  0  0  0  0  0  0  0  0  0  0  0
   -1.0384    0.6799   -0.8931 H   0  0  0  0  0  0  0  0  0  0  0  0
    1.0378    0.9614   -1.1586 C   0  0  0  0  0  0  0  0  0  0  0  0
    1.1331    1.7459   -2.3224 C   0  0  0  0  0  0  0  0  0  0  0  0
    0.3538    1.6908   -3.0768 H   0  0  0  0  0  0  0  0  0  0  0  0
    2.2117    2.6123   -2.5333 C   0  0  0  0  0  0  0  0  0  0  0  0
    2.2493    3.2107   -3.4369 H   0  0  0  0  0  0  0  0  0  0  0  0
    3.2313    2.7016   -1.5877 C   0  0  0  0  0  0  0  0  0  0  0  0
    4.2914    3.5398   -1.7799 O   0  0  0  0  0  0  0  0  0  0  0  0
    4.1999    4.0053   -2.6250 H   0  0  0  0  0  0  0  0  0  0  0  0
    3.1679    1.9166   -0.4415 C   0  0  0  0  0  0  0  0  0  0  0  0
    3.9703    1.9762    0.2868 H   0  0  0  0  0  0  0  0  0  0  0  0
    2.0912    1.0484   -0.2277 C   0  0  0  0  0  0  0  0  0  0  0  0
    2.1310    0.4500    0.6703 H   0  0  0  0  0  0  0  0  0  0  0  0
   -0.1299   -0.6242    1.4486 C   0  0  0  0  0  0  0  0  0  0  0  0
    0.8508   -0.8779    2.1358 O   0  0  0  0  0  0  0  0  0  0  0  0
   -1.1926    0.0473    2.0289 N   0  0  0  0  0  0  0  0  0  0  0  0
   -2.0462    0.1017    1.4851 H   0  0  0  0  0  0  0  0  0  0  0  0
   -1.2399    0.3802    3.4472 C   0  0  0  0  0  0  0  0  0  0  0  0
   -0.4040    1.0349    3.7151 H   0  0  0  0  0  0  0  0  0  0  0  0
   -2.1733    0.8993    3.6838 H   0  0  0  0  0  0  0  0  0  0  0  0
   -1.1842   -0.5291    4.0550 H   0  0  0  0  0  0  0  0  0  0  0  0
  1  2  1  0  0  0  0
  2  3  1  0  0  0  0
  2  4  1  0  0  0  0
  2  5  1  0  0  0  0
  5  6  2  0  0  0  0
  5  7  1  0  0  0  0
  7  8  1  0  0  0  0
  7  9  1  0  0  0  0
  9 10  1  0  0  0  0
  9 11  1  0  0  0  0
  9 26  1  0  0  0  0
 11 12  1  0  0  0  0
 11 13  1  0  0  0  0
 11 14  1  0  0  0  0
 14 15  2  0  0  0  0
 14 24  1  0  0  0  0
 15 16  1  0  0  0  0
 15 17  1  0  0  0  0
 17 18  1  0  0  0  0
 17 19  2  0  0  0  0
 19 20  1  0  0  0  0
 19 22  1  0  0  0  0
 20 21  1  0  0  0  0
 22 23  1  0  0  0  0
 22 24  2  0  0  0  0
 24 25  1  0  0  0  0
 26 27  2  0  0  0  0
 26 28  1  0  0  0  0
 28 29  1  0  0  0  0
 28 30  1  0  0  0  0
 30 31  1  0  0  0  0
 30 32  1  0  0  0  0
 30 33  1  0  0  0  0
M  END
$$$$

  -OEChem-03222214083D

 33 33  0     1  0  0  0  0  0999 V2000
   -3.4605   -4.4593    0.7140 H   0  0  0  0  0  0  0  0  0  0  0  0
   -3.3239   -3.5687    0.0936 C   0  0  0  0  0  0  0  0  0  0  0  0
   -4.1538   -2.8820    0.2766 H   0  0  0  0  0  0  0  0  0  0  0  0
   -3.3313   -3.8692   -0.9571 H   0  0  0  0  0  0  0  0  0  0  0  0
   -2.0078   -2.8938    0.4332 C   0  0  0  0  0  0  0  0  0  0  0  0
   -1.3172   -3.3349    1.3332 O   0  0  0  0  0  0  0  0  0  0  0  0
   -1.6045   -1.7854   -0.2872 N   0  0  0  0  0  0  0  0  0  0  0  0
   -2.1843   -1.5241   -1.0788 H   0  0  0  0  0  0  0  0  0  0  0  0
   -0.3080   -1.0985   -0.1111 C   0  0  1  0  0  0  0  0  0  0  0  0
    0.4935   -1.8174   -0.3111 H   0  0  0  0  0  0  0  0  0  0  0  0
   -0.2647    0.0349   -1.1601 C   0  0  0  0  0  0  0  0  0  0  0  0
   -0.6249   -0.3726   -2.1105 H   0  0  0  0  0  0  0  0  0  0  0  0
   -0.9657    0.8187   -0.8544 H   0  0  0  0  0  0  0  0  0  0  0  0
    1.0783    0.6845   -1.4498 C   0  0  0  0  0  0  0  0  0  0  0  0
    1.1060    1.7153   -2.4038 C   0  0  0  0  0  0  0  0  0  0  0  0
    0.1838    2.0374   -2.8785 H   0  0  0  0  0  0  0  0  0  0  0  0
    2.3060    2.3451   -2.7538 C   0  0  0  0  0  0  0  0  0  0  0  0
    2.2974    3.1440   -3.4870 H   0  0  0  0  0  0  0  0  0  0  0  0
    3.5046    1.9452   -2.1638 C   0  0  0  0  0  0  0  0  0  0  0  0
    4.6814    2.5521   -2.4959 O   0  0  0  0  0  0  0  0  0  0  0  0
    4.5184    3.2742   -3.1213 H   0  0  0  0  0  0  0  0  0  0  0  0
    3.4968    0.9123   -1.2310 C   0  0  0  0  0  0  0  0  0  0  0  0
    4.4319    0.6001   -0.7771 H   0  0  0  0  0  0  0  0  0  0  0  0
    2.3000    0.2791   -0.8780 C   0  0  0  0  0  0  0  0  0  0  0  0
    2.3580   -0.5293   -0.1573 H   0  0  0  0  0  0  0  0  0  0  0  0
   -0.1105   -0.5451    1.3232 C   0  0  0  0  0  0  0  0  0  0  0  0
    0.9706   -0.6339    1.8897 O   0  0  0  0  0  0  0  0  0  0  0  0
   -1.1413    0.1332    1.9508 N   0  0  0  0  0  0  0  0  0  0  0  0
   -2.0545    0.0670    1.5152 H   0  0  0  0  0  0  0  0  0  0  0  0
   -1.0531    0.6029    3.3280 C   0  0  0  0  0  0  0  0  0  0  0  0
   -0.2184    1.3028    3.4418 H   0  0  0  0  0  0  0  0  0  0  0  0
   -1.9752    1.1185    3.6122 H   0  0  0  0  0  0  0  0  0  0  0  0
   -0.9017   -0.2405    4.0101 H   0  0  0  0  0  0  0  0  0  0  0  0
  1  2  1  0  0  0  0
  2  3  1  0  0  0  0
  2  4  1  0  0  0  0
  2  5  1  0  0  0  0
  5  6  2  0  0  0  0
  5  7  1  0  0  0  0
  7  8  1  0  0  0  0
  7  9  1  0  0  0  0
  9 10  1  0  0  0  0
  9 11  1  0  0  0  0
  9 26  1  0  0  0  0
 11 12  1  0  0  0  0
 11 13  1  0  0  0  0
 11 14  1  0  0  0  0
 14 15  2  0  0  0  0
 14 24  1  0  0  0  0
 15 16  1  0  0  0  0
 15 17  1  0  0  0  0
 17 18  1  0  0  0  0
 17 19  2  0  0  0  0
 19 20  1  0  0  0  0
 19 22  1  0  0  0  0
 20 21  1  0  0  0  0
 22 23  1  0  0  0  0
 22 24  2  0  0  0  0
 24 25  1  0  0  0  0
 26 27  2  0  0  0  0
 26 28  1  0  0  0  0
 28 29  1  0  0  0  0
 28 30  1  0  0  0  0
 30 31  1  0  0  0  0
 30 32  1  0  0  0  0
 30 33  1  0  0  0  0
M  END
$$$$

  -OEChem-03222214083D

 33 33  0     1  0  0  0  0  0999 V2000
   -3.4572   -4.4911    0.7094 H   0  0  0  0  0  0  0  0  0  0  0  0
   -3.3376   -3.5987    0.0884 C   0  0  0  0  0  0  0  0  0  0  0  0
   -4.1774   -2.9252    0.2753 H   0  0  0  0  0  0  0  0  0  0  0  0
   -3.3454   -3.8993   -0.9620 H   0  0  0  0  0  0  0  0  0  0  0  0
   -2.0304   -2.9039    0.4215 C   0  0  0  0  0  0  0  0  0  0  0  0
   -1.3323   -3.3297    1.3231 O   0  0  0  0  0  0  0  0  0  0  0  0
   -1.6459   -1.7896   -0.2994 N   0  0  0  0  0  0  0  0  0  0  0  0
   -2.2295   -1.5380   -1.0915 H   0  0  0  0  0  0  0  0  0  0  0  0
   -0.3507   -1.0989   -0.1372 C   0  0  1  0  0  0  0  0  0  0  0  0
    0.4335   -1.8335   -0.3446 H   0  0  0  0  0  0  0  0  0  0  0  0
   -0.2995    0.0245   -1.1946 C   0  0  0  0  0  0  0  0  0  0  0  0
   -0.6552   -0.3834   -2.1463 H   0  0  0  0  0  0  0  0  0  0  0  0
   -0.9988    0.8117   -0.8943 H   0  0  0  0  0  0  0  0  0  0  0  0
    1.0535    0.6576   -1.4726 C   0  0  0  0  0  0  0  0  0  0  0  0
    1.0747    1.8739   -2.1750 C   0  0  0  0  0  0  0  0  0  0  0  0
    0.1427    2.3357   -2.4870 H   0  0  0  0  0  0  0  0  0  0  0  0
    2.2835    2.5075   -2.4855 C   0  0  0  0  0  0  0  0  0  0  0  0
    2.2710    3.4459   -3.0287 H   0  0  0  0  0  0  0  0  0  0  0  0
    3.4947    1.9328   -2.0999 C   0  0  0  0  0  0  0  0  0  0  0  0
    4.6806    2.5409   -2.3960 O   0  0  0  0  0  0  0  0  0  0  0  0
    4.5190    3.3862   -2.8416 H   0  0  0  0  0  0  0  0  0  0  0  0
    3.4899    0.7266   -1.4053 C   0  0  0  0  0  0  0  0  0  0  0  0
    4.4339    0.2860   -1.1014 H   0  0  0  0  0  0  0  0  0  0  0  0
    2.2846    0.0885   -1.0923 C   0  0  0  0  0  0  0  0  0  0  0  0
    2.3388   -0.8442   -0.5402 H   0  0  0  0  0  0  0  0  0  0  0  0
   -0.0983   -0.5407    1.2829 C   0  0  0  0  0  0  0  0  0  0  0  0
    1.0181   -0.5983    1.7811 O   0  0  0  0  0  0  0  0  0  0  0  0
   -1.1004    0.1436    1.9483 N   0  0  0  0  0  0  0  0  0  0  0  0
   -2.0358    0.0549    1.5668 H   0  0  0  0  0  0  0  0  0  0  0  0
   -0.9418    0.6442    3.3080 C   0  0  0  0  0  0  0  0  0  0  0  0
   -0.1043    1.3477    3.3618 H   0  0  0  0  0  0  0  0  0  0  0  0
   -1.8490    1.1647    3.6285 H   0  0  0  0  0  0  0  0  0  0  0  0
   -0.7518   -0.1831    4.0001 H   0  0  0  0  0  0  0  0  0  0  0  0
  1  2  1  0  0  0  0
  2  3  1  0  0  0  0
  2  4  1  0  0  0  0
  2  5  1  0  0  0  0
  5  6  2  0  0  0  0
  5  7  1  0  0  0  0
  7  8  1  0  0  0  0
  7  9  1  0  0  0  0
  9 10  1  0  0  0  0
  9 11  1  0  0  0  0
  9 26  1  0  0  0  0
 11 12  1  0  0  0  0
 11 13  1  0  0  0  0
 11 14  1  0  0  0  0
 14 15  2  0  0  0  0
 14 24  1  0  0  0  0
 15 16  1  0  0  0  0
 15 17  1  0  0  0  0
 17 18  1  0  0  0  0
 17 19  2  0  0  0  0
 19 20  1  0  0  0  0
 19 22  1  0  0  0  0
 20 21  1  0  0  0  0
 22 23  1  0  0  0  0
 22 24  2  0  0  0  0
 24 25  1  0  0  0  0
 26 27  2  0  0  0  0
 26 28  1  0  0  0  0
 28 29  1  0  0  0  0
 28 30  1  0  0  0  0
 30 31  1  0  0  0  0
 30 32  1  0  0  0  0
 30 33  1  0  0  0  0
M  END
$$$$

  -OEChem-03222214083D

 33 33  0     1  0  0  0  0  0999 V2000
   -3.4274   -4.5150    0.7310 H   0  0  0  0  0  0  0  0  0  0  0  0
   -3.3201   -3.6289    0.0987 C   0  0  0  0  0  0  0  0  0  0  0  0
   -4.1718   -2.9671    0.2734 H   0  0  0  0  0  0  0  0  0  0  0  0
   -3.3185   -3.9434   -0.9476 H   0  0  0  0  0  0  0  0  0  0  0  0
   -2.0254   -2.9087    0.4263 C   0  0  0  0  0  0  0  0  0  0  0  0
   -1.3168   -3.3187    1.3271 O   0  0  0  0  0  0  0  0  0  0  0  0
   -1.6618   -1.7916   -0.3010 N   0  0  0  0  0  0  0  0  0  0  0  0
   -2.2499   -1.5563   -1.0946 H   0  0  0  0  0  0  0  0  0  0  0  0
   -0.3711   -1.0896   -0.1546 C   0  0  1  0  0  0  0  0  0  0  0  0
    0.4111   -1.8241   -0.3631 H   0  0  0  0  0  0  0  0  0  0  0  0
   -0.3314    0.0340   -1.2115 C   0  0  0  0  0  0  0  0  0  0  0  0
   -0.6857   -0.3721   -2.1640 H   0  0  0  0  0  0  0  0  0  0  0  0
   -1.0339    0.8179   -0.9093 H   0  0  0  0  0  0  0  0  0  0  0  0
    1.0283    0.6561   -1.4785 C   0  0  0  0  0  0  0  0  0  0  0  0
    1.0808    2.0019   -1.8781 C   0  0  0  0  0  0  0  0  0  0  0  0
    0.1654    2.5791   -1.9659 H   0  0  0  0  0  0  0  0  0  0  0  0
    2.3026    2.6211   -2.1669 C   0  0  0  0  0  0  0  0  0  0  0  0
    2.3156    3.6625   -2.4688 H   0  0  0  0  0  0  0  0  0  0  0  0
    3.4935    1.9012   -2.0683 C   0  0  0  0  0  0  0  0  0  0  0  0
    4.6911    2.4939   -2.3478 O   0  0  0  0  0  0  0  0  0  0  0  0
    4.5597    3.4364   -2.5312 H   0  0  0  0  0  0  0  0  0  0  0  0
    3.4561    0.5643   -1.6818 C   0  0  0  0  0  0  0  0  0  0  0  0
    4.3858    0.0104   -1.6022 H   0  0  0  0  0  0  0  0  0  0  0  0
    2.2377   -0.0597   -1.3914 C   0  0  0  0  0  0  0  0  0  0  0  0
    2.2641   -1.1018   -1.0923 H   0  0  0  0  0  0  0  0  0  0  0  0
   -0.0932   -0.5234    1.2558 C   0  0  0  0  0  0  0  0  0  0  0  0
    1.0392   -0.5524    1.7188 O   0  0  0  0  0  0  0  0  0  0  0  0
   -1.0865    0.1575    1.9375 N   0  0  0  0  0  0  0  0  0  0  0  0
   -2.0305    0.0458    1.5843 H   0  0  0  0  0  0  0  0  0  0  0  0
   -0.8991    0.6790    3.2854 C   0  0  0  0  0  0  0  0  0  0  0  0
   -0.0666    1.3902    3.3089 H   0  0  0  0  0  0  0  0  0  0  0  0
   -1.8029    1.1966    3.6205 H   0  0  0  0  0  0  0  0  0  0  0  0
   -0.6852   -0.1367    3.9840 H   0  0  0  0  0  0  0  0  0  0  0  0
  1  2  1  0  0  0  0
  2  3  1  0  0  0  0
  2  4  1  0  0  0  0
  2  5  1  0  0  0  0
  5  6  2  0  0  0  0
  5  7  1  0  0  0  0
  7  8  1  0  0  0  0
  7  9  1  0  0  0  0
  9 10  1  0  0  0  0
  9 11  1  0  0  0  0
  9 26  1  0  0  0  0
 11 12  1  0  0  0  0
 11 13  1  0  0  0  0
 11 14  1  0  0  0  0
 14 15  2  0  0  0  0
 14 24  1  0  0  0  0
 15 16  1  0  0  0  0
 15 17  1  0  0  0  0
 17 18  1  0  0  0  0
 17 19  2  0  0  0  0
 19 20  1  0  0  0  0
 19 22  1  0  0  0  0
 20 21  1  0  0  0  0
 22 23  1  0  0  0  0
 22 24  2  0  0  0  0
 24 25  1  0  0  0  0
 26 27  2  0  0  0  0
 26 28  1  0  0  0  0
 28 29  1  0  0  0  0
 28 30  1  0  0  0  0
 30 31  1  0  0  0  0
 30 32  1  0  0  0  0
 30 33  1  0  0  0  0
M  END
$$$$

  -OEChem-03222214083D

 33 33  0     1  0  0  0  0  0999 V2000
   -3.3717   -4.5401    0.7464 H   0  0  0  0  0  0  0  0  0  0  0  0
   -3.2856   -3.6490    0.1180 C   0  0  0  0  0  0  0  0  0  0  0  0
   -4.1420   -2.9987    0.3109 H   0  0  0  0  0  0  0  0  0  0  0  0
   -3.2981   -3.9575   -0.9301 H   0  0  0  0  0  0  0  0  0  0  0  0
   -1.9947   -2.9147    0.4290 C   0  0  0  0  0  0  0  0  0  0  0  0
   -1.2740   -3.3126    1.3254 O   0  0  0  0  0  0  0  0  0  0  0  0
   -1.6511   -1.7959   -0.3053 N   0  0  0  0  0  0  0  0  0  0  0  0
   -2.2507   -1.5693   -1.0929 H   0  0  0  0  0  0  0  0  0  0  0  0
   -0.3689   -1.0756   -0.1739 C   0  0  1  0  0  0  0  0  0  0  0  0
    0.4305   -1.7908   -0.3876 H   0  0  0  0  0  0  0  0  0  0  0  0
   -0.3603    0.0513   -1.2266 C   0  0  0  0  0  0  0  0  0  0  0  0
   -0.7156   -0.3521   -2.1802 H   0  0  0  0  0  0  0  0  0  0  0  0
   -1.0669    0.8287   -0.9180 H   0  0  0  0  0  0  0  0  0  0  0  0
    1.0020    0.6650   -1.4803 C   0  0  0  0  0  0  0  0  0  0  0  0
    1.1276    2.0617   -1.5547 C   0  0  0  0  0  0  0  0  0  0  0  0
    0.2625    2.6972   -1.3918 H   0  0  0  0  0  0  0  0  0  0  0  0
    2.3649    2.6557   -1.8305 C   0  0  0  0  0  0  0  0  0  0  0  0
    2.4401    3.7364   -1.8754 H   0  0  0  0  0  0  0  0  0  0  0  0
    3.4919    1.8617   -2.0475 C   0  0  0  0  0  0  0  0  0  0  0  0
    4.7034    2.4306   -2.3175 O   0  0  0  0  0  0  0  0  0  0  0  0
    4.6426    3.3945   -2.2358 H   0  0  0  0  0  0  0  0  0  0  0  0
    3.3754    0.4751   -1.9933 C   0  0  0  0  0  0  0  0  0  0  0  0
    4.2549   -0.1364   -2.1658 H   0  0  0  0  0  0  0  0  0  0  0  0
    2.1415   -0.1240   -1.7172 C   0  0  0  0  0  0  0  0  0  0  0  0
    2.0879   -1.2074   -1.6921 H   0  0  0  0  0  0  0  0  0  0  0  0
   -0.0887   -0.5009    1.2330 C   0  0  0  0  0  0  0  0  0  0  0  0
    1.0478   -0.5046    1.6862 O   0  0  0  0  0  0  0  0  0  0  0  0
   -1.0872    0.1680    1.9196 N   0  0  0  0  0  0  0  0  0  0  0  0
   -2.0327    0.0338    1.5786 H   0  0  0  0  0  0  0  0  0  0  0  0
   -0.8956    0.6990    3.2631 C   0  0  0  0  0  0  0  0  0  0  0  0
   -0.0745    1.4234    3.2750 H   0  0  0  0  0  0  0  0  0  0  0  0
   -1.8043    1.2035    3.6046 H   0  0  0  0  0  0  0  0  0  0  0  0
   -0.6619   -0.1096    3.9635 H   0  0  0  0  0  0  0  0  0  0  0  0
  1  2  1  0  0  0  0
  2  3  1  0  0  0  0
  2  4  1  0  0  0  0
  2  5  1  0  0  0  0
  5  6  2  0  0  0  0
  5  7  1  0  0  0  0
  7  8  1  0  0  0  0
  7  9  1  0  0  0  0
  9 10  1  0  0  0  0
  9 11  1  0  0  0  0
  9 26  1  0  0  0  0
 11 12  1  0  0  0  0
 11 13  1  0  0  0  0
 11 14  1  0  0  0  0
 14 15  2  0  0  0  0
 14 24  1  0  0  0  0
 15 16  1  0  0  0  0
 15 17  1  0  0  0  0
 17 18  1  0  0  0  0
 17 19  2  0  0  0  0
 19 20  1  0  0  0  0
 19 22  1  0  0  0  0
 20 21  1  0  0  0  0
 22 23  1  0  0  0  0
 22 24  2  0  0  0  0
 24 25  1  0  0  0  0
 26 27  2  0  0  0  0
 26 28  1  0  0  0  0
 28 29  1  0  0  0  0
 28 30  1  0  0  0  0
 30 31  1  0  0  0  0
 30 32  1  0  0  0  0
 30 33  1  0  0  0  0
M  END
$$$$

  -OEChem-03222214083D

 33 33  0     1  0  0  0  0  0999 V2000
   -3.3112   -4.5579    0.7718 H   0  0  0  0  0  0  0  0  0  0  0  0
   -3.2486   -3.6667    0.1405 C   0  0  0  0  0  0  0  0  0  0  0  0
   -4.1109   -3.0284    0.3469 H   0  0  0  0  0  0  0  0  0  0  0  0
   -3.2746   -3.9770   -0.9068 H   0  0  0  0  0  0  0  0  0  0  0  0
   -1.9633   -2.9130    0.4278 C   0  0  0  0  0  0  0  0  0  0  0  0
   -1.2198   -3.3016    1.3097 O   0  0  0  0  0  0  0  0  0  0  0  0
   -1.6486   -1.7901   -0.3134 N   0  0  0  0  0  0  0  0  0  0  0  0
   -2.2681   -1.5690   -1.0872 H   0  0  0  0  0  0  0  0  0  0  0  0
   -0.3738   -1.0527   -0.2056 C   0  0  1  0  0  0  0  0  0  0  0  0
    0.4381   -1.7498   -0.4372 H   0  0  0  0  0  0  0  0  0  0  0  0
   -0.3961    0.0760   -1.2538 C   0  0  0  0  0  0  0  0  0  0  0  0
   -0.7595   -0.3234   -2.2059 H   0  0  0  0  0  0  0  0  0  0  0  0
   -1.0996    0.8532   -0.9375 H   0  0  0  0  0  0  0  0  0  0  0  0
    0.9698    0.6763   -1.5000 C   0  0  0  0  0  0  0  0  0  0  0  0
    1.1982    2.0401   -1.2594 C   0  0  0  0  0  0  0  0  0  0  0  0
    0.4044    2.6652   -0.8618 H   0  0  0  0  0  0  0  0  0  0  0  0
    2.4523    2.6075   -1.5149 C   0  0  0  0  0  0  0  0  0  0  0  0
    2.6116    3.6609   -1.3136 H   0  0  0  0  0  0  0  0  0  0  0  0
    3.4884    1.8215   -2.0230 C   0  0  0  0  0  0  0  0  0  0  0  0
    4.7152    2.3649   -2.2738 O   0  0  0  0  0  0  0  0  0  0  0  0
    4.7467    3.2757   -1.9436 H   0  0  0  0  0  0  0  0  0  0  0  0
    3.2662    0.4700   -2.2770 C   0  0  0  0  0  0  0  0  0  0  0  0
    4.0769   -0.1342   -2.6707 H   0  0  0  0  0  0  0  0  0  0  0  0
    2.0160   -0.1031   -2.0199 C   0  0  0  0  0  0  0  0  0  0  0  0
    1.8675   -1.1585   -2.2267 H   0  0  0  0  0  0  0  0  0  0  0  0
   -0.0827   -0.4759    1.1991 C   0  0  0  0  0  0  0  0  0  0  0  0
    1.0596   -0.4573    1.6373 O   0  0  0  0  0  0  0  0  0  0  0  0
   -1.0830    0.1769    1.8988 N   0  0  0  0  0  0  0  0  0  0  0  0
   -2.0302    0.0254    1.5695 H   0  0  0  0  0  0  0  0  0  0  0  0
   -0.8841    0.7036    3.2433 C   0  0  0  0  0  0  0  0  0  0  0  0
   -0.0691    1.4351    3.2519 H   0  0  0  0  0  0  0  0  0  0  0  0
   -1.7938    1.1991    3.5951 H   0  0  0  0  0  0  0  0  0  0  0  0
   -0.6370   -0.1065    3.9376 H   0  0  0  0  0  0  0  0  0  0  0  0
  1  2  1  0  0  0  0
  2  3  1  0  0  0  0
  2  4  1  0  0  0  0
  2  5  1  0  0  0  0
  5  6  2  0  0  0  0
  5  7  1  0  0  0  0
  7  8  1  0  0  0  0
  7  9  1  0  0  0  0
  9 10  1  0  0  0  0
  9 11  1  0  0  0  0
  9 26  1  0  0  0  0
 11 12  1  0  0  0  0
 11 13  1  0  0  0  0
 11 14  1  0  0  0  0
 14 15  2  0  0  0  0
 14 24  1  0  0  0  0
 15 16  1  0  0  0  0
 15 17  1  0  0  0  0
 17 18  1  0  0  0  0
 17 19  2  0  0  0  0
 19 20  1  0  0  0  0
 19 22  1  0  0  0  0
 20 21  1  0  0  0  0
 22 23  1  0  0  0  0
 22 24  2  0  0  0  0
 24 25  1  0  0  0  0
 26 27  2  0  0  0  0
 26 28  1  0  0  0  0
 28 29  1  0  0  0  0
 28 30  1  0  0  0  0
 30 31  1  0  0  0  0
 30 32  1  0  0  0  0
 30 33  1  0  0  0  0
M  END
$$$$

  -OEChem-03222214083D

 33 33  0     1  0  0  0  0  0999 V2000
   -3.2808   -4.5632    0.7787 H   0  0  0  0  0  0  0  0  0  0  0  0
   -3.2298   -3.6722    0.1462 C   0  0  0  0  0  0  0  0  0  0  0  0
   -4.0967   -3.0414    0.3572 H   0  0  0  0  0  0  0  0  0  0  0  0
   -3.2586   -3.9842   -0.9006 H   0  0  0  0  0  0  0  0  0  0  0  0
   -1.9496   -2.9069    0.4260 C   0  0  0  0  0  0  0  0  0  0  0  0
   -1.1979   -3.2879    1.3042 O   0  0  0  0  0  0  0  0  0  0  0  0
   -1.6495   -1.7815   -0.3176 N   0  0  0  0  0  0  0  0  0  0  0  0
   -2.2730   -1.5705   -1.0909 H   0  0  0  0  0  0  0  0  0  0  0  0
   -0.3769   -1.0381   -0.2247 C   0  0  1  0  0  0  0  0  0  0  0  0
    0.4400   -1.7255   -0.4713 H   0  0  0  0  0  0  0  0  0  0  0  0
   -0.4200    0.0900   -1.2713 C   0  0  0  0  0  0  0  0  0  0  0  0
   -0.7966   -0.3069   -2.2194 H   0  0  0  0  0  0  0  0  0  0  0  0
   -1.1162    0.8700   -0.9464 H   0  0  0  0  0  0  0  0  0  0  0  0
    0.9458    0.6831   -1.5206 C   0  0  0  0  0  0  0  0  0  0  0  0
    1.2848    1.9403   -0.9980 C   0  0  0  0  0  0  0  0  0  0  0  0
    0.5724    2.4884   -0.3884 H   0  0  0  0  0  0  0  0  0  0  0  0
    2.5490    2.4909   -1.2392 C   0  0  0  0  0  0  0  0  0  0  0  0
    2.7969    3.4591   -0.8190 H   0  0  0  0  0  0  0  0  0  0  0  0
    3.4831    1.7945   -2.0090 C   0  0  0  0  0  0  0  0  0  0  0  0
    4.7199    2.3214   -2.2456 O   0  0  0  0  0  0  0  0  0  0  0  0
    4.8441    3.1209   -1.7115 H   0  0  0  0  0  0  0  0  0  0  0  0
    3.1504    0.5484   -2.5360 C   0  0  0  0  0  0  0  0  0  0  0  0
    3.8846    0.0130   -3.1288 H   0  0  0  0  0  0  0  0  0  0  0  0
    1.8899   -0.0088   -2.2946 C   0  0  0  0  0  0  0  0  0  0  0  0
    1.6517   -0.9838   -2.7087 H   0  0  0  0  0  0  0  0  0  0  0  0
   -0.0743   -0.4632    1.1788 C   0  0  0  0  0  0  0  0  0  0  0  0
    1.0725   -0.4306    1.6043 O   0  0  0  0  0  0  0  0  0  0  0  0
   -1.0719    0.1820    1.8892 N   0  0  0  0  0  0  0  0  0  0  0  0
   -2.0212    0.0200    1.5708 H   0  0  0  0  0  0  0  0  0  0  0  0
   -0.8649    0.7046    3.2339 C   0  0  0  0  0  0  0  0  0  0  0  0
   -0.0533    1.4400    3.2386 H   0  0  0  0  0  0  0  0  0  0  0  0
   -1.7745    1.1942    3.5944 H   0  0  0  0  0  0  0  0  0  0  0  0
   -0.6091   -0.1069    3.9234 H   0  0  0  0  0  0  0  0  0  0  0  0
  1  2  1  0  0  0  0
  2  3  1  0  0  0  0
  2  4  1  0  0  0  0
  2  5  1  0  0  0  0
  5  6  2  0  0  0  0
  5  7  1  0  0  0  0
  7  8  1  0  0  0  0
  7  9  1  0  0  0  0
  9 10  1  0  0  0  0
  9 11  1  0  0  0  0
  9 26  1  0  0  0  0
 11 12  1  0  0  0  0
 11 13  1  0  0  0  0
 11 14  1  0  0  0  0
 14 15  2  0  0  0  0
 14 24  1  0  0  0  0
 15 16  1  0  0  0  0
 15 17  1  0  0  0  0
 17 18  1  0  0  0  0
 17 19  2  0  0  0  0
 19 20  1  0  0  0  0
 19 22  1  0  0  0  0
 20 21  1  0  0  0  0
 22 23  1  0  0  0  0
 22 24  2  0  0  0  0
 24 25  1  0  0  0  0
 26 27  2  0  0  0  0
 26 28  1  0  0  0  0
 28 29  1  0  0  0  0
 28 30  1  0  0  0  0
 30 31  1  0  0  0  0
 30 32  1  0  0  0  0
 30 33  1  0  0  0  0
M  END
$$$$

  -OEChem-03222214083D

 33 33  0     1  0  0  0  0  0999 V2000
   -3.2869   -4.5513    0.7822 H   0  0  0  0  0  0  0  0  0  0  0  0
   -3.2319   -3.6605    0.1496 C   0  0  0  0  0  0  0  0  0  0  0  0
   -4.0946   -3.0247    0.3626 H   0  0  0  0  0  0  0  0  0  0  0  0
   -3.2655   -3.9722   -0.8971 H   0  0  0  0  0  0  0  0  0  0  0  0
   -1.9464   -2.9028    0.4259 C   0  0  0  0  0  0  0  0  0  0  0  0
   -1.1934   -3.2904    1.3000 O   0  0  0  0  0  0  0  0  0  0  0  0
   -1.6443   -1.7761   -0.3150 N   0  0  0  0  0  0  0  0  0  0  0  0
   -2.2713   -1.5584   -1.0835 H   0  0  0  0  0  0  0  0  0  0  0  0
   -0.3698   -1.0352   -0.2236 C   0  0  1  0  0  0  0  0  0  0  0  0
    0.4486   -1.7199   -0.4739 H   0  0  0  0  0  0  0  0  0  0  0  0
   -0.4168    0.0908   -1.2738 C   0  0  0  0  0  0  0  0  0  0  0  0
   -0.8065   -0.3069   -2.2162 H   0  0  0  0  0  0  0  0  0  0  0  0
   -1.1062    0.8751   -0.9444 H   0  0  0  0  0  0  0  0  0  0  0  0
    0.9456    0.6880   -1.5344 C   0  0  0  0  0  0  0  0  0  0  0  0
    1.4071    1.7805   -0.7839 C   0  0  0  0  0  0  0  0  0  0  0  0
    0.7901    2.1996    0.0058 H   0  0  0  0  0  0  0  0  0  0  0  0
    2.6726    2.3262   -1.0295 C   0  0  0  0  0  0  0  0  0  0  0  0
    3.0149    3.1639   -0.4322 H   0  0  0  0  0  0  0  0  0  0  0  0
    3.4876    1.7883   -2.0274 C   0  0  0  0  0  0  0  0  0  0  0  0
    4.7247    2.3108   -2.2707 O   0  0  0  0  0  0  0  0  0  0  0  0
    4.9375    2.9778   -1.6001 H   0  0  0  0  0  0  0  0  0  0  0  0
    3.0358    0.7036   -2.7761 C   0  0  0  0  0  0  0  0  0  0  0  0
    3.6796    0.2886   -3.5443 H   0  0  0  0  0  0  0  0  0  0  0  0
    1.7734    0.1515   -2.5325 C   0  0  0  0  0  0  0  0  0  0  0  0
    1.4437   -0.6992   -3.1210 H   0  0  0  0  0  0  0  0  0  0  0  0
   -0.0729   -0.4684    1.1850 C   0  0  0  0  0  0  0  0  0  0  0  0
    1.0711   -0.4383    1.6183 O   0  0  0  0  0  0  0  0  0  0  0  0
   -1.0741    0.1725    1.8942 N   0  0  0  0  0  0  0  0  0  0  0  0
   -2.0218    0.0119    1.5702 H   0  0  0  0  0  0  0  0  0  0  0  0
   -0.8750    0.6845    3.2442 C   0  0  0  0  0  0  0  0  0  0  0  0
   -0.0631    1.4192    3.2600 H   0  0  0  0  0  0  0  0  0  0  0  0
   -1.7865    1.1720    3.6026 H   0  0  0  0  0  0  0  0  0  0  0  0
   -0.6240   -0.1324    3.9290 H   0  0  0  0  0  0  0  0  0  0  0  0
  1  2  1  0  0  0  0
  2  3  1  0  0  0  0
  2  4  1  0  0  0  0
  2  5  1  0  0  0  0
  5  6  2  0  0  0  0
  5  7  1  0  0  0  0
  7  8  1  0  0  0  0
  7  9  1  0  0  0  0
  9 10  1  0  0  0  0
  9 11  1  0  0  0  0
  9 26  1  0  0  0  0
 11 12  1  0  0  0  0
 11 13  1  0  0  0  0
 11 14  1  0  0  0  0
 14 15  2  0  0  0  0
 14 24  1  0  0  0  0
 15 16  1  0  0  0  0
 15 17  1  0  0  0  0
 17 18  1  0  0  0  0
 17 19  2  0  0  0  0
 19 20  1  0  0  0  0
 19 22  1  0  0  0  0
 20 21  1  0  0  0  0
 22 23  1  0  0  0  0
 22 24  2  0  0  0  0
 24 25  1  0  0  0  0
 26 27  2  0  0  0  0
 26 28  1  0  0  0  0
 28 29  1  0  0  0  0
 28 30  1  0  0  0  0
 30 31  1  0  0  0  0
 30 32  1  0  0  0  0
 30 33  1  0  0  0  0
M  END
$$$$

  -OEChem-03222214083D

 33 33  0     1  0  0  0  0  0999 V2000
   -3.3185   -4.5249    0.7743 H   0  0  0  0  0  0  0  0  0  0  0  0
   -3.2428   -3.6394    0.1367 C   0  0  0  0  0  0  0  0  0  0  0  0
   -4.1026   -2.9933    0.3287 H   0  0  0  0  0  0  0  0  0  0  0  0
   -3.2598   -3.9580   -0.9083 H   0  0  0  0  0  0  0  0  0  0  0  0
   -1.9548   -2.8938    0.4326 C   0  0  0  0  0  0  0  0  0  0  0  0
   -1.2172   -3.2918    1.3152 O   0  0  0  0  0  0  0  0  0  0  0  0
   -1.6336   -1.7673   -0.3008 N   0  0  0  0  0  0  0  0  0  0  0  0
   -2.2487   -1.5444   -1.0775 H   0  0  0  0  0  0  0  0  0  0  0  0
   -0.3522   -1.0386   -0.1950 C   0  0  1  0  0  0  0  0  0  0  0  0
    0.4650   -1.7275   -0.4369 H   0  0  0  0  0  0  0  0  0  0  0  0
   -0.3871    0.0822   -1.2561 C   0  0  0  0  0  0  0  0  0  0  0  0
   -0.7857   -0.3247   -2.1909 H   0  0  0  0  0  0  0  0  0  0  0  0
   -1.0738    0.8702   -0.9301 H   0  0  0  0  0  0  0  0  0  0  0  0
    0.9671    0.6967   -1.5382 C   0  0  0  0  0  0  0  0  0  0  0  0
    1.5715    1.5880   -0.6368 C   0  0  0  0  0  0  0  0  0  0  0  0
    1.0713    1.8588    0.2886 H   0  0  0  0  0  0  0  0  0  0  0  0
    2.8314    2.1325   -0.9095 C   0  0  0  0  0  0  0  0  0  0  0  0
    3.2820    2.8106   -0.1933 H   0  0  0  0  0  0  0  0  0  0  0  0
    3.5011    1.7984   -2.0874 C   0  0  0  0  0  0  0  0  0  0  0  0
    4.7314    2.3229   -2.3593 O   0  0  0  0  0  0  0  0  0  0  0  0
    5.0443    2.8363   -1.5984 H   0  0  0  0  0  0  0  0  0  0  0  0
    2.9091    0.9173   -2.9894 C   0  0  0  0  0  0  0  0  0  0  0  0
    3.4393    0.6596   -3.9004 H   0  0  0  0  0  0  0  0  0  0  0  0
    1.6525    0.3651   -2.7182 C   0  0  0  0  0  0  0  0  0  0  0  0
    1.2164   -0.3269   -3.4319 H   0  0  0  0  0  0  0  0  0  0  0  0
   -0.0800   -0.4869    1.2251 C   0  0  0  0  0  0  0  0  0  0  0  0
    1.0517   -0.4836    1.6911 O   0  0  0  0  0  0  0  0  0  0  0  0
   -1.0912    0.1541    1.9198 N   0  0  0  0  0  0  0  0  0  0  0  0
   -2.0316    0.0106    1.5676 H   0  0  0  0  0  0  0  0  0  0  0  0
   -0.9241    0.6382    3.2848 C   0  0  0  0  0  0  0  0  0  0  0  0
   -0.1131    1.3723    3.3357 H   0  0  0  0  0  0  0  0  0  0  0  0
   -1.8441    1.1185    3.6310 H   0  0  0  0  0  0  0  0  0  0  0  0
   -0.6900   -0.1924    3.9591 H   0  0  0  0  0  0  0  0  0  0  0  0
  1  2  1  0  0  0  0
  2  3  1  0  0  0  0
  2  4  1  0  0  0  0
  2  5  1  0  0  0  0
  5  6  2  0  0  0  0
  5  7  1  0  0  0  0
  7  8  1  0  0  0  0
  7  9  1  0  0  0  0
  9 10  1  0  0  0  0
  9 11  1  0  0  0  0
  9 26  1  0  0  0  0
 11 12  1  0  0  0  0
 11 13  1  0  0  0  0
 11 14  1  0  0  0  0
 14 15  2  0  0  0  0
 14 24  1  0  0  0  0
 15 16  1  0  0  0  0
 15 17  1  0  0  0  0
 17 18  1  0  0  0  0
 17 19  2  0  0  0  0
 19 20  1  0  0  0  0
 19 22  1  0  0  0  0
 20 21  1  0  0  0  0
 22 23  1  0  0  0  0
 22 24  2  0  0  0  0
 24 25  1  0  0  0  0
 26 27  2  0  0  0  0
 26 28  1  0  0  0  0
 28 29  1  0  0  0  0
 28 30  1  0  0  0  0
 30 31  1  0  0  0  0
 30 32  1  0  0  0  0
 30 33  1  0  0  0  0
M  END
$$$$

  -OEChem-03222214083D

 33 33  0     1  0  0  0  0  0999 V2000
   -3.3630   -4.4926    0.7504 H   0  0  0  0  0  0  0  0  0  0  0  0
   -3.2652   -3.6012    0.1242 C   0  0  0  0  0  0  0  0  0  0  0  0
   -4.1101   -2.9378    0.3233 H   0  0  0  0  0  0  0  0  0  0  0  0
   -3.2870   -3.9063   -0.9249 H   0  0  0  0  0  0  0  0  0  0  0  0
   -1.9613   -2.8893    0.4332 C   0  0  0  0  0  0  0  0  0  0  0  0
   -1.2373   -3.3140    1.3145 O   0  0  0  0  0  0  0  0  0  0  0  0
   -1.6107   -1.7638   -0.2886 N   0  0  0  0  0  0  0  0  0  0  0  0
   -2.2174   -1.5181   -1.0650 H   0  0  0  0  0  0  0  0  0  0  0  0
   -0.3236   -1.0488   -0.1530 C   0  0  1  0  0  0  0  0  0  0  0  0
    0.4944   -1.7429   -0.3757 H   0  0  0  0  0  0  0  0  0  0  0  0
   -0.3362    0.0647   -1.2273 C   0  0  0  0  0  0  0  0  0  0  0  0
   -0.7322   -0.3580   -2.1563 H   0  0  0  0  0  0  0  0  0  0  0  0
   -1.0294    0.8518   -0.9139 H   0  0  0  0  0  0  0  0  0  0  0  0
    1.0056    0.7081   -1.5307 C   0  0  0  0  0  0  0  0  0  0  0  0
    1.7654    1.3828   -0.5586 C   0  0  0  0  0  0  0  0  0  0  0  0
    1.3985    1.5077    0.4544 H   0  0  0  0  0  0  0  0  0  0  0  0
    3.0127    1.9316   -0.8774 C   0  0  0  0  0  0  0  0  0  0  0  0
    3.5784    2.4424   -0.1059 H   0  0  0  0  0  0  0  0  0  0  0  0
    3.5205    1.8207   -2.1714 C   0  0  0  0  0  0  0  0  0  0  0  0
    4.7367    2.3514   -2.4899 O   0  0  0  0  0  0  0  0  0  0  0  0
    5.1571    2.7117   -1.6938 H   0  0  0  0  0  0  0  0  0  0  0  0
    2.7771    1.1606   -3.1453 C   0  0  0  0  0  0  0  0  0  0  0  0
    3.1797    1.0774   -4.1494 H   0  0  0  0  0  0  0  0  0  0  0  0
    1.5324    0.6053   -2.8301 C   0  0  0  0  0  0  0  0  0  0  0  0
    0.9813    0.0872   -3.6090 H   0  0  0  0  0  0  0  0  0  0  0  0
   -0.0954   -0.5127    1.2805 C   0  0  0  0  0  0  0  0  0  0  0  0
    1.0085   -0.5748    1.8060 O   0  0  0  0  0  0  0  0  0  0  0  0
   -1.1222    0.1305    1.9500 N   0  0  0  0  0  0  0  0  0  0  0  0
   -2.0478    0.0330    1.5468 H   0  0  0  0  0  0  0  0  0  0  0  0
   -1.0067    0.5661    3.3362 C   0  0  0  0  0  0  0  0  0  0  0  0
   -0.1809    1.2765    3.4479 H   0  0  0  0  0  0  0  0  0  0  0  0
   -1.9295    1.0590    3.6563 H   0  0  0  0  0  0  0  0  0  0  0  0
   -0.8247   -0.2916    3.9924 H   0  0  0  0  0  0  0  0  0  0  0  0
  1  2  1  0  0  0  0
  2  3  1  0  0  0  0
  2  4  1  0  0  0  0
  2  5  1  0  0  0  0
  5  6  2  0  0  0  0
  5  7  1  0  0  0  0
  7  8  1  0  0  0  0
  7  9  1  0  0  0  0
  9 10  1  0  0  0  0
  9 11  1  0  0  0  0
  9 26  1  0  0  0  0
 11 12  1  0  0  0  0
 11 13  1  0  0  0  0
 11 14  1  0  0  0  0
 14 15  2  0  0  0  0
 14 24  1  0  0  0  0
 15 16  1  0  0  0  0
 15 17  1  0  0  0  0
 17 18  1  0  0  0  0
 17 19  2  0  0  0  0
 19 20  1  0  0  0  0
 19 22  1  0  0  0  0
 20 21  1  0  0  0  0
 22 23  1  0  0  0  0
 22 24  2  0  0  0  0
 24 25  1  0  0  0  0
 26 27  2  0  0  0  0
 26 28  1  0  0  0  0
 28 29  1  0  0  0  0
 28 30  1  0  0  0  0
 30 31  1  0  0  0  0
 30 32  1  0  0  0  0
 30 33  1  0  0  0  0
M  END
$$$$

  -OEChem-03222214083D

 33 33  0     1  0  0  0  0  0999 V2000
   -3.4393   -4.4426    0.7171 H   0  0  0  0  0  0  0  0  0  0  0  0
   -3.2993   -3.5521    0.0973 C   0  0  0  0  0  0  0  0  0  0  0  0
   -4.1317   -2.8668    0.2735 H   0  0  0  0  0  0  0  0  0  0  0  0
   -3.2983   -3.8533   -0.9530 H   0  0  0  0  0  0  0  0  0  0  0  0
   -1.9862   -2.8759    0.4456 C   0  0  0  0  0  0  0  0  0  0  0  0
   -1.2998   -3.3217    1.3462 O   0  0  0  0  0  0  0  0  0  0  0  0
   -1.5833   -1.7632   -0.2688 N   0  0  0  0  0  0  0  0  0  0  0  0
   -2.1622   -1.5036   -1.0615 H   0  0  0  0  0  0  0  0  0  0  0  0
   -0.2847   -1.0764   -0.0977 C   0  0  1  0  0  0  0  0  0  0  0  0
    0.5298   -1.7825   -0.2944 H   0  0  0  0  0  0  0  0  0  0  0  0
   -0.2658    0.0307   -1.1817 C   0  0  0  0  0  0  0  0  0  0  0  0
   -0.6539   -0.4065   -2.1074 H   0  0  0  0  0  0  0  0  0  0  0  0
   -0.9633    0.8197   -0.8831 H   0  0  0  0  0  0  0  0  0  0  0  0
    1.0664    0.6920   -1.5077 C   0  0  0  0  0  0  0  0  0  0  0  0
    1.9900    1.1317   -0.5410 C   0  0  0  0  0  0  0  0  0  0  0  0
    1.7858    1.0641    0.5193 H   0  0  0  0  0  0  0  0  0  0  0  0
    3.2084    1.7080   -0.9193 C   0  0  0  0  0  0  0  0  0  0  0  0
    3.8985    2.0371   -0.1500 H   0  0  0  0  0  0  0  0  0  0  0  0
    3.5288    1.8601   -2.2674 C   0  0  0  0  0  0  0  0  0  0  0  0
    4.7160    2.4183   -2.6437 O   0  0  0  0  0  0  0  0  0  0  0  0
    5.2539    2.6088   -1.8595 H   0  0  0  0  0  0  0  0  0  0  0  0
    2.6242    1.4384   -3.2361 C   0  0  0  0  0  0  0  0  0  0  0  0
    2.8782    1.5604   -4.2839 H   0  0  0  0  0  0  0  0  0  0  0  0
    1.4068    0.8598   -2.8629 C   0  0  0  0  0  0  0  0  0  0  0  0
    0.7280    0.5363   -3.6462 H   0  0  0  0  0  0  0  0  0  0  0  0
   -0.1062   -0.5429    1.3445 C   0  0  0  0  0  0  0  0  0  0  0  0
    0.9525   -0.6876    1.9421 O   0  0  0  0  0  0  0  0  0  0  0  0
   -1.1459    0.1217    1.9713 N   0  0  0  0  0  0  0  0  0  0  0  0
   -2.0476    0.0770    1.5092 H   0  0  0  0  0  0  0  0  0  0  0  0
   -1.1002    0.5058    3.3767 C   0  0  0  0  0  0  0  0  0  0  0  0
   -0.2562    1.1780    3.5637 H   0  0  0  0  0  0  0  0  0  0  0  0
   -2.0218    1.0242    3.6579 H   0  0  0  0  0  0  0  0  0  0  0  0
   -0.9917   -0.3803    4.0111 H   0  0  0  0  0  0  0  0  0  0  0  0
  1  2  1  0  0  0  0
  2  3  1  0  0  0  0
  2  4  1  0  0  0  0
  2  5  1  0  0  0  0
  5  6  2  0  0  0  0
  5  7  1  0  0  0  0
  7  8  1  0  0  0  0
  7  9  1  0  0  0  0
  9 10  1  0  0  0  0
  9 11  1  0  0  0  0
  9 26  1  0  0  0  0
 11 12  1  0  0  0  0
 11 13  1  0  0  0  0
 11 14  1  0  0  0  0
 14 15  2  0  0  0  0
 14 24  1  0  0  0  0
 15 16  1  0  0  0  0
 15 17  1  0  0  0  0
 17 18  1  0  0  0  0
 17 19  2  0  0  0  0
 19 20  1  0  0  0  0
 19 22  1  0  0  0  0
 20 21  1  0  0  0  0
 22 23  1  0  0  0  0
 22 24  2  0  0  0  0
 24 25  1  0  0  0  0
 26 27  2  0  0  0  0
 26 28  1  0  0  0  0
 28 29  1  0  0  0  0
 28 30  1  0  0  0  0
 30 31  1  0  0  0  0
 30 32  1  0  0  0  0
 30 33  1  0  0  0  0
M  END
$$$$

  -OEChem-03222214083D

 33 33  0     1  0  0  0  0  0999 V2000
   -3.5139   -4.3915    0.7439 H   0  0  0  0  0  0  0  0  0  0  0  0
   -3.3449   -3.5133    0.1139 C   0  0  0  0  0  0  0  0  0  0  0  0
   -4.1551   -2.7998    0.2814 H   0  0  0  0  0  0  0  0  0  0  0  0
   -3.3528   -3.8264   -0.9328 H   0  0  0  0  0  0  0  0  0  0  0  0
   -2.0112   -2.8758    0.4565 C   0  0  0  0  0  0  0  0  0  0  0  0
   -1.3385   -3.3386    1.3586 O   0  0  0  0  0  0  0  0  0  0  0  0
   -1.5716   -1.7825   -0.2668 N   0  0  0  0  0  0  0  0  0  0  0  0
   -2.1408   -1.5095   -1.0621 H   0  0  0  0  0  0  0  0  0  0  0  0
   -0.2600   -1.1226   -0.0835 C   0  0  1  0  0  0  0  0  0  0  0  0
    0.5457   -1.8422   -0.2662 H   0  0  0  0  0  0  0  0  0  0  0  0
   -0.2147   -0.0106   -1.1618 C   0  0  0  0  0  0  0  0  0  0  0  0
   -0.5990   -0.4445   -2.0909 H   0  0  0  0  0  0  0  0  0  0  0  0
   -0.9075    0.7843   -0.8669 H   0  0  0  0  0  0  0  0  0  0  0  0
    1.1188    0.6442   -1.4993 C   0  0  0  0  0  0  0  0  0  0  0  0
    2.1898    0.8097   -0.6006 C   0  0  0  0  0  0  0  0  0  0  0  0
    2.1437    0.4701    0.4235 H   0  0  0  0  0  0  0  0  0  0  0  0
    3.3775    1.4319   -1.0019 C   0  0  0  0  0  0  0  0  0  0  0  0
    4.1837    1.5404   -0.2845 H   0  0  0  0  0  0  0  0  0  0  0  0
    3.5215    1.9059   -2.3044 C   0  0  0  0  0  0  0  0  0  0  0  0
    4.6777    2.5122   -2.7018 O   0  0  0  0  0  0  0  0  0  0  0  0
    5.3124    2.5238   -1.9686 H   0  0  0  0  0  0  0  0  0  0  0  0
    2.4712    1.7583   -3.2040 C   0  0  0  0  0  0  0  0  0  0  0  0
    2.5874    2.1320   -4.2160 H   0  0  0  0  0  0  0  0  0  0  0  0
    1.2828    1.1367   -2.8071 C   0  0  0  0  0  0  0  0  0  0  0  0
    0.4815    1.0404   -3.5336 H   0  0  0  0  0  0  0  0  0  0  0  0
   -0.1069   -0.5771    1.3596 C   0  0  0  0  0  0  0  0  0  0  0  0
    0.9145   -0.7721    2.0056 O   0  0  0  0  0  0  0  0  0  0  0  0
   -1.1487    0.1151    1.9527 N   0  0  0  0  0  0  0  0  0  0  0  0
   -2.0317    0.1129    1.4541 H   0  0  0  0  0  0  0  0  0  0  0  0
   -1.1374    0.5074    3.3565 C   0  0  0  0  0  0  0  0  0  0  0  0
   -0.2766    1.1505    3.5677 H   0  0  0  0  0  0  0  0  0  0  0  0
   -2.0486    1.0605    3.6025 H   0  0  0  0  0  0  0  0  0  0  0  0
   -1.0825   -0.3773    3.9998 H   0  0  0  0  0  0  0  0  0  0  0  0
  1  2  1  0  0  0  0
  2  3  1  0  0  0  0
  2  4  1  0  0  0  0
  2  5  1  0  0  0  0
  5  6  2  0  0  0  0
  5  7  1  0  0  0  0
  7  8  1  0  0  0  0
  7  9  1  0  0  0  0
  9 10  1  0  0  0  0
  9 11  1  0  0  0  0
  9 26  1  0  0  0  0
 11 12  1  0  0  0  0
 11 13  1  0  0  0  0
 11 14  1  0  0  0  0
 14 15  2  0  0  0  0
 14 24  1  0  0  0  0
 15 16  1  0  0  0  0
 15 17  1  0  0  0  0
 17 18  1  0  0  0  0
 17 19  2  0  0  0  0
 19 20  1  0  0  0  0
 19 22  1  0  0  0  0
 20 21  1  0  0  0  0
 22 23  1  0  0  0  0
 22 24  2  0  0  0  0
 24 25  1  0  0  0  0
 26 27  2  0  0  0  0
 26 28  1  0  0  0  0
 28 29  1  0  0  0  0
 28 30  1  0  0  0  0
 30 31  1  0  0  0  0
 30 32  1  0  0  0  0
 30 33  1  0  0  0  0
M  END
$$$$

  -OEChem-03222214083D

 33 33  0     1  0  0  0  0  0999 V2000
   -3.5436   -4.3799    0.7830 H   0  0  0  0  0  0  0  0  0  0  0  0
   -3.3700   -3.5148    0.1364 C   0  0  0  0  0  0  0  0  0  0  0  0
   -4.1737   -2.7918    0.2941 H   0  0  0  0  0  0  0  0  0  0  0  0
   -3.3847   -3.8470   -0.9043 H   0  0  0  0  0  0  0  0  0  0  0  0
   -2.0298   -2.8817    0.4622 C   0  0  0  0  0  0  0  0  0  0  0  0
   -1.3512   -3.3398    1.3624 O   0  0  0  0  0  0  0  0  0  0  0  0
   -1.5887   -1.7988   -0.2758 N   0  0  0  0  0  0  0  0  0  0  0  0
   -2.1602   -1.5310   -1.0712 H   0  0  0  0  0  0  0  0  0  0  0  0
   -0.2705   -1.1490   -0.1092 C   0  0  1  0  0  0  0  0  0  0  0  0
    0.5258   -1.8769   -0.2993 H   0  0  0  0  0  0  0  0  0  0  0  0
   -0.2221   -0.0277   -1.1749 C   0  0  0  0  0  0  0  0  0  0  0  0
   -0.6119   -0.4449   -2.1095 H   0  0  0  0  0  0  0  0  0  0  0  0
   -0.9040    0.7722   -0.8677 H   0  0  0  0  0  0  0  0  0  0  0  0
    1.1176    0.6085   -1.5143 C   0  0  0  0  0  0  0  0  0  0  0  0
    2.2905    0.4856   -0.7454 C   0  0  0  0  0  0  0  0  0  0  0  0
    2.3336   -0.1272    0.1447 H   0  0  0  0  0  0  0  0  0  0  0  0
    3.4697    1.1378   -1.1246 C   0  0  0  0  0  0  0  0  0  0  0  0
    4.3576    1.0195   -0.5128 H   0  0  0  0  0  0  0  0  0  0  0  0
    3.5021    1.9260   -2.2740 C   0  0  0  0  0  0  0  0  0  0  0  0
    4.6488    2.5637   -2.6491 O   0  0  0  0  0  0  0  0  0  0  0  0
    5.3534    2.3773   -2.0091 H   0  0  0  0  0  0  0  0  0  0  0  0
    2.3510    2.0598   -3.0437 C   0  0  0  0  0  0  0  0  0  0  0  0
    2.3815    2.6757   -3.9365 H   0  0  0  0  0  0  0  0  0  0  0  0
    1.1705    1.4109   -2.6675 C   0  0  0  0  0  0  0  0  0  0  0  0
    0.2852    1.5395   -3.2829 H   0  0  0  0  0  0  0  0  0  0  0  0
   -0.0958   -0.5891    1.3279 C   0  0  0  0  0  0  0  0  0  0  0  0
    0.9412   -0.7575    1.9558 O   0  0  0  0  0  0  0  0  0  0  0  0
   -1.1257    0.1188    1.9238 N   0  0  0  0  0  0  0  0  0  0  0  0
   -2.0176    0.1094    1.4417 H   0  0  0  0  0  0  0  0  0  0  0  0
   -1.0839    0.5595    3.3128 C   0  0  0  0  0  0  0  0  0  0  0  0
   -0.2202    1.2112    3.4826 H   0  0  0  0  0  0  0  0  0  0  0  0
   -1.9907    1.1195    3.5603 H   0  0  0  0  0  0  0  0  0  0  0  0
   -1.0124   -0.3023    3.9849 H   0  0  0  0  0  0  0  0  0  0  0  0
  1  2  1  0  0  0  0
  2  3  1  0  0  0  0
  2  4  1  0  0  0  0
  2  5  1  0  0  0  0
  5  6  2  0  0  0  0
  5  7  1  0  0  0  0
  7  8  1  0  0  0  0
  7  9  1  0  0  0  0
  9 10  1  0  0  0  0
  9 11  1  0  0  0  0
  9 26  1  0  0  0  0
 11 12  1  0  0  0  0
 11 13  1  0  0  0  0
 11 14  1  0  0  0  0
 14 15  2  0  0  0  0
 14 24  1  0  0  0  0
 15 16  1  0  0  0  0
 15 17  1  0  0  0  0
 17 18  1  0  0  0  0
 17 19  2  0  0  0  0
 19 20  1  0  0  0  0
 19 22  1  0  0  0  0
 20 21  1  0  0  0  0
 22 23  1  0  0  0  0
 22 24  2  0  0  0  0
 24 25  1  0  0  0  0
 26 27  2  0  0  0  0
 26 28  1  0  0  0  0
 28 29  1  0  0  0  0
 28 30  1  0  0  0  0
 30 31  1  0  0  0  0
 30 32  1  0  0  0  0
 30 33  1  0  0  0  0
M  END
$$$$

  -OEChem-03222214083D

 33 33  0     1  0  0  0  0  0999 V2000
   -3.5097   -4.4268    0.7813 H   0  0  0  0  0  0  0  0  0  0  0  0
   -3.3657   -3.5489    0.1447 C   0  0  0  0  0  0  0  0  0  0  0  0
   -4.1778   -2.8422    0.3313 H   0  0  0  0  0  0  0  0  0  0  0  0
   -3.3977   -3.8653   -0.9007 H   0  0  0  0  0  0  0  0  0  0  0  0
   -2.0301   -2.8969    0.4495 C   0  0  0  0  0  0  0  0  0  0  0  0
   -1.3288   -3.3432    1.3386 O   0  0  0  0  0  0  0  0  0  0  0  0
   -1.6197   -1.8051   -0.2918 N   0  0  0  0  0  0  0  0  0  0  0  0
   -2.2089   -1.5414   -1.0757 H   0  0  0  0  0  0  0  0  0  0  0  0
   -0.3093   -1.1387   -0.1456 C   0  0  1  0  0  0  0  0  0  0  0  0
    0.4791   -1.8702   -0.3520 H   0  0  0  0  0  0  0  0  0  0  0  0
   -0.2714   -0.0157   -1.2064 C   0  0  0  0  0  0  0  0  0  0  0  0
   -0.6568   -0.4264   -2.1453 H   0  0  0  0  0  0  0  0  0  0  0  0
   -0.9552    0.7807   -0.8942 H   0  0  0  0  0  0  0  0  0  0  0  0
    1.0734    0.6123   -1.5314 C   0  0  0  0  0  0  0  0  0  0  0  0
    2.2934    0.2410   -0.9339 C   0  0  0  0  0  0  0  0  0  0  0  0
    2.3531   -0.5568   -0.2023 H   0  0  0  0  0  0  0  0  0  0  0  0
    3.4853    0.8885   -1.2781 C   0  0  0  0  0  0  0  0  0  0  0  0
    4.4086    0.5828   -0.7984 H   0  0  0  0  0  0  0  0  0  0  0  0
    3.4833    1.9134   -2.2236 C   0  0  0  0  0  0  0  0  0  0  0  0
    4.6422    2.5497   -2.5620 O   0  0  0  0  0  0  0  0  0  0  0  0
    5.3750    2.2025   -2.0299 H   0  0  0  0  0  0  0  0  0  0  0  0
    2.2855    2.2877   -2.8254 C   0  0  0  0  0  0  0  0  0  0  0  0
    2.2914    3.0860   -3.5602 H   0  0  0  0  0  0  0  0  0  0  0  0
    1.0912    1.6455   -2.4826 C   0  0  0  0  0  0  0  0  0  0  0  0
    0.1692    1.9602   -2.9624 H   0  0  0  0  0  0  0  0  0  0  0  0
   -0.0839   -0.5721    1.2796 C   0  0  0  0  0  0  0  0  0  0  0  0
    1.0003   -0.6791    1.8376 O   0  0  0  0  0  0  0  0  0  0  0  0
   -1.0953    0.1302    1.9118 N   0  0  0  0  0  0  0  0  0  0  0  0
   -2.0122    0.0868    1.4813 H   0  0  0  0  0  0  0  0  0  0  0  0
   -0.9853    0.6132    3.2824 C   0  0  0  0  0  0  0  0  0  0  0  0
   -0.1367    1.2984    3.3809 H   0  0  0  0  0  0  0  0  0  0  0  0
   -1.8951    1.1490    3.5689 H   0  0  0  0  0  0  0  0  0  0  0  0
   -0.8432   -0.2255    3.9722 H   0  0  0  0  0  0  0  0  0  0  0  0
  1  2  1  0  0  0  0
  2  3  1  0  0  0  0
  2  4  1  0  0  0  0
  2  5  1  0  0  0  0
  5  6  2  0  0  0  0
  5  7  1  0  0  0  0
  7  8  1  0  0  0  0
  7  9  1  0  0  0  0
  9 10  1  0  0  0  0
  9 11  1  0  0  0  0
  9 26  1  0  0  0  0
 11 12  1  0  0  0  0
 11 13  1  0  0  0  0
 11 14  1  0  0  0  0
 14 15  2  0  0  0  0
 14 24  1  0  0  0  0
 15 16  1  0  0  0  0
 15 17  1  0  0  0  0
 17 18  1  0  0  0  0
 17 19  2  0  0  0  0
 19 20  1  0  0  0  0
 19 22  1  0  0  0  0
 20 21  1  0  0  0  0
 22 23  1  0  0  0  0
 22 24  2  0  0  0  0
 24 25  1  0  0  0  0
 26 27  2  0  0  0  0
 26 28  1  0  0  0  0
 28 29  1  0  0  0  0
 28 30  1  0  0  0  0
 30 31  1  0  0  0  0
 30 32  1  0  0  0  0
 30 33  1  0  0  0  0
M  END
$$$$

  -OEChem-03222214083D

 33 33  0     1  0  0  0  0  0999 V2000
   -3.4645   -4.4836    0.7594 H   0  0  0  0  0  0  0  0  0  0  0  0
   -3.3496   -3.6000    0.1250 C   0  0  0  0  0  0  0  0  0  0  0  0
   -4.1807   -2.9179    0.3184 H   0  0  0  0  0  0  0  0  0  0  0  0
   -3.3784   -3.9139   -0.9212 H   0  0  0  0  0  0  0  0  0  0  0  0
   -2.0319   -2.9107    0.4250 C   0  0  0  0  0  0  0  0  0  0  0  0
   -1.3097   -3.3432    1.3043 O   0  0  0  0  0  0  0  0  0  0  0  0
   -1.6597   -1.7988   -0.3060 N   0  0  0  0  0  0  0  0  0  0  0  0
   -2.2636   -1.5396   -1.0802 H   0  0  0  0  0  0  0  0  0  0  0  0
   -0.3608   -1.1105   -0.1692 C   0  0  1  0  0  0  0  0  0  0  0  0
    0.4168   -1.8481   -0.3888 H   0  0  0  0  0  0  0  0  0  0  0  0
   -0.3230    0.0100   -1.2304 C   0  0  0  0  0  0  0  0  0  0  0  0
   -0.6962   -0.3990   -2.1746 H   0  0  0  0  0  0  0  0  0  0  0  0
   -1.0133    0.8021   -0.9216 H   0  0  0  0  0  0  0  0  0  0  0  0
    1.0286    0.6357   -1.5303 C   0  0  0  0  0  0  0  0  0  0  0  0
    2.2616    0.0735   -1.1452 C   0  0  0  0  0  0  0  0  0  0  0  0
    2.3164   -0.8500   -0.5779 H   0  0  0  0  0  0  0  0  0  0  0  0
    3.4674    0.7051   -1.4704 C   0  0  0  0  0  0  0  0  0  0  0  0
    4.4015    0.2558   -1.1512 H   0  0  0  0  0  0  0  0  0  0  0  0
    3.4661    1.8998   -2.1895 C   0  0  0  0  0  0  0  0  0  0  0  0
    4.6391    2.5204   -2.5076 O   0  0  0  0  0  0  0  0  0  0  0  0
    5.3830    2.0371   -2.1156 H   0  0  0  0  0  0  0  0  0  0  0  0
    2.2551    2.4619   -2.5835 C   0  0  0  0  0  0  0  0  0  0  0  0
    2.2622    3.3910   -3.1439 H   0  0  0  0  0  0  0  0  0  0  0  0
    1.0466    1.8372   -2.2576 C   0  0  0  0  0  0  0  0  0  0  0  0
    0.1152    2.2955   -2.5763 H   0  0  0  0  0  0  0  0  0  0  0  0
   -0.0820   -0.5496    1.2454 C   0  0  0  0  0  0  0  0  0  0  0  0
    1.0418   -0.6127    1.7270 O   0  0  0  0  0  0  0  0  0  0  0  0
   -1.0710    0.1380    1.9265 N   0  0  0  0  0  0  0  0  0  0  0  0
   -2.0117    0.0628    1.5555 H   0  0  0  0  0  0  0  0  0  0  0  0
   -0.8870    0.6535    3.2770 C   0  0  0  0  0  0  0  0  0  0  0  0
   -0.0451    1.3533    3.3085 H   0  0  0  0  0  0  0  0  0  0  0  0
   -1.7861    1.1827    3.6060 H   0  0  0  0  0  0  0  0  0  0  0  0
   -0.6899   -0.1669    3.9753 H   0  0  0  0  0  0  0  0  0  0  0  0
  1  2  1  0  0  0  0
  2  3  1  0  0  0  0
  2  4  1  0  0  0  0
  2  5  1  0  0  0  0
  5  6  2  0  0  0  0
  5  7  1  0  0  0  0
  7  8  1  0  0  0  0
  7  9  1  0  0  0  0
  9 10  1  0  0  0  0
  9 11  1  0  0  0  0
  9 26  1  0  0  0  0
 11 12  1  0  0  0  0
 11 13  1  0  0  0  0
 11 14  1  0  0  0  0
 14 15  2  0  0  0  0
 14 24  1  0  0  0  0
 15 16  1  0  0  0  0
 15 17  1  0  0  0  0
 17 18  1  0  0  0  0
 17 19  2  0  0  0  0
 19 20  1  0  0  0  0
 19 22  1  0  0  0  0
 20 21  1  0  0  0  0
 22 23  1  0  0  0  0
 22 24  2  0  0  0  0
 24 25  1  0  0  0  0
 26 27  2  0  0  0  0
 26 28  1  0  0  0  0
 28 29  1  0  0  0  0
 28 30  1  0  0  0  0
 30 31  1  0  0  0  0
 30 32  1  0  0  0  0
 30 33  1  0  0  0  0
M  END
$$$$

  -OEChem-03222214083D

 33 33  0     1  0  0  0  0  0999 V2000
   -3.4328   -4.5067    0.7748 H   0  0  0  0  0  0  0  0  0  0  0  0
   -3.3367   -3.6215    0.1395 C   0  0  0  0  0  0  0  0  0  0  0  0
   -4.1708   -2.9474    0.3477 H   0  0  0  0  0  0  0  0  0  0  0  0
   -3.3809   -3.9345   -0.9064 H   0  0  0  0  0  0  0  0  0  0  0  0
   -2.0204   -2.9200    0.4175 C   0  0  0  0  0  0  0  0  0  0  0  0
   -1.2793   -3.3455    1.2844 O   0  0  0  0  0  0  0  0  0  0  0  0
   -1.6724   -1.8017   -0.3152 N   0  0  0  0  0  0  0  0  0  0  0  0
   -2.2917   -1.5452   -1.0782 H   0  0  0  0  0  0  0  0  0  0  0  0
   -0.3809   -1.0977   -0.1929 C   0  0  1  0  0  0  0  0  0  0  0  0
    0.3957   -1.8341   -0.4149 H   0  0  0  0  0  0  0  0  0  0  0  0
   -0.3580    0.0197   -1.2567 C   0  0  0  0  0  0  0  0  0  0  0  0
   -0.7274   -0.3917   -2.2012 H   0  0  0  0  0  0  0  0  0  0  0  0
   -1.0554    0.8054   -0.9475 H   0  0  0  0  0  0  0  0  0  0  0  0
    0.9960    0.6427   -1.5485 C   0  0  0  0  0  0  0  0  0  0  0  0
    2.2139   -0.0547   -1.4312 C   0  0  0  0  0  0  0  0  0  0  0  0
    2.2483   -1.0867   -1.0992 H   0  0  0  0  0  0  0  0  0  0  0  0
    3.4285    0.5752   -1.7264 C   0  0  0  0  0  0  0  0  0  0  0  0
    4.3534    0.0197   -1.6163 H   0  0  0  0  0  0  0  0  0  0  0  0
    3.4486    1.9036   -2.1509 C   0  0  0  0  0  0  0  0  0  0  0  0
    4.6299    2.5241   -2.4378 O   0  0  0  0  0  0  0  0  0  0  0  0
    5.3704    1.9361   -2.2227 H   0  0  0  0  0  0  0  0  0  0  0  0
    2.2511    2.6007   -2.2808 C   0  0  0  0  0  0  0  0  0  0  0  0
    2.2753    3.6337   -2.6117 H   0  0  0  0  0  0  0  0  0  0  0  0
    1.0345    1.9781   -1.9825 C   0  0  0  0  0  0  0  0  0  0  0  0
    0.1149    2.5449   -2.0912 H   0  0  0  0  0  0  0  0  0  0  0  0
   -0.0729   -0.5306    1.2110 C   0  0  0  0  0  0  0  0  0  0  0  0
    1.0683   -0.5677    1.6520 O   0  0  0  0  0  0  0  0  0  0  0  0
   -1.0509    0.1499    1.9147 N   0  0  0  0  0  0  0  0  0  0  0  0
   -2.0012    0.0545    1.5737 H   0  0  0  0  0  0  0  0  0  0  0  0
   -0.8351    0.6768    3.2561 C   0  0  0  0  0  0  0  0  0  0  0  0
    0.0012    1.3838    3.2603 H   0  0  0  0  0  0  0  0  0  0  0  0
   -1.7297    1.2010    3.6053 H   0  0  0  0  0  0  0  0  0  0  0  0
   -0.6124   -0.1366    3.9546 H   0  0  0  0  0  0  0  0  0  0  0  0
  1  2  1  0  0  0  0
  2  3  1  0  0  0  0
  2  4  1  0  0  0  0
  2  5  1  0  0  0  0
  5  6  2  0  0  0  0
  5  7  1  0  0  0  0
  7  8  1  0  0  0  0
  7  9  1  0  0  0  0
  9 10  1  0  0  0  0
  9 11  1  0  0  0  0
  9 26  1  0  0  0  0
 11 12  1  0  0  0  0
 11 13  1  0  0  0  0
 11 14  1  0  0  0  0
 14 15  2  0  0  0  0
 14 24  1  0  0  0  0
 15 16  1  0  0  0  0
 15 17  1  0  0  0  0
 17 18  1  0  0  0  0
 17 19  2  0  0  0  0
 19 20  1  0  0  0  0
 19 22  1  0  0  0  0
 20 21  1  0  0  0  0
 22 23  1  0  0  0  0
 22 24  2  0  0  0  0
 24 25  1  0  0  0  0
 26 27  2  0  0  0  0
 26 28  1  0  0  0  0
 28 29  1  0  0  0  0
 28 30  1  0  0  0  0
 30 31  1  0  0  0  0
 30 32  1  0  0  0  0
 30 33  1  0  0  0  0
M  END
$$$$

  -OEChem-03222214083D

 33 33  0     1  0  0  0  0  0999 V2000
   -3.3645   -4.5322    0.8017 H   0  0  0  0  0  0  0  0  0  0  0  0
   -3.2906   -3.6514    0.1574 C   0  0  0  0  0  0  0  0  0  0  0  0
   -4.1351   -2.9908    0.3671 H   0  0  0  0  0  0  0  0  0  0  0  0
   -3.3374   -3.9748   -0.8853 H   0  0  0  0  0  0  0  0  0  0  0  0
   -1.9854   -2.9231    0.4181 C   0  0  0  0  0  0  0  0  0  0  0  0
   -1.2247   -3.3331    1.2754 O   0  0  0  0  0  0  0  0  0  0  0  0
   -1.6685   -1.8007   -0.3225 N   0  0  0  0  0  0  0  0  0  0  0  0
   -2.3039   -1.5574   -1.0764 H   0  0  0  0  0  0  0  0  0  0  0  0
   -0.3868   -1.0752   -0.2238 C   0  0  1  0  0  0  0  0  0  0  0  0
    0.4051   -1.7922   -0.4566 H   0  0  0  0  0  0  0  0  0  0  0  0
   -0.4039    0.0464   -1.2823 C   0  0  0  0  0  0  0  0  0  0  0  0
   -0.7785   -0.3633   -2.2256 H   0  0  0  0  0  0  0  0  0  0  0  0
   -1.1068    0.8226   -0.9626 H   0  0  0  0  0  0  0  0  0  0  0  0
    0.9490    0.6665   -1.5715 C   0  0  0  0  0  0  0  0  0  0  0  0
    2.1065   -0.1102   -1.7597 C   0  0  0  0  0  0  0  0  0  0  0  0
    2.0677   -1.1932   -1.7060 H   0  0  0  0  0  0  0  0  0  0  0  0
    3.3393    0.4994   -2.0201 C   0  0  0  0  0  0  0  0  0  0  0  0
    4.2195   -0.1195   -2.1537 H   0  0  0  0  0  0  0  0  0  0  0  0
    3.4339    1.8891   -2.1024 C   0  0  0  0  0  0  0  0  0  0  0  0
    4.6336    2.4904   -2.3522 O   0  0  0  0  0  0  0  0  0  0  0  0
    5.3414    1.8277   -2.3419 H   0  0  0  0  0  0  0  0  0  0  0  0
    2.2930    2.6675   -1.9248 C   0  0  0  0  0  0  0  0  0  0  0  0
    2.3762    3.7475   -1.9871 H   0  0  0  0  0  0  0  0  0  0  0  0
    1.0589    2.0641   -1.6594 C   0  0  0  0  0  0  0  0  0  0  0  0
    0.1864    2.6943   -1.5173 H   0  0  0  0  0  0  0  0  0  0  0  0
   -0.0661   -0.5011    1.1744 C   0  0  0  0  0  0  0  0  0  0  0  0
    1.0832   -0.5111    1.5947 O   0  0  0  0  0  0  0  0  0  0  0  0
   -1.0442    0.1638    1.8930 N   0  0  0  0  0  0  0  0  0  0  0  0
   -1.9989    0.0436    1.5730 H   0  0  0  0  0  0  0  0  0  0  0  0
   -0.8125    0.7045    3.2265 C   0  0  0  0  0  0  0  0  0  0  0  0
    0.0102    1.4273    3.2094 H   0  0  0  0  0  0  0  0  0  0  0  0
   -1.7097    1.2140    3.5903 H   0  0  0  0  0  0  0  0  0  0  0  0
   -0.5606   -0.0997    3.9259 H   0  0  0  0  0  0  0  0  0  0  0  0
  1  2  1  0  0  0  0
  2  3  1  0  0  0  0
  2  4  1  0  0  0  0
  2  5  1  0  0  0  0
  5  6  2  0  0  0  0
  5  7  1  0  0  0  0
  7  8  1  0  0  0  0
  7  9  1  0  0  0  0
  9 10  1  0  0  0  0
  9 11  1  0  0  0  0
  9 26  1  0  0  0  0
 11 12  1  0  0  0  0
 11 13  1  0  0  0  0
 11 14  1  0  0  0  0
 14 15  2  0  0  0  0
 14 24  1  0  0  0  0
 15 16  1  0  0  0  0
 15 17  1  0  0  0  0
 17 18  1  0  0  0  0
 17 19  2  0  0  0  0
 19 20  1  0  0  0  0
 19 22  1  0  0  0  0
 20 21  1  0  0  0  0
 22 23  1  0  0  0  0
 22 24  2  0  0  0  0
 24 25  1  0  0  0  0
 26 27  2  0  0  0  0
 26 28  1  0  0  0  0
 28 29  1  0  0  0  0
 28 30  1  0  0  0  0
 30 31  1  0  0  0  0
 30 32  1  0  0  0  0
 30 33  1  0  0  0  0
M  END
$$$$

  -OEChem-03222214083D

 33 33  0     1  0  0  0  0  0999 V2000
   -3.2890   -4.5493    0.8202 H   0  0  0  0  0  0  0  0  0  0  0  0
   -3.2401   -3.6664    0.1760 C   0  0  0  0  0  0  0  0  0  0  0  0
   -4.0893   -3.0178    0.4041 H   0  0  0  0  0  0  0  0  0  0  0  0
   -3.3040   -3.9889   -0.8661 H   0  0  0  0  0  0  0  0  0  0  0  0
   -1.9394   -2.9213    0.4108 C   0  0  0  0  0  0  0  0  0  0  0  0
   -1.1593   -3.3205    1.2556 O   0  0  0  0  0  0  0  0  0  0  0  0
   -1.6529   -1.7926   -0.3329 N   0  0  0  0  0  0  0  0  0  0  0  0
   -2.3069   -1.5555   -1.0728 H   0  0  0  0  0  0  0  0  0  0  0  0
   -0.3845   -1.0419   -0.2502 C   0  0  1  0  0  0  0  0  0  0  0  0
    0.4274   -1.7330   -0.4982 H   0  0  0  0  0  0  0  0  0  0  0  0
   -0.4384    0.0826   -1.3021 C   0  0  0  0  0  0  0  0  0  0  0  0
   -0.8144   -0.3254   -2.2457 H   0  0  0  0  0  0  0  0  0  0  0  0
   -1.1457    0.8521   -0.9756 H   0  0  0  0  0  0  0  0  0  0  0  0
    0.9139    0.7004   -1.5780 C   0  0  0  0  0  0  0  0  0  0  0  0
    1.9786   -0.0742   -2.0669 C   0  0  0  0  0  0  0  0  0  0  0  0
    1.8431   -1.1344   -2.2574 H   0  0  0  0  0  0  0  0  0  0  0  0
    3.2280    0.5082   -2.3107 C   0  0  0  0  0  0  0  0  0  0  0  0
    4.0394   -0.1073   -2.6830 H   0  0  0  0  0  0  0  0  0  0  0  0
    3.4270    1.8692   -2.0718 C   0  0  0  0  0  0  0  0  0  0  0  0
    4.6421    2.4457   -2.3049 O   0  0  0  0  0  0  0  0  0  0  0  0
    5.2933    1.7627   -2.5266 H   0  0  0  0  0  0  0  0  0  0  0  0
    2.3758    2.6443   -1.5870 C   0  0  0  0  0  0  0  0  0  0  0  0
    2.5419    3.6994   -1.3966 H   0  0  0  0  0  0  0  0  0  0  0  0
    1.1264    2.0666   -1.3372 C   0  0  0  0  0  0  0  0  0  0  0  0
    0.3259    2.6879   -0.9476 H   0  0  0  0  0  0  0  0  0  0  0  0
   -0.0654   -0.4650    1.1478 C   0  0  0  0  0  0  0  0  0  0  0  0
    1.0857   -0.4492    1.5626 O   0  0  0  0  0  0  0  0  0  0  0  0
   -1.0537    0.1765    1.8739 N   0  0  0  0  0  0  0  0  0  0  0  0
   -2.0071    0.0300    1.5610 H   0  0  0  0  0  0  0  0  0  0  0  0
   -0.8284    0.7005    3.2153 C   0  0  0  0  0  0  0  0  0  0  0  0
   -0.0147    1.4334    3.2094 H   0  0  0  0  0  0  0  0  0  0  0  0
   -1.7319    1.1935    3.5860 H   0  0  0  0  0  0  0  0  0  0  0  0
   -0.5663   -0.1106    3.9029 H   0  0  0  0  0  0  0  0  0  0  0  0
  1  2  1  0  0  0  0
  2  3  1  0  0  0  0
  2  4  1  0  0  0  0
  2  5  1  0  0  0  0
  5  6  2  0  0  0  0
  5  7  1  0  0  0  0
  7  8  1  0  0  0  0
  7  9  1  0  0  0  0
  9 10  1  0  0  0  0
  9 11  1  0  0  0  0
  9 26  1  0  0  0  0
 11 12  1  0  0  0  0
 11 13  1  0  0  0  0
 11 14  1  0  0  0  0
 14 15  2  0  0  0  0
 14 24  1  0  0  0  0
 15 16  1  0  0  0  0
 15 17  1  0  0  0  0
 17 18  1  0  0  0  0
 17 19  2  0  0  0  0
 19 20  1  0  0  0  0
 19 22  1  0  0  0  0
 20 21  1  0  0  0  0
 22 23  1  0  0  0  0
 22 24  2  0  0  0  0
 24 25  1  0  0  0  0
 26 27  2  0  0  0  0
 26 28  1  0  0  0  0
 28 29  1  0  0  0  0
 28 30  1  0  0  0  0
 30 31  1  0  0  0  0
 30 32  1  0  0  0  0
 30 33  1  0  0  0  0
M  END
$$$$

  -OEChem-03222214083D

 33 33  0     1  0  0  0  0  0999 V2000
   -3.2518   -4.5588    0.8127 H   0  0  0  0  0  0  0  0  0  0  0  0
   -3.2107   -3.6753    0.1690 C   0  0  0  0  0  0  0  0  0  0  0  0
   -4.0678   -3.0362    0.3944 H   0  0  0  0  0  0  0  0  0  0  0  0
   -3.2683   -3.9985   -0.8731 H   0  0  0  0  0  0  0  0  0  0  0  0
   -1.9188   -2.9159    0.4077 C   0  0  0  0  0  0  0  0  0  0  0  0
   -1.1334   -3.3100    1.2498 O   0  0  0  0  0  0  0  0  0  0  0  0
   -1.6443   -1.7828   -0.3337 N   0  0  0  0  0  0  0  0  0  0  0  0
   -2.3043   -1.5472   -1.0686 H   0  0  0  0  0  0  0  0  0  0  0  0
   -0.3812   -1.0224   -0.2548 C   0  0  1  0  0  0  0  0  0  0  0  0
    0.4409   -1.6986   -0.5137 H   0  0  0  0  0  0  0  0  0  0  0  0
   -0.4525    0.1057   -1.2998 C   0  0  0  0  0  0  0  0  0  0  0  0
   -0.8347   -0.2971   -2.2432 H   0  0  0  0  0  0  0  0  0  0  0  0
   -1.1567    0.8748   -0.9662 H   0  0  0  0  0  0  0  0  0  0  0  0
    0.9000    0.7208   -1.5675 C   0  0  0  0  0  0  0  0  0  0  0  0
    1.8523    0.0377   -2.3395 C   0  0  0  0  0  0  0  0  0  0  0  0
    1.6215   -0.9409   -2.7495 H   0  0  0  0  0  0  0  0  0  0  0  0
    3.1072    0.6073   -2.5853 C   0  0  0  0  0  0  0  0  0  0  0  0
    3.8322    0.0652   -3.1824 H   0  0  0  0  0  0  0  0  0  0  0  0
    3.4229    1.8626   -2.0613 C   0  0  0  0  0  0  0  0  0  0  0  0
    4.6449    2.4251   -2.2931 O   0  0  0  0  0  0  0  0  0  0  0  0
    5.2230    1.7867   -2.7379 H   0  0  0  0  0  0  0  0  0  0  0  0
    2.4837    2.5436   -1.2897 C   0  0  0  0  0  0  0  0  0  0  0  0
    2.7416    3.5132   -0.8767 H   0  0  0  0  0  0  0  0  0  0  0  0
    1.2290    1.9779   -1.0383 C   0  0  0  0  0  0  0  0  0  0  0  0
    0.5176    2.5168   -0.4197 H   0  0  0  0  0  0  0  0  0  0  0  0
   -0.0676   -0.4507    1.1472 C   0  0  0  0  0  0  0  0  0  0  0  0
    1.0827   -0.4196    1.5630 O   0  0  0  0  0  0  0  0  0  0  0  0
   -1.0642    0.1769    1.8745 N   0  0  0  0  0  0  0  0  0  0  0  0
   -2.0153    0.0157    1.5618 H   0  0  0  0  0  0  0  0  0  0  0  0
   -0.8473    0.7014    3.2169 C   0  0  0  0  0  0  0  0  0  0  0  0
   -0.0451    1.4470    3.2129 H   0  0  0  0  0  0  0  0  0  0  0  0
   -1.7584    1.1796    3.5885 H   0  0  0  0  0  0  0  0  0  0  0  0
   -0.5729   -0.1068    3.9030 H   0  0  0  0  0  0  0  0  0  0  0  0
  1  2  1  0  0  0  0
  2  3  1  0  0  0  0
  2  4  1  0  0  0  0
  2  5  1  0  0  0  0
  5  6  2  0  0  0  0
  5  7  1  0  0  0  0
  7  8  1  0  0  0  0
  7  9  1  0  0  0  0
  9 10  1  0  0  0  0
  9 11  1  0  0  0  0
  9 26  1  0  0  0  0
 11 12  1  0  0  0  0
 11 13  1  0  0  0  0
 11 14  1  0  0  0  0
 14 15  2  0  0  0  0
 14 24  1  0  0  0  0
 15 16  1  0  0  0  0
 15 17  1  0  0  0  0
 17 18  1  0  0  0  0
 17 19  2  0  0  0  0
 19 20  1  0  0  0  0
 19 22  1  0  0  0  0
 20 21  1  0  0  0  0
 22 23  1  0  0  0  0
 22 24  2  0  0  0  0
 24 25  1  0  0  0  0
 26 27  2  0  0  0  0
 26 28  1  0  0  0  0
 28 29  1  0  0  0  0
 28 30  1  0  0  0  0
 30 31  1  0  0  0  0
 30 32  1  0  0  0  0
 30 33  1  0  0  0  0
M  END
$$$$

  -OEChem-03222214083D

 33 33  0     1  0  0  0  0  0999 V2000
   -3.2605   -4.5546    0.7912 H   0  0  0  0  0  0  0  0  0  0  0  0
   -3.2138   -3.6670    0.1538 C   0  0  0  0  0  0  0  0  0  0  0  0
   -4.0728   -3.0295    0.3754 H   0  0  0  0  0  0  0  0  0  0  0  0
   -3.2609   -3.9831   -0.8909 H   0  0  0  0  0  0  0  0  0  0  0  0
   -1.9248   -2.9089    0.4099 C   0  0  0  0  0  0  0  0  0  0  0  0
   -1.1522   -3.3032    1.2638 O   0  0  0  0  0  0  0  0  0  0  0  0
   -1.6412   -1.7744   -0.3261 N   0  0  0  0  0  0  0  0  0  0  0  0
   -2.2898   -1.5427   -1.0723 H   0  0  0  0  0  0  0  0  0  0  0  0
   -0.3750   -1.0193   -0.2390 C   0  0  1  0  0  0  0  0  0  0  0  0
    0.4482   -1.6948   -0.4974 H   0  0  0  0  0  0  0  0  0  0  0  0
   -0.4401    0.1087   -1.2857 C   0  0  0  0  0  0  0  0  0  0  0  0
   -0.8294   -0.2921   -2.2272 H   0  0  0  0  0  0  0  0  0  0  0  0
   -1.1378    0.8838   -0.9515 H   0  0  0  0  0  0  0  0  0  0  0  0
    0.9134    0.7239   -1.5522 C   0  0  0  0  0  0  0  0  0  0  0  0
    1.7421    0.2052   -2.5588 C   0  0  0  0  0  0  0  0  0  0  0  0
    1.4201   -0.6517   -3.1428 H   0  0  0  0  0  0  0  0  0  0  0  0
    2.9923    0.7806   -2.8159 C   0  0  0  0  0  0  0  0  0  0  0  0
    3.6216    0.3648   -3.5949 H   0  0  0  0  0  0  0  0  0  0  0  0
    3.4250    1.8811   -2.0728 C   0  0  0  0  0  0  0  0  0  0  0  0
    4.6435    2.4475   -2.3143 O   0  0  0  0  0  0  0  0  0  0  0  0
    5.1373    1.9102   -2.9522 H   0  0  0  0  0  0  0  0  0  0  0  0
    2.6064    2.4018   -1.0728 C   0  0  0  0  0  0  0  0  0  0  0  0
    2.9534    3.2507   -0.4930 H   0  0  0  0  0  0  0  0  0  0  0  0
    1.3576    1.8286   -0.8094 C   0  0  0  0  0  0  0  0  0  0  0  0
    0.7422    2.2390   -0.0141 H   0  0  0  0  0  0  0  0  0  0  0  0
   -0.0729   -0.4571    1.1696 C   0  0  0  0  0  0  0  0  0  0  0  0
    1.0733   -0.4292    1.5963 O   0  0  0  0  0  0  0  0  0  0  0  0
   -1.0742    0.1689    1.8915 N   0  0  0  0  0  0  0  0  0  0  0  0
   -2.0231    0.0049    1.5731 H   0  0  0  0  0  0  0  0  0  0  0  0
   -0.8680    0.6803    3.2406 C   0  0  0  0  0  0  0  0  0  0  0  0
   -0.0674    1.4275    3.2499 H   0  0  0  0  0  0  0  0  0  0  0  0
   -1.7833    1.1525    3.6095 H   0  0  0  0  0  0  0  0  0  0  0  0
   -0.5968   -0.1343    3.9206 H   0  0  0  0  0  0  0  0  0  0  0  0
  1  2  1  0  0  0  0
  2  3  1  0  0  0  0
  2  4  1  0  0  0  0
  2  5  1  0  0  0  0
  5  6  2  0  0  0  0
  5  7  1  0  0  0  0
  7  8  1  0  0  0  0
  7  9  1  0  0  0  0
  9 10  1  0  0  0  0
  9 11  1  0  0  0  0
  9 26  1  0  0  0  0
 11 12  1  0  0  0  0
 11 13  1  0  0  0  0
 11 14  1  0  0  0  0
 14 15  2  0  0  0  0
 14 24  1  0  0  0  0
 15 16  1  0  0  0  0
 15 17  1  0  0  0  0
 17 18  1  0  0  0  0
 17 19  2  0  0  0  0
 19 20  1  0  0  0  0
 19 22  1  0  0  0  0
 20 21  1  0  0  0  0
 22 23  1  0  0  0  0
 22 24  2  0  0  0  0
 24 25  1  0  0  0  0
 26 27  2  0  0  0  0
 26 28  1  0  0  0  0
 28 29  1  0  0  0  0
 28 30  1  0  0  0  0
 30 31  1  0  0  0  0
 30 32  1  0  0  0  0
 30 33  1  0  0  0  0
M  END
$$$$

  -OEChem-03222214083D

 33 33  0     1  0  0  0  0  0999 V2000
   -3.3153   -4.5264    0.7678 H   0  0  0  0  0  0  0  0  0  0  0  0
   -3.2450   -3.6334    0.1401 C   0  0  0  0  0  0  0  0  0  0  0  0
   -4.0923   -2.9804    0.3623 H   0  0  0  0  0  0  0  0  0  0  0  0
   -3.2909   -3.9377   -0.9083 H   0  0  0  0  0  0  0  0  0  0  0  0
   -1.9419   -2.9054    0.4134 C   0  0  0  0  0  0  0  0  0  0  0  0
   -1.1862   -3.3225    1.2713 O   0  0  0  0  0  0  0  0  0  0  0  0
   -1.6272   -1.7727   -0.3130 N   0  0  0  0  0  0  0  0  0  0  0  0
   -2.2630   -1.5243   -1.0646 H   0  0  0  0  0  0  0  0  0  0  0  0
   -0.3510   -1.0363   -0.2034 C   0  0  1  0  0  0  0  0  0  0  0  0
    0.4700   -1.7192   -0.4500 H   0  0  0  0  0  0  0  0  0  0  0  0
   -0.3922    0.0903   -1.2565 C   0  0  0  0  0  0  0  0  0  0  0  0
   -0.7875   -0.3121   -2.1947 H   0  0  0  0  0  0  0  0  0  0  0  0
   -1.0840    0.8721   -0.9264 H   0  0  0  0  0  0  0  0  0  0  0  0
    0.9598    0.7122   -1.5306 C   0  0  0  0  0  0  0  0  0  0  0  0
    1.6460    0.4055   -2.7168 C   0  0  0  0  0  0  0  0  0  0  0  0
    1.2273   -0.3065   -3.4217 H   0  0  0  0  0  0  0  0  0  0  0  0
    2.8789    1.0039   -3.0030 C   0  0  0  0  0  0  0  0  0  0  0  0
    3.3965    0.7473   -3.9206 H   0  0  0  0  0  0  0  0  0  0  0  0
    3.4354    1.9249   -2.1137 C   0  0  0  0  0  0  0  0  0  0  0  0
    4.6376    2.5129   -2.3829 O   0  0  0  0  0  0  0  0  0  0  0  0
    5.0267    2.1226   -3.1801 H   0  0  0  0  0  0  0  0  0  0  0  0
    2.7546    2.2465   -0.9420 C   0  0  0  0  0  0  0  0  0  0  0  0
    3.1923    2.9612   -0.2531 H   0  0  0  0  0  0  0  0  0  0  0  0
    1.5236    1.6496   -0.6500 C   0  0  0  0  0  0  0  0  0  0  0  0
    1.0162    1.9173    0.2724 H   0  0  0  0  0  0  0  0  0  0  0  0
   -0.0784   -0.4896    1.2174 C   0  0  0  0  0  0  0  0  0  0  0  0
    1.0534   -0.4906    1.6817 O   0  0  0  0  0  0  0  0  0  0  0  0
   -1.0906    0.1427    1.9186 N   0  0  0  0  0  0  0  0  0  0  0  0
   -2.0315    0.0051    1.5661 H   0  0  0  0  0  0  0  0  0  0  0  0
   -0.9197    0.6268    3.2827 C   0  0  0  0  0  0  0  0  0  0  0  0
   -0.1102    1.3627    3.3306 H   0  0  0  0  0  0  0  0  0  0  0  0
   -1.8396    1.1046    3.6325 H   0  0  0  0  0  0  0  0  0  0  0  0
   -0.6811   -0.2039    3.9550 H   0  0  0  0  0  0  0  0  0  0  0  0
  1  2  1  0  0  0  0
  2  3  1  0  0  0  0
  2  4  1  0  0  0  0
  2  5  1  0  0  0  0
  5  6  2  0  0  0  0
  5  7  1  0  0  0  0
  7  8  1  0  0  0  0
  7  9  1  0  0  0  0
  9 10  1  0  0  0  0
  9 11  1  0  0  0  0
  9 26  1  0  0  0  0
 11 12  1  0  0  0  0
 11 13  1  0  0  0  0
 11 14  1  0  0  0  0
 14 15  2  0  0  0  0
 14 24  1  0  0  0  0
 15 16  1  0  0  0  0
 15 17  1  0  0  0  0
 17 18  1  0  0  0  0
 17 19  2  0  0  0  0
 19 20  1  0  0  0  0
 19 22  1  0  0  0  0
 20 21  1  0  0  0  0
 22 23  1  0  0  0  0
 22 24  2  0  0  0  0
 24 25  1  0  0  0  0
 26 27  2  0  0  0  0
 26 28  1  0  0  0  0
 28 29  1  0  0  0  0
 28 30  1  0  0  0  0
 30 31  1  0  0  0  0
 30 32  1  0  0  0  0
 30 33  1  0  0  0  0
M  END
$$$$

  -OEChem-03222214083D

 33 33  0     1  0  0  0  0  0999 V2000
   -3.3802   -4.4878    0.7393 H   0  0  0  0  0  0  0  0  0  0  0  0
   -3.2810   -3.5927    0.1183 C   0  0  0  0  0  0  0  0  0  0  0  0
   -4.1170   -2.9223    0.3316 H   0  0  0  0  0  0  0  0  0  0  0  0
   -3.3179   -3.8892   -0.9327 H   0  0  0  0  0  0  0  0  0  0  0  0
   -1.9667   -2.8961    0.4167 C   0  0  0  0  0  0  0  0  0  0  0  0
   -1.2351   -3.3361    1.2840 O   0  0  0  0  0  0  0  0  0  0  0  0
   -1.6149   -1.7671   -0.2985 N   0  0  0  0  0  0  0  0  0  0  0  0
   -2.2340   -1.4999   -1.0577 H   0  0  0  0  0  0  0  0  0  0  0  0
   -0.3264   -1.0562   -0.1607 C   0  0  1  0  0  0  0  0  0  0  0  0
    0.4886   -1.7524   -0.3885 H   0  0  0  0  0  0  0  0  0  0  0  0
   -0.3334    0.0630   -1.2275 C   0  0  0  0  0  0  0  0  0  0  0  0
   -0.7272   -0.3513   -2.1610 H   0  0  0  0  0  0  0  0  0  0  0  0
   -1.0226    0.8529   -0.9117 H   0  0  0  0  0  0  0  0  0  0  0  0
    1.0167    0.6933   -1.5148 C   0  0  0  0  0  0  0  0  0  0  0  0
    1.5464    0.6252   -2.8153 C   0  0  0  0  0  0  0  0  0  0  0  0
    1.0217    0.0765   -3.5916 H   0  0  0  0  0  0  0  0  0  0  0  0
    2.7589    1.2494   -3.1317 C   0  0  0  0  0  0  0  0  0  0  0  0
    3.1536    1.1715   -4.1386 H   0  0  0  0  0  0  0  0  0  0  0  0
    3.4513    1.9704   -2.1584 C   0  0  0  0  0  0  0  0  0  0  0  0
    4.6341    2.5841   -2.4552 O   0  0  0  0  0  0  0  0  0  0  0  0
    4.8987    2.3745   -3.3636 H   0  0  0  0  0  0  0  0  0  0  0  0
    2.9218    2.0718   -0.8751 C   0  0  0  0  0  0  0  0  0  0  0  0
    3.4582    2.6404   -0.1225 H   0  0  0  0  0  0  0  0  0  0  0  0
    1.7100    1.4506   -0.5546 C   0  0  0  0  0  0  0  0  0  0  0  0
    1.3209    1.5776    0.4503 H   0  0  0  0  0  0  0  0  0  0  0  0
   -0.0878   -0.5268    1.2726 C   0  0  0  0  0  0  0  0  0  0  0  0
    1.0217   -0.5861    1.7854 O   0  0  0  0  0  0  0  0  0  0  0  0
   -1.1081    0.1170    1.9508 N   0  0  0  0  0  0  0  0  0  0  0  0
   -2.0378    0.0199    1.5576 H   0  0  0  0  0  0  0  0  0  0  0  0
   -0.9762    0.5610    3.3328 C   0  0  0  0  0  0  0  0  0  0  0  0
   -0.1508    1.2742    3.4294 H   0  0  0  0  0  0  0  0  0  0  0  0
   -1.8962    1.0531    3.6621 H   0  0  0  0  0  0  0  0  0  0  0  0
   -0.7829   -0.2928    3.9910 H   0  0  0  0  0  0  0  0  0  0  0  0
  1  2  1  0  0  0  0
  2  3  1  0  0  0  0
  2  4  1  0  0  0  0
  2  5  1  0  0  0  0
  5  6  2  0  0  0  0
  5  7  1  0  0  0  0
  7  8  1  0  0  0  0
  7  9  1  0  0  0  0
  9 10  1  0  0  0  0
  9 11  1  0  0  0  0
  9 26  1  0  0  0  0
 11 12  1  0  0  0  0
 11 13  1  0  0  0  0
 11 14  1  0  0  0  0
 14 15  2  0  0  0  0
 14 24  1  0  0  0  0
 15 16  1  0  0  0  0
 15 17  1  0  0  0  0
 17 18  1  0  0  0  0
 17 19  2  0  0  0  0
 19 20  1  0  0  0  0
 19 22  1  0  0  0  0
 20 21  1  0  0  0  0
 22 23  1  0  0  0  0
 22 24  2  0  0  0  0
 24 25  1  0  0  0  0
 26 27  2  0  0  0  0
 26 28  1  0  0  0  0
 28 29  1  0  0  0  0
 28 30  1  0  0  0  0
 30 31  1  0  0  0  0
 30 32  1  0  0  0  0
 30 33  1  0  0  0  0
M  END
$$$$

  -OEChem-03222214083D

 33 33  0     1  0  0  0  0  0999 V2000
   -3.4470   -4.4413    0.7028 H   0  0  0  0  0  0  0  0  0  0  0  0
   -3.3111   -3.5460    0.0892 C   0  0  0  0  0  0  0  0  0  0  0  0
   -4.1357   -2.8568    0.2858 H   0  0  0  0  0  0  0  0  0  0  0  0
   -3.3297   -3.8372   -0.9638 H   0  0  0  0  0  0  0  0  0  0  0  0
   -1.9879   -2.8824    0.4226 C   0  0  0  0  0  0  0  0  0  0  0  0
   -1.2870   -3.3461    1.3026 O   0  0  0  0  0  0  0  0  0  0  0  0
   -1.5900   -1.7619   -0.2822 N   0  0  0  0  0  0  0  0  0  0  0  0
   -2.1843   -1.4793   -1.0553 H   0  0  0  0  0  0  0  0  0  0  0  0
   -0.2908   -1.0766   -0.1102 C   0  0  1  0  0  0  0  0  0  0  0  0
    0.5203   -1.7842   -0.3150 H   0  0  0  0  0  0  0  0  0  0  0  0
   -0.2658    0.0351   -1.1882 C   0  0  0  0  0  0  0  0  0  0  0  0
   -0.6521   -0.3946   -2.1181 H   0  0  0  0  0  0  0  0  0  0  0  0
   -0.9596    0.8272   -0.8891 H   0  0  0  0  0  0  0  0  0  0  0  0
    1.0753    0.6840   -1.4972 C   0  0  0  0  0  0  0  0  0  0  0  0
    1.4266    0.8757   -2.8462 C   0  0  0  0  0  0  0  0  0  0  0  0
    0.7768    0.5143   -3.6375 H   0  0  0  0  0  0  0  0  0  0  0  0
    2.6184    1.5176   -3.2017 C   0  0  0  0  0  0  0  0  0  0  0  0
    2.8707    1.6345   -4.2498 H   0  0  0  0  0  0  0  0  0  0  0  0
    3.4719    2.0062   -2.2137 C   0  0  0  0  0  0  0  0  0  0  0  0
    4.6368    2.6349   -2.5469 O   0  0  0  0  0  0  0  0  0  0  0  0
    4.7600    2.6200   -3.5081 H   0  0  0  0  0  0  0  0  0  0  0  0
    3.1200    1.8622   -0.8753 C   0  0  0  0  0  0  0  0  0  0  0  0
    3.7775    2.2591   -0.1085 H   0  0  0  0  0  0  0  0  0  0  0  0
    1.9291    1.2215   -0.5158 C   0  0  0  0  0  0  0  0  0  0  0  0
    1.6920    1.1770    0.5395 H   0  0  0  0  0  0  0  0  0  0  0  0
   -0.0983   -0.5559    1.3344 C   0  0  0  0  0  0  0  0  0  0  0  0
    0.9706   -0.6958    1.9140 O   0  0  0  0  0  0  0  0  0  0  0  0
   -1.1303    0.1044    1.9785 N   0  0  0  0  0  0  0  0  0  0  0  0
   -2.0386    0.0638    1.5294 H   0  0  0  0  0  0  0  0  0  0  0  0
   -1.0607    0.4949    3.3812 C   0  0  0  0  0  0  0  0  0  0  0  0
   -0.2175    1.1731    3.5496 H   0  0  0  0  0  0  0  0  0  0  0  0
   -1.9799    1.0093    3.6769 H   0  0  0  0  0  0  0  0  0  0  0  0
   -0.9356   -0.3876    4.0177 H   0  0  0  0  0  0  0  0  0  0  0  0
  1  2  1  0  0  0  0
  2  3  1  0  0  0  0
  2  4  1  0  0  0  0
  2  5  1  0  0  0  0
  5  6  2  0  0  0  0
  5  7  1  0  0  0  0
  7  8  1  0  0  0  0
  7  9  1  0  0  0  0
  9 10  1  0  0  0  0
  9 11  1  0  0  0  0
  9 26  1  0  0  0  0
 11 12  1  0  0  0  0
 11 13  1  0  0  0  0
 11 14  1  0  0  0  0
 14 15  2  0  0  0  0
 14 24  1  0  0  0  0
 15 16  1  0  0  0  0
 15 17  1  0  0  0  0
 17 18  1  0  0  0  0
 17 19  2  0  0  0  0
 19 20  1  0  0  0  0
 19 22  1  0  0  0  0
 20 21  1  0  0  0  0
 22 23  1  0  0  0  0
 22 24  2  0  0  0  0
 24 25  1  0  0  0  0
 26 27  2  0  0  0  0
 26 28  1  0  0  0  0
 28 29  1  0  0  0  0
 28 30  1  0  0  0  0
 30 31  1  0  0  0  0
 30 32  1  0  0  0  0
 30 33  1  0  0  0  0
M  END
$$$$

  -OEChem-03222214083D

 33 33  0     1  0  0  0  0  0999 V2000
   -3.4855   -4.4010    0.7022 H   0  0  0  0  0  0  0  0  0  0  0  0
   -3.3231   -3.5106    0.0876 C   0  0  0  0  0  0  0  0  0  0  0  0
   -4.1350   -2.8033    0.2727 H   0  0  0  0  0  0  0  0  0  0  0  0
   -3.3356   -3.8044   -0.9648 H   0  0  0  0  0  0  0  0  0  0  0  0
   -1.9897   -2.8744    0.4345 C   0  0  0  0  0  0  0  0  0  0  0  0
   -1.3096   -3.3506    1.3239 O   0  0  0  0  0  0  0  0  0  0  0  0
   -1.5584   -1.7671   -0.2723 N   0  0  0  0  0  0  0  0  0  0  0  0
   -2.1362   -1.4777   -1.0552 H   0  0  0  0  0  0  0  0  0  0  0  0
   -0.2544   -1.0958   -0.0766 C   0  0  1  0  0  0  0  0  0  0  0  0
    0.5593   -1.8052   -0.2643 H   0  0  0  0  0  0  0  0  0  0  0  0
   -0.2167    0.0260   -1.1452 C   0  0  0  0  0  0  0  0  0  0  0  0
   -0.5943   -0.4035   -2.0789 H   0  0  0  0  0  0  0  0  0  0  0  0
   -0.9177    0.8115   -0.8449 H   0  0  0  0  0  0  0  0  0  0  0  0
    1.1111    0.6977   -1.4713 C   0  0  0  0  0  0  0  0  0  0  0  0
    1.2830    1.1858   -2.7801 C   0  0  0  0  0  0  0  0  0  0  0  0
    0.4925    1.0644   -3.5148 H   0  0  0  0  0  0  0  0  0  0  0  0
    2.4634    1.8299   -3.1680 C   0  0  0  0  0  0  0  0  0  0  0  0
    2.5672    2.1894   -4.1859 H   0  0  0  0  0  0  0  0  0  0  0  0
    3.4965    2.0088   -2.2497 C   0  0  0  0  0  0  0  0  0  0  0  0
    4.6538    2.6346   -2.6137 O   0  0  0  0  0  0  0  0  0  0  0  0
    4.6209    2.8767   -3.5515 H   0  0  0  0  0  0  0  0  0  0  0  0
    3.3394    1.5457   -0.9476 C   0  0  0  0  0  0  0  0  0  0  0  0
    4.1427    1.6908   -0.2323 H   0  0  0  0  0  0  0  0  0  0  0  0
    2.1614    0.9001   -0.5561 C   0  0  0  0  0  0  0  0  0  0  0  0
    2.1073    0.5754    0.4727 H   0  0  0  0  0  0  0  0  0  0  0  0
   -0.1101   -0.5671    1.3733 C   0  0  0  0  0  0  0  0  0  0  0  0
    0.9119   -0.7597    2.0182 O   0  0  0  0  0  0  0  0  0  0  0  0
   -1.1607    0.1064    1.9724 N   0  0  0  0  0  0  0  0  0  0  0  0
   -2.0426    0.0987    1.4726 H   0  0  0  0  0  0  0  0  0  0  0  0
   -1.1577    0.4791    3.3817 C   0  0  0  0  0  0  0  0  0  0  0  0
   -0.3118    1.1389    3.6016 H   0  0  0  0  0  0  0  0  0  0  0  0
   -2.0814    1.0073    3.6365 H   0  0  0  0  0  0  0  0  0  0  0  0
   -1.0816   -0.4133    4.0121 H   0  0  0  0  0  0  0  0  0  0  0  0
  1  2  1  0  0  0  0
  2  3  1  0  0  0  0
  2  4  1  0  0  0  0
  2  5  1  0  0  0  0
  5  6  2  0  0  0  0
  5  7  1  0  0  0  0
  7  8  1  0  0  0  0
  7  9  1  0  0  0  0
  9 10  1  0  0  0  0
  9 11  1  0  0  0  0
  9 26  1  0  0  0  0
 11 12  1  0  0  0  0
 11 13  1  0  0  0  0
 11 14  1  0  0  0  0
 14 15  2  0  0  0  0
 14 24  1  0  0  0  0
 15 16  1  0  0  0  0
 15 17  1  0  0  0  0
 17 18  1  0  0  0  0
 17 19  2  0  0  0  0
 19 20  1  0  0  0  0
 19 22  1  0  0  0  0
 20 21  1  0  0  0  0
 22 23  1  0  0  0  0
 22 24  2  0  0  0  0
 24 25  1  0  0  0  0
 26 27  2  0  0  0  0
 26 28  1  0  0  0  0
 28 29  1  0  0  0  0
 28 30  1  0  0  0  0
 30 31  1  0  0  0  0
 30 32  1  0  0  0  0
 30 33  1  0  0  0  0
M  END
$$$$

  -OEChem-03222214083D

 33 33  0     1  0  0  0  0  0999 V2000
   -3.4718   -4.4209    0.7115 H   0  0  0  0  0  0  0  0  0  0  0  0
   -3.3210   -3.5254    0.1014 C   0  0  0  0  0  0  0  0  0  0  0  0
   -4.1346   -2.8236    0.3000 H   0  0  0  0  0  0  0  0  0  0  0  0
   -3.3435   -3.8124   -0.9526 H   0  0  0  0  0  0  0  0  0  0  0  0
   -1.9878   -2.8835    0.4382 C   0  0  0  0  0  0  0  0  0  0  0  0
   -1.3028   -3.3502    1.3291 O   0  0  0  0  0  0  0  0  0  0  0  0
   -1.5619   -1.7809   -0.2785 N   0  0  0  0  0  0  0  0  0  0  0  0
   -2.1429   -1.4968   -1.0612 H   0  0  0  0  0  0  0  0  0  0  0  0
   -0.2622   -1.1028   -0.0854 C   0  0  1  0  0  0  0  0  0  0  0  0
    0.5526   -1.8103   -0.2742 H   0  0  0  0  0  0  0  0  0  0  0  0
   -0.2256    0.0335   -1.1347 C   0  0  0  0  0  0  0  0  0  0  0  0
   -0.5920   -0.3816   -2.0797 H   0  0  0  0  0  0  0  0  0  0  0  0
   -0.9303    0.8130   -0.8276 H   0  0  0  0  0  0  0  0  0  0  0  0
    1.1039    0.7043   -1.4452 C   0  0  0  0  0  0  0  0  0  0  0  0
    1.1684    1.4917   -2.6081 C   0  0  0  0  0  0  0  0  0  0  0  0
    0.2826    1.6224   -3.2226 H   0  0  0  0  0  0  0  0  0  0  0  0
    2.3555    2.1264   -2.9907 C   0  0  0  0  0  0  0  0  0  0  0  0
    2.3718    2.7354   -3.8878 H   0  0  0  0  0  0  0  0  0  0  0  0
    3.5091    1.9735   -2.2228 C   0  0  0  0  0  0  0  0  0  0  0  0
    4.6740    2.5879   -2.5824 O   0  0  0  0  0  0  0  0  0  0  0  0
    4.5387    3.1158   -3.3837 H   0  0  0  0  0  0  0  0  0  0  0  0
    3.4694    1.1781   -1.0819 C   0  0  0  0  0  0  0  0  0  0  0  0
    4.3717    1.0512   -0.4922 H   0  0  0  0  0  0  0  0  0  0  0  0
    2.2850    0.5406   -0.6963 C   0  0  0  0  0  0  0  0  0  0  0  0
    2.3301   -0.0856    0.1850 H   0  0  0  0  0  0  0  0  0  0  0  0
   -0.1171   -0.5577    1.3603 C   0  0  0  0  0  0  0  0  0  0  0  0
    0.9165   -0.7090    1.9974 O   0  0  0  0  0  0  0  0  0  0  0  0
   -1.1701    0.1187    1.9527 N   0  0  0  0  0  0  0  0  0  0  0  0
   -2.0545    0.1010    1.4575 H   0  0  0  0  0  0  0  0  0  0  0  0
   -1.1543    0.5409    3.3479 C   0  0  0  0  0  0  0  0  0  0  0  0
   -0.3252    1.2332    3.5288 H   0  0  0  0  0  0  0  0  0  0  0  0
   -2.0894    1.0495    3.6011 H   0  0  0  0  0  0  0  0  0  0  0  0
   -1.0403   -0.3259    4.0077 H   0  0  0  0  0  0  0  0  0  0  0  0
  1  2  1  0  0  0  0
  2  3  1  0  0  0  0
  2  4  1  0  0  0  0
  2  5  1  0  0  0  0
  5  6  2  0  0  0  0
  5  7  1  0  0  0  0
  7  8  1  0  0  0  0
  7  9  1  0  0  0  0
  9 10  1  0  0  0  0
  9 11  1  0  0  0  0
  9 26  1  0  0  0  0
 11 12  1  0  0  0  0
 11 13  1  0  0  0  0
 11 14  1  0  0  0  0
 14 15  2  0  0  0  0
 14 24  1  0  0  0  0
 15 16  1  0  0  0  0
 15 17  1  0  0  0  0
 17 18  1  0  0  0  0
 17 19  2  0  0  0  0
 19 20  1  0  0  0  0
 19 22  1  0  0  0  0
 20 21  1  0  0  0  0
 22 23  1  0  0  0  0
 22 24  2  0  0  0  0
 24 25  1  0  0  0  0
 26 27  2  0  0  0  0
 26 28  1  0  0  0  0
 28 29  1  0  0  0  0
 28 30  1  0  0  0  0
 30 31  1  0  0  0  0
 30 32  1  0  0  0  0
 30 33  1  0  0  0  0
M  END
$$$$

  -OEChem-03222214083D

 33 33  0     1  0  0  0  0  0999 V2000
   -3.4452   -4.5185    0.7305 H   0  0  0  0  0  0  0  0  0  0  0  0
   -3.3409   -3.6285    0.1032 C   0  0  0  0  0  0  0  0  0  0  0  0
   -4.1922   -2.9682    0.2850 H   0  0  0  0  0  0  0  0  0  0  0  0
   -3.3429   -3.9368   -0.9451 H   0  0  0  0  0  0  0  0  0  0  0  0
   -2.0459   -2.9089    0.4311 C   0  0  0  0  0  0  0  0  0  0  0  0
   -1.3434   -3.3122    1.3398 O   0  0  0  0  0  0  0  0  0  0  0  0
   -1.6779   -1.7961   -0.3005 N   0  0  0  0  0  0  0  0  0  0  0  0
   -2.2583   -1.5703   -1.1026 H   0  0  0  0  0  0  0  0  0  0  0  0
   -0.3822   -1.1012   -0.1590 C   0  0  1  0  0  0  0  0  0  0  0  0
    0.3870   -1.8498   -0.3696 H   0  0  0  0  0  0  0  0  0  0  0  0
   -0.3202    0.0175   -1.2243 C   0  0  0  0  0  0  0  0  0  0  0  0
   -0.9097   -0.2998   -2.0905 H   0  0  0  0  0  0  0  0  0  0  0  0
   -0.7988    0.9158   -0.8204 H   0  0  0  0  0  0  0  0  0  0  0  0
    1.0509    0.3973   -1.7603 C   0  0  0  0  0  0  0  0  0  0  0  0
    1.1071    1.4126   -2.7295 C   0  0  0  0  0  0  0  0  0  0  0  0
    0.1902    1.8805   -3.0754 H   0  0  0  0  0  0  0  0  0  0  0  0
    2.3291    1.8337   -3.2664 C   0  0  0  0  0  0  0  0  0  0  0  0
    2.3418    2.6146   -4.0185 H   0  0  0  0  0  0  0  0  0  0  0  0
    3.5210    1.2526   -2.8339 C   0  0  0  0  0  0  0  0  0  0  0  0
    4.7200    1.6547   -3.3484 O   0  0  0  0  0  0  0  0  0  0  0  0
    4.5858    2.3786   -3.9786 H   0  0  0  0  0  0  0  0  0  0  0  0
    3.4841    0.2581   -1.8608 C   0  0  0  0  0  0  0  0  0  0  0  0
    4.4148   -0.1802   -1.5152 H   0  0  0  0  0  0  0  0  0  0  0  0
    2.2654   -0.1672   -1.3207 C   0  0  0  0  0  0  0  0  0  0  0  0
    2.3029   -0.9276   -0.5475 H   0  0  0  0  0  0  0  0  0  0  0  0
   -0.1000   -0.5336    1.2510 C   0  0  0  0  0  0  0  0  0  0  0  0
    1.0348   -0.5542    1.7084 O   0  0  0  0  0  0  0  0  0  0  0  0
   -1.0886    0.1539    1.9325 N   0  0  0  0  0  0  0  0  0  0  0  0
   -2.0345    0.0413    1.5843 H   0  0  0  0  0  0  0  0  0  0  0  0
   -0.8943    0.6821    3.2769 C   0  0  0  0  0  0  0  0  0  0  0  0
   -0.0613    1.3929    3.2930 H   0  0  0  0  0  0  0  0  0  0  0  0
   -1.7961    1.2018    3.6141 H   0  0  0  0  0  0  0  0  0  0  0  0
   -0.6774   -0.1304    3.9783 H   0  0  0  0  0  0  0  0  0  0  0  0
  1  2  1  0  0  0  0
  2  3  1  0  0  0  0
  2  4  1  0  0  0  0
  2  5  1  0  0  0  0
  5  6  2  0  0  0  0
  5  7  1  0  0  0  0
  7  8  1  0  0  0  0
  7  9  1  0  0  0  0
  9 10  1  0  0  0  0
  9 11  1  0  0  0  0
  9 26  1  0  0  0  0
 11 12  1  0  0  0  0
 11 13  1  0  0  0  0
 11 14  1  0  0  0  0
 14 15  2  0  0  0  0
 14 24  1  0  0  0  0
 15 16  1  0  0  0  0
 15 17  1  0  0  0  0
 17 18  1  0  0  0  0
 17 19  2  0  0  0  0
 19 20  1  0  0  0  0
 19 22  1  0  0  0  0
 20 21  1  0  0  0  0
 22 23  1  0  0  0  0
 22 24  2  0  0  0  0
 24 25  1  0  0  0  0
 26 27  2  0  0  0  0
 26 28  1  0  0  0  0
 28 29  1  0  0  0  0
 28 30  1  0  0  0  0
 30 31  1  0  0  0  0
 30 32  1  0  0  0  0
 30 33  1  0  0  0  0
M  END
$$$$

  -OEChem-03222214083D

 33 33  0     1  0  0  0  0  0999 V2000
   -3.4586   -4.5230    0.7394 H   0  0  0  0  0  0  0  0  0  0  0  0
   -3.3559   -3.6346    0.1095 C   0  0  0  0  0  0  0  0  0  0  0  0
   -4.2044   -2.9718    0.2952 H   0  0  0  0  0  0  0  0  0  0  0  0
   -3.3652   -3.9448   -0.9382 H   0  0  0  0  0  0  0  0  0  0  0  0
   -2.0574   -2.9173    0.4284 C   0  0  0  0  0  0  0  0  0  0  0  0
   -1.3487   -3.3226    1.3314 O   0  0  0  0  0  0  0  0  0  0  0  0
   -1.6935   -1.8026   -0.3023 N   0  0  0  0  0  0  0  0  0  0  0  0
   -2.2822   -1.5683   -1.0959 H   0  0  0  0  0  0  0  0  0  0  0  0
   -0.3991   -1.1058   -0.1615 C   0  0  1  0  0  0  0  0  0  0  0  0
    0.3591   -1.8652   -0.3613 H   0  0  0  0  0  0  0  0  0  0  0  0
   -0.3264    0.0071   -1.2324 C   0  0  0  0  0  0  0  0  0  0  0  0
   -0.9086   -0.3122   -2.1025 H   0  0  0  0  0  0  0  0  0  0  0  0
   -0.8116    0.9045   -0.8338 H   0  0  0  0  0  0  0  0  0  0  0  0
    1.0488    0.3851   -1.7626 C   0  0  0  0  0  0  0  0  0  0  0  0
    1.1549    1.5895   -2.4784 C   0  0  0  0  0  0  0  0  0  0  0  0
    0.2740    2.2052   -2.6340 H   0  0  0  0  0  0  0  0  0  0  0  0
    2.3804    2.0152   -3.0035 C   0  0  0  0  0  0  0  0  0  0  0  0
    2.4308    2.9473   -3.5553 H   0  0  0  0  0  0  0  0  0  0  0  0
    3.5275    1.2450   -2.8161 C   0  0  0  0  0  0  0  0  0  0  0  0
    4.7291    1.6489   -3.3233 O   0  0  0  0  0  0  0  0  0  0  0  0
    4.6368    2.5148   -3.7488 H   0  0  0  0  0  0  0  0  0  0  0  0
    3.4431    0.0555   -2.0985 C   0  0  0  0  0  0  0  0  0  0  0  0
    4.3411   -0.5337   -1.9430 H   0  0  0  0  0  0  0  0  0  0  0  0
    2.2207   -0.3754   -1.5712 C   0  0  0  0  0  0  0  0  0  0  0  0
    2.2284   -1.2996   -1.0049 H   0  0  0  0  0  0  0  0  0  0  0  0
   -0.0979   -0.5340    1.2404 C   0  0  0  0  0  0  0  0  0  0  0  0
    1.0474   -0.5417    1.6710 O   0  0  0  0  0  0  0  0  0  0  0  0
   -1.0771    0.1575    1.9312 N   0  0  0  0  0  0  0  0  0  0  0  0
   -2.0286    0.0361    1.6016 H   0  0  0  0  0  0  0  0  0  0  0  0
   -0.8620    0.7014    3.2661 C   0  0  0  0  0  0  0  0  0  0  0  0
   -0.0255    1.4083    3.2622 H   0  0  0  0  0  0  0  0  0  0  0  0
   -1.7566    1.2300    3.6084 H   0  0  0  0  0  0  0  0  0  0  0  0
   -0.6398   -0.1034    3.9749 H   0  0  0  0  0  0  0  0  0  0  0  0
  1  2  1  0  0  0  0
  2  3  1  0  0  0  0
  2  4  1  0  0  0  0
  2  5  1  0  0  0  0
  5  6  2  0  0  0  0
  5  7  1  0  0  0  0
  7  8  1  0  0  0  0
  7  9  1  0  0  0  0
  9 10  1  0  0  0  0
  9 11  1  0  0  0  0
  9 26  1  0  0  0  0
 11 12  1  0  0  0  0
 11 13  1  0  0  0  0
 11 14  1  0  0  0  0
 14 15  2  0  0  0  0
 14 24  1  0  0  0  0
 15 16  1  0  0  0  0
 15 17  1  0  0  0  0
 17 18  1  0  0  0  0
 17 19  2  0  0  0  0
 19 20  1  0  0  0  0
 19 22  1  0  0  0  0
 20 21  1  0  0  0  0
 22 23  1  0  0  0  0
 22 24  2  0  0  0  0
 24 25  1  0  0  0  0
 26 27  2  0  0  0  0
 26 28  1  0  0  0  0
 28 29  1  0  0  0  0
 28 30  1  0  0  0  0
 30 31  1  0  0  0  0
 30 32  1  0  0  0  0
 30 33  1  0  0  0  0
M  END
$$$$

  -OEChem-03222214083D

 33 33  0     1  0  0  0  0  0999 V2000
   -3.4205   -4.5351    0.7532 H   0  0  0  0  0  0  0  0  0  0  0  0
   -3.3234   -3.6460    0.1233 C   0  0  0  0  0  0  0  0  0  0  0  0
   -4.1754   -2.9878    0.3100 H   0  0  0  0  0  0  0  0  0  0  0  0
   -3.3322   -3.9562   -0.9243 H   0  0  0  0  0  0  0  0  0  0  0  0
   -2.0287   -2.9213    0.4404 C   0  0  0  0  0  0  0  0  0  0  0  0
   -1.3190   -3.3180    1.3464 O   0  0  0  0  0  0  0  0  0  0  0  0
   -1.6707   -1.8088   -0.2961 N   0  0  0  0  0  0  0  0  0  0  0  0
   -2.2589   -1.5849   -1.0931 H   0  0  0  0  0  0  0  0  0  0  0  0
   -0.3829   -1.0997   -0.1571 C   0  0  1  0  0  0  0  0  0  0  0  0
    0.3952   -1.8420   -0.3445 H   0  0  0  0  0  0  0  0  0  0  0  0
   -0.3306    0.0227   -1.2200 C   0  0  0  0  0  0  0  0  0  0  0  0
   -0.9092   -0.2950   -2.0932 H   0  0  0  0  0  0  0  0  0  0  0  0
   -0.8255    0.9120   -0.8153 H   0  0  0  0  0  0  0  0  0  0  0  0
    1.0463    0.4000   -1.7412 C   0  0  0  0  0  0  0  0  0  0  0  0
    1.2569    1.7255   -2.1577 C   0  0  0  0  0  0  0  0  0  0  0  0
    0.4605    2.4579   -2.0645 H   0  0  0  0  0  0  0  0  0  0  0  0
    2.4875    2.1292   -2.6884 C   0  0  0  0  0  0  0  0  0  0  0  0
    2.6258    3.1608   -2.9925 H   0  0  0  0  0  0  0  0  0  0  0  0
    3.5264    1.2091   -2.8263 C   0  0  0  0  0  0  0  0  0  0  0  0
    4.7307    1.5899   -3.3440 O   0  0  0  0  0  0  0  0  0  0  0  0
    4.7368    2.5465   -3.5002 H   0  0  0  0  0  0  0  0  0  0  0  0
    3.3272   -0.1122   -2.4375 C   0  0  0  0  0  0  0  0  0  0  0  0
    4.1381   -0.8242   -2.5512 H   0  0  0  0  0  0  0  0  0  0  0  0
    2.0992   -0.5215   -1.9060 C   0  0  0  0  0  0  0  0  0  0  0  0
    1.9961   -1.5661   -1.6357 H   0  0  0  0  0  0  0  0  0  0  0  0
   -0.0998   -0.5189    1.2456 C   0  0  0  0  0  0  0  0  0  0  0  0
    1.0421   -0.5031    1.6842 O   0  0  0  0  0  0  0  0  0  0  0  0
   -1.0932    0.1649    1.9249 N   0  0  0  0  0  0  0  0  0  0  0  0
   -2.0411    0.0224    1.5932 H   0  0  0  0  0  0  0  0  0  0  0  0
   -0.8943    0.7211    3.2575 C   0  0  0  0  0  0  0  0  0  0  0  0
   -0.0694    1.4414    3.2538 H   0  0  0  0  0  0  0  0  0  0  0  0
   -1.7994    1.2372    3.5910 H   0  0  0  0  0  0  0  0  0  0  0  0
   -0.6635   -0.0754    3.9727 H   0  0  0  0  0  0  0  0  0  0  0  0
  1  2  1  0  0  0  0
  2  3  1  0  0  0  0
  2  4  1  0  0  0  0
  2  5  1  0  0  0  0
  5  6  2  0  0  0  0
  5  7  1  0  0  0  0
  7  8  1  0  0  0  0
  7  9  1  0  0  0  0
  9 10  1  0  0  0  0
  9 11  1  0  0  0  0
  9 26  1  0  0  0  0
 11 12  1  0  0  0  0
 11 13  1  0  0  0  0
 11 14  1  0  0  0  0
 14 15  2  0  0  0  0
 14 24  1  0  0  0  0
 15 16  1  0  0  0  0
 15 17  1  0  0  0  0
 17 18  1  0  0  0  0
 17 19  2  0  0  0  0
 19 20  1  0  0  0  0
 19 22  1  0  0  0  0
 20 21  1  0  0  0  0
 22 23  1  0  0  0  0
 22 24  2  0  0  0  0
 24 25  1  0  0  0  0
 26 27  2  0  0  0  0
 26 28  1  0  0  0  0
 28 29  1  0  0  0  0
 28 30  1  0  0  0  0
 30 31  1  0  0  0  0
 30 32  1  0  0  0  0
 30 33  1  0  0  0  0
M  END
$$$$

  -OEChem-03222214083D

 33 33  0     1  0  0  0  0  0999 V2000
   -3.3444   -4.5682    0.7628 H   0  0  0  0  0  0  0  0  0  0  0  0
   -3.2727   -3.6781    0.1312 C   0  0  0  0  0  0  0  0  0  0  0  0
   -4.1379   -3.0395    0.3242 H   0  0  0  0  0  0  0  0  0  0  0  0
   -3.2834   -3.9896   -0.9161 H   0  0  0  0  0  0  0  0  0  0  0  0
   -1.9919   -2.9241    0.4363 C   0  0  0  0  0  0  0  0  0  0  0  0
   -1.2633   -3.3082    1.3326 O   0  0  0  0  0  0  0  0  0  0  0  0
   -1.6651   -1.8036   -0.3029 N   0  0  0  0  0  0  0  0  0  0  0  0
   -2.2699   -1.5872   -1.0895 H   0  0  0  0  0  0  0  0  0  0  0  0
   -0.3866   -1.0741   -0.1831 C   0  0  1  0  0  0  0  0  0  0  0  0
    0.4108   -1.7926   -0.3907 H   0  0  0  0  0  0  0  0  0  0  0  0
   -0.3713    0.0581   -1.2343 C   0  0  0  0  0  0  0  0  0  0  0  0
   -0.9545   -0.2543   -2.1060 H   0  0  0  0  0  0  0  0  0  0  0  0
   -0.8649    0.9431   -0.8194 H   0  0  0  0  0  0  0  0  0  0  0  0
    1.0099    0.4197   -1.7427 C   0  0  0  0  0  0  0  0  0  0  0  0
    1.3723    1.7719   -1.8545 C   0  0  0  0  0  0  0  0  0  0  0  0
    0.6872    2.5487   -1.5282 H   0  0  0  0  0  0  0  0  0  0  0  0
    2.6202    2.1391   -2.3719 C   0  0  0  0  0  0  0  0  0  0  0  0
    2.8834    3.1891   -2.4354 H   0  0  0  0  0  0  0  0  0  0  0  0
    3.5166    1.1602   -2.8029 C   0  0  0  0  0  0  0  0  0  0  0  0
    4.7368    1.5065   -3.3077 O   0  0  0  0  0  0  0  0  0  0  0  0
    4.8763    2.4611   -3.2127 H   0  0  0  0  0  0  0  0  0  0  0  0
    3.1573   -0.1828   -2.7230 C   0  0  0  0  0  0  0  0  0  0  0  0
    3.8563   -0.9377   -3.0675 H   0  0  0  0  0  0  0  0  0  0  0  0
    1.9123   -0.5553   -2.2046 C   0  0  0  0  0  0  0  0  0  0  0  0
    1.6601   -1.6104   -2.1742 H   0  0  0  0  0  0  0  0  0  0  0  0
   -0.0943   -0.4947    1.2190 C   0  0  0  0  0  0  0  0  0  0  0  0
    1.0536   -0.4499    1.6400 O   0  0  0  0  0  0  0  0  0  0  0  0
   -1.0915    0.1683    1.9130 N   0  0  0  0  0  0  0  0  0  0  0  0
   -2.0410    0.0069    1.5949 H   0  0  0  0  0  0  0  0  0  0  0  0
   -0.8839    0.7317    3.2411 C   0  0  0  0  0  0  0  0  0  0  0  0
   -0.0762    1.4711    3.2214 H   0  0  0  0  0  0  0  0  0  0  0  0
   -1.7949    1.2277    3.5889 H   0  0  0  0  0  0  0  0  0  0  0  0
   -0.6223   -0.0576    3.9541 H   0  0  0  0  0  0  0  0  0  0  0  0
  1  2  1  0  0  0  0
  2  3  1  0  0  0  0
  2  4  1  0  0  0  0
  2  5  1  0  0  0  0
  5  6  2  0  0  0  0
  5  7  1  0  0  0  0
  7  8  1  0  0  0  0
  7  9  1  0  0  0  0
  9 10  1  0  0  0  0
  9 11  1  0  0  0  0
  9 26  1  0  0  0  0
 11 12  1  0  0  0  0
 11 13  1  0  0  0  0
 11 14  1  0  0  0  0
 14 15  2  0  0  0  0
 14 24  1  0  0  0  0
 15 16  1  0  0  0  0
 15 17  1  0  0  0  0
 17 18  1  0  0  0  0
 17 19  2  0  0  0  0
 19 20  1  0  0  0  0
 19 22  1  0  0  0  0
 20 21  1  0  0  0  0
 22 23  1  0  0  0  0
 22 24  2  0  0  0  0
 24 25  1  0  0  0  0
 26 27  2  0  0  0  0
 26 28  1  0  0  0  0
 28 29  1  0  0  0  0
 28 30  1  0  0  0  0
 30 31  1  0  0  0  0
 30 32  1  0  0  0  0
 30 33  1  0  0  0  0
M  END
$$$$

  -OEChem-03222214083D

 33 33  0     1  0  0  0  0  0999 V2000
   -3.2863   -4.5819    0.7810 H   0  0  0  0  0  0  0  0  0  0  0  0
   -3.2401   -3.6897    0.1499 C   0  0  0  0  0  0  0  0  0  0  0  0
   -4.1060   -3.0599    0.3676 H   0  0  0  0  0  0  0  0  0  0  0  0
   -3.2760   -3.9996   -0.8973 H   0  0  0  0  0  0  0  0  0  0  0  0
   -1.9588   -2.9239    0.4228 C   0  0  0  0  0  0  0  0  0  0  0  0
   -1.2015   -3.3050    1.2963 O   0  0  0  0  0  0  0  0  0  0  0  0
   -1.6647   -1.7948   -0.3174 N   0  0  0  0  0  0  0  0  0  0  0  0
   -2.2941   -1.5785   -1.0843 H   0  0  0  0  0  0  0  0  0  0  0  0
   -0.3953   -1.0459   -0.2216 C   0  0  1  0  0  0  0  0  0  0  0  0
    0.4135   -1.7460   -0.4559 H   0  0  0  0  0  0  0  0  0  0  0  0
   -0.4134    0.0899   -1.2654 C   0  0  0  0  0  0  0  0  0  0  0  0
   -1.0043   -0.2208   -2.1328 H   0  0  0  0  0  0  0  0  0  0  0  0
   -0.9027    0.9742   -0.8443 H   0  0  0  0  0  0  0  0  0  0  0  0
    0.9702    0.4360   -1.7670 C   0  0  0  0  0  0  0  0  0  0  0  0
    1.4819    1.7307   -1.5913 C   0  0  0  0  0  0  0  0  0  0  0  0
    0.9036    2.4778   -1.0556 H   0  0  0  0  0  0  0  0  0  0  0  0
    2.7479    2.0684   -2.0844 C   0  0  0  0  0  0  0  0  0  0  0  0
    3.1309    3.0703   -1.9259 H   0  0  0  0  0  0  0  0  0  0  0  0
    3.5100    1.1209   -2.7707 C   0  0  0  0  0  0  0  0  0  0  0  0
    4.7471    1.4392   -3.2517 O   0  0  0  0  0  0  0  0  0  0  0  0
    5.0051    2.3203   -2.9405 H   0  0  0  0  0  0  0  0  0  0  0  0
    3.0016   -0.1613   -2.9660 C   0  0  0  0  0  0  0  0  0  0  0  0
    3.5997   -0.8904   -3.5029 H   0  0  0  0  0  0  0  0  0  0  0  0
    1.7387   -0.5052   -2.4713 C   0  0  0  0  0  0  0  0  0  0  0  0
    1.3609   -1.5093   -2.6383 H   0  0  0  0  0  0  0  0  0  0  0  0
   -0.0859   -0.4704    1.1788 C   0  0  0  0  0  0  0  0  0  0  0  0
    1.0686   -0.4014    1.5776 O   0  0  0  0  0  0  0  0  0  0  0  0
   -1.0817    0.1714    1.8947 N   0  0  0  0  0  0  0  0  0  0  0  0
   -2.0333   -0.0071    1.5923 H   0  0  0  0  0  0  0  0  0  0  0  0
   -0.8629    0.7191    3.2277 C   0  0  0  0  0  0  0  0  0  0  0  0
   -0.0582    1.4617    3.2104 H   0  0  0  0  0  0  0  0  0  0  0  0
   -1.7725    1.2068    3.5908 H   0  0  0  0  0  0  0  0  0  0  0  0
   -0.5912   -0.0781    3.9277 H   0  0  0  0  0  0  0  0  0  0  0  0
  1  2  1  0  0  0  0
  2  3  1  0  0  0  0
  2  4  1  0  0  0  0
  2  5  1  0  0  0  0
  5  6  2  0  0  0  0
  5  7  1  0  0  0  0
  7  8  1  0  0  0  0
  7  9  1  0  0  0  0
  9 10  1  0  0  0  0
  9 11  1  0  0  0  0
  9 26  1  0  0  0  0
 11 12  1  0  0  0  0
 11 13  1  0  0  0  0
 11 14  1  0  0  0  0
 14 15  2  0  0  0  0
 14 24  1  0  0  0  0
 15 16  1  0  0  0  0
 15 17  1  0  0  0  0
 17 18  1  0  0  0  0
 17 19  2  0  0  0  0
 19 20  1  0  0  0  0
 19 22  1  0  0  0  0
 20 21  1  0  0  0  0
 22 23  1  0  0  0  0
 22 24  2  0  0  0  0
 24 25  1  0  0  0  0
 26 27  2  0  0  0  0
 26 28  1  0  0  0  0
 28 29  1  0  0  0  0
 28 30  1  0  0  0  0
 30 31  1  0  0  0  0
 30 32  1  0  0  0  0
 30 33  1  0  0  0  0
M  END
$$$$

  -OEChem-03222214083D

 33 33  0     1  0  0  0  0  0999 V2000
   -3.2595   -4.5839    0.7896 H   0  0  0  0  0  0  0  0  0  0  0  0
   -3.2240   -3.6935    0.1552 C   0  0  0  0  0  0  0  0  0  0  0  0
   -4.0908   -3.0673    0.3801 H   0  0  0  0  0  0  0  0  0  0  0  0
   -3.2691   -4.0071   -0.8906 H   0  0  0  0  0  0  0  0  0  0  0  0
   -1.9433   -2.9210    0.4122 C   0  0  0  0  0  0  0  0  0  0  0  0
   -1.1720   -3.2999    1.2743 O   0  0  0  0  0  0  0  0  0  0  0  0
   -1.6677   -1.7862   -0.3264 N   0  0  0  0  0  0  0  0  0  0  0  0
   -2.3096   -1.5704   -1.0831 H   0  0  0  0  0  0  0  0  0  0  0  0
   -0.4016   -1.0296   -0.2463 C   0  0  1  0  0  0  0  0  0  0  0  0
    0.4105   -1.7197   -0.5023 H   0  0  0  0  0  0  0  0  0  0  0  0
   -0.4413    0.1099   -1.2829 C   0  0  0  0  0  0  0  0  0  0  0  0
   -1.0453   -0.1943   -2.1434 H   0  0  0  0  0  0  0  0  0  0  0  0
   -0.9200    0.9959   -0.8525 H   0  0  0  0  0  0  0  0  0  0  0  0
    0.9414    0.4466   -1.7865 C   0  0  0  0  0  0  0  0  0  0  0  0
    1.5930    1.6095   -1.3505 C   0  0  0  0  0  0  0  0  0  0  0  0
    1.1166    2.2615   -0.6239 H   0  0  0  0  0  0  0  0  0  0  0  0
    2.8698    1.9280   -1.8276 C   0  0  0  0  0  0  0  0  0  0  0  0
    3.3623    2.8251   -1.4694 H   0  0  0  0  0  0  0  0  0  0  0  0
    3.5037    1.0923   -2.7493 C   0  0  0  0  0  0  0  0  0  0  0  0
    4.7509    1.3917   -3.2153 O   0  0  0  0  0  0  0  0  0  0  0  0
    5.1066    2.1557   -2.7359 H   0  0  0  0  0  0  0  0  0  0  0  0
    2.8586   -0.0603   -3.1927 C   0  0  0  0  0  0  0  0  0  0  0  0
    3.3610   -0.7046   -3.9067 H   0  0  0  0  0  0  0  0  0  0  0  0
    1.5838   -0.3856   -2.7164 C   0  0  0  0  0  0  0  0  0  0  0  0
    1.0985   -1.2901   -3.0703 H   0  0  0  0  0  0  0  0  0  0  0  0
   -0.0769   -0.4606    1.1537 C   0  0  0  0  0  0  0  0  0  0  0  0
    1.0828   -0.3736    1.5342 O   0  0  0  0  0  0  0  0  0  0  0  0
   -1.0692    0.1692    1.8848 N   0  0  0  0  0  0  0  0  0  0  0  0
   -2.0226   -0.0226    1.5966 H   0  0  0  0  0  0  0  0  0  0  0  0
   -0.8387    0.7141    3.2168 C   0  0  0  0  0  0  0  0  0  0  0  0
   -0.0370    1.4597    3.1936 H   0  0  0  0  0  0  0  0  0  0  0  0
   -1.7464    1.1973    3.5903 H   0  0  0  0  0  0  0  0  0  0  0  0
   -0.5573   -0.0841    3.9117 H   0  0  0  0  0  0  0  0  0  0  0  0
  1  2  1  0  0  0  0
  2  3  1  0  0  0  0
  2  4  1  0  0  0  0
  2  5  1  0  0  0  0
  5  6  2  0  0  0  0
  5  7  1  0  0  0  0
  7  8  1  0  0  0  0
  7  9  1  0  0  0  0
  9 10  1  0  0  0  0
  9 11  1  0  0  0  0
  9 26  1  0  0  0  0
 11 12  1  0  0  0  0
 11 13  1  0  0  0  0
 11 14  1  0  0  0  0
 14 15  2  0  0  0  0
 14 24  1  0  0  0  0
 15 16  1  0  0  0  0
 15 17  1  0  0  0  0
 17 18  1  0  0  0  0
 17 19  2  0  0  0  0
 19 20  1  0  0  0  0
 19 22  1  0  0  0  0
 20 21  1  0  0  0  0
 22 23  1  0  0  0  0
 22 24  2  0  0  0  0
 24 25  1  0  0  0  0
 26 27  2  0  0  0  0
 26 28  1  0  0  0  0
 28 29  1  0  0  0  0
 28 30  1  0  0  0  0
 30 31  1  0  0  0  0
 30 32  1  0  0  0  0
 30 33  1  0  0  0  0
M  END
$$$$

  -OEChem-03222214083D

 33 33  0     1  0  0  0  0  0999 V2000
   -3.2581   -4.5782    0.7914 H   0  0  0  0  0  0  0  0  0  0  0  0
   -3.2214   -3.6888    0.1554 C   0  0  0  0  0  0  0  0  0  0  0  0
   -4.0879   -3.0615    0.3782 H   0  0  0  0  0  0  0  0  0  0  0  0
   -3.2658   -4.0042   -0.8899 H   0  0  0  0  0  0  0  0  0  0  0  0
   -1.9407   -2.9162    0.4122 C   0  0  0  0  0  0  0  0  0  0  0  0
   -1.1676   -3.2962    1.2723 O   0  0  0  0  0  0  0  0  0  0  0  0
   -1.6679   -1.7799   -0.3253 N   0  0  0  0  0  0  0  0  0  0  0  0
   -2.3106   -1.5664   -1.0819 H   0  0  0  0  0  0  0  0  0  0  0  0
   -0.4009   -1.0242   -0.2515 C   0  0  1  0  0  0  0  0  0  0  0  0
    0.4114   -1.7110   -0.5167 H   0  0  0  0  0  0  0  0  0  0  0  0
   -0.4489    0.1155   -1.2882 C   0  0  0  0  0  0  0  0  0  0  0  0
   -1.0652   -0.1861   -2.1410 H   0  0  0  0  0  0  0  0  0  0  0  0
   -0.9176    1.0046   -0.8535 H   0  0  0  0  0  0  0  0  0  0  0  0
    0.9308    0.4516   -1.8004 C   0  0  0  0  0  0  0  0  0  0  0  0
    1.7130    1.4211   -1.1556 C   0  0  0  0  0  0  0  0  0  0  0  0
    1.3360    1.9234   -0.2690 H   0  0  0  0  0  0  0  0  0  0  0  0
    2.9923    1.7311   -1.6302 C   0  0  0  0  0  0  0  0  0  0  0  0
    3.5845    2.4762   -1.1107 H   0  0  0  0  0  0  0  0  0  0  0  0
    3.5009    1.0788   -2.7549 C   0  0  0  0  0  0  0  0  0  0  0  0
    4.7500    1.3700   -3.2212 O   0  0  0  0  0  0  0  0  0  0  0  0
    5.1929    1.9826   -2.6140 H   0  0  0  0  0  0  0  0  0  0  0  0
    2.7282    0.1165   -3.4020 C   0  0  0  0  0  0  0  0  0  0  0  0
    3.1345   -0.3875   -4.2726 H   0  0  0  0  0  0  0  0  0  0  0  0
    1.4502   -0.2008   -2.9290 C   0  0  0  0  0  0  0  0  0  0  0  0
    0.8670   -0.9596   -3.4418 H   0  0  0  0  0  0  0  0  0  0  0  0
   -0.0733   -0.4609    1.1505 C   0  0  0  0  0  0  0  0  0  0  0  0
    1.0867   -0.3750    1.5309 O   0  0  0  0  0  0  0  0  0  0  0  0
   -1.0642    0.1654    1.8861 N   0  0  0  0  0  0  0  0  0  0  0  0
   -2.0182   -0.0256    1.5988 H   0  0  0  0  0  0  0  0  0  0  0  0
   -0.8308    0.7059    3.2194 C   0  0  0  0  0  0  0  0  0  0  0  0
   -0.0308    1.4535    3.1963 H   0  0  0  0  0  0  0  0  0  0  0  0
   -1.7384    1.1856    3.5976 H   0  0  0  0  0  0  0  0  0  0  0  0
   -0.5448   -0.0940    3.9103 H   0  0  0  0  0  0  0  0  0  0  0  0
  1  2  1  0  0  0  0
  2  3  1  0  0  0  0
  2  4  1  0  0  0  0
  2  5  1  0  0  0  0
  5  6  2  0  0  0  0
  5  7  1  0  0  0  0
  7  8  1  0  0  0  0
  7  9  1  0  0  0  0
  9 10  1  0  0  0  0
  9 11  1  0  0  0  0
  9 26  1  0  0  0  0
 11 12  1  0  0  0  0
 11 13  1  0  0  0  0
 11 14  1  0  0  0  0
 14 15  2  0  0  0  0
 14 24  1  0  0  0  0
 15 16  1  0  0  0  0
 15 17  1  0  0  0  0
 17 18  1  0  0  0  0
 17 19  2  0  0  0  0
 19 20  1  0  0  0  0
 19 22  1  0  0  0  0
 20 21  1  0  0  0  0
 22 23  1  0  0  0  0
 22 24  2  0  0  0  0
 24 25  1  0  0  0  0
 26 27  2  0  0  0  0
 26 28  1  0  0  0  0
 28 29  1  0  0  0  0
 28 30  1  0  0  0  0
 30 31  1  0  0  0  0
 30 32  1  0  0  0  0
 30 33  1  0  0  0  0
M  END
$$$$

  -OEChem-03222214083D

 33 33  0     1  0  0  0  0  0999 V2000
   -3.2725   -4.5604    0.7771 H   0  0  0  0  0  0  0  0  0  0  0  0
   -3.2249   -3.6692    0.1446 C   0  0  0  0  0  0  0  0  0  0  0  0
   -4.0925   -3.0401    0.3573 H   0  0  0  0  0  0  0  0  0  0  0  0
   -3.2554   -3.9808   -0.9022 H   0  0  0  0  0  0  0  0  0  0  0  0
   -1.9455   -2.9018    0.4211 C   0  0  0  0  0  0  0  0  0  0  0  0
   -1.1861   -3.2871    1.2909 O   0  0  0  0  0  0  0  0  0  0  0  0
   -1.6574   -1.7678   -0.3142 N   0  0  0  0  0  0  0  0  0  0  0  0
   -2.2894   -1.5531   -1.0796 H   0  0  0  0  0  0  0  0  0  0  0  0
   -0.3847   -1.0219   -0.2309 C   0  0  1  0  0  0  0  0  0  0  0  0
    0.4274   -1.7112   -0.4904 H   0  0  0  0  0  0  0  0  0  0  0  0
   -0.4308    0.1098   -1.2804 C   0  0  0  0  0  0  0  0  0  0  0  0
   -1.0573   -0.1980   -2.1237 H   0  0  0  0  0  0  0  0  0  0  0  0
   -0.8958    1.0017   -0.8474 H   0  0  0  0  0  0  0  0  0  0  0  0
    0.9408    0.4618   -1.8110 C   0  0  0  0  0  0  0  0  0  0  0  0
    1.8481    1.2029   -1.0376 C   0  0  0  0  0  0  0  0  0  0  0  0
    1.5728    1.5448   -0.0439 H   0  0  0  0  0  0  0  0  0  0  0  0
    3.1219    1.5067   -1.5306 C   0  0  0  0  0  0  0  0  0  0  0  0
    3.8067    2.0758   -0.9115 H   0  0  0  0  0  0  0  0  0  0  0  0
    3.5047    1.0741   -2.8010 C   0  0  0  0  0  0  0  0  0  0  0  0
    4.7467    1.3625   -3.2877 O   0  0  0  0  0  0  0  0  0  0  0  0
    5.2685    1.8163   -2.6078 H   0  0  0  0  0  0  0  0  0  0  0  0
    2.6108    0.3381   -3.5758 C   0  0  0  0  0  0  0  0  0  0  0  0
    2.9189    0.0026   -4.5603 H   0  0  0  0  0  0  0  0  0  0  0  0
    1.3369    0.0290   -3.0865 C   0  0  0  0  0  0  0  0  0  0  0  0
    0.6617   -0.5544   -3.7049 H   0  0  0  0  0  0  0  0  0  0  0  0
   -0.0768   -0.4669    1.1797 C   0  0  0  0  0  0  0  0  0  0  0  0
    1.0723   -0.4292    1.5996 O   0  0  0  0  0  0  0  0  0  0  0  0
   -1.0737    0.1626    1.9046 N   0  0  0  0  0  0  0  0  0  0  0  0
   -2.0240   -0.0014    1.5894 H   0  0  0  0  0  0  0  0  0  0  0  0
   -0.8629    0.6690    3.2553 C   0  0  0  0  0  0  0  0  0  0  0  0
   -0.0590    1.4125    3.2655 H   0  0  0  0  0  0  0  0  0  0  0  0
   -1.7751    1.1443    3.6282 H   0  0  0  0  0  0  0  0  0  0  0  0
   -0.5942   -0.1490    3.9321 H   0  0  0  0  0  0  0  0  0  0  0  0
  1  2  1  0  0  0  0
  2  3  1  0  0  0  0
  2  4  1  0  0  0  0
  2  5  1  0  0  0  0
  5  6  2  0  0  0  0
  5  7  1  0  0  0  0
  7  8  1  0  0  0  0
  7  9  1  0  0  0  0
  9 10  1  0  0  0  0
  9 11  1  0  0  0  0
  9 26  1  0  0  0  0
 11 12  1  0  0  0  0
 11 13  1  0  0  0  0
 11 14  1  0  0  0  0
 14 15  2  0  0  0  0
 14 24  1  0  0  0  0
 15 16  1  0  0  0  0
 15 17  1  0  0  0  0
 17 18  1  0  0  0  0
 17 19  2  0  0  0  0
 19 20  1  0  0  0  0
 19 22  1  0  0  0  0
 20 21  1  0  0  0  0
 22 23  1  0  0  0  0
 22 24  2  0  0  0  0
 24 25  1  0  0  0  0
 26 27  2  0  0  0  0
 26 28  1  0  0  0  0
 28 29  1  0  0  0  0
 28 30  1  0  0  0  0
 30 31  1  0  0  0  0
 30 32  1  0  0  0  0
 30 33  1  0  0  0  0
M  END
$$$$

  -OEChem-03222214083D

 33 33  0     1  0  0  0  0  0999 V2000
   -3.3179   -4.5183    0.7819 H   0  0  0  0  0  0  0  0  0  0  0  0
   -3.2409   -3.6330    0.1441 C   0  0  0  0  0  0  0  0  0  0  0  0
   -4.0993   -2.9850    0.3369 H   0  0  0  0  0  0  0  0  0  0  0  0
   -3.2594   -3.9516   -0.9009 H   0  0  0  0  0  0  0  0  0  0  0  0
   -1.9516   -2.8893    0.4385 C   0  0  0  0  0  0  0  0  0  0  0  0
   -1.2137   -3.2876    1.3207 O   0  0  0  0  0  0  0  0  0  0  0  0
   -1.6309   -1.7636   -0.2965 N   0  0  0  0  0  0  0  0  0  0  0  0
   -2.2441   -1.5452   -1.0756 H   0  0  0  0  0  0  0  0  0  0  0  0
   -0.3496   -1.0337   -0.1916 C   0  0  1  0  0  0  0  0  0  0  0  0
    0.4641   -1.7278   -0.4319 H   0  0  0  0  0  0  0  0  0  0  0  0
   -0.3803    0.0904   -1.2551 C   0  0  0  0  0  0  0  0  0  0  0  0
   -1.0108   -0.2270   -2.0916 H   0  0  0  0  0  0  0  0  0  0  0  0
   -0.8476    0.9836   -0.8283 H   0  0  0  0  0  0  0  0  0  0  0  0
    0.9817    0.4662   -1.8064 C   0  0  0  0  0  0  0  0  0  0  0  0
    2.0137    0.9525   -0.9863 C   0  0  0  0  0  0  0  0  0  0  0  0
    1.8559    1.1124    0.0747 H   0  0  0  0  0  0  0  0  0  0  0  0
    3.2689    1.2608   -1.5225 C   0  0  0  0  0  0  0  0  0  0  0  0
    4.0476    1.6318   -0.8650 H   0  0  0  0  0  0  0  0  0  0  0  0
    3.5127    1.0914   -2.8853 C   0  0  0  0  0  0  0  0  0  0  0  0
    4.7348    1.3881   -3.4154 O   0  0  0  0  0  0  0  0  0  0  0  0
    5.3454    1.6496   -2.7087 H   0  0  0  0  0  0  0  0  0  0  0  0
    2.4975    0.6138   -3.7096 C   0  0  0  0  0  0  0  0  0  0  0  0
    2.6959    0.4833   -4.7683 H   0  0  0  0  0  0  0  0  0  0  0  0
    1.2419    0.3003   -3.1777 C   0  0  0  0  0  0  0  0  0  0  0  0
    0.4724   -0.0785   -3.8435 H   0  0  0  0  0  0  0  0  0  0  0  0
   -0.0856   -0.4831    1.2308 C   0  0  0  0  0  0  0  0  0  0  0  0
    1.0353   -0.5174    1.7215 O   0  0  0  0  0  0  0  0  0  0  0  0
   -1.1009    0.1554    1.9214 N   0  0  0  0  0  0  0  0  0  0  0  0
   -2.0367    0.0341    1.5494 H   0  0  0  0  0  0  0  0  0  0  0  0
   -0.9506    0.6134    3.2970 C   0  0  0  0  0  0  0  0  0  0  0  0
   -0.1313    1.3359    3.3736 H   0  0  0  0  0  0  0  0  0  0  0  0
   -1.8701    1.0995    3.6365 H   0  0  0  0  0  0  0  0  0  0  0  0
   -0.7384   -0.2319    3.9602 H   0  0  0  0  0  0  0  0  0  0  0  0
  1  2  1  0  0  0  0
  2  3  1  0  0  0  0
  2  4  1  0  0  0  0
  2  5  1  0  0  0  0
  5  6  2  0  0  0  0
  5  7  1  0  0  0  0
  7  8  1  0  0  0  0
  7  9  1  0  0  0  0
  9 10  1  0  0  0  0
  9 11  1  0  0  0  0
  9 26  1  0  0  0  0
 11 12  1  0  0  0  0
 11 13  1  0  0  0  0
 11 14  1  0  0  0  0
 14 15  2  0  0  0  0
 14 24  1  0  0  0  0
 15 16  1  0  0  0  0
 15 17  1  0  0  0  0
 17 18  1  0  0  0  0
 17 19  2  0  0  0  0
 19 20  1  0  0  0  0
 19 22  1  0  0  0  0
 20 21  1  0  0  0  0
 22 23  1  0  0  0  0
 22 24  2  0  0  0  0
 24 25  1  0  0  0  0
 26 27  2  0  0  0  0
 26 28  1  0  0  0  0
 28 29  1  0  0  0  0
 28 30  1  0  0  0  0
 30 31  1  0  0  0  0
 30 32  1  0  0  0  0
 30 33  1  0  0  0  0
M  END
$$$$

  -OEChem-03222214083D

 33 33  0     1  0  0  0  0  0999 V2000
   -3.3819   -4.4807    0.7915 H   0  0  0  0  0  0  0  0  0  0  0  0
   -3.2755   -3.6020    0.1487 C   0  0  0  0  0  0  0  0  0  0  0  0
   -4.1231   -2.9348    0.3222 H   0  0  0  0  0  0  0  0  0  0  0  0
   -3.2828   -3.9284   -0.8941 H   0  0  0  0  0  0  0  0  0  0  0  0
   -1.9756   -2.8838    0.4602 C   0  0  0  0  0  0  0  0  0  0  0  0
   -1.2624   -3.2934    1.3573 O   0  0  0  0  0  0  0  0  0  0  0  0
   -1.6134   -1.7746   -0.2812 N   0  0  0  0  0  0  0  0  0  0  0  0
   -2.2049   -1.5529   -1.0762 H   0  0  0  0  0  0  0  0  0  0  0  0
   -0.3200   -1.0678   -0.1553 C   0  0  1  0  0  0  0  0  0  0  0  0
    0.4900   -1.7733   -0.3716 H   0  0  0  0  0  0  0  0  0  0  0  0
   -0.3214    0.0517   -1.2268 C   0  0  0  0  0  0  0  0  0  0  0  0
   -0.9483   -0.2720   -2.0637 H   0  0  0  0  0  0  0  0  0  0  0  0
   -0.7897    0.9492   -0.8098 H   0  0  0  0  0  0  0  0  0  0  0  0
    1.0360    0.4378   -1.7925 C   0  0  0  0  0  0  0  0  0  0  0  0
    2.1777    0.6431   -0.9970 C   0  0  0  0  0  0  0  0  0  0  0  0
    2.1413    0.5595    0.0812 H   0  0  0  0  0  0  0  0  0  0  0  0
    3.4057    0.9826   -1.5761 C   0  0  0  0  0  0  0  0  0  0  0  0
    4.2677    1.1324   -0.9350 H   0  0  0  0  0  0  0  0  0  0  0  0
    3.5163    1.1282   -2.9583 C   0  0  0  0  0  0  0  0  0  0  0  0
    4.7106    1.4584   -3.5301 O   0  0  0  0  0  0  0  0  0  0  0  0
    5.3942    1.5314   -2.8461 H   0  0  0  0  0  0  0  0  0  0  0  0
    2.3942    0.9360   -3.7588 C   0  0  0  0  0  0  0  0  0  0  0  0
    2.4870    1.0534   -4.8335 H   0  0  0  0  0  0  0  0  0  0  0  0
    1.1653    0.5942   -3.1842 C   0  0  0  0  0  0  0  0  0  0  0  0
    0.3097    0.4494   -3.8368 H   0  0  0  0  0  0  0  0  0  0  0  0
   -0.0966   -0.5089    1.2726 C   0  0  0  0  0  0  0  0  0  0  0  0
    0.9917   -0.6000    1.8251 O   0  0  0  0  0  0  0  0  0  0  0  0
   -1.1235    0.1527    1.9235 N   0  0  0  0  0  0  0  0  0  0  0  0
   -2.0436    0.0723    1.5045 H   0  0  0  0  0  0  0  0  0  0  0  0
   -1.0229    0.5934    3.3092 C   0  0  0  0  0  0  0  0  0  0  0  0
   -0.1854    1.2886    3.4309 H   0  0  0  0  0  0  0  0  0  0  0  0
   -1.9412    1.1056    3.6112 H   0  0  0  0  0  0  0  0  0  0  0  0
   -0.8682   -0.2645    3.9722 H   0  0  0  0  0  0  0  0  0  0  0  0
  1  2  1  0  0  0  0
  2  3  1  0  0  0  0
  2  4  1  0  0  0  0
  2  5  1  0  0  0  0
  5  6  2  0  0  0  0
  5  7  1  0  0  0  0
  7  8  1  0  0  0  0
  7  9  1  0  0  0  0
  9 10  1  0  0  0  0
  9 11  1  0  0  0  0
  9 26  1  0  0  0  0
 11 12  1  0  0  0  0
 11 13  1  0  0  0  0
 11 14  1  0  0  0  0
 14 15  2  0  0  0  0
 14 24  1  0  0  0  0
 15 16  1  0  0  0  0
 15 17  1  0  0  0  0
 17 18  1  0  0  0  0
 17 19  2  0  0  0  0
 19 20  1  0  0  0  0
 19 22  1  0  0  0  0
 20 21  1  0  0  0  0
 22 23  1  0  0  0  0
 22 24  2  0  0  0  0
 24 25  1  0  0  0  0
 26 27  2  0  0  0  0
 26 28  1  0  0  0  0
 28 29  1  0  0  0  0
 28 30  1  0  0  0  0
 30 31  1  0  0  0  0
 30 32  1  0  0  0  0
 30 33  1  0  0  0  0
M  END
$$$$

  -OEChem-03222214083D

 33 33  0     1  0  0  0  0  0999 V2000
   -3.4410   -4.4614    0.8094 H   0  0  0  0  0  0  0  0  0  0  0  0
   -3.3144   -3.5911    0.1588 C   0  0  0  0  0  0  0  0  0  0  0  0
   -4.1513   -2.9075    0.3198 H   0  0  0  0  0  0  0  0  0  0  0  0
   -3.3201   -3.9275   -0.8807 H   0  0  0  0  0  0  0  0  0  0  0  0
   -2.0045   -2.8919    0.4723 C   0  0  0  0  0  0  0  0  0  0  0  0
   -1.3033   -3.3044    1.3776 O   0  0  0  0  0  0  0  0  0  0  0  0
   -1.6185   -1.7973   -0.2785 N   0  0  0  0  0  0  0  0  0  0  0  0
   -2.1988   -1.5759   -1.0818 H   0  0  0  0  0  0  0  0  0  0  0  0
   -0.3163   -1.1087   -0.1480 C   0  0  1  0  0  0  0  0  0  0  0  0
    0.4835   -1.8287   -0.3537 H   0  0  0  0  0  0  0  0  0  0  0  0
   -0.2939    0.0119   -1.2174 C   0  0  0  0  0  0  0  0  0  0  0  0
   -0.9145   -0.3103   -2.0599 H   0  0  0  0  0  0  0  0  0  0  0  0
   -0.7597    0.9128   -0.8050 H   0  0  0  0  0  0  0  0  0  0  0  0
    1.0629    0.3931   -1.7892 C   0  0  0  0  0  0  0  0  0  0  0  0
    2.2742    0.2996   -1.0787 C   0  0  0  0  0  0  0  0  0  0  0  0
    2.3138   -0.0714   -0.0630 H   0  0  0  0  0  0  0  0  0  0  0  0
    3.4841    0.6828   -1.6686 C   0  0  0  0  0  0  0  0  0  0  0  0
    4.4009    0.5958   -1.0957 H   0  0  0  0  0  0  0  0  0  0  0  0
    3.5088    1.1700   -2.9747 C   0  0  0  0  0  0  0  0  0  0  0  0
    4.6852    1.5454   -3.5560 O   0  0  0  0  0  0  0  0  0  0  0  0
    5.4161    1.4197   -2.9310 H   0  0  0  0  0  0  0  0  0  0  0  0
    2.3189    1.2749   -3.6881 C   0  0  0  0  0  0  0  0  0  0  0  0
    2.3450    1.6580   -4.7029 H   0  0  0  0  0  0  0  0  0  0  0  0
    1.1071    0.8935   -3.1025 C   0  0  0  0  0  0  0  0  0  0  0  0
    0.1942    0.9924   -3.6817 H   0  0  0  0  0  0  0  0  0  0  0  0
   -0.0981   -0.5357    1.2763 C   0  0  0  0  0  0  0  0  0  0  0  0
    0.9858   -0.6245    1.8375 O   0  0  0  0  0  0  0  0  0  0  0  0
   -1.1215    0.1490    1.9090 N   0  0  0  0  0  0  0  0  0  0  0  0
   -2.0394    0.0783    1.4836 H   0  0  0  0  0  0  0  0  0  0  0  0
   -1.0207    0.6248    3.2831 C   0  0  0  0  0  0  0  0  0  0  0  0
   -0.1777    1.3157    3.3891 H   0  0  0  0  0  0  0  0  0  0  0  0
   -1.9355    1.1523    3.5693 H   0  0  0  0  0  0  0  0  0  0  0  0
   -0.8745   -0.2169    3.9682 H   0  0  0  0  0  0  0  0  0  0  0  0
  1  2  1  0  0  0  0
  2  3  1  0  0  0  0
  2  4  1  0  0  0  0
  2  5  1  0  0  0  0
  5  6  2  0  0  0  0
  5  7  1  0  0  0  0
  7  8  1  0  0  0  0
  7  9  1  0  0  0  0
  9 10  1  0  0  0  0
  9 11  1  0  0  0  0
  9 26  1  0  0  0  0
 11 12  1  0  0  0  0
 11 13  1  0  0  0  0
 11 14  1  0  0  0  0
 14 15  2  0  0  0  0
 14 24  1  0  0  0  0
 15 16  1  0  0  0  0
 15 17  1  0  0  0  0
 17 18  1  0  0  0  0
 17 19  2  0  0  0  0
 19 20  1  0  0  0  0
 19 22  1  0  0  0  0
 20 21  1  0  0  0  0
 22 23  1  0  0  0  0
 22 24  2  0  0  0  0
 24 25  1  0  0  0  0
 26 27  2  0  0  0  0
 26 28  1  0  0  0  0
 28 29  1  0  0  0  0
 28 30  1  0  0  0  0
 30 31  1  0  0  0  0
 30 32  1  0  0  0  0
 30 33  1  0  0  0  0
M  END
$$$$

  -OEChem-03222214083D

 33 33  0     1  0  0  0  0  0999 V2000
   -3.4522   -4.4841    0.8027 H   0  0  0  0  0  0  0  0  0  0  0  0
   -3.3327   -3.6146    0.1498 C   0  0  0  0  0  0  0  0  0  0  0  0
   -4.1740   -2.9363    0.3106 H   0  0  0  0  0  0  0  0  0  0  0  0
   -3.3379   -3.9534   -0.8890 H   0  0  0  0  0  0  0  0  0  0  0  0
   -2.0271   -2.9059    0.4591 C   0  0  0  0  0  0  0  0  0  0  0  0
   -1.3179   -3.3126    1.3610 O   0  0  0  0  0  0  0  0  0  0  0  0
   -1.6528   -1.8060   -0.2894 N   0  0  0  0  0  0  0  0  0  0  0  0
   -2.2399   -1.5821   -1.0872 H   0  0  0  0  0  0  0  0  0  0  0  0
   -0.3516   -1.1168   -0.1643 C   0  0  1  0  0  0  0  0  0  0  0  0
    0.4324   -1.8510   -0.3771 H   0  0  0  0  0  0  0  0  0  0  0  0
   -0.3132    0.0056   -1.2284 C   0  0  0  0  0  0  0  0  0  0  0  0
   -0.9254   -0.3096   -2.0797 H   0  0  0  0  0  0  0  0  0  0  0  0
   -0.7785    0.9064   -0.8151 H   0  0  0  0  0  0  0  0  0  0  0  0
    1.0480    0.3815   -1.7912 C   0  0  0  0  0  0  0  0  0  0  0  0
    2.2778    0.0098   -1.2132 C   0  0  0  0  0  0  0  0  0  0  0  0
    2.3285   -0.5918   -0.3126 H   0  0  0  0  0  0  0  0  0  0  0  0
    3.4893    0.4091   -1.7893 C   0  0  0  0  0  0  0  0  0  0  0  0
    4.4202    0.1100   -1.3199 H   0  0  0  0  0  0  0  0  0  0  0  0
    3.4975    1.1832   -2.9493 C   0  0  0  0  0  0  0  0  0  0  0  0
    4.6755    1.5759   -3.5154 O   0  0  0  0  0  0  0  0  0  0  0  0
    5.4196    1.2569   -2.9814 H   0  0  0  0  0  0  0  0  0  0  0  0
    2.2901    1.5594   -3.5304 C   0  0  0  0  0  0  0  0  0  0  0  0
    2.3038    2.1647   -4.4309 H   0  0  0  0  0  0  0  0  0  0  0  0
    1.0766    1.1655   -2.9570 C   0  0  0  0  0  0  0  0  0  0  0  0
    0.1489    1.4773   -3.4274 H   0  0  0  0  0  0  0  0  0  0  0  0
   -0.0961   -0.5428    1.2520 C   0  0  0  0  0  0  0  0  0  0  0  0
    1.0185   -0.5853    1.7559 O   0  0  0  0  0  0  0  0  0  0  0  0
   -1.1008    0.1461    1.9091 N   0  0  0  0  0  0  0  0  0  0  0  0
   -2.0345    0.0563    1.5233 H   0  0  0  0  0  0  0  0  0  0  0  0
   -0.9472    0.6683    3.2612 C   0  0  0  0  0  0  0  0  0  0  0  0
   -0.1121    1.3755    3.3063 H   0  0  0  0  0  0  0  0  0  0  0  0
   -1.8571    1.1908    3.5714 H   0  0  0  0  0  0  0  0  0  0  0  0
   -0.7563   -0.1475    3.9664 H   0  0  0  0  0  0  0  0  0  0  0  0
  1  2  1  0  0  0  0
  2  3  1  0  0  0  0
  2  4  1  0  0  0  0
  2  5  1  0  0  0  0
  5  6  2  0  0  0  0
  5  7  1  0  0  0  0
  7  8  1  0  0  0  0
  7  9  1  0  0  0  0
  9 10  1  0  0  0  0
  9 11  1  0  0  0  0
  9 26  1  0  0  0  0
 11 12  1  0  0  0  0
 11 13  1  0  0  0  0
 11 14  1  0  0  0  0
 14 15  2  0  0  0  0
 14 24  1  0  0  0  0
 15 16  1  0  0  0  0
 15 17  1  0  0  0  0
 17 18  1  0  0  0  0
 17 19  2  0  0  0  0
 19 20  1  0  0  0  0
 19 22  1  0  0  0  0
 20 21  1  0  0  0  0
 22 23  1  0  0  0  0
 22 24  2  0  0  0  0
 24 25  1  0  0  0  0
 26 27  2  0  0  0  0
 26 28  1  0  0  0  0
 28 29  1  0  0  0  0
 28 30  1  0  0  0  0
 30 31  1  0  0  0  0
 30 32  1  0  0  0  0
 30 33  1  0  0  0  0
M  END
$$$$

  -OEChem-03222214083D

 33 33  0     1  0  0  0  0  0999 V2000
   -3.4450   -4.5226    0.7587 H   0  0  0  0  0  0  0  0  0  0  0  0
   -3.3475   -3.6339    0.1285 C   0  0  0  0  0  0  0  0  0  0  0  0
   -4.1934   -2.9704    0.3237 H   0  0  0  0  0  0  0  0  0  0  0  0
   -3.3684   -3.9433   -0.9193 H   0  0  0  0  0  0  0  0  0  0  0  0
   -2.0448   -2.9184    0.4332 C   0  0  0  0  0  0  0  0  0  0  0  0
   -1.3240   -3.3271    1.3252 O   0  0  0  0  0  0  0  0  0  0  0  0
   -1.6886   -1.8041   -0.3018 N   0  0  0  0  0  0  0  0  0  0  0  0
   -2.2884   -1.5671   -1.0863 H   0  0  0  0  0  0  0  0  0  0  0  0
   -0.3942   -1.1048   -0.1738 C   0  0  1  0  0  0  0  0  0  0  0  0
    0.3714   -1.8553   -0.3886 H   0  0  0  0  0  0  0  0  0  0  0  0
   -0.3384    0.0091   -1.2445 C   0  0  0  0  0  0  0  0  0  0  0  0
   -0.9329   -0.3124   -2.1058 H   0  0  0  0  0  0  0  0  0  0  0  0
   -0.8152    0.9090   -0.8416 H   0  0  0  0  0  0  0  0  0  0  0  0
    1.0303    0.3877   -1.7886 C   0  0  0  0  0  0  0  0  0  0  0  0
    2.2441   -0.2040   -1.3835 C   0  0  0  0  0  0  0  0  0  0  0  0
    2.2830   -0.9653   -0.6111 H   0  0  0  0  0  0  0  0  0  0  0  0
    3.4592    0.1975   -1.9511 C   0  0  0  0  0  0  0  0  0  0  0  0
    4.3789   -0.2672   -1.6123 H   0  0  0  0  0  0  0  0  0  0  0  0
    3.4866    1.1871   -2.9333 C   0  0  0  0  0  0  0  0  0  0  0  0
    4.6687    1.5851   -3.4871 O   0  0  0  0  0  0  0  0  0  0  0  0
    5.4053    1.1243   -3.0562 H   0  0  0  0  0  0  0  0  0  0  0  0
    2.2953    1.7761   -3.3462 C   0  0  0  0  0  0  0  0  0  0  0  0
    2.3240    2.5463   -4.1100 H   0  0  0  0  0  0  0  0  0  0  0  0
    1.0786    1.3824   -2.7793 C   0  0  0  0  0  0  0  0  0  0  0  0
    0.1630    1.8586   -3.1169 H   0  0  0  0  0  0  0  0  0  0  0  0
   -0.0954   -0.5352    1.2317 C   0  0  0  0  0  0  0  0  0  0  0  0
    1.0472   -0.5478    1.6708 O   0  0  0  0  0  0  0  0  0  0  0  0
   -1.0779    0.1499    1.9246 N   0  0  0  0  0  0  0  0  0  0  0  0
   -2.0279    0.0349    1.5883 H   0  0  0  0  0  0  0  0  0  0  0  0
   -0.8684    0.6880    3.2628 C   0  0  0  0  0  0  0  0  0  0  0  0
   -0.0353    1.3989    3.2645 H   0  0  0  0  0  0  0  0  0  0  0  0
   -1.7663    1.2107    3.6055 H   0  0  0  0  0  0  0  0  0  0  0  0
   -0.6440   -0.1190    3.9682 H   0  0  0  0  0  0  0  0  0  0  0  0
  1  2  1  0  0  0  0
  2  3  1  0  0  0  0
  2  4  1  0  0  0  0
  2  5  1  0  0  0  0
  5  6  2  0  0  0  0
  5  7  1  0  0  0  0
  7  8  1  0  0  0  0
  7  9  1  0  0  0  0
  9 10  1  0  0  0  0
  9 11  1  0  0  0  0
  9 26  1  0  0  0  0
 11 12  1  0  0  0  0
 11 13  1  0  0  0  0
 11 14  1  0  0  0  0
 14 15  2  0  0  0  0
 14 24  1  0  0  0  0
 15 16  1  0  0  0  0
 15 17  1  0  0  0  0
 17 18  1  0  0  0  0
 17 19  2  0  0  0  0
 19 20  1  0  0  0  0
 19 22  1  0  0  0  0
 20 21  1  0  0  0  0
 22 23  1  0  0  0  0
 22 24  2  0  0  0  0
 24 25  1  0  0  0  0
 26 27  2  0  0  0  0
 26 28  1  0  0  0  0
 28 29  1  0  0  0  0
 28 30  1  0  0  0  0
 30 31  1  0  0  0  0
 30 32  1  0  0  0  0
 30 33  1  0  0  0  0
M  END
$$$$

  -OEChem-03222214083D

 33 33  0     1  0  0  0  0  0999 V2000
   -3.4568   -4.5219    0.7737 H   0  0  0  0  0  0  0  0  0  0  0  0
   -3.3633   -3.6352    0.1400 C   0  0  0  0  0  0  0  0  0  0  0  0
   -4.2032   -2.9672    0.3450 H   0  0  0  0  0  0  0  0  0  0  0  0
   -3.4002   -3.9473   -0.9065 H   0  0  0  0  0  0  0  0  0  0  0  0
   -2.0526   -2.9259    0.4257 C   0  0  0  0  0  0  0  0  0  0  0  0
   -1.3185   -3.3411    1.3039 O   0  0  0  0  0  0  0  0  0  0  0  0
   -1.7031   -1.8086   -0.3079 N   0  0  0  0  0  0  0  0  0  0  0  0
   -2.3151   -1.5598   -1.0793 H   0  0  0  0  0  0  0  0  0  0  0  0
   -0.4102   -1.1066   -0.1825 C   0  0  1  0  0  0  0  0  0  0  0  0
    0.3466   -1.8655   -0.3891 H   0  0  0  0  0  0  0  0  0  0  0  0
   -0.3478    0.0039   -1.2560 C   0  0  0  0  0  0  0  0  0  0  0  0
   -0.9352   -0.3193   -2.1213 H   0  0  0  0  0  0  0  0  0  0  0  0
   -0.8309    0.9019   -0.8562 H   0  0  0  0  0  0  0  0  0  0  0  0
    1.0231    0.3822   -1.7968 C   0  0  0  0  0  0  0  0  0  0  0  0
    2.1941   -0.3854   -1.6279 C   0  0  0  0  0  0  0  0  0  0  0  0
    2.2060   -1.3038   -1.0520 H   0  0  0  0  0  0  0  0  0  0  0  0
    3.4088    0.0315   -2.1850 C   0  0  0  0  0  0  0  0  0  0  0  0
    4.2961   -0.5728   -2.0310 H   0  0  0  0  0  0  0  0  0  0  0  0
    3.4791    1.2120   -2.9235 C   0  0  0  0  0  0  0  0  0  0  0  0
    4.6615    1.6236   -3.4666 O   0  0  0  0  0  0  0  0  0  0  0  0
    5.3737    1.0238   -3.1959 H   0  0  0  0  0  0  0  0  0  0  0  0
    2.3308    1.9767   -3.1030 C   0  0  0  0  0  0  0  0  0  0  0  0
    2.3930    2.8947   -3.6778 H   0  0  0  0  0  0  0  0  0  0  0  0
    1.1150    1.5676   -2.5455 C   0  0  0  0  0  0  0  0  0  0  0  0
    0.2345    2.1838   -2.7010 H   0  0  0  0  0  0  0  0  0  0  0  0
   -0.0928   -0.5353    1.2159 C   0  0  0  0  0  0  0  0  0  0  0  0
    1.0582   -0.5426    1.6315 O   0  0  0  0  0  0  0  0  0  0  0  0
   -1.0649    0.1515    1.9215 N   0  0  0  0  0  0  0  0  0  0  0  0
   -2.0200    0.0346    1.6004 H   0  0  0  0  0  0  0  0  0  0  0  0
   -0.8348    0.6943    3.2545 C   0  0  0  0  0  0  0  0  0  0  0  0
    0.0029    1.3997    3.2430 H   0  0  0  0  0  0  0  0  0  0  0  0
   -1.7249    1.2244    3.6063 H   0  0  0  0  0  0  0  0  0  0  0  0
   -0.6074   -0.1117    3.9602 H   0  0  0  0  0  0  0  0  0  0  0  0
  1  2  1  0  0  0  0
  2  3  1  0  0  0  0
  2  4  1  0  0  0  0
  2  5  1  0  0  0  0
  5  6  2  0  0  0  0
  5  7  1  0  0  0  0
  7  8  1  0  0  0  0
  7  9  1  0  0  0  0
  9 10  1  0  0  0  0
  9 11  1  0  0  0  0
  9 26  1  0  0  0  0
 11 12  1  0  0  0  0
 11 13  1  0  0  0  0
 11 14  1  0  0  0  0
 14 15  2  0  0  0  0
 14 24  1  0  0  0  0
 15 16  1  0  0  0  0
 15 17  1  0  0  0  0
 17 18  1  0  0  0  0
 17 19  2  0  0  0  0
 19 20  1  0  0  0  0
 19 22  1  0  0  0  0
 20 21  1  0  0  0  0
 22 23  1  0  0  0  0
 22 24  2  0  0  0  0
 24 25  1  0  0  0  0
 26 27  2  0  0  0  0
 26 28  1  0  0  0  0
 28 29  1  0  0  0  0
 28 30  1  0  0  0  0
 30 31  1  0  0  0  0
 30 32  1  0  0  0  0
 30 33  1  0  0  0  0
M  END
$$$$

  -OEChem-03222214083D

 33 33  0     1  0  0  0  0  0999 V2000
   -3.4396   -4.5280    0.7992 H   0  0  0  0  0  0  0  0  0  0  0  0
   -3.3488   -3.6508    0.1521 C   0  0  0  0  0  0  0  0  0  0  0  0
   -4.1935   -2.9845    0.3429 H   0  0  0  0  0  0  0  0  0  0  0  0
   -3.3790   -3.9793   -0.8896 H   0  0  0  0  0  0  0  0  0  0  0  0
   -2.0436   -2.9295    0.4321 C   0  0  0  0  0  0  0  0  0  0  0  0
   -1.3019   -3.3377    1.3069 O   0  0  0  0  0  0  0  0  0  0  0  0
   -1.7052   -1.8138   -0.3088 N   0  0  0  0  0  0  0  0  0  0  0  0
   -2.3233   -1.5737   -1.0780 H   0  0  0  0  0  0  0  0  0  0  0  0
   -0.4129   -1.1078   -0.2019 C   0  0  1  0  0  0  0  0  0  0  0  0
    0.3516   -1.8575   -0.4110 H   0  0  0  0  0  0  0  0  0  0  0  0
   -0.3791    0.0092   -1.2711 C   0  0  0  0  0  0  0  0  0  0  0  0
   -0.9778   -0.3111   -2.1296 H   0  0  0  0  0  0  0  0  0  0  0  0
   -0.8628    0.9011   -0.8587 H   0  0  0  0  0  0  0  0  0  0  0  0
    0.9858    0.3843   -1.8263 C   0  0  0  0  0  0  0  0  0  0  0  0
    2.0660   -0.5138   -1.9393 C   0  0  0  0  0  0  0  0  0  0  0  0
    1.9845   -1.5499   -1.6320 H   0  0  0  0  0  0  0  0  0  0  0  0
    3.2955   -0.0919   -2.4597 C   0  0  0  0  0  0  0  0  0  0  0  0
    4.1132   -0.8010   -2.5288 H   0  0  0  0  0  0  0  0  0  0  0  0
    3.4677    1.2260   -2.8822 C   0  0  0  0  0  0  0  0  0  0  0  0
    4.6647    1.6447   -3.3868 O   0  0  0  0  0  0  0  0  0  0  0  0
    5.3210    0.9353   -3.3089 H   0  0  0  0  0  0  0  0  0  0  0  0
    2.4068    2.1209   -2.7844 C   0  0  0  0  0  0  0  0  0  0  0  0
    2.5482    3.1451   -3.1134 H   0  0  0  0  0  0  0  0  0  0  0  0
    1.1775    1.7065   -2.2615 C   0  0  0  0  0  0  0  0  0  0  0  0
    0.3688    2.4278   -2.1926 H   0  0  0  0  0  0  0  0  0  0  0  0
   -0.0804   -0.5307    1.1911 C   0  0  0  0  0  0  0  0  0  0  0  0
    1.0762   -0.5260    1.5907 O   0  0  0  0  0  0  0  0  0  0  0  0
   -1.0456    0.1558    1.9063 N   0  0  0  0  0  0  0  0  0  0  0  0
   -2.0048    0.0320    1.6008 H   0  0  0  0  0  0  0  0  0  0  0  0
   -0.7964    0.7198    3.2270 C   0  0  0  0  0  0  0  0  0  0  0  0
    0.0305    1.4369    3.1879 H   0  0  0  0  0  0  0  0  0  0  0  0
   -1.6869    1.2419    3.5898 H   0  0  0  0  0  0  0  0  0  0  0  0
   -0.5425   -0.0724    3.9393 H   0  0  0  0  0  0  0  0  0  0  0  0
  1  2  1  0  0  0  0
  2  3  1  0  0  0  0
  2  4  1  0  0  0  0
  2  5  1  0  0  0  0
  5  6  2  0  0  0  0
  5  7  1  0  0  0  0
  7  8  1  0  0  0  0
  7  9  1  0  0  0  0
  9 10  1  0  0  0  0
  9 11  1  0  0  0  0
  9 26  1  0  0  0  0
 11 12  1  0  0  0  0
 11 13  1  0  0  0  0
 11 14  1  0  0  0  0
 14 15  2  0  0  0  0
 14 24  1  0  0  0  0
 15 16  1  0  0  0  0
 15 17  1  0  0  0  0
 17 18  1  0  0  0  0
 17 19  2  0  0  0  0
 19 20  1  0  0  0  0
 19 22  1  0  0  0  0
 20 21  1  0  0  0  0
 22 23  1  0  0  0  0
 22 24  2  0  0  0  0
 24 25  1  0  0  0  0
 26 27  2  0  0  0  0
 26 28  1  0  0  0  0
 28 29  1  0  0  0  0
 28 30  1  0  0  0  0
 30 31  1  0  0  0  0
 30 32  1  0  0  0  0
 30 33  1  0  0  0  0
M  END
$$$$

  -OEChem-03222214083D

 33 33  0     1  0  0  0  0  0999 V2000
   -3.3529   -4.5526    0.8191 H   0  0  0  0  0  0  0  0  0  0  0  0
   -3.2908   -3.6743    0.1699 C   0  0  0  0  0  0  0  0  0  0  0  0
   -4.1420   -3.0219    0.3788 H   0  0  0  0  0  0  0  0  0  0  0  0
   -3.3377   -4.0039   -0.8708 H   0  0  0  0  0  0  0  0  0  0  0  0
   -1.9920   -2.9317    0.4218 C   0  0  0  0  0  0  0  0  0  0  0  0
   -1.2226   -3.3318    1.2761 O   0  0  0  0  0  0  0  0  0  0  0  0
   -1.6904   -1.8073   -0.3221 N   0  0  0  0  0  0  0  0  0  0  0  0
   -2.3324   -1.5722   -1.0731 H   0  0  0  0  0  0  0  0  0  0  0  0
   -0.4113   -1.0746   -0.2380 C   0  0  1  0  0  0  0  0  0  0  0  0
    0.3775   -1.7954   -0.4670 H   0  0  0  0  0  0  0  0  0  0  0  0
   -0.4272    0.0544   -1.2932 C   0  0  0  0  0  0  0  0  0  0  0  0
   -1.0323   -0.2648   -2.1474 H   0  0  0  0  0  0  0  0  0  0  0  0
   -0.9160    0.9369   -0.8670 H   0  0  0  0  0  0  0  0  0  0  0  0
    0.9350    0.4274   -1.8461 C   0  0  0  0  0  0  0  0  0  0  0  0
    1.8801   -0.5364   -2.2433 C   0  0  0  0  0  0  0  0  0  0  0  0
    1.6557   -1.5965   -2.1854 H   0  0  0  0  0  0  0  0  0  0  0  0
    3.1326   -0.1480   -2.7334 C   0  0  0  0  0  0  0  0  0  0  0  0
    3.8466   -0.9085   -3.0296 H   0  0  0  0  0  0  0  0  0  0  0  0
    3.4585    1.2047   -2.8381 C   0  0  0  0  0  0  0  0  0  0  0  0
    4.6786    1.5919   -3.3120 O   0  0  0  0  0  0  0  0  0  0  0  0
    5.2448    0.8149   -3.4376 H   0  0  0  0  0  0  0  0  0  0  0  0
    2.5291    2.1670   -2.4525 C   0  0  0  0  0  0  0  0  0  0  0  0
    2.7913    3.2169   -2.5320 H   0  0  0  0  0  0  0  0  0  0  0  0
    1.2778    1.7846   -1.9578 C   0  0  0  0  0  0  0  0  0  0  0  0
    0.5762    2.5552   -1.6532 H   0  0  0  0  0  0  0  0  0  0  0  0
   -0.0734   -0.4978    1.1544 C   0  0  0  0  0  0  0  0  0  0  0  0
    1.0870   -0.4674    1.5408 O   0  0  0  0  0  0  0  0  0  0  0  0
   -1.0453    0.1625    1.8857 N   0  0  0  0  0  0  0  0  0  0  0  0
   -2.0051    0.0154    1.5928 H   0  0  0  0  0  0  0  0  0  0  0  0
   -0.7929    0.7177    3.2096 C   0  0  0  0  0  0  0  0  0  0  0  0
    0.0171    1.4537    3.1686 H   0  0  0  0  0  0  0  0  0  0  0  0
   -1.6901    1.2152    3.5898 H   0  0  0  0  0  0  0  0  0  0  0  0
   -0.5118   -0.0765    3.9091 H   0  0  0  0  0  0  0  0  0  0  0  0
  1  2  1  0  0  0  0
  2  3  1  0  0  0  0
  2  4  1  0  0  0  0
  2  5  1  0  0  0  0
  5  6  2  0  0  0  0
  5  7  1  0  0  0  0
  7  8  1  0  0  0  0
  7  9  1  0  0  0  0
  9 10  1  0  0  0  0
  9 11  1  0  0  0  0
  9 26  1  0  0  0  0
 11 12  1  0  0  0  0
 11 13  1  0  0  0  0
 11 14  1  0  0  0  0
 14 15  2  0  0  0  0
 14 24  1  0  0  0  0
 15 16  1  0  0  0  0
 15 17  1  0  0  0  0
 17 18  1  0  0  0  0
 17 19  2  0  0  0  0
 19 20  1  0  0  0  0
 19 22  1  0  0  0  0
 20 21  1  0  0  0  0
 22 23  1  0  0  0  0
 22 24  2  0  0  0  0
 24 25  1  0  0  0  0
 26 27  2  0  0  0  0
 26 28  1  0  0  0  0
 28 29  1  0  0  0  0
 28 30  1  0  0  0  0
 30 31  1  0  0  0  0
 30 32  1  0  0  0  0
 30 33  1  0  0  0  0
M  END
$$$$

  -OEChem-03222214083D

 33 33  0     1  0  0  0  0  0999 V2000
   -3.2725   -4.5703    0.8171 H   0  0  0  0  0  0  0  0  0  0  0  0
   -3.2355   -3.6854    0.1754 C   0  0  0  0  0  0  0  0  0  0  0  0
   -4.0875   -3.0437    0.4120 H   0  0  0  0  0  0  0  0  0  0  0  0
   -3.3062   -4.0054   -0.8669 H   0  0  0  0  0  0  0  0  0  0  0  0
   -1.9385   -2.9312    0.4018 C   0  0  0  0  0  0  0  0  0  0  0  0
   -1.1454   -3.3274    1.2360 O   0  0  0  0  0  0  0  0  0  0  0  0
   -1.6707   -1.7947   -0.3365 N   0  0  0  0  0  0  0  0  0  0  0  0
   -2.3370   -1.5558   -1.0647 H   0  0  0  0  0  0  0  0  0  0  0  0
   -0.4073   -1.0338   -0.2639 C   0  0  1  0  0  0  0  0  0  0  0  0
    0.4019   -1.7263   -0.5172 H   0  0  0  0  0  0  0  0  0  0  0  0
   -0.4601    0.1026   -1.3066 C   0  0  0  0  0  0  0  0  0  0  0  0
   -1.0651   -0.2159   -2.1614 H   0  0  0  0  0  0  0  0  0  0  0  0
   -0.9530    0.9794   -0.8737 H   0  0  0  0  0  0  0  0  0  0  0  0
    0.9048    0.4724   -1.8426 C   0  0  0  0  0  0  0  0  0  0  0  0
    1.7027   -0.4709   -2.5113 C   0  0  0  0  0  0  0  0  0  0  0  0
    1.3433   -1.4845   -2.6609 H   0  0  0  0  0  0  0  0  0  0  0  0
    2.9683   -0.1176   -2.9943 C   0  0  0  0  0  0  0  0  0  0  0  0
    3.5703   -0.8598   -3.5070 H   0  0  0  0  0  0  0  0  0  0  0  0
    3.4511    1.1798   -2.8138 C   0  0  0  0  0  0  0  0  0  0  0  0
    4.6844    1.5339   -3.2792 O   0  0  0  0  0  0  0  0  0  0  0  0
    5.1459    0.7524   -3.6199 H   0  0  0  0  0  0  0  0  0  0  0  0
    2.6678    2.1198   -2.1479 C   0  0  0  0  0  0  0  0  0  0  0  0
    3.0552    3.1228   -2.0034 H   0  0  0  0  0  0  0  0  0  0  0  0
    1.4035    1.7714   -1.6605 C   0  0  0  0  0  0  0  0  0  0  0  0
    0.8173    2.5169   -1.1315 H   0  0  0  0  0  0  0  0  0  0  0  0
   -0.0725   -0.4638    1.1326 C   0  0  0  0  0  0  0  0  0  0  0  0
    1.0888   -0.4043    1.5128 O   0  0  0  0  0  0  0  0  0  0  0  0
   -1.0569    0.1642    1.8759 N   0  0  0  0  0  0  0  0  0  0  0  0
   -2.0139   -0.0084    1.5876 H   0  0  0  0  0  0  0  0  0  0  0  0
   -0.8139    0.6988    3.2101 C   0  0  0  0  0  0  0  0  0  0  0  0
   -0.0121    1.4444    3.1853 H   0  0  0  0  0  0  0  0  0  0  0  0
   -1.7177    1.1796    3.5962 H   0  0  0  0  0  0  0  0  0  0  0  0
   -0.5258   -0.1047    3.8962 H   0  0  0  0  0  0  0  0  0  0  0  0
  1  2  1  0  0  0  0
  2  3  1  0  0  0  0
  2  4  1  0  0  0  0
  2  5  1  0  0  0  0
  5  6  2  0  0  0  0
  5  7  1  0  0  0  0
  7  8  1  0  0  0  0
  7  9  1  0  0  0  0
  9 10  1  0  0  0  0
  9 11  1  0  0  0  0
  9 26  1  0  0  0  0
 11 12  1  0  0  0  0
 11 13  1  0  0  0  0
 11 14  1  0  0  0  0
 14 15  2  0  0  0  0
 14 24  1  0  0  0  0
 15 16  1  0  0  0  0
 15 17  1  0  0  0  0
 17 18  1  0  0  0  0
 17 19  2  0  0  0  0
 19 20  1  0  0  0  0
 19 22  1  0  0  0  0
 20 21  1  0  0  0  0
 22 23  1  0  0  0  0
 22 24  2  0  0  0  0
 24 25  1  0  0  0  0
 26 27  2  0  0  0  0
 26 28  1  0  0  0  0
 28 29  1  0  0  0  0
 28 30  1  0  0  0  0
 30 31  1  0  0  0  0
 30 32  1  0  0  0  0
 30 33  1  0  0  0  0
M  END
$$$$

  -OEChem-03222214083D

 33 33  0     1  0  0  0  0  0999 V2000
   -3.2246   -4.5867    0.8002 H   0  0  0  0  0  0  0  0  0  0  0  0
   -3.1994   -3.7009    0.1588 C   0  0  0  0  0  0  0  0  0  0  0  0
   -4.0641   -3.0746    0.3908 H   0  0  0  0  0  0  0  0  0  0  0  0
   -3.2576   -4.0215   -0.8841 H   0  0  0  0  0  0  0  0  0  0  0  0
   -1.9169   -2.9245    0.3920 C   0  0  0  0  0  0  0  0  0  0  0  0
   -1.1182   -3.3126    1.2245 O   0  0  0  0  0  0  0  0  0  0  0  0
   -1.6668   -1.7806   -0.3415 N   0  0  0  0  0  0  0  0  0  0  0  0
   -2.3353   -1.5513   -1.0706 H   0  0  0  0  0  0  0  0  0  0  0  0
   -0.4102   -1.0081   -0.2741 C   0  0  1  0  0  0  0  0  0  0  0  0
    0.4069   -1.6859   -0.5461 H   0  0  0  0  0  0  0  0  0  0  0  0
   -0.4817    0.1346   -1.3055 C   0  0  0  0  0  0  0  0  0  0  0  0
   -1.0940   -0.1751   -2.1583 H   0  0  0  0  0  0  0  0  0  0  0  0
   -0.9669    1.0116   -0.8641 H   0  0  0  0  0  0  0  0  0  0  0  0
    0.8863    0.4972   -1.8304 C   0  0  0  0  0  0  0  0  0  0  0  0
    1.5386   -0.3326   -2.7554 C   0  0  0  0  0  0  0  0  0  0  0  0
    1.0580   -1.2416   -3.1044 H   0  0  0  0  0  0  0  0  0  0  0  0
    2.8113    0.0010   -3.2338 C   0  0  0  0  0  0  0  0  0  0  0  0
    3.3004   -0.6503   -3.9496 H   0  0  0  0  0  0  0  0  0  0  0  0
    3.4457    1.1631   -2.7887 C   0  0  0  0  0  0  0  0  0  0  0  0
    4.6877    1.4967   -3.2471 O   0  0  0  0  0  0  0  0  0  0  0  0
    5.0402    0.7818   -3.7986 H   0  0  0  0  0  0  0  0  0  0  0  0
    2.8068    1.9856   -1.8628 C   0  0  0  0  0  0  0  0  0  0  0  0
    3.3111    2.8797   -1.5117 H   0  0  0  0  0  0  0  0  0  0  0  0
    1.5358    1.6557   -1.3800 C   0  0  0  0  0  0  0  0  0  0  0  0
    1.0629    2.2986   -0.6435 H   0  0  0  0  0  0  0  0  0  0  0  0
   -0.0727   -0.4454    1.1251 C   0  0  0  0  0  0  0  0  0  0  0  0
    1.0903   -0.3616    1.4951 O   0  0  0  0  0  0  0  0  0  0  0  0
   -1.0608    0.1662    1.8770 N   0  0  0  0  0  0  0  0  0  0  0  0
   -2.0170   -0.0216    1.5961 H   0  0  0  0  0  0  0  0  0  0  0  0
   -0.8162    0.7063    3.2084 C   0  0  0  0  0  0  0  0  0  0  0  0
   -0.0353    1.4734    3.1741 H   0  0  0  0  0  0  0  0  0  0  0  0
   -1.7281    1.1622    3.6054 H   0  0  0  0  0  0  0  0  0  0  0  0
   -0.4985   -0.0894    3.8905 H   0  0  0  0  0  0  0  0  0  0  0  0
  1  2  1  0  0  0  0
  2  3  1  0  0  0  0
  2  4  1  0  0  0  0
  2  5  1  0  0  0  0
  5  6  2  0  0  0  0
  5  7  1  0  0  0  0
  7  8  1  0  0  0  0
  7  9  1  0  0  0  0
  9 10  1  0  0  0  0
  9 11  1  0  0  0  0
  9 26  1  0  0  0  0
 11 12  1  0  0  0  0
 11 13  1  0  0  0  0
 11 14  1  0  0  0  0
 14 15  2  0  0  0  0
 14 24  1  0  0  0  0
 15 16  1  0  0  0  0
 15 17  1  0  0  0  0
 17 18  1  0  0  0  0
 17 19  2  0  0  0  0
 19 20  1  0  0  0  0
 19 22  1  0  0  0  0
 20 21  1  0  0  0  0
 22 23  1  0  0  0  0
 22 24  2  0  0  0  0
 24 25  1  0  0  0  0
 26 27  2  0  0  0  0
 26 28  1  0  0  0  0
 28 29  1  0  0  0  0
 28 30  1  0  0  0  0
 30 31  1  0  0  0  0
 30 32  1  0  0  0  0
 30 33  1  0  0  0  0
M  END
$$$$

  -OEChem-03222214083D

 33 33  0     1  0  0  0  0  0999 V2000
   -3.2233   -4.5821    0.7903 H   0  0  0  0  0  0  0  0  0  0  0  0
   -3.1971   -3.6934    0.1529 C   0  0  0  0  0  0  0  0  0  0  0  0
   -4.0626   -3.0684    0.3855 H   0  0  0  0  0  0  0  0  0  0  0  0
   -3.2534   -4.0094   -0.8915 H   0  0  0  0  0  0  0  0  0  0  0  0
   -1.9156   -2.9173    0.3937 C   0  0  0  0  0  0  0  0  0  0  0  0
   -1.1245   -3.3034    1.2343 O   0  0  0  0  0  0  0  0  0  0  0  0
   -1.6611   -1.7727   -0.3370 N   0  0  0  0  0  0  0  0  0  0  0  0
   -2.3251   -1.5438   -1.0703 H   0  0  0  0  0  0  0  0  0  0  0  0
   -0.4033   -1.0019   -0.2654 C   0  0  1  0  0  0  0  0  0  0  0  0
    0.4163   -1.6762   -0.5386 H   0  0  0  0  0  0  0  0  0  0  0  0
   -0.4735    0.1404   -1.2975 C   0  0  0  0  0  0  0  0  0  0  0  0
   -1.0921   -0.1667   -2.1468 H   0  0  0  0  0  0  0  0  0  0  0  0
   -0.9522    1.0207   -0.8558 H   0  0  0  0  0  0  0  0  0  0  0  0
    0.8963    0.5017   -1.8201 C   0  0  0  0  0  0  0  0  0  0  0  0
    1.4173   -0.1382   -2.9557 C   0  0  0  0  0  0  0  0  0  0  0  0
    0.8379   -0.9007   -3.4673 H   0  0  0  0  0  0  0  0  0  0  0  0
    2.6877    0.1978   -3.4390 C   0  0  0  0  0  0  0  0  0  0  0  0
    3.0758   -0.3051   -4.3178 H   0  0  0  0  0  0  0  0  0  0  0  0
    3.4500    1.1722   -2.7912 C   0  0  0  0  0  0  0  0  0  0  0  0
    4.6908    1.5049   -3.2531 O   0  0  0  0  0  0  0  0  0  0  0  0
    4.9400    0.9203   -3.9848 H   0  0  0  0  0  0  0  0  0  0  0  0
    2.9414    1.8048   -1.6588 C   0  0  0  0  0  0  0  0  0  0  0  0
    3.5445    2.5509   -1.1521 H   0  0  0  0  0  0  0  0  0  0  0  0
    1.6732    1.4725   -1.1708 C   0  0  0  0  0  0  0  0  0  0  0  0
    1.3024    1.9623   -0.2745 H   0  0  0  0  0  0  0  0  0  0  0  0
   -0.0758   -0.4449    1.1394 C   0  0  0  0  0  0  0  0  0  0  0  0
    1.0840   -0.3606    1.5197 O   0  0  0  0  0  0  0  0  0  0  0  0
   -1.0697    0.1635    1.8861 N   0  0  0  0  0  0  0  0  0  0  0  0
   -2.0232   -0.0314    1.6002 H   0  0  0  0  0  0  0  0  0  0  0  0
   -0.8359    0.6930    3.2239 C   0  0  0  0  0  0  0  0  0  0  0  0
   -0.0535    1.4590    3.2025 H   0  0  0  0  0  0  0  0  0  0  0  0
   -1.7506    1.1477    3.6157 H   0  0  0  0  0  0  0  0  0  0  0  0
   -0.5258   -0.1084    3.9029 H   0  0  0  0  0  0  0  0  0  0  0  0
  1  2  1  0  0  0  0
  2  3  1  0  0  0  0
  2  4  1  0  0  0  0
  2  5  1  0  0  0  0
  5  6  2  0  0  0  0
  5  7  1  0  0  0  0
  7  8  1  0  0  0  0
  7  9  1  0  0  0  0
  9 10  1  0  0  0  0
  9 11  1  0  0  0  0
  9 26  1  0  0  0  0
 11 12  1  0  0  0  0
 11 13  1  0  0  0  0
 11 14  1  0  0  0  0
 14 15  2  0  0  0  0
 14 24  1  0  0  0  0
 15 16  1  0  0  0  0
 15 17  1  0  0  0  0
 17 18  1  0  0  0  0
 17 19  2  0  0  0  0
 19 20  1  0  0  0  0
 19 22  1  0  0  0  0
 20 21  1  0  0  0  0
 22 23  1  0  0  0  0
 22 24  2  0  0  0  0
 24 25  1  0  0  0  0
 26 27  2  0  0  0  0
 26 28  1  0  0  0  0
 28 29  1  0  0  0  0
 28 30  1  0  0  0  0
 30 31  1  0  0  0  0
 30 32  1  0  0  0  0
 30 33  1  0  0  0  0
M  END
$$$$

  -OEChem-03222214083D

 33 33  0     1  0  0  0  0  0999 V2000
   -3.2687   -4.5574    0.7730 H   0  0  0  0  0  0  0  0  0  0  0  0
   -3.2193   -3.6667    0.1401 C   0  0  0  0  0  0  0  0  0  0  0  0
   -4.0808   -3.0317    0.3590 H   0  0  0  0  0  0  0  0  0  0  0  0
   -3.2600   -3.9780   -0.9063 H   0  0  0  0  0  0  0  0  0  0  0  0
   -1.9328   -2.9076    0.4070 C   0  0  0  0  0  0  0  0  0  0  0  0
   -1.1636   -3.3045    1.2627 O   0  0  0  0  0  0  0  0  0  0  0  0
   -1.6494   -1.7678   -0.3210 N   0  0  0  0  0  0  0  0  0  0  0  0
   -2.2939   -1.5376   -1.0710 H   0  0  0  0  0  0  0  0  0  0  0  0
   -0.3811   -1.0149   -0.2329 C   0  0  1  0  0  0  0  0  0  0  0  0
    0.4360   -1.6969   -0.4952 H   0  0  0  0  0  0  0  0  0  0  0  0
   -0.4337    0.1231   -1.2744 C   0  0  0  0  0  0  0  0  0  0  0  0
   -1.0584   -0.1832   -2.1193 H   0  0  0  0  0  0  0  0  0  0  0  0
   -0.9043    1.0093   -0.8358 H   0  0  0  0  0  0  0  0  0  0  0  0
    0.9356    0.4870   -1.8031 C   0  0  0  0  0  0  0  0  0  0  0  0
    1.3262    0.0853   -3.0909 C   0  0  0  0  0  0  0  0  0  0  0  0
    0.6564   -0.5080   -3.7060 H   0  0  0  0  0  0  0  0  0  0  0  0
    2.5830    0.4385   -3.5971 C   0  0  0  0  0  0  0  0  0  0  0  0
    2.8691    0.1156   -4.5920 H   0  0  0  0  0  0  0  0  0  0  0  0
    3.4610    1.2020   -2.8256 C   0  0  0  0  0  0  0  0  0  0  0  0
    4.6894    1.5503   -3.3087 O   0  0  0  0  0  0  0  0  0  0  0  0
    4.8390    1.1317   -4.1698 H   0  0  0  0  0  0  0  0  0  0  0  0
    3.0778    1.6111   -1.5505 C   0  0  0  0  0  0  0  0  0  0  0  0
    3.7654    2.2007   -0.9530 H   0  0  0  0  0  0  0  0  0  0  0  0
    1.8235    1.2607   -1.0395 C   0  0  0  0  0  0  0  0  0  0  0  0
    1.5505    1.5906   -0.0410 H   0  0  0  0  0  0  0  0  0  0  0  0
   -0.0792   -0.4667    1.1817 C   0  0  0  0  0  0  0  0  0  0  0  0
    1.0685   -0.4255    1.6042 O   0  0  0  0  0  0  0  0  0  0  0  0
   -1.0820    0.1518    1.9080 N   0  0  0  0  0  0  0  0  0  0  0  0
   -2.0303   -0.0105    1.5867 H   0  0  0  0  0  0  0  0  0  0  0  0
   -0.8785    0.6572    3.2601 C   0  0  0  0  0  0  0  0  0  0  0  0
   -0.0861    1.4131    3.2721 H   0  0  0  0  0  0  0  0  0  0  0  0
   -1.7978    1.1174    3.6346 H   0  0  0  0  0  0  0  0  0  0  0  0
   -0.5972   -0.1585    3.9347 H   0  0  0  0  0  0  0  0  0  0  0  0
  1  2  1  0  0  0  0
  2  3  1  0  0  0  0
  2  4  1  0  0  0  0
  2  5  1  0  0  0  0
  5  6  2  0  0  0  0
  5  7  1  0  0  0  0
  7  8  1  0  0  0  0
  7  9  1  0  0  0  0
  9 10  1  0  0  0  0
  9 11  1  0  0  0  0
  9 26  1  0  0  0  0
 11 12  1  0  0  0  0
 11 13  1  0  0  0  0
 11 14  1  0  0  0  0
 14 15  2  0  0  0  0
 14 24  1  0  0  0  0
 15 16  1  0  0  0  0
 15 17  1  0  0  0  0
 17 18  1  0  0  0  0
 17 19  2  0  0  0  0
 19 20  1  0  0  0  0
 19 22  1  0  0  0  0
 20 21  1  0  0  0  0
 22 23  1  0  0  0  0
 22 24  2  0  0  0  0
 24 25  1  0  0  0  0
 26 27  2  0  0  0  0
 26 28  1  0  0  0  0
 28 29  1  0  0  0  0
 28 30  1  0  0  0  0
 30 31  1  0  0  0  0
 30 32  1  0  0  0  0
 30 33  1  0  0  0  0
M  END
$$$$

  -OEChem-03222214083D

 33 33  0     1  0  0  0  0  0999 V2000
   -3.3272   -4.5240    0.7537 H   0  0  0  0  0  0  0  0  0  0  0  0
   -3.2510   -3.6307    0.1269 C   0  0  0  0  0  0  0  0  0  0  0  0
   -4.1079   -2.9844    0.3304 H   0  0  0  0  0  0  0  0  0  0  0  0
   -3.2731   -3.9361   -0.9219 H   0  0  0  0  0  0  0  0  0  0  0  0
   -1.9596   -2.8921    0.4259 C   0  0  0  0  0  0  0  0  0  0  0  0
   -1.2192   -3.3024    1.3003 O   0  0  0  0  0  0  0  0  0  0  0  0
   -1.6364   -1.7628   -0.3024 N   0  0  0  0  0  0  0  0  0  0  0  0
   -2.2586   -1.5269   -1.0692 H   0  0  0  0  0  0  0  0  0  0  0  0
   -0.3545   -1.0349   -0.1926 C   0  0  1  0  0  0  0  0  0  0  0  0
    0.4575   -1.7302   -0.4350 H   0  0  0  0  0  0  0  0  0  0  0  0
   -0.3792    0.0922   -1.2518 C   0  0  0  0  0  0  0  0  0  0  0  0
   -1.0063   -0.2204   -2.0926 H   0  0  0  0  0  0  0  0  0  0  0  0
   -0.8451    0.9863   -0.8245 H   0  0  0  0  0  0  0  0  0  0  0  0
    0.9883    0.4611   -1.7921 C   0  0  0  0  0  0  0  0  0  0  0  0
    1.2526    0.3264   -3.1659 C   0  0  0  0  0  0  0  0  0  0  0  0
    0.4977   -0.0808   -3.8315 H   0  0  0  0  0  0  0  0  0  0  0  0
    2.4916    0.7022   -3.6982 C   0  0  0  0  0  0  0  0  0  0  0  0
    2.6775    0.5774   -4.7592 H   0  0  0  0  0  0  0  0  0  0  0  0
    3.4780    1.2372   -2.8688 C   0  0  0  0  0  0  0  0  0  0  0  0
    4.6898    1.6075   -3.3770 O   0  0  0  0  0  0  0  0  0  0  0  0
    4.7359    1.3895   -4.3202 H   0  0  0  0  0  0  0  0  0  0  0  0
    3.2169    1.4021   -1.5111 C   0  0  0  0  0  0  0  0  0  0  0  0
    3.9822    1.8284   -0.8705 H   0  0  0  0  0  0  0  0  0  0  0  0
    1.9809    1.0265   -0.9743 C   0  0  0  0  0  0  0  0  0  0  0  0
    1.8089    1.1925    0.0840 H   0  0  0  0  0  0  0  0  0  0  0  0
   -0.0847   -0.4895    1.2299 C   0  0  0  0  0  0  0  0  0  0  0  0
    1.0390   -0.5267    1.7130 O   0  0  0  0  0  0  0  0  0  0  0  0
   -1.0946    0.1496    1.9280 N   0  0  0  0  0  0  0  0  0  0  0  0
   -2.0330    0.0391    1.5593 H   0  0  0  0  0  0  0  0  0  0  0  0
   -0.9329    0.6063    3.3027 C   0  0  0  0  0  0  0  0  0  0  0  0
   -0.1179    1.3345    3.3715 H   0  0  0  0  0  0  0  0  0  0  0  0
   -1.8521    1.0848    3.6537 H   0  0  0  0  0  0  0  0  0  0  0  0
   -0.7070   -0.2390    3.9614 H   0  0  0  0  0  0  0  0  0  0  0  0
  1  2  1  0  0  0  0
  2  3  1  0  0  0  0
  2  4  1  0  0  0  0
  2  5  1  0  0  0  0
  5  6  2  0  0  0  0
  5  7  1  0  0  0  0
  7  8  1  0  0  0  0
  7  9  1  0  0  0  0
  9 10  1  0  0  0  0
  9 11  1  0  0  0  0
  9 26  1  0  0  0  0
 11 12  1  0  0  0  0
 11 13  1  0  0  0  0
 11 14  1  0  0  0  0
 14 15  2  0  0  0  0
 14 24  1  0  0  0  0
 15 16  1  0  0  0  0
 15 17  1  0  0  0  0
 17 18  1  0  0  0  0
 17 19  2  0  0  0  0
 19 20  1  0  0  0  0
 19 22  1  0  0  0  0
 20 21  1  0  0  0  0
 22 23  1  0  0  0  0
 22 24  2  0  0  0  0
 24 25  1  0  0  0  0
 26 27  2  0  0  0  0
 26 28  1  0  0  0  0
 28 29  1  0  0  0  0
 28 30  1  0  0  0  0
 30 31  1  0  0  0  0
 30 32  1  0  0  0  0
 30 33  1  0  0  0  0
M  END
$$$$

  -OEChem-03222214083D

 33 33  0     1  0  0  0  0  0999 V2000
   -3.3816   -4.4778    0.7665 H   0  0  0  0  0  0  0  0  0  0  0  0
   -3.2767   -3.5913    0.1345 C   0  0  0  0  0  0  0  0  0  0  0  0
   -4.1185   -2.9217    0.3259 H   0  0  0  0  0  0  0  0  0  0  0  0
   -3.2967   -3.9031   -0.9125 H   0  0  0  0  0  0  0  0  0  0  0  0
   -1.9700   -2.8841    0.4424 C   0  0  0  0  0  0  0  0  0  0  0  0
   -1.2521   -3.3056    1.3300 O   0  0  0  0  0  0  0  0  0  0  0  0
   -1.6095   -1.7682   -0.2894 N   0  0  0  0  0  0  0  0  0  0  0  0
   -2.2099   -1.5303   -1.0728 H   0  0  0  0  0  0  0  0  0  0  0  0
   -0.3180   -1.0592   -0.1574 C   0  0  1  0  0  0  0  0  0  0  0  0
    0.4936   -1.7621   -0.3767 H   0  0  0  0  0  0  0  0  0  0  0  0
   -0.3200    0.0644   -1.2239 C   0  0  0  0  0  0  0  0  0  0  0  0
   -0.9432   -0.2568   -2.0644 H   0  0  0  0  0  0  0  0  0  0  0  0
   -0.7906    0.9594   -0.8036 H   0  0  0  0  0  0  0  0  0  0  0  0
    1.0401    0.4517   -1.7807 C   0  0  0  0  0  0  0  0  0  0  0  0
    1.1792    0.6193   -3.1704 C   0  0  0  0  0  0  0  0  0  0  0  0
    0.3358    0.4392   -3.8304 H   0  0  0  0  0  0  0  0  0  0  0  0
    2.3998    1.0116   -3.7324 C   0  0  0  0  0  0  0  0  0  0  0  0
    2.4823    1.1230   -4.8079 H   0  0  0  0  0  0  0  0  0  0  0  0
    3.5003    1.2614   -2.9131 C   0  0  0  0  0  0  0  0  0  0  0  0
    4.6955    1.6460   -3.4489 O   0  0  0  0  0  0  0  0  0  0  0  0
    4.6344    1.6709   -4.4159 H   0  0  0  0  0  0  0  0  0  0  0  0
    3.3707    1.1264   -1.5342 C   0  0  0  0  0  0  0  0  0  0  0  0
    4.2258    1.3329   -0.8983 H   0  0  0  0  0  0  0  0  0  0  0  0
    2.1524    0.7349   -0.9679 C   0  0  0  0  0  0  0  0  0  0  0  0
    2.1006    0.6710    0.1116 H   0  0  0  0  0  0  0  0  0  0  0  0
   -0.0946   -0.5106    1.2738 C   0  0  0  0  0  0  0  0  0  0  0  0
    0.9949   -0.6037    1.8230 O   0  0  0  0  0  0  0  0  0  0  0  0
   -1.1221    0.1440    1.9309 N   0  0  0  0  0  0  0  0  0  0  0  0
   -2.0434    0.0589    1.5155 H   0  0  0  0  0  0  0  0  0  0  0  0
   -1.0193    0.5723    3.3205 C   0  0  0  0  0  0  0  0  0  0  0  0
   -0.1849    1.2704    3.4459 H   0  0  0  0  0  0  0  0  0  0  0  0
   -1.9391    1.0769    3.6309 H   0  0  0  0  0  0  0  0  0  0  0  0
   -0.8575   -0.2910    3.9747 H   0  0  0  0  0  0  0  0  0  0  0  0
  1  2  1  0  0  0  0
  2  3  1  0  0  0  0
  2  4  1  0  0  0  0
  2  5  1  0  0  0  0
  5  6  2  0  0  0  0
  5  7  1  0  0  0  0
  7  8  1  0  0  0  0
  7  9  1  0  0  0  0
  9 10  1  0  0  0  0
  9 11  1  0  0  0  0
  9 26  1  0  0  0  0
 11 12  1  0  0  0  0
 11 13  1  0  0  0  0
 11 14  1  0  0  0  0
 14 15  2  0  0  0  0
 14 24  1  0  0  0  0
 15 16  1  0  0  0  0
 15 17  1  0  0  0  0
 17 18  1  0  0  0  0
 17 19  2  0  0  0  0
 19 20  1  0  0  0  0
 19 22  1  0  0  0  0
 20 21  1  0  0  0  0
 22 23  1  0  0  0  0
 22 24  2  0  0  0  0
 24 25  1  0  0  0  0
 26 27  2  0  0  0  0
 26 28  1  0  0  0  0
 28 29  1  0  0  0  0
 28 30  1  0  0  0  0
 30 31  1  0  0  0  0
 30 32  1  0  0  0  0
 30 33  1  0  0  0  0
M  END
$$$$

  -OEChem-03222214083D

 33 33  0     1  0  0  0  0  0999 V2000
   -3.4016   -4.4729    0.7650 H   0  0  0  0  0  0  0  0  0  0  0  0
   -3.2855   -3.5889    0.1312 C   0  0  0  0  0  0  0  0  0  0  0  0
   -4.1273   -2.9159    0.3095 H   0  0  0  0  0  0  0  0  0  0  0  0
   -3.2936   -3.9048   -0.9147 H   0  0  0  0  0  0  0  0  0  0  0  0
   -1.9798   -2.8854    0.4521 C   0  0  0  0  0  0  0  0  0  0  0  0
   -1.2750   -3.3057    1.3506 O   0  0  0  0  0  0  0  0  0  0  0  0
   -1.6021   -1.7779   -0.2838 N   0  0  0  0  0  0  0  0  0  0  0  0
   -2.1893   -1.5427   -1.0779 H   0  0  0  0  0  0  0  0  0  0  0  0
   -0.3078   -1.0765   -0.1387 C   0  0  1  0  0  0  0  0  0  0  0  0
    0.5013   -1.7856   -0.3463 H   0  0  0  0  0  0  0  0  0  0  0  0
   -0.2894    0.0543   -1.1976 C   0  0  0  0  0  0  0  0  0  0  0  0
   -0.9023   -0.2659   -2.0464 H   0  0  0  0  0  0  0  0  0  0  0  0
   -0.7664    0.9462   -0.7784 H   0  0  0  0  0  0  0  0  0  0  0  0
    1.0669    0.4556   -1.7575 C   0  0  0  0  0  0  0  0  0  0  0  0
    1.1183    0.9445   -3.0752 C   0  0  0  0  0  0  0  0  0  0  0  0
    0.2087    1.0225   -3.6631 H   0  0  0  0  0  0  0  0  0  0  0  0
    2.3298    1.3398   -3.6544 C   0  0  0  0  0  0  0  0  0  0  0  0
    2.3400    1.7111   -4.6731 H   0  0  0  0  0  0  0  0  0  0  0  0
    3.5149    1.2576   -2.9243 C   0  0  0  0  0  0  0  0  0  0  0  0
    4.7033    1.6400   -3.4770 O   0  0  0  0  0  0  0  0  0  0  0  0
    4.5656    1.9432   -4.3871 H   0  0  0  0  0  0  0  0  0  0  0  0
    3.4804    0.7814   -1.6173 C   0  0  0  0  0  0  0  0  0  0  0  0
    4.4041    0.7210   -1.0505 H   0  0  0  0  0  0  0  0  0  0  0  0
    2.2718    0.3846   -1.0343 C   0  0  0  0  0  0  0  0  0  0  0  0
    2.3088    0.0236   -0.0149 H   0  0  0  0  0  0  0  0  0  0  0  0
   -0.1058   -0.5190    1.2945 C   0  0  0  0  0  0  0  0  0  0  0  0
    0.9736   -0.6053    1.8640 O   0  0  0  0  0  0  0  0  0  0  0  0
   -1.1418    0.1457    1.9282 N   0  0  0  0  0  0  0  0  0  0  0  0
   -2.0557    0.0662    1.4961 H   0  0  0  0  0  0  0  0  0  0  0  0
   -1.0591    0.5968    3.3119 C   0  0  0  0  0  0  0  0  0  0  0  0
   -0.2263    1.2966    3.4378 H   0  0  0  0  0  0  0  0  0  0  0  0
   -1.9831    1.1066    3.6004 H   0  0  0  0  0  0  0  0  0  0  0  0
   -0.9074   -0.2556    3.9827 H   0  0  0  0  0  0  0  0  0  0  0  0
  1  2  1  0  0  0  0
  2  3  1  0  0  0  0
  2  4  1  0  0  0  0
  2  5  1  0  0  0  0
  5  6  2  0  0  0  0
  5  7  1  0  0  0  0
  7  8  1  0  0  0  0
  7  9  1  0  0  0  0
  9 10  1  0  0  0  0
  9 11  1  0  0  0  0
  9 26  1  0  0  0  0
 11 12  1  0  0  0  0
 11 13  1  0  0  0  0
 11 14  1  0  0  0  0
 14 15  2  0  0  0  0
 14 24  1  0  0  0  0
 15 16  1  0  0  0  0
 15 17  1  0  0  0  0
 17 18  1  0  0  0  0
 17 19  2  0  0  0  0
 19 20  1  0  0  0  0
 19 22  1  0  0  0  0
 20 21  1  0  0  0  0
 22 23  1  0  0  0  0
 22 24  2  0  0  0  0
 24 25  1  0  0  0  0
 26 27  2  0  0  0  0
 26 28  1  0  0  0  0
 28 29  1  0  0  0  0
 28 30  1  0  0  0  0
 30 31  1  0  0  0  0
 30 32  1  0  0  0  0
 30 33  1  0  0  0  0
M  END
$$$$

  -OEChem-03222214083D

 33 33  0     1  0  0  0  0  0999 V2000
   -3.4187   -4.4973    0.7460 H   0  0  0  0  0  0  0  0  0  0  0  0
   -3.3063   -3.6115    0.1141 C   0  0  0  0  0  0  0  0  0  0  0  0
   -4.1553   -2.9460    0.2873 H   0  0  0  0  0  0  0  0  0  0  0  0
   -3.3046   -3.9261   -0.9323 H   0  0  0  0  0  0  0  0  0  0  0  0
   -2.0093   -2.8965    0.4449 C   0  0  0  0  0  0  0  0  0  0  0  0
   -1.3129   -3.3017    1.3572 O   0  0  0  0  0  0  0  0  0  0  0  0
   -1.6335   -1.7882   -0.2903 N   0  0  0  0  0  0  0  0  0  0  0  0
   -2.2123   -1.5626   -1.0935 H   0  0  0  0  0  0  0  0  0  0  0  0
   -0.3390   -1.0898   -0.1443 C   0  0  1  0  0  0  0  0  0  0  0  0
    0.4545   -1.8150   -0.3529 H   0  0  0  0  0  0  0  0  0  0  0  0
   -0.2985    0.0407   -1.2002 C   0  0  0  0  0  0  0  0  0  0  0  0
   -0.8973   -0.2761   -2.0603 H   0  0  0  0  0  0  0  0  0  0  0  0
   -0.7780    0.9343   -0.7868 H   0  0  0  0  0  0  0  0  0  0  0  0
    1.0649    0.4340   -1.7465 C   0  0  0  0  0  0  0  0  0  0  0  0
    1.0978    1.2125   -2.9160 C   0  0  0  0  0  0  0  0  0  0  0  0
    0.1696    1.5104   -3.3944 H   0  0  0  0  0  0  0  0  0  0  0  0
    2.3121    1.6168   -3.4823 C   0  0  0  0  0  0  0  0  0  0  0  0
    2.3069    2.2167   -4.3857 H   0  0  0  0  0  0  0  0  0  0  0  0
    3.5188    1.2495   -2.8868 C   0  0  0  0  0  0  0  0  0  0  0  0
    4.7103    1.6365   -3.4292 O   0  0  0  0  0  0  0  0  0  0  0  0
    4.5568    2.1840   -4.2139 H   0  0  0  0  0  0  0  0  0  0  0  0
    3.5035    0.4813   -1.7264 C   0  0  0  0  0  0  0  0  0  0  0  0
    4.4444    0.2010   -1.2639 H   0  0  0  0  0  0  0  0  0  0  0  0
    2.2921    0.0749   -1.1557 C   0  0  0  0  0  0  0  0  0  0  0  0
    2.3428   -0.5204   -0.2510 H   0  0  0  0  0  0  0  0  0  0  0  0
   -0.1065   -0.5251    1.2797 C   0  0  0  0  0  0  0  0  0  0  0  0
    1.0002   -0.5675    1.7998 O   0  0  0  0  0  0  0  0  0  0  0  0
   -1.1247    0.1506    1.9297 N   0  0  0  0  0  0  0  0  0  0  0  0
   -2.0536    0.0472    1.5360 H   0  0  0  0  0  0  0  0  0  0  0  0
   -0.9942    0.6474    3.2940 C   0  0  0  0  0  0  0  0  0  0  0  0
   -0.1659    1.3604    3.3650 H   0  0  0  0  0  0  0  0  0  0  0  0
   -1.9126    1.1561    3.6016 H   0  0  0  0  0  0  0  0  0  0  0  0
   -0.8064   -0.1809    3.9856 H   0  0  0  0  0  0  0  0  0  0  0  0
  1  2  1  0  0  0  0
  2  3  1  0  0  0  0
  2  4  1  0  0  0  0
  2  5  1  0  0  0  0
  5  6  2  0  0  0  0
  5  7  1  0  0  0  0
  7  8  1  0  0  0  0
  7  9  1  0  0  0  0
  9 10  1  0  0  0  0
  9 11  1  0  0  0  0
  9 26  1  0  0  0  0
 11 12  1  0  0  0  0
 11 13  1  0  0  0  0
 11 14  1  0  0  0  0
 14 15  2  0  0  0  0
 14 24  1  0  0  0  0
 15 16  1  0  0  0  0
 15 17  1  0  0  0  0
 17 18  1  0  0  0  0
 17 19  2  0  0  0  0
 19 20  1  0  0  0  0
 19 22  1  0  0  0  0
 20 21  1  0  0  0  0
 22 23  1  0  0  0  0
 22 24  2  0  0  0  0
 24 25  1  0  0  0  0
 26 27  2  0  0  0  0
 26 28  1  0  0  0  0
 28 29  1  0  0  0  0
 28 30  1  0  0  0  0
 30 31  1  0  0  0  0
 30 32  1  0  0  0  0
 30 33  1  0  0  0  0
M  END
$$$$

  -OEChem-03222214083D

 33 33  0     1  0  0  0  0  0999 V2000
   -3.4612   -4.5426    0.7622 H   0  0  0  0  0  0  0  0  0  0  0  0
   -3.3675   -3.6581    0.1256 C   0  0  0  0  0  0  0  0  0  0  0  0
   -4.2257   -3.0052    0.3017 H   0  0  0  0  0  0  0  0  0  0  0  0
   -3.3676   -3.9770   -0.9195 H   0  0  0  0  0  0  0  0  0  0  0  0
   -2.0800   -2.9212    0.4443 C   0  0  0  0  0  0  0  0  0  0  0  0
   -1.3713   -3.3072    1.3561 O   0  0  0  0  0  0  0  0  0  0  0  0
   -1.7268   -1.8093   -0.2960 N   0  0  0  0  0  0  0  0  0  0  0  0
   -2.3076   -1.6021   -1.1029 H   0  0  0  0  0  0  0  0  0  0  0  0
   -0.4290   -1.1142   -0.1753 C   0  0  1  0  0  0  0  0  0  0  0  0
    0.3172   -1.8852   -0.3728 H   0  0  0  0  0  0  0  0  0  0  0  0
   -0.3483   -0.0054   -1.2554 C   0  0  0  0  0  0  0  0  0  0  0  0
   -1.1393   -0.1786   -1.9916 H   0  0  0  0  0  0  0  0  0  0  0  0
   -0.5624    0.9605   -0.7854 H   0  0  0  0  0  0  0  0  0  0  0  0
    0.9466    0.1262   -2.0442 C   0  0  0  0  0  0  0  0  0  0  0  0
    1.0001    1.1343   -3.0215 C   0  0  0  0  0  0  0  0  0  0  0  0
    0.1264    1.7518   -3.2080 H   0  0  0  0  0  0  0  0  0  0  0  0
    2.1599    1.3568   -3.7722 C   0  0  0  0  0  0  0  0  0  0  0  0
    2.1660    2.1337   -4.5286 H   0  0  0  0  0  0  0  0  0  0  0  0
    3.2998    0.5875   -3.5431 C   0  0  0  0  0  0  0  0  0  0  0  0
    4.4388    0.7958   -4.2663 O   0  0  0  0  0  0  0  0  0  0  0  0
    4.3167    1.5423   -4.8723 H   0  0  0  0  0  0  0  0  0  0  0  0
    3.2770   -0.3910   -2.5539 C   0  0  0  0  0  0  0  0  0  0  0  0
    4.1749   -0.9693   -2.3618 H   0  0  0  0  0  0  0  0  0  0  0  0
    2.1205   -0.6166   -1.7989 C   0  0  0  0  0  0  0  0  0  0  0  0
    2.1867   -1.3610   -1.0131 H   0  0  0  0  0  0  0  0  0  0  0  0
   -0.1037   -0.5378    1.2189 C   0  0  0  0  0  0  0  0  0  0  0  0
    1.0546   -0.5196    1.6130 O   0  0  0  0  0  0  0  0  0  0  0  0
   -1.0700    0.1584    1.9228 N   0  0  0  0  0  0  0  0  0  0  0  0
   -2.0287    0.0202    1.6214 H   0  0  0  0  0  0  0  0  0  0  0  0
   -0.8262    0.7230    3.2441 C   0  0  0  0  0  0  0  0  0  0  0  0
    0.0082    1.4317    3.2110 H   0  0  0  0  0  0  0  0  0  0  0  0
   -1.7143    1.2548    3.5985 H   0  0  0  0  0  0  0  0  0  0  0  0
   -0.5861   -0.0705    3.9596 H   0  0  0  0  0  0  0  0  0  0  0  0
  1  2  1  0  0  0  0
  2  3  1  0  0  0  0
  2  4  1  0  0  0  0
  2  5  1  0  0  0  0
  5  6  2  0  0  0  0
  5  7  1  0  0  0  0
  7  8  1  0  0  0  0
  7  9  1  0  0  0  0
  9 10  1  0  0  0  0
  9 11  1  0  0  0  0
  9 26  1  0  0  0  0
 11 12  1  0  0  0  0
 11 13  1  0  0  0  0
 11 14  1  0  0  0  0
 14 15  2  0  0  0  0
 14 24  1  0  0  0  0
 15 16  1  0  0  0  0
 15 17  1  0  0  0  0
 17 18  1  0  0  0  0
 17 19  2  0  0  0  0
 19 20  1  0  0  0  0
 19 22  1  0  0  0  0
 20 21  1  0  0  0  0
 22 23  1  0  0  0  0
 22 24  2  0  0  0  0
 24 25  1  0  0  0  0
 26 27  2  0  0  0  0
 26 28  1  0  0  0  0
 28 29  1  0  0  0  0
 28 30  1  0  0  0  0
 30 31  1  0  0  0  0
 30 32  1  0  0  0  0
 30 33  1  0  0  0  0
M  END
$$$$

  -OEChem-03222214083D

 33 33  0     1  0  0  0  0  0999 V2000
   -3.4578   -4.5334    0.7823 H   0  0  0  0  0  0  0  0  0  0  0  0
   -3.3473   -3.6616    0.1308 C   0  0  0  0  0  0  0  0  0  0  0  0
   -4.2093   -3.0053    0.2718 H   0  0  0  0  0  0  0  0  0  0  0  0
   -3.3207   -4.0012   -0.9075 H   0  0  0  0  0  0  0  0  0  0  0  0
   -2.0680   -2.9187    0.4675 C   0  0  0  0  0  0  0  0  0  0  0  0
   -1.3770   -3.2947    1.3966 O   0  0  0  0  0  0  0  0  0  0  0  0
   -1.6989   -1.8172   -0.2806 N   0  0  0  0  0  0  0  0  0  0  0  0
   -2.2641   -1.6210   -1.1012 H   0  0  0  0  0  0  0  0  0  0  0  0
   -0.4017   -1.1229   -0.1475 C   0  0  1  0  0  0  0  0  0  0  0  0
    0.3596   -1.8844   -0.3128 H   0  0  0  0  0  0  0  0  0  0  0  0
   -0.3145   -0.0073   -1.2215 C   0  0  0  0  0  0  0  0  0  0  0  0
   -1.0994   -0.1770   -1.9648 H   0  0  0  0  0  0  0  0  0  0  0  0
   -0.5386    0.9534   -0.7453 H   0  0  0  0  0  0  0  0  0  0  0  0
    0.9810    0.1349   -2.0087 C   0  0  0  0  0  0  0  0  0  0  0  0
    1.1601    1.3285   -2.7288 C   0  0  0  0  0  0  0  0  0  0  0  0
    0.4020    2.1049   -2.6849 H   0  0  0  0  0  0  0  0  0  0  0  0
    2.3058    1.5460   -3.5021 C   0  0  0  0  0  0  0  0  0  0  0  0
    2.4173    2.4808   -4.0403 H   0  0  0  0  0  0  0  0  0  0  0  0
    3.2944    0.5661   -3.5782 C   0  0  0  0  0  0  0  0  0  0  0  0
    4.4166    0.7638   -4.3300 O   0  0  0  0  0  0  0  0  0  0  0  0
    4.4139    1.6584   -4.7032 H   0  0  0  0  0  0  0  0  0  0  0  0
    3.1302   -0.6267   -2.8807 C   0  0  0  0  0  0  0  0  0  0  0  0
    3.9038   -1.3850   -2.9444 H   0  0  0  0  0  0  0  0  0  0  0  0
    1.9874   -0.8493   -2.1038 C   0  0  0  0  0  0  0  0  0  0  0  0
    1.9261   -1.8025   -1.5930 H   0  0  0  0  0  0  0  0  0  0  0  0
   -0.1109   -0.5332    1.2499 C   0  0  0  0  0  0  0  0  0  0  0  0
    1.0380   -0.4981    1.6689 O   0  0  0  0  0  0  0  0  0  0  0  0
   -1.0956    0.1686    1.9228 N   0  0  0  0  0  0  0  0  0  0  0  0
   -2.0468    0.0215    1.6026 H   0  0  0  0  0  0  0  0  0  0  0  0
   -0.8831    0.7563    3.2396 C   0  0  0  0  0  0  0  0  0  0  0  0
   -0.0598    1.4780    3.2096 H   0  0  0  0  0  0  0  0  0  0  0  0
   -1.7855    1.2787    3.5710 H   0  0  0  0  0  0  0  0  0  0  0  0
   -0.6420   -0.0223    3.9712 H   0  0  0  0  0  0  0  0  0  0  0  0
  1  2  1  0  0  0  0
  2  3  1  0  0  0  0
  2  4  1  0  0  0  0
  2  5  1  0  0  0  0
  5  6  2  0  0  0  0
  5  7  1  0  0  0  0
  7  8  1  0  0  0  0
  7  9  1  0  0  0  0
  9 10  1  0  0  0  0
  9 11  1  0  0  0  0
  9 26  1  0  0  0  0
 11 12  1  0  0  0  0
 11 13  1  0  0  0  0
 11 14  1  0  0  0  0
 14 15  2  0  0  0  0
 14 24  1  0  0  0  0
 15 16  1  0  0  0  0
 15 17  1  0  0  0  0
 17 18  1  0  0  0  0
 17 19  2  0  0  0  0
 19 20  1  0  0  0  0
 19 22  1  0  0  0  0
 20 21  1  0  0  0  0
 22 23  1  0  0  0  0
 22 24  2  0  0  0  0
 24 25  1  0  0  0  0
 26 27  2  0  0  0  0
 26 28  1  0  0  0  0
 28 29  1  0  0  0  0
 28 30  1  0  0  0  0
 30 31  1  0  0  0  0
 30 32  1  0  0  0  0
 30 33  1  0  0  0  0
M  END
$$$$

  -OEChem-03222214083D

 33 33  0     1  0  0  0  0  0999 V2000
   -3.3821   -4.5583    0.7867 H   0  0  0  0  0  0  0  0  0  0  0  0
   -3.2975   -3.6721    0.1511 C   0  0  0  0  0  0  0  0  0  0  0  0
   -4.1586   -3.0247    0.3337 H   0  0  0  0  0  0  0  0  0  0  0  0
   -3.3022   -3.9892   -0.8945 H   0  0  0  0  0  0  0  0  0  0  0  0
   -2.0129   -2.9277    0.4634 C   0  0  0  0  0  0  0  0  0  0  0  0
   -1.3002   -3.3071    1.3744 O   0  0  0  0  0  0  0  0  0  0  0  0
   -1.6656   -1.8191   -0.2842 N   0  0  0  0  0  0  0  0  0  0  0  0
   -2.2505   -1.6162   -1.0893 H   0  0  0  0  0  0  0  0  0  0  0  0
   -0.3803   -1.1017   -0.1583 C   0  0  1  0  0  0  0  0  0  0  0  0
    0.4116   -1.8332   -0.3296 H   0  0  0  0  0  0  0  0  0  0  0  0
   -0.3297    0.0285   -1.2193 C   0  0  0  0  0  0  0  0  0  0  0  0
   -1.1150   -0.1418   -1.9619 H   0  0  0  0  0  0  0  0  0  0  0  0
   -0.5605    0.9829   -0.7340 H   0  0  0  0  0  0  0  0  0  0  0  0
    0.9697    0.1634   -1.9949 C   0  0  0  0  0  0  0  0  0  0  0  0
    1.3444    1.4381   -2.4522 C   0  0  0  0  0  0  0  0  0  0  0  0
    0.7427    2.3055   -2.1970 H   0  0  0  0  0  0  0  0  0  0  0  0
    2.4968    1.6171   -3.2263 C   0  0  0  0  0  0  0  0  0  0  0  0
    2.7713    2.6143   -3.5525 H   0  0  0  0  0  0  0  0  0  0  0  0
    3.2821    0.5192   -3.5783 C   0  0  0  0  0  0  0  0  0  0  0  0
    4.4076    0.6803   -4.3340 O   0  0  0  0  0  0  0  0  0  0  0  0
    4.5790    1.6236   -4.4775 H   0  0  0  0  0  0  0  0  0  0  0  0
    2.9044   -0.7547   -3.1632 C   0  0  0  0  0  0  0  0  0  0  0  0
    3.5127   -1.6059   -3.4514 H   0  0  0  0  0  0  0  0  0  0  0  0
    1.7539   -0.9388   -2.3885 C   0  0  0  0  0  0  0  0  0  0  0  0
    1.4874   -1.9545   -2.1173 H   0  0  0  0  0  0  0  0  0  0  0  0
   -0.1060   -0.5135    1.2439 C   0  0  0  0  0  0  0  0  0  0  0  0
    1.0393   -0.4532    1.6700 O   0  0  0  0  0  0  0  0  0  0  0  0
   -1.1097    0.1635    1.9147 N   0  0  0  0  0  0  0  0  0  0  0  0
   -2.0555   -0.0028    1.5879 H   0  0  0  0  0  0  0  0  0  0  0  0
   -0.9181    0.7502    3.2351 C   0  0  0  0  0  0  0  0  0  0  0  0
   -0.1068    1.4855    3.2141 H   0  0  0  0  0  0  0  0  0  0  0  0
   -1.8319    1.2563    3.5605 H   0  0  0  0  0  0  0  0  0  0  0  0
   -0.6706   -0.0268    3.9660 H   0  0  0  0  0  0  0  0  0  0  0  0
  1  2  1  0  0  0  0
  2  3  1  0  0  0  0
  2  4  1  0  0  0  0
  2  5  1  0  0  0  0
  5  6  2  0  0  0  0
  5  7  1  0  0  0  0
  7  8  1  0  0  0  0
  7  9  1  0  0  0  0
  9 10  1  0  0  0  0
  9 11  1  0  0  0  0
  9 26  1  0  0  0  0
 11 12  1  0  0  0  0
 11 13  1  0  0  0  0
 11 14  1  0  0  0  0
 14 15  2  0  0  0  0
 14 24  1  0  0  0  0
 15 16  1  0  0  0  0
 15 17  1  0  0  0  0
 17 18  1  0  0  0  0
 17 19  2  0  0  0  0
 19 20  1  0  0  0  0
 19 22  1  0  0  0  0
 20 21  1  0  0  0  0
 22 23  1  0  0  0  0
 22 24  2  0  0  0  0
 24 25  1  0  0  0  0
 26 27  2  0  0  0  0
 26 28  1  0  0  0  0
 28 29  1  0  0  0  0
 28 30  1  0  0  0  0
 30 31  1  0  0  0  0
 30 32  1  0  0  0  0
 30 33  1  0  0  0  0
M  END
$$$$

  -OEChem-03222214083D

 33 33  0     1  0  0  0  0  0999 V2000
   -3.3158   -4.5824    0.7859 H   0  0  0  0  0  0  0  0  0  0  0  0
   -3.2545   -3.6944    0.1500 C   0  0  0  0  0  0  0  0  0  0  0  0
   -4.1214   -3.0597    0.3478 H   0  0  0  0  0  0  0  0  0  0  0  0
   -3.2725   -4.0107   -0.8957 H   0  0  0  0  0  0  0  0  0  0  0  0
   -1.9755   -2.9315    0.4405 C   0  0  0  0  0  0  0  0  0  0  0  0
   -1.2331   -3.3107    1.3277 O   0  0  0  0  0  0  0  0  0  0  0  0
   -1.6666   -1.8073   -0.3010 N   0  0  0  0  0  0  0  0  0  0  0  0
   -2.2815   -1.5964   -1.0814 H   0  0  0  0  0  0  0  0  0  0  0  0
   -0.3933   -1.0658   -0.1952 C   0  0  1  0  0  0  0  0  0  0  0  0
    0.4130   -1.7764   -0.3995 H   0  0  0  0  0  0  0  0  0  0  0  0
   -0.3809    0.0732   -1.2441 C   0  0  0  0  0  0  0  0  0  0  0  0
   -1.1680   -0.1007   -1.9842 H   0  0  0  0  0  0  0  0  0  0  0  0
   -0.6150    1.0249   -0.7548 H   0  0  0  0  0  0  0  0  0  0  0  0
    0.9227    0.1891   -2.0076 C   0  0  0  0  0  0  0  0  0  0  0  0
    1.5028    1.4522   -2.2056 C   0  0  0  0  0  0  0  0  0  0  0  0
    1.0509    2.3352   -1.7636 H   0  0  0  0  0  0  0  0  0  0  0  0
    2.6760    1.5907   -2.9568 C   0  0  0  0  0  0  0  0  0  0  0  0
    3.1152    2.5741   -3.0829 H   0  0  0  0  0  0  0  0  0  0  0  0
    3.2730    0.4718   -3.5394 C   0  0  0  0  0  0  0  0  0  0  0  0
    4.4175    0.5955   -4.2731 O   0  0  0  0  0  0  0  0  0  0  0  0
    4.7433    1.5075   -4.2273 H   0  0  0  0  0  0  0  0  0  0  0  0
    2.6887   -0.7816   -3.3763 C   0  0  0  0  0  0  0  0  0  0  0  0
    3.1526   -1.6451   -3.8417 H   0  0  0  0  0  0  0  0  0  0  0  0
    1.5178   -0.9257   -2.6245 C   0  0  0  0  0  0  0  0  0  0  0  0
    1.0766   -1.9132   -2.5317 H   0  0  0  0  0  0  0  0  0  0  0  0
   -0.0991   -0.4885    1.2074 C   0  0  0  0  0  0  0  0  0  0  0  0
    1.0544   -0.4028    1.6062 O   0  0  0  0  0  0  0  0  0  0  0  0
   -1.1008    0.1602    1.9085 N   0  0  0  0  0  0  0  0  0  0  0  0
   -2.0503   -0.0247    1.6033 H   0  0  0  0  0  0  0  0  0  0  0  0
   -0.8914    0.7322    3.2326 C   0  0  0  0  0  0  0  0  0  0  0  0
   -0.0943    1.4826    3.2051 H   0  0  0  0  0  0  0  0  0  0  0  0
   -1.8068    1.2170    3.5846 H   0  0  0  0  0  0  0  0  0  0  0  0
   -0.6136   -0.0498    3.9471 H   0  0  0  0  0  0  0  0  0  0  0  0
  1  2  1  0  0  0  0
  2  3  1  0  0  0  0
  2  4  1  0  0  0  0
  2  5  1  0  0  0  0
  5  6  2  0  0  0  0
  5  7  1  0  0  0  0
  7  8  1  0  0  0  0
  7  9  1  0  0  0  0
  9 10  1  0  0  0  0
  9 11  1  0  0  0  0
  9 26  1  0  0  0  0
 11 12  1  0  0  0  0
 11 13  1  0  0  0  0
 11 14  1  0  0  0  0
 14 15  2  0  0  0  0
 14 24  1  0  0  0  0
 15 16  1  0  0  0  0
 15 17  1  0  0  0  0
 17 18  1  0  0  0  0
 17 19  2  0  0  0  0
 19 20  1  0  0  0  0
 19 22  1  0  0  0  0
 20 21  1  0  0  0  0
 22 23  1  0  0  0  0
 22 24  2  0  0  0  0
 24 25  1  0  0  0  0
 26 27  2  0  0  0  0
 26 28  1  0  0  0  0
 28 29  1  0  0  0  0
 28 30  1  0  0  0  0
 30 31  1  0  0  0  0
 30 32  1  0  0  0  0
 30 33  1  0  0  0  0
M  END
$$$$

  -OEChem-03222214083D

 33 33  0     1  0  0  0  0  0999 V2000
   -3.2694   -4.6009    0.7747 H   0  0  0  0  0  0  0  0  0  0  0  0
   -3.2289   -3.7116    0.1389 C   0  0  0  0  0  0  0  0  0  0  0  0
   -4.1035   -3.0907    0.3465 H   0  0  0  0  0  0  0  0  0  0  0  0
   -3.2534   -4.0273   -0.9069 H   0  0  0  0  0  0  0  0  0  0  0  0
   -1.9588   -2.9291    0.4169 C   0  0  0  0  0  0  0  0  0  0  0  0
   -1.1994   -3.3001    1.2930 O   0  0  0  0  0  0  0  0  0  0  0  0
   -1.6796   -1.7932   -0.3186 N   0  0  0  0  0  0  0  0  0  0  0  0
   -2.3081   -1.5870   -1.0893 H   0  0  0  0  0  0  0  0  0  0  0  0
   -0.4129   -1.0382   -0.2303 C   0  0  1  0  0  0  0  0  0  0  0  0
    0.3967   -1.7370   -0.4680 H   0  0  0  0  0  0  0  0  0  0  0  0
   -0.4278    0.1082   -1.2665 C   0  0  0  0  0  0  0  0  0  0  0  0
   -1.2208   -0.0632   -2.0010 H   0  0  0  0  0  0  0  0  0  0  0  0
   -0.6558    1.0590   -0.7726 H   0  0  0  0  0  0  0  0  0  0  0  0
    0.8764    0.2070   -2.0238 C   0  0  0  0  0  0  0  0  0  0  0  0
    1.6415    1.3816   -1.9664 C   0  0  0  0  0  0  0  0  0  0  0  0
    1.3224    2.2109   -1.3416 H   0  0  0  0  0  0  0  0  0  0  0  0
    2.8316    1.4907   -2.6953 C   0  0  0  0  0  0  0  0  0  0  0  0
    3.4155    2.4020   -2.6274 H   0  0  0  0  0  0  0  0  0  0  0  0
    3.2622    0.4335   -3.4994 C   0  0  0  0  0  0  0  0  0  0  0  0
    4.4226    0.5297   -4.2113 O   0  0  0  0  0  0  0  0  0  0  0  0
    4.8834    1.3513   -3.9815 H   0  0  0  0  0  0  0  0  0  0  0  0
    2.4989   -0.7296   -3.5757 C   0  0  0  0  0  0  0  0  0  0  0  0
    2.8405   -1.5451   -4.2049 H   0  0  0  0  0  0  0  0  0  0  0  0
    1.3107   -0.8450   -2.8464 C   0  0  0  0  0  0  0  0  0  0  0  0
    0.7283   -1.7582   -2.9222 H   0  0  0  0  0  0  0  0  0  0  0  0
   -0.0909   -0.4712    1.1702 C   0  0  0  0  0  0  0  0  0  0  0  0
    1.0719   -0.3613    1.5350 O   0  0  0  0  0  0  0  0  0  0  0  0
   -1.0828    0.1598    1.9007 N   0  0  0  0  0  0  0  0  0  0  0  0
   -2.0370   -0.0460    1.6245 H   0  0  0  0  0  0  0  0  0  0  0  0
   -0.8458    0.7244    3.2234 C   0  0  0  0  0  0  0  0  0  0  0  0
   -0.0606    1.4868    3.1808 H   0  0  0  0  0  0  0  0  0  0  0  0
   -1.7585    1.1927    3.6038 H   0  0  0  0  0  0  0  0  0  0  0  0
   -0.5375   -0.0595    3.9233 H   0  0  0  0  0  0  0  0  0  0  0  0
  1  2  1  0  0  0  0
  2  3  1  0  0  0  0
  2  4  1  0  0  0  0
  2  5  1  0  0  0  0
  5  6  2  0  0  0  0
  5  7  1  0  0  0  0
  7  8  1  0  0  0  0
  7  9  1  0  0  0  0
  9 10  1  0  0  0  0
  9 11  1  0  0  0  0
  9 26  1  0  0  0  0
 11 12  1  0  0  0  0
 11 13  1  0  0  0  0
 11 14  1  0  0  0  0
 14 15  2  0  0  0  0
 14 24  1  0  0  0  0
 15 16  1  0  0  0  0
 15 17  1  0  0  0  0
 17 18  1  0  0  0  0
 17 19  2  0  0  0  0
 19 20  1  0  0  0  0
 19 22  1  0  0  0  0
 20 21  1  0  0  0  0
 22 23  1  0  0  0  0
 22 24  2  0  0  0  0
 24 25  1  0  0  0  0
 26 27  2  0  0  0  0
 26 28  1  0  0  0  0
 28 29  1  0  0  0  0
 28 30  1  0  0  0  0
 30 31  1  0  0  0  0
 30 32  1  0  0  0  0
 30 33  1  0  0  0  0
M  END
$$$$

  -OEChem-03222214083D

 33 33  0     1  0  0  0  0  0999 V2000
   -3.2467   -4.6054    0.7681 H   0  0  0  0  0  0  0  0  0  0  0  0
   -3.2143   -3.7193    0.1275 C   0  0  0  0  0  0  0  0  0  0  0  0
   -4.0963   -3.1071    0.3300 H   0  0  0  0  0  0  0  0  0  0  0  0
   -3.2320   -4.0410   -0.9166 H   0  0  0  0  0  0  0  0  0  0  0  0
   -1.9530   -2.9224    0.4036 C   0  0  0  0  0  0  0  0  0  0  0  0
   -1.1847   -3.2892    1.2738 O   0  0  0  0  0  0  0  0  0  0  0  0
   -1.6924   -1.7793   -0.3273 N   0  0  0  0  0  0  0  0  0  0  0  0
   -2.3267   -1.5790   -1.0945 H   0  0  0  0  0  0  0  0  0  0  0  0
   -0.4280   -1.0198   -0.2533 C   0  0  1  0  0  0  0  0  0  0  0  0
    0.3799   -1.7130   -0.5149 H   0  0  0  0  0  0  0  0  0  0  0  0
   -0.4588    0.1317   -1.2802 C   0  0  0  0  0  0  0  0  0  0  0  0
   -1.2612   -0.0318   -2.0063 H   0  0  0  0  0  0  0  0  0  0  0  0
   -0.6733    1.0836   -0.7824 H   0  0  0  0  0  0  0  0  0  0  0  0
    0.8436    0.2162   -2.0374 C   0  0  0  0  0  0  0  0  0  0  0  0
    1.7674    1.2302   -1.7464 C   0  0  0  0  0  0  0  0  0  0  0  0
    1.5630    1.9409   -0.9504 H   0  0  0  0  0  0  0  0  0  0  0  0
    2.9686    1.3199   -2.4591 C   0  0  0  0  0  0  0  0  0  0  0  0
    3.6755    2.1041   -2.2116 H   0  0  0  0  0  0  0  0  0  0  0  0
    3.2537    0.4029   -3.4728 C   0  0  0  0  0  0  0  0  0  0  0  0
    4.4230    0.4820   -4.1721 O   0  0  0  0  0  0  0  0  0  0  0  0
    4.9832    1.1804   -3.7999 H   0  0  0  0  0  0  0  0  0  0  0  0
    2.3370   -0.6039   -3.7702 C   0  0  0  0  0  0  0  0  0  0  0  0
    2.5691   -1.3128   -4.5580 H   0  0  0  0  0  0  0  0  0  0  0  0
    1.1365   -0.7010   -3.0583 C   0  0  0  0  0  0  0  0  0  0  0  0
    0.4349   -1.4932   -3.3013 H   0  0  0  0  0  0  0  0  0  0  0  0
   -0.0832   -0.4622    1.1457 C   0  0  0  0  0  0  0  0  0  0  0  0
    1.0859   -0.3368    1.4857 O   0  0  0  0  0  0  0  0  0  0  0  0
   -1.0658    0.1586    1.8970 N   0  0  0  0  0  0  0  0  0  0  0  0
   -2.0233   -0.0545    1.6379 H   0  0  0  0  0  0  0  0  0  0  0  0
   -0.8085    0.7224    3.2162 C   0  0  0  0  0  0  0  0  0  0  0  0
   -0.0402    1.5006    3.1576 H   0  0  0  0  0  0  0  0  0  0  0  0
   -1.7209    1.1703    3.6211 H   0  0  0  0  0  0  0  0  0  0  0  0
   -0.4679   -0.0580    3.9049 H   0  0  0  0  0  0  0  0  0  0  0  0
  1  2  1  0  0  0  0
  2  3  1  0  0  0  0
  2  4  1  0  0  0  0
  2  5  1  0  0  0  0
  5  6  2  0  0  0  0
  5  7  1  0  0  0  0
  7  8  1  0  0  0  0
  7  9  1  0  0  0  0
  9 10  1  0  0  0  0
  9 11  1  0  0  0  0
  9 26  1  0  0  0  0
 11 12  1  0  0  0  0
 11 13  1  0  0  0  0
 11 14  1  0  0  0  0
 14 15  2  0  0  0  0
 14 24  1  0  0  0  0
 15 16  1  0  0  0  0
 15 17  1  0  0  0  0
 17 18  1  0  0  0  0
 17 19  2  0  0  0  0
 19 20  1  0  0  0  0
 19 22  1  0  0  0  0
 20 21  1  0  0  0  0
 22 23  1  0  0  0  0
 22 24  2  0  0  0  0
 24 25  1  0  0  0  0
 26 27  2  0  0  0  0
 26 28  1  0  0  0  0
 28 29  1  0  0  0  0
 28 30  1  0  0  0  0
 30 31  1  0  0  0  0
 30 32  1  0  0  0  0
 30 33  1  0  0  0  0
M  END
$$$$

  -OEChem-03222214083D

 33 33  0     1  0  0  0  0  0999 V2000
   -3.2407   -4.6035    0.7723 H   0  0  0  0  0  0  0  0  0  0  0  0
   -3.2131   -3.7165    0.1328 C   0  0  0  0  0  0  0  0  0  0  0  0
   -4.0929   -3.1040    0.3435 H   0  0  0  0  0  0  0  0  0  0  0  0
   -3.2400   -4.0363   -0.9116 H   0  0  0  0  0  0  0  0  0  0  0  0
   -1.9494   -2.9204    0.4001 C   0  0  0  0  0  0  0  0  0  0  0  0
   -1.1750   -3.2877    1.2648 O   0  0  0  0  0  0  0  0  0  0  0  0
   -1.6957   -1.7746   -0.3292 N   0  0  0  0  0  0  0  0  0  0  0  0
   -2.3335   -1.5764   -1.0941 H   0  0  0  0  0  0  0  0  0  0  0  0
   -0.4311   -1.0143   -0.2640 C   0  0  1  0  0  0  0  0  0  0  0  0
    0.3750   -1.7053   -0.5373 H   0  0  0  0  0  0  0  0  0  0  0  0
   -0.4708    0.1396   -1.2877 C   0  0  0  0  0  0  0  0  0  0  0  0
   -1.2840   -0.0173   -2.0030 H   0  0  0  0  0  0  0  0  0  0  0  0
   -0.6719    1.0924   -0.7861 H   0  0  0  0  0  0  0  0  0  0  0  0
    0.8276    0.2213   -2.0519 C   0  0  0  0  0  0  0  0  0  0  0  0
    1.8793    1.0153   -1.5726 C   0  0  0  0  0  0  0  0  0  0  0  0
    1.7685    1.5566   -0.6364 H   0  0  0  0  0  0  0  0  0  0  0  0
    3.0847    1.0966   -2.2790 C   0  0  0  0  0  0  0  0  0  0  0  0
    3.8892    1.7081   -1.8858 H   0  0  0  0  0  0  0  0  0  0  0  0
    3.2482    0.3894   -3.4719 C   0  0  0  0  0  0  0  0  0  0  0  0
    4.4206    0.4609   -4.1671 O   0  0  0  0  0  0  0  0  0  0  0  0
    5.0653    0.9900   -3.6723 H   0  0  0  0  0  0  0  0  0  0  0  0
    2.2060   -0.4008   -3.9535 C   0  0  0  0  0  0  0  0  0  0  0  0
    2.3450   -0.9491   -4.8793 H   0  0  0  0  0  0  0  0  0  0  0  0
    1.0000   -0.4892   -3.2494 C   0  0  0  0  0  0  0  0  0  0  0  0
    0.2011   -1.1133   -3.6378 H   0  0  0  0  0  0  0  0  0  0  0  0
   -0.0774   -0.4626    1.1356 C   0  0  0  0  0  0  0  0  0  0  0  0
    1.0940   -0.3306    1.4664 O   0  0  0  0  0  0  0  0  0  0  0  0
   -1.0564    0.1532    1.8955 N   0  0  0  0  0  0  0  0  0  0  0  0
   -2.0150   -0.0619    1.6417 H   0  0  0  0  0  0  0  0  0  0  0  0
   -0.7935    0.7155    3.2143 C   0  0  0  0  0  0  0  0  0  0  0  0
   -0.0214    1.4897    3.1547 H   0  0  0  0  0  0  0  0  0  0  0  0
   -1.7027    1.1684    3.6206 H   0  0  0  0  0  0  0  0  0  0  0  0
   -0.4560   -0.0666    3.9027 H   0  0  0  0  0  0  0  0  0  0  0  0
  1  2  1  0  0  0  0
  2  3  1  0  0  0  0
  2  4  1  0  0  0  0
  2  5  1  0  0  0  0
  5  6  2  0  0  0  0
  5  7  1  0  0  0  0
  7  8  1  0  0  0  0
  7  9  1  0  0  0  0
  9 10  1  0  0  0  0
  9 11  1  0  0  0  0
  9 26  1  0  0  0  0
 11 12  1  0  0  0  0
 11 13  1  0  0  0  0
 11 14  1  0  0  0  0
 14 15  2  0  0  0  0
 14 24  1  0  0  0  0
 15 16  1  0  0  0  0
 15 17  1  0  0  0  0
 17 18  1  0  0  0  0
 17 19  2  0  0  0  0
 19 20  1  0  0  0  0
 19 22  1  0  0  0  0
 20 21  1  0  0  0  0
 22 23  1  0  0  0  0
 22 24  2  0  0  0  0
 24 25  1  0  0  0  0
 26 27  2  0  0  0  0
 26 28  1  0  0  0  0
 28 29  1  0  0  0  0
 28 30  1  0  0  0  0
 30 31  1  0  0  0  0
 30 32  1  0  0  0  0
 30 33  1  0  0  0  0
M  END
$$$$

  -OEChem-03222214083D

 33 33  0     1  0  0  0  0  0999 V2000
   -3.2465   -4.5906    0.7682 H   0  0  0  0  0  0  0  0  0  0  0  0
   -3.2107   -3.7048    0.1274 C   0  0  0  0  0  0  0  0  0  0  0  0
   -4.0937   -3.0923    0.3246 H   0  0  0  0  0  0  0  0  0  0  0  0
   -3.2231   -4.0269   -0.9166 H   0  0  0  0  0  0  0  0  0  0  0  0
   -1.9511   -2.9076    0.4102 C   0  0  0  0  0  0  0  0  0  0  0  0
   -1.1881   -3.2741    1.2851 O   0  0  0  0  0  0  0  0  0  0  0  0
   -1.6873   -1.7652   -0.3209 N   0  0  0  0  0  0  0  0  0  0  0  0
   -2.3115   -1.5766   -1.0993 H   0  0  0  0  0  0  0  0  0  0  0  0
   -0.4180   -1.0122   -0.2522 C   0  0  1  0  0  0  0  0  0  0  0  0
    0.3884   -1.7036   -0.5241 H   0  0  0  0  0  0  0  0  0  0  0  0
   -0.4609    0.1390   -1.2825 C   0  0  0  0  0  0  0  0  0  0  0  0
   -1.2850   -0.0160   -1.9855 H   0  0  0  0  0  0  0  0  0  0  0  0
   -0.6526    1.0931   -0.7795 H   0  0  0  0  0  0  0  0  0  0  0  0
    0.8304    0.2317   -2.0615 C   0  0  0  0  0  0  0  0  0  0  0  0
    1.9849    0.7653   -1.4689 C   0  0  0  0  0  0  0  0  0  0  0  0
    1.9589    1.1204   -0.4419 H   0  0  0  0  0  0  0  0  0  0  0  0
    3.1838    0.8378   -2.1875 C   0  0  0  0  0  0  0  0  0  0  0  0
    4.0645    1.2492   -1.7066 H   0  0  0  0  0  0  0  0  0  0  0  0
    3.2418    0.3800   -3.5051 C   0  0  0  0  0  0  0  0  0  0  0  0
    4.4069    0.4436   -4.2133 O   0  0  0  0  0  0  0  0  0  0  0  0
    5.1173    0.7857   -3.6487 H   0  0  0  0  0  0  0  0  0  0  0  0
    2.0992   -0.1508   -4.1004 C   0  0  0  0  0  0  0  0  0  0  0  0
    2.1550   -0.5068   -5.1238 H   0  0  0  0  0  0  0  0  0  0  0  0
    0.8988   -0.2290   -3.3855 C   0  0  0  0  0  0  0  0  0  0  0  0
    0.0230   -0.6523   -3.8672 H   0  0  0  0  0  0  0  0  0  0  0  0
   -0.0785   -0.4642    1.1533 C   0  0  0  0  0  0  0  0  0  0  0  0
    1.0872   -0.3747    1.5165 O   0  0  0  0  0  0  0  0  0  0  0  0
   -1.0615    0.1554    1.9049 N   0  0  0  0  0  0  0  0  0  0  0  0
   -2.0188   -0.0361    1.6287 H   0  0  0  0  0  0  0  0  0  0  0  0
   -0.8133    0.6936    3.2364 C   0  0  0  0  0  0  0  0  0  0  0  0
   -0.0368    1.4649    3.1999 H   0  0  0  0  0  0  0  0  0  0  0  0
   -1.7258    1.1436    3.6388 H   0  0  0  0  0  0  0  0  0  0  0  0
   -0.4882   -0.1016    3.9157 H   0  0  0  0  0  0  0  0  0  0  0  0
  1  2  1  0  0  0  0
  2  3  1  0  0  0  0
  2  4  1  0  0  0  0
  2  5  1  0  0  0  0
  5  6  2  0  0  0  0
  5  7  1  0  0  0  0
  7  8  1  0  0  0  0
  7  9  1  0  0  0  0
  9 10  1  0  0  0  0
  9 11  1  0  0  0  0
  9 26  1  0  0  0  0
 11 12  1  0  0  0  0
 11 13  1  0  0  0  0
 11 14  1  0  0  0  0
 14 15  2  0  0  0  0
 14 24  1  0  0  0  0
 15 16  1  0  0  0  0
 15 17  1  0  0  0  0
 17 18  1  0  0  0  0
 17 19  2  0  0  0  0
 19 20  1  0  0  0  0
 19 22  1  0  0  0  0
 20 21  1  0  0  0  0
 22 23  1  0  0  0  0
 22 24  2  0  0  0  0
 24 25  1  0  0  0  0
 26 27  2  0  0  0  0
 26 28  1  0  0  0  0
 28 29  1  0  0  0  0
 28 30  1  0  0  0  0
 30 31  1  0  0  0  0
 30 32  1  0  0  0  0
 30 33  1  0  0  0  0
M  END
$$$$

  -OEChem-03222214083D

 33 33  0     1  0  0  0  0  0999 V2000
   -3.2733   -4.5724    0.7654 H   0  0  0  0  0  0  0  0  0  0  0  0
   -3.2270   -3.6794    0.1353 C   0  0  0  0  0  0  0  0  0  0  0  0
   -4.1027   -3.0591    0.3400 H   0  0  0  0  0  0  0  0  0  0  0  0
   -3.2438   -3.9896   -0.9123 H   0  0  0  0  0  0  0  0  0  0  0  0
   -1.9581   -2.8999    0.4276 C   0  0  0  0  0  0  0  0  0  0  0  0
   -1.2092   -3.2751    1.3108 O   0  0  0  0  0  0  0  0  0  0  0  0
   -1.6675   -1.7665   -0.3082 N   0  0  0  0  0  0  0  0  0  0  0  0
   -2.2800   -1.5738   -1.0947 H   0  0  0  0  0  0  0  0  0  0  0  0
   -0.3909   -1.0260   -0.2255 C   0  0  1  0  0  0  0  0  0  0  0  0
    0.4162   -1.7221   -0.4813 H   0  0  0  0  0  0  0  0  0  0  0  0
   -0.4238    0.1167   -1.2691 C   0  0  0  0  0  0  0  0  0  0  0  0
   -1.2528   -0.0422   -1.9654 H   0  0  0  0  0  0  0  0  0  0  0  0
   -0.6139    1.0729   -0.7697 H   0  0  0  0  0  0  0  0  0  0  0  0
    0.8612    0.2284   -2.0629 C   0  0  0  0  0  0  0  0  0  0  0  0
    2.0915    0.4800   -1.4339 C   0  0  0  0  0  0  0  0  0  0  0  0
    2.1453    0.6235   -0.3593 H   0  0  0  0  0  0  0  0  0  0  0  0
    3.2716    0.5603   -2.1817 C   0  0  0  0  0  0  0  0  0  0  0  0
    4.2085    0.7547   -1.6708 H   0  0  0  0  0  0  0  0  0  0  0  0
    3.2396    0.3905   -3.5664 C   0  0  0  0  0  0  0  0  0  0  0  0
    4.3860    0.4670   -4.3027 O   0  0  0  0  0  0  0  0  0  0  0  0
    5.1429    0.6261   -3.7176 H   0  0  0  0  0  0  0  0  0  0  0  0
    2.0250    0.1405   -4.2003 C   0  0  0  0  0  0  0  0  0  0  0  0
    2.0105    0.0081   -5.2770 H   0  0  0  0  0  0  0  0  0  0  0  0
    0.8422    0.0584   -3.4572 C   0  0  0  0  0  0  0  0  0  0  0  0
   -0.0903   -0.1419   -3.9755 H   0  0  0  0  0  0  0  0  0  0  0  0
   -0.0841   -0.4753    1.1877 C   0  0  0  0  0  0  0  0  0  0  0  0
    1.0656   -0.4393    1.6064 O   0  0  0  0  0  0  0  0  0  0  0  0
   -1.0802    0.1556    1.9120 N   0  0  0  0  0  0  0  0  0  0  0  0
   -2.0306   -0.0043    1.5950 H   0  0  0  0  0  0  0  0  0  0  0  0
   -0.8698    0.6662    3.2609 C   0  0  0  0  0  0  0  0  0  0  0  0
   -0.0692    1.4134    3.2682 H   0  0  0  0  0  0  0  0  0  0  0  0
   -1.7837    1.1384    3.6335 H   0  0  0  0  0  0  0  0  0  0  0  0
   -0.5969   -0.1491    3.9392 H   0  0  0  0  0  0  0  0  0  0  0  0
  1  2  1  0  0  0  0
  2  3  1  0  0  0  0
  2  4  1  0  0  0  0
  2  5  1  0  0  0  0
  5  6  2  0  0  0  0
  5  7  1  0  0  0  0
  7  8  1  0  0  0  0
  7  9  1  0  0  0  0
  9 10  1  0  0  0  0
  9 11  1  0  0  0  0
  9 26  1  0  0  0  0
 11 12  1  0  0  0  0
 11 13  1  0  0  0  0
 11 14  1  0  0  0  0
 14 15  2  0  0  0  0
 14 24  1  0  0  0  0
 15 16  1  0  0  0  0
 15 17  1  0  0  0  0
 17 18  1  0  0  0  0
 17 19  2  0  0  0  0
 19 20  1  0  0  0  0
 19 22  1  0  0  0  0
 20 21  1  0  0  0  0
 22 23  1  0  0  0  0
 22 24  2  0  0  0  0
 24 25  1  0  0  0  0
 26 27  2  0  0  0  0
 26 28  1  0  0  0  0
 28 29  1  0  0  0  0
 28 30  1  0  0  0  0
 30 31  1  0  0  0  0
 30 32  1  0  0  0  0
 30 33  1  0  0  0  0
M  END
$$$$

  -OEChem-03222214083D

 33 33  0     1  0  0  0  0  0999 V2000
   -3.3210   -4.5514    0.7866 H   0  0  0  0  0  0  0  0  0  0  0  0
   -3.2562   -3.6617    0.1537 C   0  0  0  0  0  0  0  0  0  0  0  0
   -4.1235   -3.0267    0.3490 H   0  0  0  0  0  0  0  0  0  0  0  0
   -3.2694   -3.9750   -0.8930 H   0  0  0  0  0  0  0  0  0  0  0  0
   -1.9776   -2.9014    0.4526 C   0  0  0  0  0  0  0  0  0  0  0  0
   -1.2453   -3.2796    1.3485 O   0  0  0  0  0  0  0  0  0  0  0  0
   -1.6595   -1.7827   -0.2939 N   0  0  0  0  0  0  0  0  0  0  0  0
   -2.2588   -1.5912   -1.0909 H   0  0  0  0  0  0  0  0  0  0  0  0
   -0.3743   -1.0581   -0.2018 C   0  0  1  0  0  0  0  0  0  0  0  0
    0.4266   -1.7676   -0.4382 H   0  0  0  0  0  0  0  0  0  0  0  0
   -0.3822    0.0788   -1.2547 C   0  0  0  0  0  0  0  0  0  0  0  0
   -1.2097   -0.0823   -1.9526 H   0  0  0  0  0  0  0  0  0  0  0  0
   -0.5718    1.0379   -0.7613 H   0  0  0  0  0  0  0  0  0  0  0  0
    0.8999    0.1993   -2.0579 C   0  0  0  0  0  0  0  0  0  0  0  0
    2.1723    0.1464   -1.4615 C   0  0  0  0  0  0  0  0  0  0  0  0
    2.2840    0.0262   -0.3894 H   0  0  0  0  0  0  0  0  0  0  0  0
    3.3311    0.2575   -2.2382 C   0  0  0  0  0  0  0  0  0  0  0  0
    4.2995    0.2139   -1.7515 H   0  0  0  0  0  0  0  0  0  0  0  0
    3.2389    0.4250   -3.6199 C   0  0  0  0  0  0  0  0  0  0  0  0
    4.3644    0.5362   -4.3837 O   0  0  0  0  0  0  0  0  0  0  0  0
    5.1515    0.4865   -3.8193 H   0  0  0  0  0  0  0  0  0  0  0  0
    1.9851    0.4827   -4.2222 C   0  0  0  0  0  0  0  0  0  0  0  0
    1.9216    0.6153   -5.2972 H   0  0  0  0  0  0  0  0  0  0  0  0
    0.8234    0.3720   -3.4504 C   0  0  0  0  0  0  0  0  0  0  0  0
   -0.1410    0.4217   -3.9465 H   0  0  0  0  0  0  0  0  0  0  0  0
   -0.0917   -0.4953    1.2129 C   0  0  0  0  0  0  0  0  0  0  0  0
    1.0454   -0.4806    1.6652 O   0  0  0  0  0  0  0  0  0  0  0  0
   -1.0969    0.1548    1.9070 N   0  0  0  0  0  0  0  0  0  0  0  0
   -2.0404    0.0095    1.5638 H   0  0  0  0  0  0  0  0  0  0  0  0
   -0.9168    0.6669    3.2596 C   0  0  0  0  0  0  0  0  0  0  0  0
   -0.1065    1.4030    3.2863 H   0  0  0  0  0  0  0  0  0  0  0  0
   -1.8338    1.1527    3.6061 H   0  0  0  0  0  0  0  0  0  0  0  0
   -0.6740   -0.1497    3.9477 H   0  0  0  0  0  0  0  0  0  0  0  0
  1  2  1  0  0  0  0
  2  3  1  0  0  0  0
  2  4  1  0  0  0  0
  2  5  1  0  0  0  0
  5  6  2  0  0  0  0
  5  7  1  0  0  0  0
  7  8  1  0  0  0  0
  7  9  1  0  0  0  0
  9 10  1  0  0  0  0
  9 11  1  0  0  0  0
  9 26  1  0  0  0  0
 11 12  1  0  0  0  0
 11 13  1  0  0  0  0
 11 14  1  0  0  0  0
 14 15  2  0  0  0  0
 14 24  1  0  0  0  0
 15 16  1  0  0  0  0
 15 17  1  0  0  0  0
 17 18  1  0  0  0  0
 17 19  2  0  0  0  0
 19 20  1  0  0  0  0
 19 22  1  0  0  0  0
 20 21  1  0  0  0  0
 22 23  1  0  0  0  0
 22 24  2  0  0  0  0
 24 25  1  0  0  0  0
 26 27  2  0  0  0  0
 26 28  1  0  0  0  0
 28 29  1  0  0  0  0
 28 30  1  0  0  0  0
 30 31  1  0  0  0  0
 30 32  1  0  0  0  0
 30 33  1  0  0  0  0
M  END
$$$$

  -OEChem-03222214083D

 33 33  0     1  0  0  0  0  0999 V2000
   -3.3631   -4.5570    0.7837 H   0  0  0  0  0  0  0  0  0  0  0  0
   -3.2858   -3.6749    0.1416 C   0  0  0  0  0  0  0  0  0  0  0  0
   -4.1535   -3.0346    0.3171 H   0  0  0  0  0  0  0  0  0  0  0  0
   -3.2848   -4.0001   -0.9015 H   0  0  0  0  0  0  0  0  0  0  0  0
   -2.0093   -2.9153    0.4504 C   0  0  0  0  0  0  0  0  0  0  0  0
   -1.2847   -3.2925    1.3531 O   0  0  0  0  0  0  0  0  0  0  0  0
   -1.6827   -1.7978   -0.2939 N   0  0  0  0  0  0  0  0  0  0  0  0
   -2.2729   -1.6063   -1.0977 H   0  0  0  0  0  0  0  0  0  0  0  0
   -0.3948   -1.0807   -0.1925 C   0  0  1  0  0  0  0  0  0  0  0  0
    0.3902   -1.8091   -0.4209 H   0  0  0  0  0  0  0  0  0  0  0  0
   -0.3763    0.0512   -1.2510 C   0  0  0  0  0  0  0  0  0  0  0  0
   -1.1914   -0.1164   -1.9622 H   0  0  0  0  0  0  0  0  0  0  0  0
   -0.5768    1.0111   -0.7637 H   0  0  0  0  0  0  0  0  0  0  0  0
    0.9090    0.1802   -2.0507 C   0  0  0  0  0  0  0  0  0  0  0  0
    2.1745   -0.1638   -1.5383 C   0  0  0  0  0  0  0  0  0  0  0  0
    2.2925   -0.5301   -0.5235 H   0  0  0  0  0  0  0  0  0  0  0  0
    3.3249   -0.0275   -2.3235 C   0  0  0  0  0  0  0  0  0  0  0  0
    4.2868   -0.2989   -1.9021 H   0  0  0  0  0  0  0  0  0  0  0  0
    3.2340    0.4558   -3.6287 C   0  0  0  0  0  0  0  0  0  0  0  0
    4.3517    0.5916   -4.3998 O   0  0  0  0  0  0  0  0  0  0  0  0
    5.1352    0.3255   -3.8941 H   0  0  0  0  0  0  0  0  0  0  0  0
    1.9898    0.8053   -4.1456 C   0  0  0  0  0  0  0  0  0  0  0  0
    1.9282    1.1837   -5.1606 H   0  0  0  0  0  0  0  0  0  0  0  0
    0.8364    0.6717   -3.3652 C   0  0  0  0  0  0  0  0  0  0  0  0
   -0.1206    0.9555   -3.7922 H   0  0  0  0  0  0  0  0  0  0  0  0
   -0.0974   -0.5126    1.2158 C   0  0  0  0  0  0  0  0  0  0  0  0
    1.0490   -0.4853    1.6439 O   0  0  0  0  0  0  0  0  0  0  0  0
   -1.0903    0.1510    1.9146 N   0  0  0  0  0  0  0  0  0  0  0  0
   -2.0399    0.0049    1.5891 H   0  0  0  0  0  0  0  0  0  0  0  0
   -0.8837    0.7014    3.2484 C   0  0  0  0  0  0  0  0  0  0  0  0
   -0.0745    1.4394    3.2378 H   0  0  0  0  0  0  0  0  0  0  0  0
   -1.7945    1.1958    3.5993 H   0  0  0  0  0  0  0  0  0  0  0  0
   -0.6253   -0.0949    3.9546 H   0  0  0  0  0  0  0  0  0  0  0  0
  1  2  1  0  0  0  0
  2  3  1  0  0  0  0
  2  4  1  0  0  0  0
  2  5  1  0  0  0  0
  5  6  2  0  0  0  0
  5  7  1  0  0  0  0
  7  8  1  0  0  0  0
  7  9  1  0  0  0  0
  9 10  1  0  0  0  0
  9 11  1  0  0  0  0
  9 26  1  0  0  0  0
 11 12  1  0  0  0  0
 11 13  1  0  0  0  0
 11 14  1  0  0  0  0
 14 15  2  0  0  0  0
 14 24  1  0  0  0  0
 15 16  1  0  0  0  0
 15 17  1  0  0  0  0
 17 18  1  0  0  0  0
 17 19  2  0  0  0  0
 19 20  1  0  0  0  0
 19 22  1  0  0  0  0
 20 21  1  0  0  0  0
 22 23  1  0  0  0  0
 22 24  2  0  0  0  0
 24 25  1  0  0  0  0
 26 27  2  0  0  0  0
 26 28  1  0  0  0  0
 28 29  1  0  0  0  0
 28 30  1  0  0  0  0
 30 31  1  0  0  0  0
 30 32  1  0  0  0  0
 30 33  1  0  0  0  0
M  END
$$$$

  -OEChem-03222214083D

 33 33  0     1  0  0  0  0  0999 V2000
   -3.3930   -4.5681    0.7661 H   0  0  0  0  0  0  0  0  0  0  0  0
   -3.3173   -3.6822    0.1289 C   0  0  0  0  0  0  0  0  0  0  0  0
   -4.1832   -3.0419    0.3129 H   0  0  0  0  0  0  0  0  0  0  0  0
   -3.3224   -4.0014   -0.9162 H   0  0  0  0  0  0  0  0  0  0  0  0
   -2.0383   -2.9260    0.4362 C   0  0  0  0  0  0  0  0  0  0  0  0
   -1.3100   -3.3080    1.3341 O   0  0  0  0  0  0  0  0  0  0  0  0
   -1.7132   -1.8026   -0.2997 N   0  0  0  0  0  0  0  0  0  0  0  0
   -2.3067   -1.5988   -1.0983 H   0  0  0  0  0  0  0  0  0  0  0  0
   -0.4267   -1.0855   -0.1871 C   0  0  1  0  0  0  0  0  0  0  0  0
    0.3366   -1.8370   -0.4047 H   0  0  0  0  0  0  0  0  0  0  0  0
   -0.3766    0.0346   -1.2567 C   0  0  0  0  0  0  0  0  0  0  0  0
   -1.1733   -0.1438   -1.9857 H   0  0  0  0  0  0  0  0  0  0  0  0
   -0.5947    0.9970   -0.7815 H   0  0  0  0  0  0  0  0  0  0  0  0
    0.9179    0.1730   -2.0430 C   0  0  0  0  0  0  0  0  0  0  0  0
    2.1397   -0.4201   -1.6651 C   0  0  0  0  0  0  0  0  0  0  0  0
    2.2405   -0.9823   -0.7416 H   0  0  0  0  0  0  0  0  0  0  0  0
    3.2837   -0.2670   -2.4568 C   0  0  0  0  0  0  0  0  0  0  0  0
    4.2122   -0.7280   -2.1379 H   0  0  0  0  0  0  0  0  0  0  0  0
    3.2314    0.4768   -3.6353 C   0  0  0  0  0  0  0  0  0  0  0  0
    4.3441    0.6308   -4.4105 O   0  0  0  0  0  0  0  0  0  0  0  0
    5.1011    0.1933   -3.9907 H   0  0  0  0  0  0  0  0  0  0  0  0
    2.0327    1.0717   -4.0181 C   0  0  0  0  0  0  0  0  0  0  0  0
    2.0012    1.6530   -4.9338 H   0  0  0  0  0  0  0  0  0  0  0  0
    0.8864    0.9235   -3.2302 C   0  0  0  0  0  0  0  0  0  0  0  0
   -0.0364    1.3979   -3.5506 H   0  0  0  0  0  0  0  0  0  0  0  0
   -0.1041   -0.5161    1.2116 C   0  0  0  0  0  0  0  0  0  0  0  0
    1.0552   -0.4824    1.6035 O   0  0  0  0  0  0  0  0  0  0  0  0
   -1.0801    0.1546    1.9267 N   0  0  0  0  0  0  0  0  0  0  0  0
   -2.0372    0.0080    1.6237 H   0  0  0  0  0  0  0  0  0  0  0  0
   -0.8419    0.7147    3.2509 C   0  0  0  0  0  0  0  0  0  0  0  0
   -0.0260    1.4446    3.2184 H   0  0  0  0  0  0  0  0  0  0  0  0
   -1.7410    1.2212    3.6143 H   0  0  0  0  0  0  0  0  0  0  0  0
   -0.5774   -0.0778    3.9590 H   0  0  0  0  0  0  0  0  0  0  0  0
  1  2  1  0  0  0  0
  2  3  1  0  0  0  0
  2  4  1  0  0  0  0
  2  5  1  0  0  0  0
  5  6  2  0  0  0  0
  5  7  1  0  0  0  0
  7  8  1  0  0  0  0
  7  9  1  0  0  0  0
  9 10  1  0  0  0  0
  9 11  1  0  0  0  0
  9 26  1  0  0  0  0
 11 12  1  0  0  0  0
 11 13  1  0  0  0  0
 11 14  1  0  0  0  0
 14 15  2  0  0  0  0
 14 24  1  0  0  0  0
 15 16  1  0  0  0  0
 15 17  1  0  0  0  0
 17 18  1  0  0  0  0
 17 19  2  0  0  0  0
 19 20  1  0  0  0  0
 19 22  1  0  0  0  0
 20 21  1  0  0  0  0
 22 23  1  0  0  0  0
 22 24  2  0  0  0  0
 24 25  1  0  0  0  0
 26 27  2  0  0  0  0
 26 28  1  0  0  0  0
 28 29  1  0  0  0  0
 28 30  1  0  0  0  0
 30 31  1  0  0  0  0
 30 32  1  0  0  0  0
 30 33  1  0  0  0  0
M  END
$$$$

  -OEChem-03222214083D

 33 33  0     1  0  0  0  0  0999 V2000
   -3.4482   -4.5501    0.7741 H   0  0  0  0  0  0  0  0  0  0  0  0
   -3.3599   -3.6650    0.1373 C   0  0  0  0  0  0  0  0  0  0  0  0
   -4.2160   -3.0119    0.3227 H   0  0  0  0  0  0  0  0  0  0  0  0
   -3.3712   -3.9831   -0.9079 H   0  0  0  0  0  0  0  0  0  0  0  0
   -2.0686   -2.9292    0.4439 C   0  0  0  0  0  0  0  0  0  0  0  0
   -1.3476   -3.3196    1.3440 O   0  0  0  0  0  0  0  0  0  0  0  0
   -1.7236   -1.8138   -0.2949 N   0  0  0  0  0  0  0  0  0  0  0  0
   -2.3156   -1.5973   -1.0910 H   0  0  0  0  0  0  0  0  0  0  0  0
   -0.4315   -1.1088   -0.1737 C   0  0  1  0  0  0  0  0  0  0  0  0
    0.3186   -1.8761   -0.3667 H   0  0  0  0  0  0  0  0  0  0  0  0
   -0.3552   -0.0015   -1.2554 C   0  0  0  0  0  0  0  0  0  0  0  0
   -1.1433   -0.1831   -1.9930 H   0  0  0  0  0  0  0  0  0  0  0  0
   -0.5791    0.9636   -0.7880 H   0  0  0  0  0  0  0  0  0  0  0  0
    0.9395    0.1412   -2.0435 C   0  0  0  0  0  0  0  0  0  0  0  0
    2.0898   -0.6567   -1.8681 C   0  0  0  0  0  0  0  0  0  0  0  0
    2.1577   -1.4178   -1.0990 H   0  0  0  0  0  0  0  0  0  0  0  0
    3.2226   -0.4638   -2.6679 C   0  0  0  0  0  0  0  0  0  0  0  0
    4.0968   -1.0847   -2.5045 H   0  0  0  0  0  0  0  0  0  0  0  0
    3.2311    0.5202   -3.6557 C   0  0  0  0  0  0  0  0  0  0  0  0
    4.3334    0.7148   -4.4366 O   0  0  0  0  0  0  0  0  0  0  0  0
    5.0500    0.1287   -4.1481 H   0  0  0  0  0  0  0  0  0  0  0  0
    2.1040    1.3145   -3.8400 C   0  0  0  0  0  0  0  0  0  0  0  0
    2.1181    2.0805   -4.6082 H   0  0  0  0  0  0  0  0  0  0  0  0
    0.9703    1.1287   -3.0426 C   0  0  0  0  0  0  0  0  0  0  0  0
    0.1044    1.7630   -3.2073 H   0  0  0  0  0  0  0  0  0  0  0  0
   -0.1081   -0.5302    1.2196 C   0  0  0  0  0  0  0  0  0  0  0  0
    1.0513   -0.5051    1.6109 O   0  0  0  0  0  0  0  0  0  0  0  0
   -1.0777    0.1588    1.9260 N   0  0  0  0  0  0  0  0  0  0  0  0
   -2.0360    0.0195    1.6236 H   0  0  0  0  0  0  0  0  0  0  0  0
   -0.8349    0.7258    3.2465 C   0  0  0  0  0  0  0  0  0  0  0  0
   -0.0053    1.4401    3.2114 H   0  0  0  0  0  0  0  0  0  0  0  0
   -1.7258    1.2520    3.6020 H   0  0  0  0  0  0  0  0  0  0  0  0
   -0.5882   -0.0657    3.9619 H   0  0  0  0  0  0  0  0  0  0  0  0
  1  2  1  0  0  0  0
  2  3  1  0  0  0  0
  2  4  1  0  0  0  0
  2  5  1  0  0  0  0
  5  6  2  0  0  0  0
  5  7  1  0  0  0  0
  7  8  1  0  0  0  0
  7  9  1  0  0  0  0
  9 10  1  0  0  0  0
  9 11  1  0  0  0  0
  9 26  1  0  0  0  0
 11 12  1  0  0  0  0
 11 13  1  0  0  0  0
 11 14  1  0  0  0  0
 14 15  2  0  0  0  0
 14 24  1  0  0  0  0
 15 16  1  0  0  0  0
 15 17  1  0  0  0  0
 17 18  1  0  0  0  0
 17 19  2  0  0  0  0
 19 20  1  0  0  0  0
 19 22  1  0  0  0  0
 20 21  1  0  0  0  0
 22 23  1  0  0  0  0
 22 24  2  0  0  0  0
 24 25  1  0  0  0  0
 26 27  2  0  0  0  0
 26 28  1  0  0  0  0
 28 29  1  0  0  0  0
 28 30  1  0  0  0  0
 30 31  1  0  0  0  0
 30 32  1  0  0  0  0
 30 33  1  0  0  0  0
M  END
$$$$

  -OEChem-03222214083D

 33 33  0     1  0  0  0  0  0999 V2000
   -3.4812   -4.5276    0.8179 H   0  0  0  0  0  0  0  0  0  0  0  0
   -3.3803   -3.6543    0.1671 C   0  0  0  0  0  0  0  0  0  0  0  0
   -4.2270   -2.9860    0.3414 H   0  0  0  0  0  0  0  0  0  0  0  0
   -3.3957   -3.9891   -0.8729 H   0  0  0  0  0  0  0  0  0  0  0  0
   -2.0790   -2.9318    0.4618 C   0  0  0  0  0  0  0  0  0  0  0  0
   -1.3577   -3.3261    1.3598 O   0  0  0  0  0  0  0  0  0  0  0  0
   -1.7230   -1.8280   -0.2889 N   0  0  0  0  0  0  0  0  0  0  0  0
   -2.3189   -1.6075   -1.0813 H   0  0  0  0  0  0  0  0  0  0  0  0
   -0.4240   -1.1339   -0.1777 C   0  0  1  0  0  0  0  0  0  0  0  0
    0.3298   -1.8993   -0.3569 H   0  0  0  0  0  0  0  0  0  0  0  0
   -0.3535   -0.0247   -1.2597 C   0  0  0  0  0  0  0  0  0  0  0  0
   -1.1493   -0.1991   -1.9902 H   0  0  0  0  0  0  0  0  0  0  0  0
   -0.5715    0.9382   -0.7852 H   0  0  0  0  0  0  0  0  0  0  0  0
    0.9293    0.1162   -2.0681 C   0  0  0  0  0  0  0  0  0  0  0  0
    1.9577   -0.8472   -2.1407 C   0  0  0  0  0  0  0  0  0  0  0  0
    1.9164   -1.7860   -1.6022 H   0  0  0  0  0  0  0  0  0  0  0  0
    3.0975   -0.6196   -2.9221 C   0  0  0  0  0  0  0  0  0  0  0  0
    3.8768   -1.3732   -2.9551 H   0  0  0  0  0  0  0  0  0  0  0  0
    3.2330    0.5633   -3.6475 C   0  0  0  0  0  0  0  0  0  0  0  0
    4.3429    0.7919   -4.4081 O   0  0  0  0  0  0  0  0  0  0  0  0
    4.9793    0.0702   -4.2890 H   0  0  0  0  0  0  0  0  0  0  0  0
    2.2247    1.5195   -3.5907 C   0  0  0  0  0  0  0  0  0  0  0  0
    2.3363    2.4391   -4.1557 H   0  0  0  0  0  0  0  0  0  0  0  0
    1.0856    1.2998   -2.8097 C   0  0  0  0  0  0  0  0  0  0  0  0
    0.3156    2.0650   -2.7811 H   0  0  0  0  0  0  0  0  0  0  0  0
   -0.1016   -0.5460    1.2130 C   0  0  0  0  0  0  0  0  0  0  0  0
    1.0553   -0.5269    1.6111 O   0  0  0  0  0  0  0  0  0  0  0  0
   -1.0683    0.1568    1.9104 N   0  0  0  0  0  0  0  0  0  0  0  0
   -2.0267    0.0253    1.6051 H   0  0  0  0  0  0  0  0  0  0  0  0
   -0.8239    0.7431    3.2223 C   0  0  0  0  0  0  0  0  0  0  0  0
    0.0076    1.4545    3.1758 H   0  0  0  0  0  0  0  0  0  0  0  0
   -1.7132    1.2769    3.5706 H   0  0  0  0  0  0  0  0  0  0  0  0
   -0.5788   -0.0381    3.9495 H   0  0  0  0  0  0  0  0  0  0  0  0
  1  2  1  0  0  0  0
  2  3  1  0  0  0  0
  2  4  1  0  0  0  0
  2  5  1  0  0  0  0
  5  6  2  0  0  0  0
  5  7  1  0  0  0  0
  7  8  1  0  0  0  0
  7  9  1  0  0  0  0
  9 10  1  0  0  0  0
  9 11  1  0  0  0  0
  9 26  1  0  0  0  0
 11 12  1  0  0  0  0
 11 13  1  0  0  0  0
 11 14  1  0  0  0  0
 14 15  2  0  0  0  0
 14 24  1  0  0  0  0
 15 16  1  0  0  0  0
 15 17  1  0  0  0  0
 17 18  1  0  0  0  0
 17 19  2  0  0  0  0
 19 20  1  0  0  0  0
 19 22  1  0  0  0  0
 20 21  1  0  0  0  0
 22 23  1  0  0  0  0
 22 24  2  0  0  0  0
 24 25  1  0  0  0  0
 26 27  2  0  0  0  0
 26 28  1  0  0  0  0
 28 29  1  0  0  0  0
 28 30  1  0  0  0  0
 30 31  1  0  0  0  0
 30 32  1  0  0  0  0
 30 33  1  0  0  0  0
M  END
$$$$

  -OEChem-03222214083D

 33 33  0     1  0  0  0  0  0999 V2000
   -3.4263   -4.5346    0.8510 H   0  0  0  0  0  0  0  0  0  0  0  0
   -3.3447   -3.6627    0.1955 C   0  0  0  0  0  0  0  0  0  0  0  0
   -4.1892   -2.9970    0.3887 H   0  0  0  0  0  0  0  0  0  0  0  0
   -3.3837   -4.0003   -0.8429 H   0  0  0  0  0  0  0  0  0  0  0  0
   -2.0391   -2.9353    0.4567 C   0  0  0  0  0  0  0  0  0  0  0  0
   -1.2886   -3.3329    1.3289 O   0  0  0  0  0  0  0  0  0  0  0  0
   -1.7107   -1.8259   -0.2981 N   0  0  0  0  0  0  0  0  0  0  0  0
   -2.3348   -1.5978   -1.0663 H   0  0  0  0  0  0  0  0  0  0  0  0
   -0.4188   -1.1150   -0.2112 C   0  0  1  0  0  0  0  0  0  0  0  0
    0.3576   -1.8561   -0.4050 H   0  0  0  0  0  0  0  0  0  0  0  0
   -0.3915    0.0095   -1.2788 C   0  0  0  0  0  0  0  0  0  0  0  0
   -1.1985   -0.1623   -1.9976 H   0  0  0  0  0  0  0  0  0  0  0  0
   -0.6088    0.9651   -0.7895 H   0  0  0  0  0  0  0  0  0  0  0  0
    0.8818    0.1472   -2.0988 C   0  0  0  0  0  0  0  0  0  0  0  0
    1.7351   -0.9280   -2.4189 C   0  0  0  0  0  0  0  0  0  0  0  0
    1.5138   -1.9444   -2.1128 H   0  0  0  0  0  0  0  0  0  0  0  0
    2.9000   -0.7183   -3.1668 C   0  0  0  0  0  0  0  0  0  0  0  0
    3.5423   -1.5611   -3.3972 H   0  0  0  0  0  0  0  0  0  0  0  0
    3.2317    0.5613   -3.6119 C   0  0  0  0  0  0  0  0  0  0  0  0
    4.3671    0.7735   -4.3389 O   0  0  0  0  0  0  0  0  0  0  0  0
    4.8819   -0.0463   -4.3943 H   0  0  0  0  0  0  0  0  0  0  0  0
    2.3941    1.6304   -3.3093 C   0  0  0  0  0  0  0  0  0  0  0  0
    2.6585    2.6237   -3.6564 H   0  0  0  0  0  0  0  0  0  0  0  0
    1.2313    1.4278   -2.5591 C   0  0  0  0  0  0  0  0  0  0  0  0
    0.6010    2.2819   -2.3303 H   0  0  0  0  0  0  0  0  0  0  0  0
   -0.0901   -0.5301    1.1801 C   0  0  0  0  0  0  0  0  0  0  0  0
    1.0694   -0.4931    1.5692 O   0  0  0  0  0  0  0  0  0  0  0  0
   -1.0617    0.1530    1.8905 N   0  0  0  0  0  0  0  0  0  0  0  0
   -2.0203    0.0067    1.5929 H   0  0  0  0  0  0  0  0  0  0  0  0
   -0.8164    0.7281    3.2071 C   0  0  0  0  0  0  0  0  0  0  0  0
    0.0028    1.4536    3.1626 H   0  0  0  0  0  0  0  0  0  0  0  0
   -1.7115    1.2430    3.5685 H   0  0  0  0  0  0  0  0  0  0  0  0
   -0.5531   -0.0573    3.9232 H   0  0  0  0  0  0  0  0  0  0  0  0
  1  2  1  0  0  0  0
  2  3  1  0  0  0  0
  2  4  1  0  0  0  0
  2  5  1  0  0  0  0
  5  6  2  0  0  0  0
  5  7  1  0  0  0  0
  7  8  1  0  0  0  0
  7  9  1  0  0  0  0
  9 10  1  0  0  0  0
  9 11  1  0  0  0  0
  9 26  1  0  0  0  0
 11 12  1  0  0  0  0
 11 13  1  0  0  0  0
 11 14  1  0  0  0  0
 14 15  2  0  0  0  0
 14 24  1  0  0  0  0
 15 16  1  0  0  0  0
 15 17  1  0  0  0  0
 17 18  1  0  0  0  0
 17 19  2  0  0  0  0
 19 20  1  0  0  0  0
 19 22  1  0  0  0  0
 20 21  1  0  0  0  0
 22 23  1  0  0  0  0
 22 24  2  0  0  0  0
 24 25  1  0  0  0  0
 26 27  2  0  0  0  0
 26 28  1  0  0  0  0
 28 29  1  0  0  0  0
 28 30  1  0  0  0  0
 30 31  1  0  0  0  0
 30 32  1  0  0  0  0
 30 33  1  0  0  0  0
M  END
$$$$

  -OEChem-03222214083D

 33 33  0     1  0  0  0  0  0999 V2000
   -3.3350   -4.5624    0.8352 H   0  0  0  0  0  0  0  0  0  0  0  0
   -3.2819   -3.6816    0.1886 C   0  0  0  0  0  0  0  0  0  0  0  0
   -4.1299   -3.0300    0.4122 H   0  0  0  0  0  0  0  0  0  0  0  0
   -3.3442   -4.0070   -0.8525 H   0  0  0  0  0  0  0  0  0  0  0  0
   -1.9802   -2.9387    0.4243 C   0  0  0  0  0  0  0  0  0  0  0  0
   -1.2000   -3.3372    1.2695 O   0  0  0  0  0  0  0  0  0  0  0  0
   -1.6927   -1.8103   -0.3189 N   0  0  0  0  0  0  0  0  0  0  0  0
   -2.3432   -1.5780   -1.0634 H   0  0  0  0  0  0  0  0  0  0  0  0
   -0.4179   -1.0677   -0.2456 C   0  0  1  0  0  0  0  0  0  0  0  0
    0.3814   -1.7782   -0.4726 H   0  0  0  0  0  0  0  0  0  0  0  0
   -0.4379    0.0735   -1.2931 C   0  0  0  0  0  0  0  0  0  0  0  0
   -1.2462   -0.1039   -2.0091 H   0  0  0  0  0  0  0  0  0  0  0  0
   -0.6644    1.0217   -0.7935 H   0  0  0  0  0  0  0  0  0  0  0  0
    0.8372    0.2091   -2.1029 C   0  0  0  0  0  0  0  0  0  0  0  0
    1.4940   -0.9033   -2.6602 C   0  0  0  0  0  0  0  0  0  0  0  0
    1.0885   -1.9034   -2.5426 H   0  0  0  0  0  0  0  0  0  0  0  0
    2.6777   -0.7418   -3.3899 C   0  0  0  0  0  0  0  0  0  0  0  0
    3.1683   -1.6131   -3.8098 H   0  0  0  0  0  0  0  0  0  0  0  0
    3.2216    0.5300   -3.5749 C   0  0  0  0  0  0  0  0  0  0  0  0
    4.3765    0.6970   -4.2828 O   0  0  0  0  0  0  0  0  0  0  0  0
    4.7462   -0.1668   -4.5211 H   0  0  0  0  0  0  0  0  0  0  0  0
    2.5787    1.6381   -3.0295 C   0  0  0  0  0  0  0  0  0  0  0  0
    3.0108    2.6230   -3.1727 H   0  0  0  0  0  0  0  0  0  0  0  0
    1.3967    1.4823   -2.2972 C   0  0  0  0  0  0  0  0  0  0  0  0
    0.9213    2.3619   -1.8734 H   0  0  0  0  0  0  0  0  0  0  0  0
   -0.0835   -0.4973    1.1507 C   0  0  0  0  0  0  0  0  0  0  0  0
    1.0799   -0.4292    1.5229 O   0  0  0  0  0  0  0  0  0  0  0  0
   -1.0631    0.1473    1.8858 N   0  0  0  0  0  0  0  0  0  0  0  0
   -2.0214   -0.0225    1.5999 H   0  0  0  0  0  0  0  0  0  0  0  0
   -0.8165    0.7012    3.2112 C   0  0  0  0  0  0  0  0  0  0  0  0
   -0.0141    1.4455    3.1730 H   0  0  0  0  0  0  0  0  0  0  0  0
   -1.7194    1.1885    3.5912 H   0  0  0  0  0  0  0  0  0  0  0  0
   -0.5283   -0.0922    3.9089 H   0  0  0  0  0  0  0  0  0  0  0  0
  1  2  1  0  0  0  0
  2  3  1  0  0  0  0
  2  4  1  0  0  0  0
  2  5  1  0  0  0  0
  5  6  2  0  0  0  0
  5  7  1  0  0  0  0
  7  8  1  0  0  0  0
  7  9  1  0  0  0  0
  9 10  1  0  0  0  0
  9 11  1  0  0  0  0
  9 26  1  0  0  0  0
 11 12  1  0  0  0  0
 11 13  1  0  0  0  0
 11 14  1  0  0  0  0
 14 15  2  0  0  0  0
 14 24  1  0  0  0  0
 15 16  1  0  0  0  0
 15 17  1  0  0  0  0
 17 18  1  0  0  0  0
 17 19  2  0  0  0  0
 19 20  1  0  0  0  0
 19 22  1  0  0  0  0
 20 21  1  0  0  0  0
 22 23  1  0  0  0  0
 22 24  2  0  0  0  0
 24 25  1  0  0  0  0
 26 27  2  0  0  0  0
 26 28  1  0  0  0  0
 28 29  1  0  0  0  0
 28 30  1  0  0  0  0
 30 31  1  0  0  0  0
 30 32  1  0  0  0  0
 30 33  1  0  0  0  0
M  END
$$$$

  -OEChem-03222214083D

 33 33  0     1  0  0  0  0  0999 V2000
   -3.2551   -4.5941    0.7956 H   0  0  0  0  0  0  0  0  0  0  0  0
   -3.2264   -3.7081    0.1546 C   0  0  0  0  0  0  0  0  0  0  0  0
   -4.0907   -3.0804    0.3841 H   0  0  0  0  0  0  0  0  0  0  0  0
   -3.2828   -4.0286   -0.8884 H   0  0  0  0  0  0  0  0  0  0  0  0
   -1.9432   -2.9340    0.3921 C   0  0  0  0  0  0  0  0  0  0  0  0
   -1.1469   -3.3249    1.2257 O   0  0  0  0  0  0  0  0  0  0  0  0
   -1.6888   -1.7885   -0.3372 N   0  0  0  0  0  0  0  0  0  0  0  0
   -2.3525   -1.5589   -1.0706 H   0  0  0  0  0  0  0  0  0  0  0  0
   -0.4273   -1.0230   -0.2700 C   0  0  1  0  0  0  0  0  0  0  0  0
    0.3831   -1.7122   -0.5299 H   0  0  0  0  0  0  0  0  0  0  0  0
   -0.4774    0.1300   -1.2986 C   0  0  0  0  0  0  0  0  0  0  0  0
   -1.2860   -0.0453   -2.0148 H   0  0  0  0  0  0  0  0  0  0  0  0
   -0.7051    1.0742   -0.7918 H   0  0  0  0  0  0  0  0  0  0  0  0
    0.8048    0.2556   -2.0900 C   0  0  0  0  0  0  0  0  0  0  0  0
    1.2716   -0.8048   -2.8843 C   0  0  0  0  0  0  0  0  0  0  0  0
    0.7058   -1.7295   -2.9467 H   0  0  0  0  0  0  0  0  0  0  0  0
    2.4665   -0.6825   -3.6034 C   0  0  0  0  0  0  0  0  0  0  0  0
    2.8111   -1.5121   -4.2108 H   0  0  0  0  0  0  0  0  0  0  0  0
    3.2091    0.4980   -3.5348 C   0  0  0  0  0  0  0  0  0  0  0  0
    4.3766    0.6279   -4.2300 O   0  0  0  0  0  0  0  0  0  0  0  0
    4.6038   -0.2123   -4.6565 H   0  0  0  0  0  0  0  0  0  0  0  0
    2.7551    1.5516   -2.7444 C   0  0  0  0  0  0  0  0  0  0  0  0
    3.3420    2.4625   -2.6887 H   0  0  0  0  0  0  0  0  0  0  0  0
    1.5630    1.4339   -2.0216 C   0  0  0  0  0  0  0  0  0  0  0  0
    1.2365    2.2624   -1.3999 H   0  0  0  0  0  0  0  0  0  0  0  0
   -0.0811   -0.4674    1.1295 C   0  0  0  0  0  0  0  0  0  0  0  0
    1.0875   -0.3659    1.4773 O   0  0  0  0  0  0  0  0  0  0  0  0
   -1.0620    0.1470    1.8884 N   0  0  0  0  0  0  0  0  0  0  0  0
   -2.0208   -0.0486    1.6214 H   0  0  0  0  0  0  0  0  0  0  0  0
   -0.8026    0.6980    3.2126 C   0  0  0  0  0  0  0  0  0  0  0  0
   -0.0294    1.4721    3.1618 H   0  0  0  0  0  0  0  0  0  0  0  0
   -1.7128    1.1482    3.6201 H   0  0  0  0  0  0  0  0  0  0  0  0
   -0.4674   -0.0903    3.8949 H   0  0  0  0  0  0  0  0  0  0  0  0
  1  2  1  0  0  0  0
  2  3  1  0  0  0  0
  2  4  1  0  0  0  0
  2  5  1  0  0  0  0
  5  6  2  0  0  0  0
  5  7  1  0  0  0  0
  7  8  1  0  0  0  0
  7  9  1  0  0  0  0
  9 10  1  0  0  0  0
  9 11  1  0  0  0  0
  9 26  1  0  0  0  0
 11 12  1  0  0  0  0
 11 13  1  0  0  0  0
 11 14  1  0  0  0  0
 14 15  2  0  0  0  0
 14 24  1  0  0  0  0
 15 16  1  0  0  0  0
 15 17  1  0  0  0  0
 17 18  1  0  0  0  0
 17 19  2  0  0  0  0
 19 20  1  0  0  0  0
 19 22  1  0  0  0  0
 20 21  1  0  0  0  0
 22 23  1  0  0  0  0
 22 24  2  0  0  0  0
 24 25  1  0  0  0  0
 26 27  2  0  0  0  0
 26 28  1  0  0  0  0
 28 29  1  0  0  0  0
 28 30  1  0  0  0  0
 30 31  1  0  0  0  0
 30 32  1  0  0  0  0
 30 33  1  0  0  0  0
M  END
$$$$

  -OEChem-03222214083D

 33 33  0     1  0  0  0  0  0999 V2000
   -3.2048   -4.6124    0.7706 H   0  0  0  0  0  0  0  0  0  0  0  0
   -3.1914   -3.7224    0.1346 C   0  0  0  0  0  0  0  0  0  0  0  0
   -4.0645   -3.1093    0.3699 H   0  0  0  0  0  0  0  0  0  0  0  0
   -3.2448   -4.0373   -0.9104 H   0  0  0  0  0  0  0  0  0  0  0  0
   -1.9199   -2.9300    0.3736 C   0  0  0  0  0  0  0  0  0  0  0  0
   -1.1151   -3.3137    1.2024 O   0  0  0  0  0  0  0  0  0  0  0  0
   -1.6879   -1.7746   -0.3474 N   0  0  0  0  0  0  0  0  0  0  0  0
   -2.3586   -1.5506   -1.0760 H   0  0  0  0  0  0  0  0  0  0  0  0
   -0.4356   -0.9942   -0.2852 C   0  0  1  0  0  0  0  0  0  0  0  0
    0.3802   -1.6707   -0.5659 H   0  0  0  0  0  0  0  0  0  0  0  0
   -0.5036    0.1644   -1.3028 C   0  0  0  0  0  0  0  0  0  0  0  0
   -1.3149   -0.0079   -2.0169 H   0  0  0  0  0  0  0  0  0  0  0  0
   -0.7267    1.1082   -0.7930 H   0  0  0  0  0  0  0  0  0  0  0  0
    0.7836    0.2823   -2.0822 C   0  0  0  0  0  0  0  0  0  0  0  0
    1.0902   -0.6351   -3.0991 C   0  0  0  0  0  0  0  0  0  0  0  0
    0.3933   -1.4319   -3.3407 H   0  0  0  0  0  0  0  0  0  0  0  0
    2.2940   -0.5333   -3.8067 C   0  0  0  0  0  0  0  0  0  0  0  0
    2.5146   -1.2487   -4.5912 H   0  0  0  0  0  0  0  0  0  0  0  0
    3.2048    0.4803   -3.4997 C   0  0  0  0  0  0  0  0  0  0  0  0
    4.3826    0.5872   -4.1815 O   0  0  0  0  0  0  0  0  0  0  0  0
    4.4826   -0.1602   -4.7905 H   0  0  0  0  0  0  0  0  0  0  0  0
    2.9107    1.3861   -2.4823 C   0  0  0  0  0  0  0  0  0  0  0  0
    3.6289    2.1624   -2.2395 H   0  0  0  0  0  0  0  0  0  0  0  0
    1.7099    1.2881   -1.7712 C   0  0  0  0  0  0  0  0  0  0  0  0
    1.5083    1.9895   -0.9664 H   0  0  0  0  0  0  0  0  0  0  0  0
   -0.0797   -0.4465    1.1149 C   0  0  0  0  0  0  0  0  0  0  0  0
    1.0916   -0.3189    1.4446 O   0  0  0  0  0  0  0  0  0  0  0  0
   -1.0598    0.1492    1.8897 N   0  0  0  0  0  0  0  0  0  0  0  0
   -2.0191   -0.0608    1.6352 H   0  0  0  0  0  0  0  0  0  0  0  0
   -0.7920    0.7009    3.2121 C   0  0  0  0  0  0  0  0  0  0  0  0
   -0.0294    1.4846    3.1538 H   0  0  0  0  0  0  0  0  0  0  0  0
   -1.7029    1.1388    3.6309 H   0  0  0  0  0  0  0  0  0  0  0  0
   -0.4391   -0.0845    3.8888 H   0  0  0  0  0  0  0  0  0  0  0  0
  1  2  1  0  0  0  0
  2  3  1  0  0  0  0
  2  4  1  0  0  0  0
  2  5  1  0  0  0  0
  5  6  2  0  0  0  0
  5  7  1  0  0  0  0
  7  8  1  0  0  0  0
  7  9  1  0  0  0  0
  9 10  1  0  0  0  0
  9 11  1  0  0  0  0
  9 26  1  0  0  0  0
 11 12  1  0  0  0  0
 11 13  1  0  0  0  0
 11 14  1  0  0  0  0
 14 15  2  0  0  0  0
 14 24  1  0  0  0  0
 15 16  1  0  0  0  0
 15 17  1  0  0  0  0
 17 18  1  0  0  0  0
 17 19  2  0  0  0  0
 19 20  1  0  0  0  0
 19 22  1  0  0  0  0
 20 21  1  0  0  0  0
 22 23  1  0  0  0  0
 22 24  2  0  0  0  0
 24 25  1  0  0  0  0
 26 27  2  0  0  0  0
 26 28  1  0  0  0  0
 28 29  1  0  0  0  0
 28 30  1  0  0  0  0
 30 31  1  0  0  0  0
 30 32  1  0  0  0  0
 30 33  1  0  0  0  0
M  END
$$$$

  -OEChem-03222214083D

 33 33  0     1  0  0  0  0  0999 V2000
   -3.1975   -4.6112    0.7614 H   0  0  0  0  0  0  0  0  0  0  0  0
   -3.1838   -3.7202    0.1268 C   0  0  0  0  0  0  0  0  0  0  0  0
   -4.0624   -3.1125    0.3555 H   0  0  0  0  0  0  0  0  0  0  0  0
   -3.2272   -4.0340   -0.9188 H   0  0  0  0  0  0  0  0  0  0  0  0
   -1.9187   -2.9209    0.3774 C   0  0  0  0  0  0  0  0  0  0  0  0
   -1.1224   -3.2972    1.2179 O   0  0  0  0  0  0  0  0  0  0  0  0
   -1.6858   -1.7654   -0.3435 N   0  0  0  0  0  0  0  0  0  0  0  0
   -2.3455   -1.5539   -1.0857 H   0  0  0  0  0  0  0  0  0  0  0  0
   -0.4324   -0.9864   -0.2802 C   0  0  1  0  0  0  0  0  0  0  0  0
    0.3833   -1.6618   -0.5640 H   0  0  0  0  0  0  0  0  0  0  0  0
   -0.4979    0.1740   -1.2953 C   0  0  0  0  0  0  0  0  0  0  0  0
   -1.3153    0.0109   -2.0043 H   0  0  0  0  0  0  0  0  0  0  0  0
   -0.7084    1.1195   -0.7838 H   0  0  0  0  0  0  0  0  0  0  0  0
    0.7916    0.2861   -2.0710 C   0  0  0  0  0  0  0  0  0  0  0  0
    0.9667   -0.4147   -3.2741 C   0  0  0  0  0  0  0  0  0  0  0  0
    0.1685   -1.0398   -3.6627 H   0  0  0  0  0  0  0  0  0  0  0  0
    2.1699   -0.3150   -3.9835 C   0  0  0  0  0  0  0  0  0  0  0  0
    2.2887   -0.8595   -4.9139 H   0  0  0  0  0  0  0  0  0  0  0  0
    3.2099    0.4785   -3.4936 C   0  0  0  0  0  0  0  0  0  0  0  0
    4.3875    0.5823   -4.1764 O   0  0  0  0  0  0  0  0  0  0  0  0
    4.3714    0.0084   -4.9572 H   0  0  0  0  0  0  0  0  0  0  0  0
    3.0459    1.1647   -2.2919 C   0  0  0  0  0  0  0  0  0  0  0  0
    3.8622    1.7682   -1.9085 H   0  0  0  0  0  0  0  0  0  0  0  0
    1.8460    1.0688   -1.5790 C   0  0  0  0  0  0  0  0  0  0  0  0
    1.7429    1.5941   -0.6329 H   0  0  0  0  0  0  0  0  0  0  0  0
   -0.0813   -0.4420    1.1230 C   0  0  0  0  0  0  0  0  0  0  0  0
    1.0888   -0.3106    1.4564 O   0  0  0  0  0  0  0  0  0  0  0  0
   -1.0647    0.1521    1.8947 N   0  0  0  0  0  0  0  0  0  0  0  0
   -2.0222   -0.0639    1.6385 H   0  0  0  0  0  0  0  0  0  0  0  0
   -0.8029    0.6989    3.2202 C   0  0  0  0  0  0  0  0  0  0  0  0
   -0.0461    1.4888    3.1678 H   0  0  0  0  0  0  0  0  0  0  0  0
   -1.7178    1.1277    3.6401 H   0  0  0  0  0  0  0  0  0  0  0  0
   -0.4454   -0.0871    3.8938 H   0  0  0  0  0  0  0  0  0  0  0  0
  1  2  1  0  0  0  0
  2  3  1  0  0  0  0
  2  4  1  0  0  0  0
  2  5  1  0  0  0  0
  5  6  2  0  0  0  0
  5  7  1  0  0  0  0
  7  8  1  0  0  0  0
  7  9  1  0  0  0  0
  9 10  1  0  0  0  0
  9 11  1  0  0  0  0
  9 26  1  0  0  0  0
 11 12  1  0  0  0  0
 11 13  1  0  0  0  0
 11 14  1  0  0  0  0
 14 15  2  0  0  0  0
 14 24  1  0  0  0  0
 15 16  1  0  0  0  0
 15 17  1  0  0  0  0
 17 18  1  0  0  0  0
 17 19  2  0  0  0  0
 19 20  1  0  0  0  0
 19 22  1  0  0  0  0
 20 21  1  0  0  0  0
 22 23  1  0  0  0  0
 22 24  2  0  0  0  0
 24 25  1  0  0  0  0
 26 27  2  0  0  0  0
 26 28  1  0  0  0  0
 28 29  1  0  0  0  0
 28 30  1  0  0  0  0
 30 31  1  0  0  0  0
 30 32  1  0  0  0  0
 30 33  1  0  0  0  0
M  END
$$$$

  -OEChem-03222214083D

 33 33  0     1  0  0  0  0  0999 V2000
   -3.2255   -4.5949    0.7487 H   0  0  0  0  0  0  0  0  0  0  0  0
   -3.1965   -3.7026    0.1168 C   0  0  0  0  0  0  0  0  0  0  0  0
   -4.0762   -3.0912    0.3311 H   0  0  0  0  0  0  0  0  0  0  0  0
   -3.2219   -4.0138   -0.9303 H   0  0  0  0  0  0  0  0  0  0  0  0
   -1.9328   -2.9096    0.3928 C   0  0  0  0  0  0  0  0  0  0  0  0
   -1.1580   -3.2879    1.2521 O   0  0  0  0  0  0  0  0  0  0  0  0
   -1.6765   -1.7599   -0.3297 N   0  0  0  0  0  0  0  0  0  0  0  0
   -2.3149   -1.5554   -1.0922 H   0  0  0  0  0  0  0  0  0  0  0  0
   -0.4143   -0.9956   -0.2553 C   0  0  1  0  0  0  0  0  0  0  0  0
    0.3995   -1.6771   -0.5303 H   0  0  0  0  0  0  0  0  0  0  0  0
   -0.4687    0.1604   -1.2791 C   0  0  0  0  0  0  0  0  0  0  0  0
   -1.2917    0.0011   -1.9828 H   0  0  0  0  0  0  0  0  0  0  0  0
   -0.6692    1.1094   -0.7700 H   0  0  0  0  0  0  0  0  0  0  0  0
    0.8209    0.2725   -2.0587 C   0  0  0  0  0  0  0  0  0  0  0  0
    0.8893   -0.1655   -3.3905 C   0  0  0  0  0  0  0  0  0  0  0  0
    0.0158   -0.5970   -3.8695 H   0  0  0  0  0  0  0  0  0  0  0  0
    2.0825   -0.0544   -4.1147 C   0  0  0  0  0  0  0  0  0  0  0  0
    2.1174   -0.3985   -5.1424 H   0  0  0  0  0  0  0  0  0  0  0  0
    3.2181    0.4960   -3.5164 C   0  0  0  0  0  0  0  0  0  0  0  0
    4.3869    0.6077   -4.2131 O   0  0  0  0  0  0  0  0  0  0  0  0
    4.2880    0.2155   -5.0938 H   0  0  0  0  0  0  0  0  0  0  0  0
    3.1563    0.9334   -2.1950 C   0  0  0  0  0  0  0  0  0  0  0  0
    4.0426    1.3553   -1.7322 H   0  0  0  0  0  0  0  0  0  0  0  0
    1.9668    0.8250   -1.4669 C   0  0  0  0  0  0  0  0  0  0  0  0
    1.9433    1.1674   -0.4356 H   0  0  0  0  0  0  0  0  0  0  0  0
   -0.0823   -0.4538    1.1542 C   0  0  0  0  0  0  0  0  0  0  0  0
    1.0811   -0.3611    1.5224 O   0  0  0  0  0  0  0  0  0  0  0  0
   -1.0719    0.1517    1.9090 N   0  0  0  0  0  0  0  0  0  0  0  0
   -2.0275   -0.0390    1.6266 H   0  0  0  0  0  0  0  0  0  0  0  0
   -0.8309    0.6799    3.2461 C   0  0  0  0  0  0  0  0  0  0  0  0
   -0.0621    1.4594    3.2183 H   0  0  0  0  0  0  0  0  0  0  0  0
   -1.7484    1.1167    3.6516 H   0  0  0  0  0  0  0  0  0  0  0  0
   -0.4986   -0.1186    3.9180 H   0  0  0  0  0  0  0  0  0  0  0  0
  1  2  1  0  0  0  0
  2  3  1  0  0  0  0
  2  4  1  0  0  0  0
  2  5  1  0  0  0  0
  5  6  2  0  0  0  0
  5  7  1  0  0  0  0
  7  8  1  0  0  0  0
  7  9  1  0  0  0  0
  9 10  1  0  0  0  0
  9 11  1  0  0  0  0
  9 26  1  0  0  0  0
 11 12  1  0  0  0  0
 11 13  1  0  0  0  0
 11 14  1  0  0  0  0
 14 15  2  0  0  0  0
 14 24  1  0  0  0  0
 15 16  1  0  0  0  0
 15 17  1  0  0  0  0
 17 18  1  0  0  0  0
 17 19  2  0  0  0  0
 19 20  1  0  0  0  0
 19 22  1  0  0  0  0
 20 21  1  0  0  0  0
 22 23  1  0  0  0  0
 22 24  2  0  0  0  0
 24 25  1  0  0  0  0
 26 27  2  0  0  0  0
 26 28  1  0  0  0  0
 28 29  1  0  0  0  0
 28 30  1  0  0  0  0
 30 31  1  0  0  0  0
 30 32  1  0  0  0  0
 30 33  1  0  0  0  0
M  END
$$$$

  -OEChem-03222214083D

 33 33  0     1  0  0  0  0  0999 V2000
   -3.2726   -4.5694    0.7472 H   0  0  0  0  0  0  0  0  0  0  0  0
   -3.2258   -3.6724    0.1229 C   0  0  0  0  0  0  0  0  0  0  0  0
   -4.0984   -3.0501    0.3352 H   0  0  0  0  0  0  0  0  0  0  0  0
   -3.2474   -3.9751   -0.9268 H   0  0  0  0  0  0  0  0  0  0  0  0
   -1.9530   -2.8995    0.4148 C   0  0  0  0  0  0  0  0  0  0  0  0
   -1.2010   -3.2839    1.2913 O   0  0  0  0  0  0  0  0  0  0  0  0
   -1.6642   -1.7616   -0.3142 N   0  0  0  0  0  0  0  0  0  0  0  0
   -2.2849   -1.5567   -1.0910 H   0  0  0  0  0  0  0  0  0  0  0  0
   -0.3907   -1.0167   -0.2263 C   0  0  1  0  0  0  0  0  0  0  0  0
    0.4193   -1.7091   -0.4838 H   0  0  0  0  0  0  0  0  0  0  0  0
   -0.4250    0.1293   -1.2659 C   0  0  0  0  0  0  0  0  0  0  0  0
   -1.2501   -0.0314   -1.9667 H   0  0  0  0  0  0  0  0  0  0  0  0
   -0.6208    1.0834   -0.7647 H   0  0  0  0  0  0  0  0  0  0  0  0
    0.8635    0.2445   -2.0532 C   0  0  0  0  0  0  0  0  0  0  0  0
    0.8511    0.0992   -3.4504 C   0  0  0  0  0  0  0  0  0  0  0  0
   -0.0757   -0.1236   -3.9700 H   0  0  0  0  0  0  0  0  0  0  0  0
    2.0310    0.2313   -4.1924 C   0  0  0  0  0  0  0  0  0  0  0  0
    2.0018    0.1068   -5.2690 H   0  0  0  0  0  0  0  0  0  0  0  0
    3.2353    0.5240   -3.5502 C   0  0  0  0  0  0  0  0  0  0  0  0
    4.3917    0.6549   -4.2638 O   0  0  0  0  0  0  0  0  0  0  0  0
    4.2253    0.4813   -5.2025 H   0  0  0  0  0  0  0  0  0  0  0  0
    3.2537    0.6895   -2.1676 C   0  0  0  0  0  0  0  0  0  0  0  0
    4.1901    0.9243   -1.6718 H   0  0  0  0  0  0  0  0  0  0  0  0
    2.0782    0.5567   -1.4211 C   0  0  0  0  0  0  0  0  0  0  0  0
    2.1252    0.7052   -0.3466 H   0  0  0  0  0  0  0  0  0  0  0  0
   -0.0866   -0.4713    1.1892 C   0  0  0  0  0  0  0  0  0  0  0  0
    1.0623   -0.4361    1.6091 O   0  0  0  0  0  0  0  0  0  0  0  0
   -1.0845    0.1531    1.9170 N   0  0  0  0  0  0  0  0  0  0  0  0
   -2.0343   -0.0089    1.5996 H   0  0  0  0  0  0  0  0  0  0  0  0
   -0.8754    0.6496    3.2716 C   0  0  0  0  0  0  0  0  0  0  0  0
   -0.0787    1.4008    3.2864 H   0  0  0  0  0  0  0  0  0  0  0  0
   -1.7910    1.1124    3.6514 H   0  0  0  0  0  0  0  0  0  0  0  0
   -0.5970   -0.1719    3.9402 H   0  0  0  0  0  0  0  0  0  0  0  0
  1  2  1  0  0  0  0
  2  3  1  0  0  0  0
  2  4  1  0  0  0  0
  2  5  1  0  0  0  0
  5  6  2  0  0  0  0
  5  7  1  0  0  0  0
  7  8  1  0  0  0  0
  7  9  1  0  0  0  0
  9 10  1  0  0  0  0
  9 11  1  0  0  0  0
  9 26  1  0  0  0  0
 11 12  1  0  0  0  0
 11 13  1  0  0  0  0
 11 14  1  0  0  0  0
 14 15  2  0  0  0  0
 14 24  1  0  0  0  0
 15 16  1  0  0  0  0
 15 17  1  0  0  0  0
 17 18  1  0  0  0  0
 17 19  2  0  0  0  0
 19 20  1  0  0  0  0
 19 22  1  0  0  0  0
 20 21  1  0  0  0  0
 22 23  1  0  0  0  0
 22 24  2  0  0  0  0
 24 25  1  0  0  0  0
 26 27  2  0  0  0  0
 26 28  1  0  0  0  0
 28 29  1  0  0  0  0
 28 30  1  0  0  0  0
 30 31  1  0  0  0  0
 30 32  1  0  0  0  0
 30 33  1  0  0  0  0
M  END
$$$$

  -OEChem-03222214083D

 33 33  0     1  0  0  0  0  0999 V2000
   -3.3232   -4.5368    0.7787 H   0  0  0  0  0  0  0  0  0  0  0  0
   -3.2491   -3.6525    0.1391 C   0  0  0  0  0  0  0  0  0  0  0  0
   -4.1093   -3.0068    0.3311 H   0  0  0  0  0  0  0  0  0  0  0  0
   -3.2670   -3.9732   -0.9053 H   0  0  0  0  0  0  0  0  0  0  0  0
   -1.9622   -2.9037    0.4314 C   0  0  0  0  0  0  0  0  0  0  0  0
   -1.2235   -3.2958    1.3157 O   0  0  0  0  0  0  0  0  0  0  0  0
   -1.6468   -1.7772   -0.3044 N   0  0  0  0  0  0  0  0  0  0  0  0
   -2.2532   -1.5712   -1.0921 H   0  0  0  0  0  0  0  0  0  0  0  0
   -0.3654   -1.0467   -0.2026 C   0  0  1  0  0  0  0  0  0  0  0  0
    0.4420   -1.7478   -0.4436 H   0  0  0  0  0  0  0  0  0  0  0  0
   -0.3796    0.1005   -1.2443 C   0  0  0  0  0  0  0  0  0  0  0  0
   -1.2042   -0.0595   -1.9456 H   0  0  0  0  0  0  0  0  0  0  0  0
   -0.5750    1.0541   -0.7421 H   0  0  0  0  0  0  0  0  0  0  0  0
    0.9049    0.2310   -2.0413 C   0  0  0  0  0  0  0  0  0  0  0  0
    0.8363    0.4132   -3.4333 C   0  0  0  0  0  0  0  0  0  0  0  0
   -0.1262    0.4380   -3.9352 H   0  0  0  0  0  0  0  0  0  0  0  0
    2.0006    0.5613   -4.1964 C   0  0  0  0  0  0  0  0  0  0  0  0
    1.9231    0.6932   -5.2699 H   0  0  0  0  0  0  0  0  0  0  0  0
    3.2513    0.5423   -3.5781 C   0  0  0  0  0  0  0  0  0  0  0  0
    4.3937    0.6840   -4.3117 O   0  0  0  0  0  0  0  0  0  0  0  0
    4.1770    0.7729   -5.2520 H   0  0  0  0  0  0  0  0  0  0  0  0
    3.3314    0.3838   -2.1974 C   0  0  0  0  0  0  0  0  0  0  0  0
    4.3056    0.3798   -1.7189 H   0  0  0  0  0  0  0  0  0  0  0  0
    2.1710    0.2360   -1.4301 C   0  0  0  0  0  0  0  0  0  0  0  0
    2.2781    0.1306   -0.3558 H   0  0  0  0  0  0  0  0  0  0  0  0
   -0.0914   -0.4949    1.2180 C   0  0  0  0  0  0  0  0  0  0  0  0
    1.0423   -0.4824    1.6781 O   0  0  0  0  0  0  0  0  0  0  0  0
   -1.1031    0.1438    1.9137 N   0  0  0  0  0  0  0  0  0  0  0  0
   -2.0437    0.0077    1.5596 H   0  0  0  0  0  0  0  0  0  0  0  0
   -0.9319    0.6471    3.2708 C   0  0  0  0  0  0  0  0  0  0  0  0
   -0.1216    1.3829    3.3078 H   0  0  0  0  0  0  0  0  0  0  0  0
   -1.8512    1.1309    3.6140 H   0  0  0  0  0  0  0  0  0  0  0  0
   -0.6940   -0.1739    3.9555 H   0  0  0  0  0  0  0  0  0  0  0  0
  1  2  1  0  0  0  0
  2  3  1  0  0  0  0
  2  4  1  0  0  0  0
  2  5  1  0  0  0  0
  5  6  2  0  0  0  0
  5  7  1  0  0  0  0
  7  8  1  0  0  0  0
  7  9  1  0  0  0  0
  9 10  1  0  0  0  0
  9 11  1  0  0  0  0
  9 26  1  0  0  0  0
 11 12  1  0  0  0  0
 11 13  1  0  0  0  0
 11 14  1  0  0  0  0
 14 15  2  0  0  0  0
 14 24  1  0  0  0  0
 15 16  1  0  0  0  0
 15 17  1  0  0  0  0
 17 18  1  0  0  0  0
 17 19  2  0  0  0  0
 19 20  1  0  0  0  0
 19 22  1  0  0  0  0
 20 21  1  0  0  0  0
 22 23  1  0  0  0  0
 22 24  2  0  0  0  0
 24 25  1  0  0  0  0
 26 27  2  0  0  0  0
 26 28  1  0  0  0  0
 28 29  1  0  0  0  0
 28 30  1  0  0  0  0
 30 31  1  0  0  0  0
 30 32  1  0  0  0  0
 30 33  1  0  0  0  0
M  END
$$$$

  -OEChem-03222214083D

 33 33  0     1  0  0  0  0  0999 V2000
   -3.3589   -4.5498    0.7562 H   0  0  0  0  0  0  0  0  0  0  0  0
   -3.2794   -3.6625    0.1215 C   0  0  0  0  0  0  0  0  0  0  0  0
   -4.1478   -3.0238    0.2995 H   0  0  0  0  0  0  0  0  0  0  0  0
   -3.2754   -3.9796   -0.9242 H   0  0  0  0  0  0  0  0  0  0  0  0
   -2.0035   -2.9060    0.4403 C   0  0  0  0  0  0  0  0  0  0  0  0
   -1.2840   -3.2894    1.3443 O   0  0  0  0  0  0  0  0  0  0  0  0
   -1.6720   -1.7854   -0.2974 N   0  0  0  0  0  0  0  0  0  0  0  0
   -2.2616   -1.5862   -1.0997 H   0  0  0  0  0  0  0  0  0  0  0  0
   -0.3837   -1.0691   -0.1874 C   0  0  1  0  0  0  0  0  0  0  0  0
    0.4063   -1.7925   -0.4164 H   0  0  0  0  0  0  0  0  0  0  0  0
   -0.3636    0.0697   -1.2383 C   0  0  0  0  0  0  0  0  0  0  0  0
   -1.1779   -0.0922   -1.9514 H   0  0  0  0  0  0  0  0  0  0  0  0
   -0.5626    1.0271   -0.7452 H   0  0  0  0  0  0  0  0  0  0  0  0
    0.9245    0.2006   -2.0326 C   0  0  0  0  0  0  0  0  0  0  0  0
    0.8583    0.6943   -3.3464 C   0  0  0  0  0  0  0  0  0  0  0  0
   -0.1023    0.9498   -3.7835 H   0  0  0  0  0  0  0  0  0  0  0  0
    2.0180    0.8631   -4.1121 C   0  0  0  0  0  0  0  0  0  0  0  0
    1.9386    1.2382   -5.1265 H   0  0  0  0  0  0  0  0  0  0  0  0
    3.2664    0.5553   -3.5709 C   0  0  0  0  0  0  0  0  0  0  0  0
    4.4044    0.7168   -4.3074 O   0  0  0  0  0  0  0  0  0  0  0  0
    4.1870    1.0631   -5.1861 H   0  0  0  0  0  0  0  0  0  0  0  0
    3.3489    0.0870   -2.2625 C   0  0  0  0  0  0  0  0  0  0  0  0
    4.3226   -0.1393   -1.8399 H   0  0  0  0  0  0  0  0  0  0  0  0
    2.1930   -0.0832   -1.4929 C   0  0  0  0  0  0  0  0  0  0  0  0
    2.3101   -0.4323   -0.4722 H   0  0  0  0  0  0  0  0  0  0  0  0
   -0.0990   -0.5098    1.2273 C   0  0  0  0  0  0  0  0  0  0  0  0
    1.0423   -0.4861    1.6683 O   0  0  0  0  0  0  0  0  0  0  0  0
   -1.0989    0.1487    1.9214 N   0  0  0  0  0  0  0  0  0  0  0  0
   -2.0454    0.0014    1.5875 H   0  0  0  0  0  0  0  0  0  0  0  0
   -0.9054    0.6797    3.2648 C   0  0  0  0  0  0  0  0  0  0  0  0
   -0.0938    1.4151    3.2733 H   0  0  0  0  0  0  0  0  0  0  0  0
   -1.8184    1.1719    3.6125 H   0  0  0  0  0  0  0  0  0  0  0  0
   -0.6570   -0.1272    3.9623 H   0  0  0  0  0  0  0  0  0  0  0  0
  1  2  1  0  0  0  0
  2  3  1  0  0  0  0
  2  4  1  0  0  0  0
  2  5  1  0  0  0  0
  5  6  2  0  0  0  0
  5  7  1  0  0  0  0
  7  8  1  0  0  0  0
  7  9  1  0  0  0  0
  9 10  1  0  0  0  0
  9 11  1  0  0  0  0
  9 26  1  0  0  0  0
 11 12  1  0  0  0  0
 11 13  1  0  0  0  0
 11 14  1  0  0  0  0
 14 15  2  0  0  0  0
 14 24  1  0  0  0  0
 15 16  1  0  0  0  0
 15 17  1  0  0  0  0
 17 18  1  0  0  0  0
 17 19  2  0  0  0  0
 19 20  1  0  0  0  0
 19 22  1  0  0  0  0
 20 21  1  0  0  0  0
 22 23  1  0  0  0  0
 22 24  2  0  0  0  0
 24 25  1  0  0  0  0
 26 27  2  0  0  0  0
 26 28  1  0  0  0  0
 28 29  1  0  0  0  0
 28 30  1  0  0  0  0
 30 31  1  0  0  0  0
 30 32  1  0  0  0  0
 30 33  1  0  0  0  0
M  END
$$$$

  -OEChem-03222214083D

 33 33  0     1  0  0  0  0  0999 V2000
   -3.4111   -4.5518    0.7593 H   0  0  0  0  0  0  0  0  0  0  0  0
   -3.3253   -3.6700    0.1176 C   0  0  0  0  0  0  0  0  0  0  0  0
   -4.1930   -3.0273    0.2850 H   0  0  0  0  0  0  0  0  0  0  0  0
   -3.3159   -3.9959   -0.9253 H   0  0  0  0  0  0  0  0  0  0  0  0
   -2.0491   -2.9146    0.4384 C   0  0  0  0  0  0  0  0  0  0  0  0
   -1.3342   -3.2954    1.3473 O   0  0  0  0  0  0  0  0  0  0  0  0
   -1.7119   -1.7959   -0.2994 N   0  0  0  0  0  0  0  0  0  0  0  0
   -2.2919   -1.6009   -1.1098 H   0  0  0  0  0  0  0  0  0  0  0  0
   -0.4178   -1.0921   -0.1863 C   0  0  1  0  0  0  0  0  0  0  0  0
    0.3457   -1.8434   -0.4072 H   0  0  0  0  0  0  0  0  0  0  0  0
   -0.3647    0.0337   -1.2501 C   0  0  0  0  0  0  0  0  0  0  0  0
   -1.1669   -0.1314   -1.9761 H   0  0  0  0  0  0  0  0  0  0  0  0
   -0.5692    0.9960   -0.7685 H   0  0  0  0  0  0  0  0  0  0  0  0
    0.9285    0.1599   -2.0395 C   0  0  0  0  0  0  0  0  0  0  0  0
    0.9115    0.9321   -3.2133 C   0  0  0  0  0  0  0  0  0  0  0  0
   -0.0167    1.3830   -3.5515 H   0  0  0  0  0  0  0  0  0  0  0  0
    2.0754    1.1285   -3.9660 C   0  0  0  0  0  0  0  0  0  0  0  0
    2.0314    1.7180   -4.8751 H   0  0  0  0  0  0  0  0  0  0  0  0
    3.2840    0.5739   -3.5446 C   0  0  0  0  0  0  0  0  0  0  0  0
    4.4267    0.7588   -4.2686 O   0  0  0  0  0  0  0  0  0  0  0  0
    4.2462    1.3188   -5.0387 H   0  0  0  0  0  0  0  0  0  0  0  0
    3.3247   -0.1629   -2.3644 C   0  0  0  0  0  0  0  0  0  0  0  0
    4.2713   -0.5730   -2.0275 H   0  0  0  0  0  0  0  0  0  0  0  0
    2.1646   -0.3615   -1.6078 C   0  0  0  0  0  0  0  0  0  0  0  0
    2.2615   -0.9105   -0.6760 H   0  0  0  0  0  0  0  0  0  0  0  0
   -0.1010   -0.5275    1.2169 C   0  0  0  0  0  0  0  0  0  0  0  0
    1.0539   -0.5043    1.6212 O   0  0  0  0  0  0  0  0  0  0  0  0
   -1.0769    0.1506    1.9256 N   0  0  0  0  0  0  0  0  0  0  0  0
   -2.0328    0.0118    1.6155 H   0  0  0  0  0  0  0  0  0  0  0  0
   -0.8445    0.7054    3.2533 C   0  0  0  0  0  0  0  0  0  0  0  0
   -0.0260    1.4325    3.2273 H   0  0  0  0  0  0  0  0  0  0  0  0
   -1.7439    1.2134    3.6136 H   0  0  0  0  0  0  0  0  0  0  0  0
   -0.5866   -0.0901    3.9604 H   0  0  0  0  0  0  0  0  0  0  0  0
  1  2  1  0  0  0  0
  2  3  1  0  0  0  0
  2  4  1  0  0  0  0
  2  5  1  0  0  0  0
  5  6  2  0  0  0  0
  5  7  1  0  0  0  0
  7  8  1  0  0  0  0
  7  9  1  0  0  0  0
  9 10  1  0  0  0  0
  9 11  1  0  0  0  0
  9 26  1  0  0  0  0
 11 12  1  0  0  0  0
 11 13  1  0  0  0  0
 11 14  1  0  0  0  0
 14 15  2  0  0  0  0
 14 24  1  0  0  0  0
 15 16  1  0  0  0  0
 15 17  1  0  0  0  0
 17 18  1  0  0  0  0
 17 19  2  0  0  0  0
 19 20  1  0  0  0  0
 19 22  1  0  0  0  0
 20 21  1  0  0  0  0
 22 23  1  0  0  0  0
 22 24  2  0  0  0  0
 24 25  1  0  0  0  0
 26 27  2  0  0  0  0
 26 28  1  0  0  0  0
 28 29  1  0  0  0  0
 28 30  1  0  0  0  0
 30 31  1  0  0  0  0
 30 32  1  0  0  0  0
 30 33  1  0  0  0  0
M  END
$$$$

  -OEChem-03222214083D

 33 33  0     1  0  0  0  0  0999 V2000
   -3.4647   -4.5351    0.8236 H   0  0  0  0  0  0  0  0  0  0  0  0
   -3.3553   -3.6675    0.1664 C   0  0  0  0  0  0  0  0  0  0  0  0
   -4.2188   -3.0123    0.3027 H   0  0  0  0  0  0  0  0  0  0  0  0
   -3.3277   -4.0143   -0.8694 H   0  0  0  0  0  0  0  0  0  0  0  0
   -2.0775   -2.9196    0.4980 C   0  0  0  0  0  0  0  0  0  0  0  0
   -1.3927   -3.2806    1.4377 O   0  0  0  0  0  0  0  0  0  0  0  0
   -1.7023   -1.8322   -0.2678 N   0  0  0  0  0  0  0  0  0  0  0  0
   -2.2526   -1.6627   -1.1045 H   0  0  0  0  0  0  0  0  0  0  0  0
   -0.3992   -1.1460   -0.1472 C   0  0  1  0  0  0  0  0  0  0  0  0
    0.3641   -1.9080   -0.2948 H   0  0  0  0  0  0  0  0  0  0  0  0
   -0.3118   -0.0336   -1.2293 C   0  0  0  0  0  0  0  0  0  0  0  0
   -1.2565   -0.0041   -1.7812 H   0  0  0  0  0  0  0  0  0  0  0  0
   -0.2217    0.9352   -0.7256 H   0  0  0  0  0  0  0  0  0  0  0  0
    0.8063   -0.1014   -2.2622 C   0  0  0  0  0  0  0  0  0  0  0  0
    0.8419    0.9269   -3.2199 C   0  0  0  0  0  0  0  0  0  0  0  0
    0.0914    1.7117   -3.1969 H   0  0  0  0  0  0  0  0  0  0  0  0
    1.8291    0.9651   -4.2108 C   0  0  0  0  0  0  0  0  0  0  0  0
    1.8277    1.7710   -4.9364 H   0  0  0  0  0  0  0  0  0  0  0  0
    2.8087   -0.0250   -4.2601 C   0  0  0  0  0  0  0  0  0  0  0  0
    3.7775   -0.0008   -5.2213 O   0  0  0  0  0  0  0  0  0  0  0  0
    3.6797    0.7906   -5.7723 H   0  0  0  0  0  0  0  0  0  0  0  0
    2.7989   -1.0440   -3.3133 C   0  0  0  0  0  0  0  0  0  0  0  0
    3.5724   -1.8043   -3.3506 H   0  0  0  0  0  0  0  0  0  0  0  0
    1.8154   -1.0867   -2.3182 C   0  0  0  0  0  0  0  0  0  0  0  0
    1.8862   -1.8998   -1.6062 H   0  0  0  0  0  0  0  0  0  0  0  0
   -0.1164   -0.5430    1.2466 C   0  0  0  0  0  0  0  0  0  0  0  0
    1.0314   -0.5000    1.6685 O   0  0  0  0  0  0  0  0  0  0  0  0
   -1.1037    0.1702    1.9033 N   0  0  0  0  0  0  0  0  0  0  0  0
   -2.0527    0.0225    1.5764 H   0  0  0  0  0  0  0  0  0  0  0  0
   -0.9004    0.7725    3.2147 C   0  0  0  0  0  0  0  0  0  0  0  0
   -0.0730    1.4892    3.1839 H   0  0  0  0  0  0  0  0  0  0  0  0
   -1.8029    1.3035    3.5316 H   0  0  0  0  0  0  0  0  0  0  0  0
   -0.6709    0.0010    3.9572 H   0  0  0  0  0  0  0  0  0  0  0  0
  1  2  1  0  0  0  0
  2  3  1  0  0  0  0
  2  4  1  0  0  0  0
  2  5  1  0  0  0  0
  5  6  2  0  0  0  0
  5  7  1  0  0  0  0
  7  8  1  0  0  0  0
  7  9  1  0  0  0  0
  9 10  1  0  0  0  0
  9 11  1  0  0  0  0
  9 26  1  0  0  0  0
 11 12  1  0  0  0  0
 11 13  1  0  0  0  0
 11 14  1  0  0  0  0
 14 15  2  0  0  0  0
 14 24  1  0  0  0  0
 15 16  1  0  0  0  0
 15 17  1  0  0  0  0
 17 18  1  0  0  0  0
 17 19  2  0  0  0  0
 19 20  1  0  0  0  0
 19 22  1  0  0  0  0
 20 21  1  0  0  0  0
 22 23  1  0  0  0  0
 22 24  2  0  0  0  0
 24 25  1  0  0  0  0
 26 27  2  0  0  0  0
 26 28  1  0  0  0  0
 28 29  1  0  0  0  0
 28 30  1  0  0  0  0
 30 31  1  0  0  0  0
 30 32  1  0  0  0  0
 30 33  1  0  0  0  0
M  END
$$$$

  -OEChem-03222214083D

 33 33  0     1  0  0  0  0  0999 V2000
   -3.4158   -4.5362    0.8404 H   0  0  0  0  0  0  0  0  0  0  0  0
   -3.3048   -3.6787    0.1706 C   0  0  0  0  0  0  0  0  0  0  0  0
   -4.1727   -3.0257    0.2884 H   0  0  0  0  0  0  0  0  0  0  0  0
   -3.2659   -4.0423   -0.8591 H   0  0  0  0  0  0  0  0  0  0  0  0
   -2.0340   -2.9190    0.5029 C   0  0  0  0  0  0  0  0  0  0  0  0
   -1.3474   -3.2731    1.4438 O   0  0  0  0  0  0  0  0  0  0  0  0
   -1.6666   -1.8298   -0.2644 N   0  0  0  0  0  0  0  0  0  0  0  0
   -2.2186   -1.6651   -1.1011 H   0  0  0  0  0  0  0  0  0  0  0  0
   -0.3717   -1.1277   -0.1420 C   0  0  1  0  0  0  0  0  0  0  0  0
    0.4229   -1.8616   -0.2796 H   0  0  0  0  0  0  0  0  0  0  0  0
   -0.3011   -0.0045   -1.2134 C   0  0  0  0  0  0  0  0  0  0  0  0
   -1.2431    0.0224   -1.7697 H   0  0  0  0  0  0  0  0  0  0  0  0
   -0.2189    0.9614   -0.7027 H   0  0  0  0  0  0  0  0  0  0  0  0
    0.8222   -0.0764   -2.2374 C   0  0  0  0  0  0  0  0  0  0  0  0
    1.0857    1.0823   -2.9875 C   0  0  0  0  0  0  0  0  0  0  0  0
    0.5303    1.9939   -2.7870 H   0  0  0  0  0  0  0  0  0  0  0  0
    2.0654    1.0926   -3.9868 C   0  0  0  0  0  0  0  0  0  0  0  0
    2.2566    2.0066   -4.5381 H   0  0  0  0  0  0  0  0  0  0  0  0
    2.7866   -0.0658   -4.2717 C   0  0  0  0  0  0  0  0  0  0  0  0
    3.7438   -0.0707   -5.2448 O   0  0  0  0  0  0  0  0  0  0  0  0
    3.8548    0.8219   -5.6063 H   0  0  0  0  0  0  0  0  0  0  0  0
    2.5171   -1.2314   -3.5613 C   0  0  0  0  0  0  0  0  0  0  0  0
    3.0740   -2.1324   -3.7975 H   0  0  0  0  0  0  0  0  0  0  0  0
    1.5397   -1.2470   -2.5598 C   0  0  0  0  0  0  0  0  0  0  0  0
    1.3600   -2.1939   -2.0644 H   0  0  0  0  0  0  0  0  0  0  0  0
   -0.1153   -0.5218    1.2571 C   0  0  0  0  0  0  0  0  0  0  0  0
    1.0264   -0.4562    1.6923 O   0  0  0  0  0  0  0  0  0  0  0  0
   -1.1208    0.1759    1.9031 N   0  0  0  0  0  0  0  0  0  0  0  0
   -2.0639    0.0101    1.5680 H   0  0  0  0  0  0  0  0  0  0  0  0
   -0.9408    0.7758    3.2192 C   0  0  0  0  0  0  0  0  0  0  0  0
   -0.1329    1.5149    3.1967 H   0  0  0  0  0  0  0  0  0  0  0  0
   -1.8590    1.2798    3.5347 H   0  0  0  0  0  0  0  0  0  0  0  0
   -0.6942    0.0069    3.9589 H   0  0  0  0  0  0  0  0  0  0  0  0
  1  2  1  0  0  0  0
  2  3  1  0  0  0  0
  2  4  1  0  0  0  0
  2  5  1  0  0  0  0
  5  6  2  0  0  0  0
  5  7  1  0  0  0  0
  7  8  1  0  0  0  0
  7  9  1  0  0  0  0
  9 10  1  0  0  0  0
  9 11  1  0  0  0  0
  9 26  1  0  0  0  0
 11 12  1  0  0  0  0
 11 13  1  0  0  0  0
 11 14  1  0  0  0  0
 14 15  2  0  0  0  0
 14 24  1  0  0  0  0
 15 16  1  0  0  0  0
 15 17  1  0  0  0  0
 17 18  1  0  0  0  0
 17 19  2  0  0  0  0
 19 20  1  0  0  0  0
 19 22  1  0  0  0  0
 20 21  1  0  0  0  0
 22 23  1  0  0  0  0
 22 24  2  0  0  0  0
 24 25  1  0  0  0  0
 26 27  2  0  0  0  0
 26 28  1  0  0  0  0
 28 29  1  0  0  0  0
 28 30  1  0  0  0  0
 30 31  1  0  0  0  0
 30 32  1  0  0  0  0
 30 33  1  0  0  0  0
M  END
$$$$

  -OEChem-03222214083D

 33 33  0     1  0  0  0  0  0999 V2000
   -3.3399   -4.5748    0.8069 H   0  0  0  0  0  0  0  0  0  0  0  0
   -3.2636   -3.6932    0.1640 C   0  0  0  0  0  0  0  0  0  0  0  0
   -4.1331   -3.0548    0.3379 H   0  0  0  0  0  0  0  0  0  0  0  0
   -3.2602   -4.0195   -0.8789 H   0  0  0  0  0  0  0  0  0  0  0  0
   -1.9893   -2.9308    0.4747 C   0  0  0  0  0  0  0  0  0  0  0  0
   -1.2743   -3.2967    1.3895 O   0  0  0  0  0  0  0  0  0  0  0  0
   -1.6533   -1.8232   -0.2799 N   0  0  0  0  0  0  0  0  0  0  0  0
   -2.2367   -1.6365   -1.0902 H   0  0  0  0  0  0  0  0  0  0  0  0
   -0.3706   -1.0980   -0.1674 C   0  0  1  0  0  0  0  0  0  0  0  0
    0.4426   -1.8087   -0.3382 H   0  0  0  0  0  0  0  0  0  0  0  0
   -0.3361    0.0415   -1.2200 C   0  0  0  0  0  0  0  0  0  0  0  0
   -1.2786    0.0610   -1.7755 H   0  0  0  0  0  0  0  0  0  0  0  0
   -0.2618    1.0045   -0.7027 H   0  0  0  0  0  0  0  0  0  0  0  0
    0.7917   -0.0466   -2.2326 C   0  0  0  0  0  0  0  0  0  0  0  0
    1.3105    1.1415   -2.7738 C   0  0  0  0  0  0  0  0  0  0  0  0
    0.9511    2.1030   -2.4186 H   0  0  0  0  0  0  0  0  0  0  0  0
    2.3016    1.1095   -3.7618 C   0  0  0  0  0  0  0  0  0  0  0  0
    2.6977    2.0411   -4.1504 H   0  0  0  0  0  0  0  0  0  0  0  0
    2.7715   -0.1121   -4.2444 C   0  0  0  0  0  0  0  0  0  0  0  0
    3.7372   -0.1556   -5.2079 O   0  0  0  0  0  0  0  0  0  0  0  0
    4.0516    0.7406   -5.4027 H   0  0  0  0  0  0  0  0  0  0  0  0
    2.2392   -1.2976   -3.7450 C   0  0  0  0  0  0  0  0  0  0  0  0
    2.5989   -2.2438   -4.1363 H   0  0  0  0  0  0  0  0  0  0  0  0
    1.2498   -1.2710   -2.7560 C   0  0  0  0  0  0  0  0  0  0  0  0
    0.8414   -2.2173   -2.4165 H   0  0  0  0  0  0  0  0  0  0  0  0
   -0.1064   -0.5099    1.2374 C   0  0  0  0  0  0  0  0  0  0  0  0
    1.0402   -0.4167    1.6543 O   0  0  0  0  0  0  0  0  0  0  0  0
   -1.1187    0.1562    1.9059 N   0  0  0  0  0  0  0  0  0  0  0  0
   -2.0629   -0.0338    1.5870 H   0  0  0  0  0  0  0  0  0  0  0  0
   -0.9327    0.7589    3.2197 C   0  0  0  0  0  0  0  0  0  0  0  0
   -0.1365    1.5101    3.1881 H   0  0  0  0  0  0  0  0  0  0  0  0
   -1.8553    1.2493    3.5442 H   0  0  0  0  0  0  0  0  0  0  0  0
   -0.6663   -0.0061    3.9565 H   0  0  0  0  0  0  0  0  0  0  0  0
  1  2  1  0  0  0  0
  2  3  1  0  0  0  0
  2  4  1  0  0  0  0
  2  5  1  0  0  0  0
  5  6  2  0  0  0  0
  5  7  1  0  0  0  0
  7  8  1  0  0  0  0
  7  9  1  0  0  0  0
  9 10  1  0  0  0  0
  9 11  1  0  0  0  0
  9 26  1  0  0  0  0
 11 12  1  0  0  0  0
 11 13  1  0  0  0  0
 11 14  1  0  0  0  0
 14 15  2  0  0  0  0
 14 24  1  0  0  0  0
 15 16  1  0  0  0  0
 15 17  1  0  0  0  0
 17 18  1  0  0  0  0
 17 19  2  0  0  0  0
 19 20  1  0  0  0  0
 19 22  1  0  0  0  0
 20 21  1  0  0  0  0
 22 23  1  0  0  0  0
 22 24  2  0  0  0  0
 24 25  1  0  0  0  0
 26 27  2  0  0  0  0
 26 28  1  0  0  0  0
 28 29  1  0  0  0  0
 28 30  1  0  0  0  0
 30 31  1  0  0  0  0
 30 32  1  0  0  0  0
 30 33  1  0  0  0  0
M  END
$$$$

  -OEChem-03222214083D

 33 33  0     1  0  0  0  0  0999 V2000
   -3.2970   -4.5866    0.7898 H   0  0  0  0  0  0  0  0  0  0  0  0
   -3.2392   -3.7004    0.1512 C   0  0  0  0  0  0  0  0  0  0  0  0
   -4.1083   -3.0681    0.3472 H   0  0  0  0  0  0  0  0  0  0  0  0
   -3.2568   -4.0198   -0.8936 H   0  0  0  0  0  0  0  0  0  0  0  0
   -1.9630   -2.9322    0.4395 C   0  0  0  0  0  0  0  0  0  0  0  0
   -1.2190   -3.3066    1.3273 O   0  0  0  0  0  0  0  0  0  0  0  0
   -1.6607   -1.8069   -0.3027 N   0  0  0  0  0  0  0  0  0  0  0  0
   -2.2712   -1.6074   -1.0894 H   0  0  0  0  0  0  0  0  0  0  0  0
   -0.3883   -1.0623   -0.2036 C   0  0  1  0  0  0  0  0  0  0  0  0
    0.4303   -1.7593   -0.4112 H   0  0  0  0  0  0  0  0  0  0  0  0
   -0.3873    0.0855   -1.2439 C   0  0  0  0  0  0  0  0  0  0  0  0
   -1.3311    0.0940   -1.7976 H   0  0  0  0  0  0  0  0  0  0  0  0
   -0.3215    1.0495   -0.7270 H   0  0  0  0  0  0  0  0  0  0  0  0
    0.7418   -0.0202   -2.2472 C   0  0  0  0  0  0  0  0  0  0  0  0
    1.4954    1.1175   -2.5769 C   0  0  0  0  0  0  0  0  0  0  0  0
    1.3049    2.0621   -2.0754 H   0  0  0  0  0  0  0  0  0  0  0  0
    2.5076    1.0483   -3.5417 C   0  0  0  0  0  0  0  0  0  0  0  0
    3.0865    1.9361   -3.7710 H   0  0  0  0  0  0  0  0  0  0  0  0
    2.7666   -0.1539   -4.2022 C   0  0  0  0  0  0  0  0  0  0  0  0
    3.7513   -0.2326   -5.1439 O   0  0  0  0  0  0  0  0  0  0  0  0
    4.2335    0.6074   -5.1897 H   0  0  0  0  0  0  0  0  0  0  0  0
    2.0078   -1.2822   -3.9003 C   0  0  0  0  0  0  0  0  0  0  0  0
    2.2121   -2.2111   -4.4225 H   0  0  0  0  0  0  0  0  0  0  0  0
    0.9963   -1.2188   -2.9360 C   0  0  0  0  0  0  0  0  0  0  0  0
    0.4116   -2.1099   -2.7284 H   0  0  0  0  0  0  0  0  0  0  0  0
   -0.0985   -0.4902    1.2024 C   0  0  0  0  0  0  0  0  0  0  0  0
    1.0564   -0.3838    1.5928 O   0  0  0  0  0  0  0  0  0  0  0  0
   -1.1042    0.1504    1.9049 N   0  0  0  0  0  0  0  0  0  0  0  0
   -2.0524   -0.0453    1.6017 H   0  0  0  0  0  0  0  0  0  0  0  0
   -0.8972    0.7237    3.2289 C   0  0  0  0  0  0  0  0  0  0  0  0
   -0.1102    1.4847    3.1991 H   0  0  0  0  0  0  0  0  0  0  0  0
   -1.8177    1.1958    3.5849 H   0  0  0  0  0  0  0  0  0  0  0  0
   -0.6069   -0.0557    3.9416 H   0  0  0  0  0  0  0  0  0  0  0  0
  1  2  1  0  0  0  0
  2  3  1  0  0  0  0
  2  4  1  0  0  0  0
  2  5  1  0  0  0  0
  5  6  2  0  0  0  0
  5  7  1  0  0  0  0
  7  8  1  0  0  0  0
  7  9  1  0  0  0  0
  9 10  1  0  0  0  0
  9 11  1  0  0  0  0
  9 26  1  0  0  0  0
 11 12  1  0  0  0  0
 11 13  1  0  0  0  0
 11 14  1  0  0  0  0
 14 15  2  0  0  0  0
 14 24  1  0  0  0  0
 15 16  1  0  0  0  0
 15 17  1  0  0  0  0
 17 18  1  0  0  0  0
 17 19  2  0  0  0  0
 19 20  1  0  0  0  0
 19 22  1  0  0  0  0
 20 21  1  0  0  0  0
 22 23  1  0  0  0  0
 22 24  2  0  0  0  0
 24 25  1  0  0  0  0
 26 27  2  0  0  0  0
 26 28  1  0  0  0  0
 28 29  1  0  0  0  0
 28 30  1  0  0  0  0
 30 31  1  0  0  0  0
 30 32  1  0  0  0  0
 30 33  1  0  0  0  0
M  END
$$$$

  -OEChem-03222214083D

 33 33  0     1  0  0  0  0  0999 V2000
   -3.2607   -4.6107    0.7508 H   0  0  0  0  0  0  0  0  0  0  0  0
   -3.2198   -3.7193    0.1181 C   0  0  0  0  0  0  0  0  0  0  0  0
   -4.1013   -3.1054    0.3178 H   0  0  0  0  0  0  0  0  0  0  0  0
   -3.2302   -4.0320   -0.9288 H   0  0  0  0  0  0  0  0  0  0  0  0
   -1.9584   -2.9287    0.4121 C   0  0  0  0  0  0  0  0  0  0  0  0
   -1.2022   -3.3000    1.2909 O   0  0  0  0  0  0  0  0  0  0  0  0
   -1.6806   -1.7891   -0.3180 N   0  0  0  0  0  0  0  0  0  0  0  0
   -2.3045   -1.5860   -1.0932 H   0  0  0  0  0  0  0  0  0  0  0  0
   -0.4123   -1.0363   -0.2315 C   0  0  1  0  0  0  0  0  0  0  0  0
    0.4035   -1.7273   -0.4731 H   0  0  0  0  0  0  0  0  0  0  0  0
   -0.4318    0.1219   -1.2565 C   0  0  0  0  0  0  0  0  0  0  0  0
   -1.3796    0.1323   -1.8034 H   0  0  0  0  0  0  0  0  0  0  0  0
   -0.3614    1.0840   -0.7371 H   0  0  0  0  0  0  0  0  0  0  0  0
    0.6942    0.0019   -2.2571 C   0  0  0  0  0  0  0  0  0  0  0  0
    1.6561    1.0171   -2.3707 C   0  0  0  0  0  0  0  0  0  0  0  0
    1.6164    1.8833   -1.7161 H   0  0  0  0  0  0  0  0  0  0  0  0
    2.6851    0.9171   -3.3146 C   0  0  0  0  0  0  0  0  0  0  0  0
    3.4255    1.7068   -3.3800 H   0  0  0  0  0  0  0  0  0  0  0  0
    2.7572   -0.1913   -4.1605 C   0  0  0  0  0  0  0  0  0  0  0  0
    3.7589   -0.2992   -5.0810 O   0  0  0  0  0  0  0  0  0  0  0  0
    4.3867    0.4318   -4.9727 H   0  0  0  0  0  0  0  0  0  0  0  0
    1.7976   -1.1967   -4.0629 C   0  0  0  0  0  0  0  0  0  0  0  0
    1.8621   -2.0541   -4.7248 H   0  0  0  0  0  0  0  0  0  0  0  0
    0.7684   -1.1031   -3.1201 C   0  0  0  0  0  0  0  0  0  0  0  0
    0.0299   -1.8963   -3.0592 H   0  0  0  0  0  0  0  0  0  0  0  0
   -0.0913   -0.4816    1.1742 C   0  0  0  0  0  0  0  0  0  0  0  0
    1.0732   -0.3562    1.5289 O   0  0  0  0  0  0  0  0  0  0  0  0
   -1.0841    0.1426    1.9089 N   0  0  0  0  0  0  0  0  0  0  0  0
   -2.0382   -0.0679    1.6359 H   0  0  0  0  0  0  0  0  0  0  0  0
   -0.8452    0.7192    3.2259 C   0  0  0  0  0  0  0  0  0  0  0  0
   -0.0745    1.4953    3.1711 H   0  0  0  0  0  0  0  0  0  0  0  0
   -1.7630    1.1732    3.6113 H   0  0  0  0  0  0  0  0  0  0  0  0
   -0.5168   -0.0543    3.9280 H   0  0  0  0  0  0  0  0  0  0  0  0
  1  2  1  0  0  0  0
  2  3  1  0  0  0  0
  2  4  1  0  0  0  0
  2  5  1  0  0  0  0
  5  6  2  0  0  0  0
  5  7  1  0  0  0  0
  7  8  1  0  0  0  0
  7  9  1  0  0  0  0
  9 10  1  0  0  0  0
  9 11  1  0  0  0  0
  9 26  1  0  0  0  0
 11 12  1  0  0  0  0
 11 13  1  0  0  0  0
 11 14  1  0  0  0  0
 14 15  2  0  0  0  0
 14 24  1  0  0  0  0
 15 16  1  0  0  0  0
 15 17  1  0  0  0  0
 17 18  1  0  0  0  0
 17 19  2  0  0  0  0
 19 20  1  0  0  0  0
 19 22  1  0  0  0  0
 20 21  1  0  0  0  0
 22 23  1  0  0  0  0
 22 24  2  0  0  0  0
 24 25  1  0  0  0  0
 26 27  2  0  0  0  0
 26 28  1  0  0  0  0
 28 29  1  0  0  0  0
 28 30  1  0  0  0  0
 30 31  1  0  0  0  0
 30 32  1  0  0  0  0
 30 33  1  0  0  0  0
M  END
$$$$

  -OEChem-03222214083D

 33 33  0     1  0  0  0  0  0999 V2000
   -3.2476   -4.6077    0.7581 H   0  0  0  0  0  0  0  0  0  0  0  0
   -3.2168   -3.7177    0.1227 C   0  0  0  0  0  0  0  0  0  0  0  0
   -4.0961   -3.1043    0.3332 H   0  0  0  0  0  0  0  0  0  0  0  0
   -3.2415   -4.0330   -0.9231 H   0  0  0  0  0  0  0  0  0  0  0  0
   -1.9525   -2.9253    0.3970 C   0  0  0  0  0  0  0  0  0  0  0  0
   -1.1840   -3.2952    1.2657 O   0  0  0  0  0  0  0  0  0  0  0  0
   -1.6921   -1.7797   -0.3300 N   0  0  0  0  0  0  0  0  0  0  0  0
   -2.3239   -1.5799   -1.0994 H   0  0  0  0  0  0  0  0  0  0  0  0
   -0.4266   -1.0215   -0.2540 C   0  0  1  0  0  0  0  0  0  0  0  0
    0.3866   -1.7098   -0.5132 H   0  0  0  0  0  0  0  0  0  0  0  0
   -0.4551    0.1405   -1.2714 C   0  0  0  0  0  0  0  0  0  0  0  0
   -1.4061    0.1539   -1.8128 H   0  0  0  0  0  0  0  0  0  0  0  0
   -0.3781    1.1033   -0.7539 H   0  0  0  0  0  0  0  0  0  0  0  0
    0.6694    0.0089   -2.2689 C   0  0  0  0  0  0  0  0  0  0  0  0
    1.7969    0.8379   -2.1786 C   0  0  0  0  0  0  0  0  0  0  0  0
    1.8763    1.5629   -1.3730 H   0  0  0  0  0  0  0  0  0  0  0  0
    2.8355    0.7249   -3.1101 C   0  0  0  0  0  0  0  0  0  0  0  0
    3.7030    1.3692   -3.0190 H   0  0  0  0  0  0  0  0  0  0  0  0
    2.7541   -0.2124   -4.1421 C   0  0  0  0  0  0  0  0  0  0  0  0
    3.7621   -0.3298   -5.0546 O   0  0  0  0  0  0  0  0  0  0  0  0
    4.4921    0.2631   -4.8180 H   0  0  0  0  0  0  0  0  0  0  0  0
    1.6343   -1.0370   -4.2385 C   0  0  0  0  0  0  0  0  0  0  0  0
    1.5827   -1.7642   -5.0421 H   0  0  0  0  0  0  0  0  0  0  0  0
    0.5946   -0.9309   -3.3080 C   0  0  0  0  0  0  0  0  0  0  0  0
   -0.2685   -1.5834   -3.3956 H   0  0  0  0  0  0  0  0  0  0  0  0
   -0.0879   -0.4736    1.1502 C   0  0  0  0  0  0  0  0  0  0  0  0
    1.0815   -0.3395    1.4861 O   0  0  0  0  0  0  0  0  0  0  0  0
   -1.0732    0.1418    1.9022 N   0  0  0  0  0  0  0  0  0  0  0  0
   -2.0296   -0.0725    1.6403 H   0  0  0  0  0  0  0  0  0  0  0  0
   -0.8197    0.7044    3.2227 C   0  0  0  0  0  0  0  0  0  0  0  0
   -0.0447    1.4763    3.1691 H   0  0  0  0  0  0  0  0  0  0  0  0
   -1.7309    1.1605    3.6210 H   0  0  0  0  0  0  0  0  0  0  0  0
   -0.4906   -0.0782    3.9143 H   0  0  0  0  0  0  0  0  0  0  0  0
  1  2  1  0  0  0  0
  2  3  1  0  0  0  0
  2  4  1  0  0  0  0
  2  5  1  0  0  0  0
  5  6  2  0  0  0  0
  5  7  1  0  0  0  0
  7  8  1  0  0  0  0
  7  9  1  0  0  0  0
  9 10  1  0  0  0  0
  9 11  1  0  0  0  0
  9 26  1  0  0  0  0
 11 12  1  0  0  0  0
 11 13  1  0  0  0  0
 11 14  1  0  0  0  0
 14 15  2  0  0  0  0
 14 24  1  0  0  0  0
 15 16  1  0  0  0  0
 15 17  1  0  0  0  0
 17 18  1  0  0  0  0
 17 19  2  0  0  0  0
 19 20  1  0  0  0  0
 19 22  1  0  0  0  0
 20 21  1  0  0  0  0
 22 23  1  0  0  0  0
 22 24  2  0  0  0  0
 24 25  1  0  0  0  0
 26 27  2  0  0  0  0
 26 28  1  0  0  0  0
 28 29  1  0  0  0  0
 28 30  1  0  0  0  0
 30 31  1  0  0  0  0
 30 32  1  0  0  0  0
 30 33  1  0  0  0  0
M  END
$$$$

  -OEChem-03222214083D

 33 33  0     1  0  0  0  0  0999 V2000
   -3.2409   -4.6184    0.7341 H   0  0  0  0  0  0  0  0  0  0  0  0
   -3.2096   -3.7305    0.0961 C   0  0  0  0  0  0  0  0  0  0  0  0
   -4.1015   -3.1290    0.2866 H   0  0  0  0  0  0  0  0  0  0  0  0
   -3.2081   -4.0497   -0.9489 H   0  0  0  0  0  0  0  0  0  0  0  0
   -1.9622   -2.9193    0.3921 C   0  0  0  0  0  0  0  0  0  0  0  0
   -1.1974   -3.2826    1.2672 O   0  0  0  0  0  0  0  0  0  0  0  0
   -1.7085   -1.7692   -0.3301 N   0  0  0  0  0  0  0  0  0  0  0  0
   -2.3296   -1.5847   -1.1118 H   0  0  0  0  0  0  0  0  0  0  0  0
   -0.4415   -1.0136   -0.2611 C   0  0  1  0  0  0  0  0  0  0  0  0
    0.3656   -1.7041   -0.5344 H   0  0  0  0  0  0  0  0  0  0  0  0
   -0.4757    0.1531   -1.2723 C   0  0  0  0  0  0  0  0  0  0  0  0
   -1.4331    0.1758   -1.8019 H   0  0  0  0  0  0  0  0  0  0  0  0
   -0.3835    1.1146   -0.7547 H   0  0  0  0  0  0  0  0  0  0  0  0
    0.6433    0.0148   -2.2734 C   0  0  0  0  0  0  0  0  0  0  0  0
    1.8918    0.5980   -2.0147 C   0  0  0  0  0  0  0  0  0  0  0  0
    2.0576    1.1368   -1.0848 H   0  0  0  0  0  0  0  0  0  0  0  0
    2.9357    0.4735   -2.9386 C   0  0  0  0  0  0  0  0  0  0  0  0
    3.8961    0.9267   -2.7180 H   0  0  0  0  0  0  0  0  0  0  0  0
    2.7402   -0.2329   -4.1274 C   0  0  0  0  0  0  0  0  0  0  0  0
    3.7523   -0.3622   -5.0338 O   0  0  0  0  0  0  0  0  0  0  0  0
    4.5577    0.0554   -4.6910 H   0  0  0  0  0  0  0  0  0  0  0  0
    1.5007   -0.8146   -4.3889 C   0  0  0  0  0  0  0  0  0  0  0  0
    1.3605   -1.3636   -5.3143 H   0  0  0  0  0  0  0  0  0  0  0  0
    0.4542   -0.6956   -3.4678 C   0  0  0  0  0  0  0  0  0  0  0  0
   -0.5026   -1.1593   -3.6859 H   0  0  0  0  0  0  0  0  0  0  0  0
   -0.0815   -0.4724    1.1400 C   0  0  0  0  0  0  0  0  0  0  0  0
    1.0941   -0.3326    1.4526 O   0  0  0  0  0  0  0  0  0  0  0  0
   -1.0540    0.1424    1.9084 N   0  0  0  0  0  0  0  0  0  0  0  0
   -2.0150   -0.0719    1.6634 H   0  0  0  0  0  0  0  0  0  0  0  0
   -0.7780    0.7157    3.2196 C   0  0  0  0  0  0  0  0  0  0  0  0
   -0.0208    1.5031    3.1425 H   0  0  0  0  0  0  0  0  0  0  0  0
   -1.6881    1.1541    3.6397 H   0  0  0  0  0  0  0  0  0  0  0  0
   -0.4145   -0.0568    3.9055 H   0  0  0  0  0  0  0  0  0  0  0  0
  1  2  1  0  0  0  0
  2  3  1  0  0  0  0
  2  4  1  0  0  0  0
  2  5  1  0  0  0  0
  5  6  2  0  0  0  0
  5  7  1  0  0  0  0
  7  8  1  0  0  0  0
  7  9  1  0  0  0  0
  9 10  1  0  0  0  0
  9 11  1  0  0  0  0
  9 26  1  0  0  0  0
 11 12  1  0  0  0  0
 11 13  1  0  0  0  0
 11 14  1  0  0  0  0
 14 15  2  0  0  0  0
 14 24  1  0  0  0  0
 15 16  1  0  0  0  0
 15 17  1  0  0  0  0
 17 18  1  0  0  0  0
 17 19  2  0  0  0  0
 19 20  1  0  0  0  0
 19 22  1  0  0  0  0
 20 21  1  0  0  0  0
 22 23  1  0  0  0  0
 22 24  2  0  0  0  0
 24 25  1  0  0  0  0
 26 27  2  0  0  0  0
 26 28  1  0  0  0  0
 28 29  1  0  0  0  0
 28 30  1  0  0  0  0
 30 31  1  0  0  0  0
 30 32  1  0  0  0  0
 30 33  1  0  0  0  0
M  END
$$$$

  -OEChem-03222214083D

 33 33  0     1  0  0  0  0  0999 V2000
   -3.2418   -4.6170    0.7387 H   0  0  0  0  0  0  0  0  0  0  0  0
   -3.2127   -3.7294    0.1000 C   0  0  0  0  0  0  0  0  0  0  0  0
   -4.1059   -3.1296    0.2902 H   0  0  0  0  0  0  0  0  0  0  0  0
   -3.2115   -4.0495   -0.9446 H   0  0  0  0  0  0  0  0  0  0  0  0
   -1.9665   -2.9158    0.3954 C   0  0  0  0  0  0  0  0  0  0  0  0
   -1.2050   -3.2752    1.2750 O   0  0  0  0  0  0  0  0  0  0  0  0
   -1.7120   -1.7666   -0.3282 N   0  0  0  0  0  0  0  0  0  0  0  0
   -2.3248   -1.5918   -1.1188 H   0  0  0  0  0  0  0  0  0  0  0  0
   -0.4427   -1.0142   -0.2609 C   0  0  1  0  0  0  0  0  0  0  0  0
    0.3612   -1.7075   -0.5354 H   0  0  0  0  0  0  0  0  0  0  0  0
   -0.4776    0.1519   -1.2747 C   0  0  0  0  0  0  0  0  0  0  0  0
   -1.4409    0.1806   -1.7932 H   0  0  0  0  0  0  0  0  0  0  0  0
   -0.3732    1.1123   -0.7577 H   0  0  0  0  0  0  0  0  0  0  0  0
    0.6369    0.0185   -2.2831 C   0  0  0  0  0  0  0  0  0  0  0  0
    1.9565    0.3194   -1.9134 C   0  0  0  0  0  0  0  0  0  0  0  0
    2.1765    0.6443   -0.8987 H   0  0  0  0  0  0  0  0  0  0  0  0
    2.9980    0.1927   -2.8395 C   0  0  0  0  0  0  0  0  0  0  0  0
    4.0114    0.4275   -2.5323 H   0  0  0  0  0  0  0  0  0  0  0  0
    2.7312   -0.2361   -4.1414 C   0  0  0  0  0  0  0  0  0  0  0  0
    3.7401   -0.3653   -5.0512 O   0  0  0  0  0  0  0  0  0  0  0  0
    4.5891   -0.1507   -4.6346 H   0  0  0  0  0  0  0  0  0  0  0  0
    1.4224   -0.5379   -4.5137 C   0  0  0  0  0  0  0  0  0  0  0  0
    1.2268   -0.8720   -5.5273 H   0  0  0  0  0  0  0  0  0  0  0  0
    0.3767   -0.4140   -3.5921 C   0  0  0  0  0  0  0  0  0  0  0  0
   -0.6349   -0.6569   -3.9018 H   0  0  0  0  0  0  0  0  0  0  0  0
   -0.0807   -0.4742    1.1406 C   0  0  0  0  0  0  0  0  0  0  0  0
    1.0958   -0.3490    1.4566 O   0  0  0  0  0  0  0  0  0  0  0  0
   -1.0497    0.1433    1.9114 N   0  0  0  0  0  0  0  0  0  0  0  0
   -2.0120   -0.0623    1.6640 H   0  0  0  0  0  0  0  0  0  0  0  0
   -0.7711    0.7082    3.2257 C   0  0  0  0  0  0  0  0  0  0  0  0
   -0.0042    1.4866    3.1547 H   0  0  0  0  0  0  0  0  0  0  0  0
   -1.6773    1.1563    3.6441 H   0  0  0  0  0  0  0  0  0  0  0  0
   -0.4197   -0.0713    3.9099 H   0  0  0  0  0  0  0  0  0  0  0  0
  1  2  1  0  0  0  0
  2  3  1  0  0  0  0
  2  4  1  0  0  0  0
  2  5  1  0  0  0  0
  5  6  2  0  0  0  0
  5  7  1  0  0  0  0
  7  8  1  0  0  0  0
  7  9  1  0  0  0  0
  9 10  1  0  0  0  0
  9 11  1  0  0  0  0
  9 26  1  0  0  0  0
 11 12  1  0  0  0  0
 11 13  1  0  0  0  0
 11 14  1  0  0  0  0
 14 15  2  0  0  0  0
 14 24  1  0  0  0  0
 15 16  1  0  0  0  0
 15 17  1  0  0  0  0
 17 18  1  0  0  0  0
 17 19  2  0  0  0  0
 19 20  1  0  0  0  0
 19 22  1  0  0  0  0
 20 21  1  0  0  0  0
 22 23  1  0  0  0  0
 22 24  2  0  0  0  0
 24 25  1  0  0  0  0
 26 27  2  0  0  0  0
 26 28  1  0  0  0  0
 28 29  1  0  0  0  0
 28 30  1  0  0  0  0
 30 31  1  0  0  0  0
 30 32  1  0  0  0  0
 30 33  1  0  0  0  0
M  END
$$$$

  -OEChem-03222214083D

 33 33  0     1  0  0  0  0  0999 V2000
   -3.2608   -4.6101    0.7454 H   0  0  0  0  0  0  0  0  0  0  0  0
   -3.2281   -3.7166    0.1153 C   0  0  0  0  0  0  0  0  0  0  0  0
   -4.1126   -3.1088    0.3203 H   0  0  0  0  0  0  0  0  0  0  0  0
   -3.2408   -4.0263   -0.9324 H   0  0  0  0  0  0  0  0  0  0  0  0
   -1.9711   -2.9183    0.4070 C   0  0  0  0  0  0  0  0  0  0  0  0
   -1.2140   -3.2830    1.2881 O   0  0  0  0  0  0  0  0  0  0  0  0
   -1.7038   -1.7746   -0.3207 N   0  0  0  0  0  0  0  0  0  0  0  0
   -2.3138   -1.5961   -1.1126 H   0  0  0  0  0  0  0  0  0  0  0  0
   -0.4319   -1.0270   -0.2475 C   0  0  1  0  0  0  0  0  0  0  0  0
    0.3696   -1.7265   -0.5119 H   0  0  0  0  0  0  0  0  0  0  0  0
   -0.4605    0.1320   -1.2727 C   0  0  0  0  0  0  0  0  0  0  0  0
   -1.4260    0.1580   -1.7871 H   0  0  0  0  0  0  0  0  0  0  0  0
   -0.3561    1.0938   -0.7582 H   0  0  0  0  0  0  0  0  0  0  0  0
    0.6526    0.0143   -2.2892 C   0  0  0  0  0  0  0  0  0  0  0  0
    1.9961    0.0178   -1.8802 C   0  0  0  0  0  0  0  0  0  0  0  0
    2.2472    0.1155   -0.8268 H   0  0  0  0  0  0  0  0  0  0  0  0
    3.0256   -0.1009   -2.8203 C   0  0  0  0  0  0  0  0  0  0  0  0
    4.0558   -0.0953   -2.4807 H   0  0  0  0  0  0  0  0  0  0  0  0
    2.7254   -0.2252   -4.1777 C   0  0  0  0  0  0  0  0  0  0  0  0
    3.7226   -0.3418   -5.1022 O   0  0  0  0  0  0  0  0  0  0  0  0
    4.5860   -0.3189   -4.6611 H   0  0  0  0  0  0  0  0  0  0  0  0
    1.3948   -0.2307   -4.5913 C   0  0  0  0  0  0  0  0  0  0  0  0
    1.1722   -0.3285   -5.6486 H   0  0  0  0  0  0  0  0  0  0  0  0
    0.3609   -0.1119   -3.6560 C   0  0  0  0  0  0  0  0  0  0  0  0
   -0.6681   -0.1188   -4.0020 H   0  0  0  0  0  0  0  0  0  0  0  0
   -0.0842   -0.4818    1.1558 C   0  0  0  0  0  0  0  0  0  0  0  0
    1.0880   -0.3794    1.4946 O   0  0  0  0  0  0  0  0  0  0  0  0
   -1.0589    0.1429    1.9134 N   0  0  0  0  0  0  0  0  0  0  0  0
   -2.0192   -0.0530    1.6508 H   0  0  0  0  0  0  0  0  0  0  0  0
   -0.7945    0.6980    3.2349 C   0  0  0  0  0  0  0  0  0  0  0  0
   -0.0026    1.4527    3.1832 H   0  0  0  0  0  0  0  0  0  0  0  0
   -1.6958    1.1736    3.6331 H   0  0  0  0  0  0  0  0  0  0  0  0
   -0.4828   -0.0927    3.9255 H   0  0  0  0  0  0  0  0  0  0  0  0
  1  2  1  0  0  0  0
  2  3  1  0  0  0  0
  2  4  1  0  0  0  0
  2  5  1  0  0  0  0
  5  6  2  0  0  0  0
  5  7  1  0  0  0  0
  7  8  1  0  0  0  0
  7  9  1  0  0  0  0
  9 10  1  0  0  0  0
  9 11  1  0  0  0  0
  9 26  1  0  0  0  0
 11 12  1  0  0  0  0
 11 13  1  0  0  0  0
 11 14  1  0  0  0  0
 14 15  2  0  0  0  0
 14 24  1  0  0  0  0
 15 16  1  0  0  0  0
 15 17  1  0  0  0  0
 17 18  1  0  0  0  0
 17 19  2  0  0  0  0
 19 20  1  0  0  0  0
 19 22  1  0  0  0  0
 20 21  1  0  0  0  0
 22 23  1  0  0  0  0
 22 24  2  0  0  0  0
 24 25  1  0  0  0  0
 26 27  2  0  0  0  0
 26 28  1  0  0  0  0
 28 29  1  0  0  0  0
 28 30  1  0  0  0  0
 30 31  1  0  0  0  0
 30 32  1  0  0  0  0
 30 33  1  0  0  0  0
M  END
$$$$

  -OEChem-03222214083D

 33 33  0     1  0  0  0  0  0999 V2000
   -3.2956   -4.6016    0.7575 H   0  0  0  0  0  0  0  0  0  0  0  0
   -3.2477   -3.7145    0.1194 C   0  0  0  0  0  0  0  0  0  0  0  0
   -4.1325   -3.1006    0.3038 H   0  0  0  0  0  0  0  0  0  0  0  0
   -3.2440   -4.0341   -0.9255 H   0  0  0  0  0  0  0  0  0  0  0  0
   -1.9915   -2.9200    0.4243 C   0  0  0  0  0  0  0  0  0  0  0  0
   -1.2487   -3.2828    1.3185 O   0  0  0  0  0  0  0  0  0  0  0  0
   -1.7061   -1.7844   -0.3093 N   0  0  0  0  0  0  0  0  0  0  0  0
   -2.2998   -1.6131   -1.1153 H   0  0  0  0  0  0  0  0  0  0  0  0
   -0.4289   -1.0473   -0.2247 C   0  0  1  0  0  0  0  0  0  0  0  0
    0.3617   -1.7641   -0.4703 H   0  0  0  0  0  0  0  0  0  0  0  0
   -0.4361    0.1024   -1.2645 C   0  0  0  0  0  0  0  0  0  0  0  0
   -1.3996    0.1257   -1.7828 H   0  0  0  0  0  0  0  0  0  0  0  0
   -0.3360    1.0662   -0.7534 H   0  0  0  0  0  0  0  0  0  0  0  0
    0.6785    0.0030   -2.2864 C   0  0  0  0  0  0  0  0  0  0  0  0
    2.0000   -0.2934   -1.9073 C   0  0  0  0  0  0  0  0  0  0  0  0
    2.2552   -0.4357   -0.8598 H   0  0  0  0  0  0  0  0  0  0  0  0
    3.0117   -0.3943   -2.8688 C   0  0  0  0  0  0  0  0  0  0  0  0
    4.0234   -0.6212   -2.5503 H   0  0  0  0  0  0  0  0  0  0  0  0
    2.7191   -0.2011   -4.2196 C   0  0  0  0  0  0  0  0  0  0  0  0
    3.6992   -0.2984   -5.1643 O   0  0  0  0  0  0  0  0  0  0  0  0
    4.5481   -0.4980   -4.7398 H   0  0  0  0  0  0  0  0  0  0  0  0
    1.4142    0.0968   -4.6051 C   0  0  0  0  0  0  0  0  0  0  0  0
    1.1967    0.2488   -5.6574 H   0  0  0  0  0  0  0  0  0  0  0  0
    0.3985    0.2005   -3.6481 C   0  0  0  0  0  0  0  0  0  0  0  0
   -0.6102    0.4356   -3.9743 H   0  0  0  0  0  0  0  0  0  0  0  0
   -0.0917   -0.4924    1.1770 C   0  0  0  0  0  0  0  0  0  0  0  0
    1.0772   -0.4135    1.5327 O   0  0  0  0  0  0  0  0  0  0  0  0
   -1.0678    0.1485    1.9189 N   0  0  0  0  0  0  0  0  0  0  0  0
   -2.0271   -0.0255    1.6382 H   0  0  0  0  0  0  0  0  0  0  0  0
   -0.8159    0.7038    3.2426 C   0  0  0  0  0  0  0  0  0  0  0  0
   -0.0223    1.4573    3.1987 H   0  0  0  0  0  0  0  0  0  0  0  0
   -1.7207    1.1806    3.6309 H   0  0  0  0  0  0  0  0  0  0  0  0
   -0.5133   -0.0872    3.9369 H   0  0  0  0  0  0  0  0  0  0  0  0
  1  2  1  0  0  0  0
  2  3  1  0  0  0  0
  2  4  1  0  0  0  0
  2  5  1  0  0  0  0
  5  6  2  0  0  0  0
  5  7  1  0  0  0  0
  7  8  1  0  0  0  0
  7  9  1  0  0  0  0
  9 10  1  0  0  0  0
  9 11  1  0  0  0  0
  9 26  1  0  0  0  0
 11 12  1  0  0  0  0
 11 13  1  0  0  0  0
 11 14  1  0  0  0  0
 14 15  2  0  0  0  0
 14 24  1  0  0  0  0
 15 16  1  0  0  0  0
 15 17  1  0  0  0  0
 17 18  1  0  0  0  0
 17 19  2  0  0  0  0
 19 20  1  0  0  0  0
 19 22  1  0  0  0  0
 20 21  1  0  0  0  0
 22 23  1  0  0  0  0
 22 24  2  0  0  0  0
 24 25  1  0  0  0  0
 26 27  2  0  0  0  0
 26 28  1  0  0  0  0
 28 29  1  0  0  0  0
 28 30  1  0  0  0  0
 30 31  1  0  0  0  0
 30 32  1  0  0  0  0
 30 33  1  0  0  0  0
M  END
$$$$

  -OEChem-03222214083D

 33 33  0     1  0  0  0  0  0999 V2000
   -3.3474   -4.5979    0.7533 H   0  0  0  0  0  0  0  0  0  0  0  0
   -3.2827   -3.7138    0.1123 C   0  0  0  0  0  0  0  0  0  0  0  0
   -4.1659   -3.0929    0.2801 H   0  0  0  0  0  0  0  0  0  0  0  0
   -3.2653   -4.0384   -0.9309 H   0  0  0  0  0  0  0  0  0  0  0  0
   -2.0254   -2.9273    0.4337 C   0  0  0  0  0  0  0  0  0  0  0  0
   -1.3009   -3.2898    1.3427 O   0  0  0  0  0  0  0  0  0  0  0  0
   -1.7180   -1.7979   -0.3004 N   0  0  0  0  0  0  0  0  0  0  0  0
   -2.2954   -1.6264   -1.1181 H   0  0  0  0  0  0  0  0  0  0  0  0
   -0.4362   -1.0714   -0.1969 C   0  0  1  0  0  0  0  0  0  0  0  0
    0.3382   -1.8106   -0.4166 H   0  0  0  0  0  0  0  0  0  0  0  0
   -0.4090    0.0644   -1.2543 C   0  0  0  0  0  0  0  0  0  0  0  0
   -1.3634    0.0800   -1.7898 H   0  0  0  0  0  0  0  0  0  0  0  0
   -0.3242    1.0310   -0.7459 H   0  0  0  0  0  0  0  0  0  0  0  0
    0.7142   -0.0137   -2.2744 C   0  0  0  0  0  0  0  0  0  0  0  0
    1.9710   -0.5825   -1.9897 C   0  0  0  0  0  0  0  0  0  0  0  0
    2.2104   -0.9458   -0.9937 H   0  0  0  0  0  0  0  0  0  0  0  0
    2.9613   -0.6580   -2.9758 C   0  0  0  0  0  0  0  0  0  0  0  0
    3.9229   -1.0938   -2.7276 H   0  0  0  0  0  0  0  0  0  0  0  0
    2.7152   -0.1701   -4.2593 C   0  0  0  0  0  0  0  0  0  0  0  0
    3.6752   -0.2407   -5.2267 O   0  0  0  0  0  0  0  0  0  0  0  0
    4.4826   -0.6349   -4.8617 H   0  0  0  0  0  0  0  0  0  0  0  0
    1.4791    0.3997   -4.5517 C   0  0  0  0  0  0  0  0  0  0  0  0
    1.2973    0.7808   -5.5513 H   0  0  0  0  0  0  0  0  0  0  0  0
    0.4862    0.4809   -3.5693 C   0  0  0  0  0  0  0  0  0  0  0  0
   -0.4686    0.9312   -3.8236 H   0  0  0  0  0  0  0  0  0  0  0  0
   -0.1047   -0.5070    1.2011 C   0  0  0  0  0  0  0  0  0  0  0  0
    1.0636   -0.4365    1.5600 O   0  0  0  0  0  0  0  0  0  0  0  0
   -1.0775    0.1521    1.9308 N   0  0  0  0  0  0  0  0  0  0  0  0
   -2.0378   -0.0161    1.6495 H   0  0  0  0  0  0  0  0  0  0  0  0
   -0.8230    0.7253    3.2466 C   0  0  0  0  0  0  0  0  0  0  0  0
   -0.0207    1.4689    3.1927 H   0  0  0  0  0  0  0  0  0  0  0  0
   -1.7233    1.2185    3.6253 H   0  0  0  0  0  0  0  0  0  0  0  0
   -0.5306   -0.0576    3.9542 H   0  0  0  0  0  0  0  0  0  0  0  0
  1  2  1  0  0  0  0
  2  3  1  0  0  0  0
  2  4  1  0  0  0  0
  2  5  1  0  0  0  0
  5  6  2  0  0  0  0
  5  7  1  0  0  0  0
  7  8  1  0  0  0  0
  7  9  1  0  0  0  0
  9 10  1  0  0  0  0
  9 11  1  0  0  0  0
  9 26  1  0  0  0  0
 11 12  1  0  0  0  0
 11 13  1  0  0  0  0
 11 14  1  0  0  0  0
 14 15  2  0  0  0  0
 14 24  1  0  0  0  0
 15 16  1  0  0  0  0
 15 17  1  0  0  0  0
 17 18  1  0  0  0  0
 17 19  2  0  0  0  0
 19 20  1  0  0  0  0
 19 22  1  0  0  0  0
 20 21  1  0  0  0  0
 22 23  1  0  0  0  0
 22 24  2  0  0  0  0
 24 25  1  0  0  0  0
 26 27  2  0  0  0  0
 26 28  1  0  0  0  0
 28 29  1  0  0  0  0
 28 30  1  0  0  0  0
 30 31  1  0  0  0  0
 30 32  1  0  0  0  0
 30 33  1  0  0  0  0
M  END
$$$$

  -OEChem-03222214083D

 33 33  0     1  0  0  0  0  0999 V2000
   -3.4134   -4.5772    0.7786 H   0  0  0  0  0  0  0  0  0  0  0  0
   -3.3300   -3.6955    0.1366 C   0  0  0  0  0  0  0  0  0  0  0  0
   -4.2050   -3.0608    0.2958 H   0  0  0  0  0  0  0  0  0  0  0  0
   -3.3090   -4.0223   -0.9060 H   0  0  0  0  0  0  0  0  0  0  0  0
   -2.0638   -2.9273    0.4673 C   0  0  0  0  0  0  0  0  0  0  0  0
   -1.3608   -3.2882    1.3938 O   0  0  0  0  0  0  0  0  0  0  0  0
   -1.7209   -1.8183   -0.2819 N   0  0  0  0  0  0  0  0  0  0  0  0
   -2.2840   -1.6460   -1.1096 H   0  0  0  0  0  0  0  0  0  0  0  0
   -0.4282   -1.1126   -0.1672 C   0  0  1  0  0  0  0  0  0  0  0  0
    0.3325   -1.8721   -0.3486 H   0  0  0  0  0  0  0  0  0  0  0  0
   -0.3647    0.0049   -1.2441 C   0  0  0  0  0  0  0  0  0  0  0  0
   -1.3126    0.0214   -1.7911 H   0  0  0  0  0  0  0  0  0  0  0  0
   -0.2825    0.9757   -0.7433 H   0  0  0  0  0  0  0  0  0  0  0  0
    0.7579   -0.0638   -2.2697 C   0  0  0  0  0  0  0  0  0  0  0  0
    1.9095   -0.8695   -2.1483 C   0  0  0  0  0  0  0  0  0  0  0  0
    2.1068   -1.4645   -1.2629 H   0  0  0  0  0  0  0  0  0  0  0  0
    2.8769   -0.8919   -3.1602 C   0  0  0  0  0  0  0  0  0  0  0  0
    3.7567   -1.5142   -3.0373 H   0  0  0  0  0  0  0  0  0  0  0  0
    2.7168   -0.1150   -4.3072 C   0  0  0  0  0  0  0  0  0  0  0  0
    3.6573   -0.1296   -5.2962 O   0  0  0  0  0  0  0  0  0  0  0  0
    4.4013   -0.6950   -5.0369 H   0  0  0  0  0  0  0  0  0  0  0  0
    1.5888    0.6887   -4.4378 C   0  0  0  0  0  0  0  0  0  0  0  0
    1.4738    1.2951   -5.3302 H   0  0  0  0  0  0  0  0  0  0  0  0
    0.6194    0.7162   -3.4303 C   0  0  0  0  0  0  0  0  0  0  0  0
   -0.2506    1.3534   -3.5581 H   0  0  0  0  0  0  0  0  0  0  0  0
   -0.1153   -0.5271    1.2263 C   0  0  0  0  0  0  0  0  0  0  0  0
    1.0453   -0.4766    1.6117 O   0  0  0  0  0  0  0  0  0  0  0  0
   -1.0913    0.1629    1.9225 N   0  0  0  0  0  0  0  0  0  0  0  0
   -2.0483    0.0048    1.6245 H   0  0  0  0  0  0  0  0  0  0  0  0
   -0.8538    0.7527    3.2338 C   0  0  0  0  0  0  0  0  0  0  0  0
   -0.0350    1.4784    3.1862 H   0  0  0  0  0  0  0  0  0  0  0  0
   -1.7515    1.2708    3.5835 H   0  0  0  0  0  0  0  0  0  0  0  0
   -0.5939   -0.0244    3.9603 H   0  0  0  0  0  0  0  0  0  0  0  0
  1  2  1  0  0  0  0
  2  3  1  0  0  0  0
  2  4  1  0  0  0  0
  2  5  1  0  0  0  0
  5  6  2  0  0  0  0
  5  7  1  0  0  0  0
  7  8  1  0  0  0  0
  7  9  1  0  0  0  0
  9 10  1  0  0  0  0
  9 11  1  0  0  0  0
  9 26  1  0  0  0  0
 11 12  1  0  0  0  0
 11 13  1  0  0  0  0
 11 14  1  0  0  0  0
 14 15  2  0  0  0  0
 14 24  1  0  0  0  0
 15 16  1  0  0  0  0
 15 17  1  0  0  0  0
 17 18  1  0  0  0  0
 17 19  2  0  0  0  0
 19 20  1  0  0  0  0
 19 22  1  0  0  0  0
 20 21  1  0  0  0  0
 22 23  1  0  0  0  0
 22 24  2  0  0  0  0
 24 25  1  0  0  0  0
 26 27  2  0  0  0  0
 26 28  1  0  0  0  0
 28 29  1  0  0  0  0
 28 30  1  0  0  0  0
 30 31  1  0  0  0  0
 30 32  1  0  0  0  0
 30 33  1  0  0  0  0
M  END
$$$$

  -OEChem-03222214083D

 33 33  0     1  0  0  0  0  0999 V2000
   -3.4702   -4.5381    0.8457 H   0  0  0  0  0  0  0  0  0  0  0  0
   -3.3709   -3.6655    0.1938 C   0  0  0  0  0  0  0  0  0  0  0  0
   -4.2258   -3.0050    0.3575 H   0  0  0  0  0  0  0  0  0  0  0  0
   -3.3715   -4.0028   -0.8454 H   0  0  0  0  0  0  0  0  0  0  0  0
   -2.0798   -2.9303    0.5014 C   0  0  0  0  0  0  0  0  0  0  0  0
   -1.3786   -3.2999    1.4257 O   0  0  0  0  0  0  0  0  0  0  0  0
   -1.7113   -1.8428   -0.2670 N   0  0  0  0  0  0  0  0  0  0  0  0
   -2.2768   -1.6624   -1.0913 H   0  0  0  0  0  0  0  0  0  0  0  0
   -0.4089   -1.1541   -0.1581 C   0  0  1  0  0  0  0  0  0  0  0  0
    0.3556   -1.9139   -0.3103 H   0  0  0  0  0  0  0  0  0  0  0  0
   -0.3351   -0.0444   -1.2436 C   0  0  0  0  0  0  0  0  0  0  0  0
   -1.2846   -0.0191   -1.7873 H   0  0  0  0  0  0  0  0  0  0  0  0
   -0.2434    0.9260   -0.7430 H   0  0  0  0  0  0  0  0  0  0  0  0
    0.7733   -0.1111   -2.2867 C   0  0  0  0  0  0  0  0  0  0  0  0
    1.7691   -1.1082   -2.3676 C   0  0  0  0  0  0  0  0  0  0  0  0
    1.8434   -1.9228   -1.6580 H   0  0  0  0  0  0  0  0  0  0  0  0
    2.7337   -1.0752   -3.3821 C   0  0  0  0  0  0  0  0  0  0  0  0
    3.4905   -1.8514   -3.4184 H   0  0  0  0  0  0  0  0  0  0  0  0
    2.7266   -0.0551   -4.3322 C   0  0  0  0  0  0  0  0  0  0  0  0
    3.6664   -0.0167   -5.3210 O   0  0  0  0  0  0  0  0  0  0  0  0
    4.3078   -0.7330   -5.1953 H   0  0  0  0  0  0  0  0  0  0  0  0
    1.7519    0.9346   -4.2654 C   0  0  0  0  0  0  0  0  0  0  0  0
    1.7530    1.7282   -5.0054 H   0  0  0  0  0  0  0  0  0  0  0  0
    0.7870    0.9084   -3.2540 C   0  0  0  0  0  0  0  0  0  0  0  0
    0.0399    1.6961   -3.2244 H   0  0  0  0  0  0  0  0  0  0  0  0
   -0.1154   -0.5498    1.2329 C   0  0  0  0  0  0  0  0  0  0  0  0
    1.0361   -0.5075    1.6448 O   0  0  0  0  0  0  0  0  0  0  0  0
   -1.0973    0.1621    1.8990 N   0  0  0  0  0  0  0  0  0  0  0  0
   -2.0493    0.0157    1.5805 H   0  0  0  0  0  0  0  0  0  0  0  0
   -0.8812    0.7695    3.2059 C   0  0  0  0  0  0  0  0  0  0  0  0
   -0.0498    1.4812    3.1656 H   0  0  0  0  0  0  0  0  0  0  0  0
   -1.7784    1.3075    3.5263 H   0  0  0  0  0  0  0  0  0  0  0  0
   -0.6514    0.0003    3.9506 H   0  0  0  0  0  0  0  0  0  0  0  0
  1  2  1  0  0  0  0
  2  3  1  0  0  0  0
  2  4  1  0  0  0  0
  2  5  1  0  0  0  0
  5  6  2  0  0  0  0
  5  7  1  0  0  0  0
  7  8  1  0  0  0  0
  7  9  1  0  0  0  0
  9 10  1  0  0  0  0
  9 11  1  0  0  0  0
  9 26  1  0  0  0  0
 11 12  1  0  0  0  0
 11 13  1  0  0  0  0
 11 14  1  0  0  0  0
 14 15  2  0  0  0  0
 14 24  1  0  0  0  0
 15 16  1  0  0  0  0
 15 17  1  0  0  0  0
 17 18  1  0  0  0  0
 17 19  2  0  0  0  0
 19 20  1  0  0  0  0
 19 22  1  0  0  0  0
 20 21  1  0  0  0  0
 22 23  1  0  0  0  0
 22 24  2  0  0  0  0
 24 25  1  0  0  0  0
 26 27  2  0  0  0  0
 26 28  1  0  0  0  0
 28 29  1  0  0  0  0
 28 30  1  0  0  0  0
 30 31  1  0  0  0  0
 30 32  1  0  0  0  0
 30 33  1  0  0  0  0
M  END
$$$$

  -OEChem-03222214083D

 33 33  0     1  0  0  0  0  0999 V2000
   -3.4616   -4.5264    0.8914 H   0  0  0  0  0  0  0  0  0  0  0  0
   -3.3682   -3.6580    0.2329 C   0  0  0  0  0  0  0  0  0  0  0  0
   -4.2104   -2.9862    0.4151 H   0  0  0  0  0  0  0  0  0  0  0  0
   -3.3992   -3.9996   -0.8045 H   0  0  0  0  0  0  0  0  0  0  0  0
   -2.0608   -2.9372    0.5040 C   0  0  0  0  0  0  0  0  0  0  0  0
   -1.3344   -3.3200    1.4030 O   0  0  0  0  0  0  0  0  0  0  0  0
   -1.7057   -1.8491   -0.2702 N   0  0  0  0  0  0  0  0  0  0  0  0
   -2.2973   -1.6532   -1.0724 H   0  0  0  0  0  0  0  0  0  0  0  0
   -0.4046   -1.1548   -0.1811 C   0  0  1  0  0  0  0  0  0  0  0  0
    0.3778   -1.8965   -0.3392 H   0  0  0  0  0  0  0  0  0  0  0  0
   -0.3553   -0.0352   -1.2579 C   0  0  0  0  0  0  0  0  0  0  0  0
   -1.3114   -0.0057   -1.7895 H   0  0  0  0  0  0  0  0  0  0  0  0
   -0.2584    0.9307   -0.7495 H   0  0  0  0  0  0  0  0  0  0  0  0
    0.7384   -0.1045   -2.3153 C   0  0  0  0  0  0  0  0  0  0  0  0
    1.5272   -1.2408   -2.5932 C   0  0  0  0  0  0  0  0  0  0  0  0
    1.3950   -2.1814   -2.0717 H   0  0  0  0  0  0  0  0  0  0  0  0
    2.5165   -1.2004   -3.5834 C   0  0  0  0  0  0  0  0  0  0  0  0
    3.1102   -2.0874   -3.7764 H   0  0  0  0  0  0  0  0  0  0  0  0
    2.7360   -0.0341   -4.3156 C   0  0  0  0  0  0  0  0  0  0  0  0
    3.6998    0.0121   -5.2808 O   0  0  0  0  0  0  0  0  0  0  0  0
    4.2006   -0.8181   -5.2889 H   0  0  0  0  0  0  0  0  0  0  0  0
    1.9619    1.0923   -4.0569 C   0  0  0  0  0  0  0  0  0  0  0  0
    2.1375    1.9975   -4.6290 H   0  0  0  0  0  0  0  0  0  0  0  0
    0.9744    1.0592   -3.0672 C   0  0  0  0  0  0  0  0  0  0  0  0
    0.3892    1.9554   -2.8824 H   0  0  0  0  0  0  0  0  0  0  0  0
   -0.1068   -0.5518    1.2106 C   0  0  0  0  0  0  0  0  0  0  0  0
    1.0459   -0.5019    1.6182 O   0  0  0  0  0  0  0  0  0  0  0  0
   -1.0900    0.1516    1.8844 N   0  0  0  0  0  0  0  0  0  0  0  0
   -2.0427    0.0027    1.5690 H   0  0  0  0  0  0  0  0  0  0  0  0
   -0.8711    0.7584    3.1914 C   0  0  0  0  0  0  0  0  0  0  0  0
   -0.0408    1.4711    3.1490 H   0  0  0  0  0  0  0  0  0  0  0  0
   -1.7678    1.2954    3.5147 H   0  0  0  0  0  0  0  0  0  0  0  0
   -0.6375   -0.0106    3.9350 H   0  0  0  0  0  0  0  0  0  0  0  0
  1  2  1  0  0  0  0
  2  3  1  0  0  0  0
  2  4  1  0  0  0  0
  2  5  1  0  0  0  0
  5  6  2  0  0  0  0
  5  7  1  0  0  0  0
  7  8  1  0  0  0  0
  7  9  1  0  0  0  0
  9 10  1  0  0  0  0
  9 11  1  0  0  0  0
  9 26  1  0  0  0  0
 11 12  1  0  0  0  0
 11 13  1  0  0  0  0
 11 14  1  0  0  0  0
 14 15  2  0  0  0  0
 14 24  1  0  0  0  0
 15 16  1  0  0  0  0
 15 17  1  0  0  0  0
 17 18  1  0  0  0  0
 17 19  2  0  0  0  0
 19 20  1  0  0  0  0
 19 22  1  0  0  0  0
 20 21  1  0  0  0  0
 22 23  1  0  0  0  0
 22 24  2  0  0  0  0
 24 25  1  0  0  0  0
 26 27  2  0  0  0  0
 26 28  1  0  0  0  0
 28 29  1  0  0  0  0
 28 30  1  0  0  0  0
 30 31  1  0  0  0  0
 30 32  1  0  0  0  0
 30 33  1  0  0  0  0
M  END
$$$$

  -OEChem-03222214083D

 33 33  0     1  0  0  0  0  0999 V2000
   -3.3947   -4.5473    0.8727 H   0  0  0  0  0  0  0  0  0  0  0  0
   -3.3219   -3.6743    0.2175 C   0  0  0  0  0  0  0  0  0  0  0  0
   -4.1672   -3.0120    0.4197 H   0  0  0  0  0  0  0  0  0  0  0  0
   -3.3694   -4.0104   -0.8212 H   0  0  0  0  0  0  0  0  0  0  0  0
   -2.0168   -2.9420    0.4672 C   0  0  0  0  0  0  0  0  0  0  0  0
   -1.2594   -3.3346    1.3357 O   0  0  0  0  0  0  0  0  0  0  0  0
   -1.6987   -1.8325   -0.2923 N   0  0  0  0  0  0  0  0  0  0  0  0
   -2.3214   -1.6195   -1.0660 H   0  0  0  0  0  0  0  0  0  0  0  0
   -0.4101   -1.1135   -0.2171 C   0  0  1  0  0  0  0  0  0  0  0  0
    0.3914   -1.8302   -0.4101 H   0  0  0  0  0  0  0  0  0  0  0  0
   -0.4040    0.0266   -1.2712 C   0  0  0  0  0  0  0  0  0  0  0  0
   -1.3643    0.0478   -1.7951 H   0  0  0  0  0  0  0  0  0  0  0  0
   -0.3156    0.9877   -0.7525 H   0  0  0  0  0  0  0  0  0  0  0  0
    0.6863   -0.0472   -2.3274 C   0  0  0  0  0  0  0  0  0  0  0  0
    1.2377   -1.2581   -2.7902 C   0  0  0  0  0  0  0  0  0  0  0  0
    0.8816   -2.2163   -2.4267 H   0  0  0  0  0  0  0  0  0  0  0  0
    2.2529   -1.2592   -3.7541 C   0  0  0  0  0  0  0  0  0  0  0  0
    2.6629   -2.2043   -4.0930 H   0  0  0  0  0  0  0  0  0  0  0  0
    2.7310   -0.0566   -4.2749 C   0  0  0  0  0  0  0  0  0  0  0  0
    3.7228   -0.0490   -5.2126 O   0  0  0  0  0  0  0  0  0  0  0  0
    4.0511   -0.9502   -5.3551 H   0  0  0  0  0  0  0  0  0  0  0  0
    2.1886    1.1464   -3.8321 C   0  0  0  0  0  0  0  0  0  0  0  0
    2.5655    2.0785   -4.2403 H   0  0  0  0  0  0  0  0  0  0  0  0
    1.1765    1.1539   -2.8665 C   0  0  0  0  0  0  0  0  0  0  0  0
    0.7778    2.1071   -2.5317 H   0  0  0  0  0  0  0  0  0  0  0  0
   -0.0956   -0.5310    1.1798 C   0  0  0  0  0  0  0  0  0  0  0  0
    1.0639   -0.4605    1.5642 O   0  0  0  0  0  0  0  0  0  0  0  0
   -1.0790    0.1389    1.8865 N   0  0  0  0  0  0  0  0  0  0  0  0
   -2.0348   -0.0247    1.5888 H   0  0  0  0  0  0  0  0  0  0  0  0
   -0.8450    0.7273    3.1992 C   0  0  0  0  0  0  0  0  0  0  0  0
   -0.0335    1.4611    3.1517 H   0  0  0  0  0  0  0  0  0  0  0  0
   -1.7472    1.2355    3.5526 H   0  0  0  0  0  0  0  0  0  0  0  0
   -0.5758   -0.0491    3.9232 H   0  0  0  0  0  0  0  0  0  0  0  0
  1  2  1  0  0  0  0
  2  3  1  0  0  0  0
  2  4  1  0  0  0  0
  2  5  1  0  0  0  0
  5  6  2  0  0  0  0
  5  7  1  0  0  0  0
  7  8  1  0  0  0  0
  7  9  1  0  0  0  0
  9 10  1  0  0  0  0
  9 11  1  0  0  0  0
  9 26  1  0  0  0  0
 11 12  1  0  0  0  0
 11 13  1  0  0  0  0
 11 14  1  0  0  0  0
 14 15  2  0  0  0  0
 14 24  1  0  0  0  0
 15 16  1  0  0  0  0
 15 17  1  0  0  0  0
 17 18  1  0  0  0  0
 17 19  2  0  0  0  0
 19 20  1  0  0  0  0
 19 22  1  0  0  0  0
 20 21  1  0  0  0  0
 22 23  1  0  0  0  0
 22 24  2  0  0  0  0
 24 25  1  0  0  0  0
 26 27  2  0  0  0  0
 26 28  1  0  0  0  0
 28 29  1  0  0  0  0
 28 30  1  0  0  0  0
 30 31  1  0  0  0  0
 30 32  1  0  0  0  0
 30 33  1  0  0  0  0
M  END
$$$$

  -OEChem-03222214083D

 33 33  0     1  0  0  0  0  0999 V2000
   -3.3120   -4.5737    0.8252 H   0  0  0  0  0  0  0  0  0  0  0  0
   -3.2675   -3.6876    0.1852 C   0  0  0  0  0  0  0  0  0  0  0  0
   -4.1178   -3.0425    0.4193 H   0  0  0  0  0  0  0  0  0  0  0  0
   -3.3348   -4.0052   -0.8582 H   0  0  0  0  0  0  0  0  0  0  0  0
   -1.9677   -2.9401    0.4191 C   0  0  0  0  0  0  0  0  0  0  0  0
   -1.1804   -3.3421    1.2561 O   0  0  0  0  0  0  0  0  0  0  0  0
   -1.6876   -1.8066   -0.3196 N   0  0  0  0  0  0  0  0  0  0  0  0
   -2.3424   -1.5722   -1.0597 H   0  0  0  0  0  0  0  0  0  0  0  0
   -0.4150   -1.0591   -0.2488 C   0  0  1  0  0  0  0  0  0  0  0  0
    0.3992   -1.7529   -0.4809 H   0  0  0  0  0  0  0  0  0  0  0  0
   -0.4444    0.0961   -1.2819 C   0  0  0  0  0  0  0  0  0  0  0  0
   -1.4034    0.1046   -1.8086 H   0  0  0  0  0  0  0  0  0  0  0  0
   -0.3706    1.0552   -0.7574 H   0  0  0  0  0  0  0  0  0  0  0  0
    0.6540    0.0144   -2.3232 C   0  0  0  0  0  0  0  0  0  0  0  0
    0.9710   -1.1921   -2.9727 C   0  0  0  0  0  0  0  0  0  0  0  0
    0.4190   -2.0995   -2.7471 H   0  0  0  0  0  0  0  0  0  0  0  0
    1.9982   -1.2425   -3.9225 C   0  0  0  0  0  0  0  0  0  0  0  0
    2.2286   -2.1836   -4.4097 H   0  0  0  0  0  0  0  0  0  0  0  0
    2.7198   -0.0900   -4.2383 C   0  0  0  0  0  0  0  0  0  0  0  0
    3.7272   -0.1300   -5.1586 O   0  0  0  0  0  0  0  0  0  0  0  0
    3.8825   -1.0442   -5.4416 H   0  0  0  0  0  0  0  0  0  0  0  0
    2.4098    1.1109   -3.6042 C   0  0  0  0  0  0  0  0  0  0  0  0
    2.9774    2.0019   -3.8526 H   0  0  0  0  0  0  0  0  0  0  0  0
    1.3866    1.1661   -2.6514 C   0  0  0  0  0  0  0  0  0  0  0  0
    1.1716    2.1121   -2.1628 H   0  0  0  0  0  0  0  0  0  0  0  0
   -0.0892   -0.4998    1.1546 C   0  0  0  0  0  0  0  0  0  0  0  0
    1.0741   -0.4095    1.5226 O   0  0  0  0  0  0  0  0  0  0  0  0
   -1.0765    0.1311    1.8912 N   0  0  0  0  0  0  0  0  0  0  0  0
   -2.0325   -0.0490    1.6039 H   0  0  0  0  0  0  0  0  0  0  0  0
   -0.8368    0.6867    3.2174 C   0  0  0  0  0  0  0  0  0  0  0  0
   -0.0375    1.4344    3.1827 H   0  0  0  0  0  0  0  0  0  0  0  0
   -1.7427    1.1705    3.5946 H   0  0  0  0  0  0  0  0  0  0  0  0
   -0.5475   -0.1054    3.9161 H   0  0  0  0  0  0  0  0  0  0  0  0
  1  2  1  0  0  0  0
  2  3  1  0  0  0  0
  2  4  1  0  0  0  0
  2  5  1  0  0  0  0
  5  6  2  0  0  0  0
  5  7  1  0  0  0  0
  7  8  1  0  0  0  0
  7  9  1  0  0  0  0
  9 10  1  0  0  0  0
  9 11  1  0  0  0  0
  9 26  1  0  0  0  0
 11 12  1  0  0  0  0
 11 13  1  0  0  0  0
 11 14  1  0  0  0  0
 14 15  2  0  0  0  0
 14 24  1  0  0  0  0
 15 16  1  0  0  0  0
 15 17  1  0  0  0  0
 17 18  1  0  0  0  0
 17 19  2  0  0  0  0
 19 20  1  0  0  0  0
 19 22  1  0  0  0  0
 20 21  1  0  0  0  0
 22 23  1  0  0  0  0
 22 24  2  0  0  0  0
 24 25  1  0  0  0  0
 26 27  2  0  0  0  0
 26 28  1  0  0  0  0
 28 29  1  0  0  0  0
 28 30  1  0  0  0  0
 30 31  1  0  0  0  0
 30 32  1  0  0  0  0
 30 33  1  0  0  0  0
M  END
$$$$

  -OEChem-03222214083D

 33 33  0     1  0  0  0  0  0999 V2000
   -3.2540   -4.5943    0.7703 H   0  0  0  0  0  0  0  0  0  0  0  0
   -3.2217   -3.7058    0.1332 C   0  0  0  0  0  0  0  0  0  0  0  0
   -4.0874   -3.0791    0.3594 H   0  0  0  0  0  0  0  0  0  0  0  0
   -3.2706   -4.0215   -0.9116 H   0  0  0  0  0  0  0  0  0  0  0  0
   -1.9405   -2.9324    0.3823 C   0  0  0  0  0  0  0  0  0  0  0  0
   -1.1471   -3.3287    1.2161 O   0  0  0  0  0  0  0  0  0  0  0  0
   -1.6847   -1.7824   -0.3390 N   0  0  0  0  0  0  0  0  0  0  0  0
   -2.3440   -1.5515   -1.0761 H   0  0  0  0  0  0  0  0  0  0  0  0
   -0.4225   -1.0183   -0.2661 C   0  0  1  0  0  0  0  0  0  0  0  0
    0.3967   -1.6978   -0.5273 H   0  0  0  0  0  0  0  0  0  0  0  0
   -0.4733    0.1482   -1.2807 C   0  0  0  0  0  0  0  0  0  0  0  0
   -1.4313    0.1527   -1.8095 H   0  0  0  0  0  0  0  0  0  0  0  0
   -0.4049    1.1059   -0.7529 H   0  0  0  0  0  0  0  0  0  0  0  0
    0.6340    0.0551   -2.3056 C   0  0  0  0  0  0  0  0  0  0  0  0
    0.7372   -1.0608   -3.1523 C   0  0  0  0  0  0  0  0  0  0  0  0
    0.0153   -1.8686   -3.0789 H   0  0  0  0  0  0  0  0  0  0  0  0
    1.7695   -1.1457   -4.0940 C   0  0  0  0  0  0  0  0  0  0  0  0
    1.8344   -2.0153   -4.7385 H   0  0  0  0  0  0  0  0  0  0  0  0
    2.7091   -0.1181   -4.1995 C   0  0  0  0  0  0  0  0  0  0  0  0
    3.7207   -0.1905   -5.1131 O   0  0  0  0  0  0  0  0  0  0  0  0
    3.6999   -1.0477   -5.5652 H   0  0  0  0  0  0  0  0  0  0  0  0
    2.6154    0.9896   -3.3593 C   0  0  0  0  0  0  0  0  0  0  0  0
    3.3535    1.7806   -3.4415 H   0  0  0  0  0  0  0  0  0  0  0  0
    1.5879    1.0780   -2.4139 C   0  0  0  0  0  0  0  0  0  0  0  0
    1.5420    1.9441   -1.7599 H   0  0  0  0  0  0  0  0  0  0  0  0
   -0.0864   -0.4770    1.1416 C   0  0  0  0  0  0  0  0  0  0  0  0
    1.0808   -0.3649    1.4912 O   0  0  0  0  0  0  0  0  0  0  0  0
   -1.0731    0.1288    1.9001 N   0  0  0  0  0  0  0  0  0  0  0  0
   -2.0302   -0.0666    1.6269 H   0  0  0  0  0  0  0  0  0  0  0  0
   -0.8225    0.6790    3.2264 C   0  0  0  0  0  0  0  0  0  0  0  0
   -0.0604    1.4641    3.1785 H   0  0  0  0  0  0  0  0  0  0  0  0
   -1.7392    1.1149    3.6348 H   0  0  0  0  0  0  0  0  0  0  0  0
   -0.4770   -0.1064    3.9069 H   0  0  0  0  0  0  0  0  0  0  0  0
  1  2  1  0  0  0  0
  2  3  1  0  0  0  0
  2  4  1  0  0  0  0
  2  5  1  0  0  0  0
  5  6  2  0  0  0  0
  5  7  1  0  0  0  0
  7  8  1  0  0  0  0
  7  9  1  0  0  0  0
  9 10  1  0  0  0  0
  9 11  1  0  0  0  0
  9 26  1  0  0  0  0
 11 12  1  0  0  0  0
 11 13  1  0  0  0  0
 11 14  1  0  0  0  0
 14 15  2  0  0  0  0
 14 24  1  0  0  0  0
 15 16  1  0  0  0  0
 15 17  1  0  0  0  0
 17 18  1  0  0  0  0
 17 19  2  0  0  0  0
 19 20  1  0  0  0  0
 19 22  1  0  0  0  0
 20 21  1  0  0  0  0
 22 23  1  0  0  0  0
 22 24  2  0  0  0  0
 24 25  1  0  0  0  0
 26 27  2  0  0  0  0
 26 28  1  0  0  0  0
 28 29  1  0  0  0  0
 28 30  1  0  0  0  0
 30 31  1  0  0  0  0
 30 32  1  0  0  0  0
 30 33  1  0  0  0  0
M  END
$$$$

  -OEChem-03222214083D

 33 33  0     1  0  0  0  0  0999 V2000
   -3.2174   -4.6082    0.7455 H   0  0  0  0  0  0  0  0  0  0  0  0
   -3.1967   -3.7144    0.1155 C   0  0  0  0  0  0  0  0  0  0  0  0
   -4.0673   -3.0981    0.3511 H   0  0  0  0  0  0  0  0  0  0  0  0
   -3.2481   -4.0225   -0.9314 H   0  0  0  0  0  0  0  0  0  0  0  0
   -1.9219   -2.9302    0.3645 C   0  0  0  0  0  0  0  0  0  0  0  0
   -1.1242   -3.3196    1.1975 O   0  0  0  0  0  0  0  0  0  0  0  0
   -1.6833   -1.7715   -0.3487 N   0  0  0  0  0  0  0  0  0  0  0  0
   -2.3485   -1.5445   -1.0814 H   0  0  0  0  0  0  0  0  0  0  0  0
   -0.4285   -0.9950   -0.2792 C   0  0  1  0  0  0  0  0  0  0  0  0
    0.3932   -1.6658   -0.5570 H   0  0  0  0  0  0  0  0  0  0  0  0
   -0.4918    0.1773   -1.2833 C   0  0  0  0  0  0  0  0  0  0  0  0
   -1.4512    0.1817   -1.8094 H   0  0  0  0  0  0  0  0  0  0  0  0
   -0.4224    1.1351   -0.7555 H   0  0  0  0  0  0  0  0  0  0  0  0
    0.6192    0.0789   -2.3001 C   0  0  0  0  0  0  0  0  0  0  0  0
    0.5536   -0.8617   -3.3395 C   0  0  0  0  0  0  0  0  0  0  0  0
   -0.3061   -1.5192   -3.4250 H   0  0  0  0  0  0  0  0  0  0  0  0
    1.5939   -0.9622   -4.2709 C   0  0  0  0  0  0  0  0  0  0  0  0
    1.5277   -1.6923   -5.0699 H   0  0  0  0  0  0  0  0  0  0  0  0
    2.7106   -0.1296   -4.1681 C   0  0  0  0  0  0  0  0  0  0  0  0
    3.7328   -0.2222   -5.0680 O   0  0  0  0  0  0  0  0  0  0  0  0
    3.5758   -0.9611   -5.6753 H   0  0  0  0  0  0  0  0  0  0  0  0
    2.7856    0.7984   -3.1311 C   0  0  0  0  0  0  0  0  0  0  0  0
    3.6616    1.4339   -3.0507 H   0  0  0  0  0  0  0  0  0  0  0  0
    1.7498    0.9022   -2.1964 C   0  0  0  0  0  0  0  0  0  0  0  0
    1.8340    1.6181   -1.3832 H   0  0  0  0  0  0  0  0  0  0  0  0
   -0.0834   -0.4611    1.1290 C   0  0  0  0  0  0  0  0  0  0  0  0
    1.0867   -0.3205    1.4588 O   0  0  0  0  0  0  0  0  0  0  0  0
   -1.0703    0.1282    1.8996 N   0  0  0  0  0  0  0  0  0  0  0  0
   -2.0265   -0.0913    1.6415 H   0  0  0  0  0  0  0  0  0  0  0  0
   -0.8130    0.6773    3.2250 C   0  0  0  0  0  0  0  0  0  0  0  0
   -0.0487    1.4600    3.1750 H   0  0  0  0  0  0  0  0  0  0  0  0
   -1.7269    1.1160    3.6364 H   0  0  0  0  0  0  0  0  0  0  0  0
   -0.4678   -0.1093    3.9041 H   0  0  0  0  0  0  0  0  0  0  0  0
  1  2  1  0  0  0  0
  2  3  1  0  0  0  0
  2  4  1  0  0  0  0
  2  5  1  0  0  0  0
  5  6  2  0  0  0  0
  5  7  1  0  0  0  0
  7  8  1  0  0  0  0
  7  9  1  0  0  0  0
  9 10  1  0  0  0  0
  9 11  1  0  0  0  0
  9 26  1  0  0  0  0
 11 12  1  0  0  0  0
 11 13  1  0  0  0  0
 11 14  1  0  0  0  0
 14 15  2  0  0  0  0
 14 24  1  0  0  0  0
 15 16  1  0  0  0  0
 15 17  1  0  0  0  0
 17 18  1  0  0  0  0
 17 19  2  0  0  0  0
 19 20  1  0  0  0  0
 19 22  1  0  0  0  0
 20 21  1  0  0  0  0
 22 23  1  0  0  0  0
 22 24  2  0  0  0  0
 24 25  1  0  0  0  0
 26 27  2  0  0  0  0
 26 28  1  0  0  0  0
 28 29  1  0  0  0  0
 28 30  1  0  0  0  0
 30 31  1  0  0  0  0
 30 32  1  0  0  0  0
 30 33  1  0  0  0  0
M  END
$$$$

  -OEChem-03222214083D

 33 33  0     1  0  0  0  0  0999 V2000
   -3.1980   -4.6219    0.7243 H   0  0  0  0  0  0  0  0  0  0  0  0
   -3.1822   -3.7289    0.0926 C   0  0  0  0  0  0  0  0  0  0  0  0
   -4.0694   -3.1293    0.3090 H   0  0  0  0  0  0  0  0  0  0  0  0
   -3.2065   -4.0401   -0.9545 H   0  0  0  0  0  0  0  0  0  0  0  0
   -1.9283   -2.9193    0.3654 C   0  0  0  0  0  0  0  0  0  0  0  0
   -1.1432   -3.2905    1.2185 O   0  0  0  0  0  0  0  0  0  0  0  0
   -1.6948   -1.7590   -0.3474 N   0  0  0  0  0  0  0  0  0  0  0  0
   -2.3385   -1.5584   -1.1064 H   0  0  0  0  0  0  0  0  0  0  0  0
   -0.4394   -0.9838   -0.2787 C   0  0  1  0  0  0  0  0  0  0  0  0
    0.3785   -1.6574   -0.5615 H   0  0  0  0  0  0  0  0  0  0  0  0
   -0.4985    0.1913   -1.2791 C   0  0  0  0  0  0  0  0  0  0  0  0
   -1.4605    0.2050   -1.8005 H   0  0  0  0  0  0  0  0  0  0  0  0
   -0.4160    1.1488   -0.7521 H   0  0  0  0  0  0  0  0  0  0  0  0
    0.6150    0.0852   -2.2911 C   0  0  0  0  0  0  0  0  0  0  0  0
    0.4295   -0.6132   -3.4937 C   0  0  0  0  0  0  0  0  0  0  0  0
   -0.5281   -1.0740   -3.7154 H   0  0  0  0  0  0  0  0  0  0  0  0
    1.4759   -0.7211   -4.4177 C   0  0  0  0  0  0  0  0  0  0  0  0
    1.3173   -1.2605   -5.3449 H   0  0  0  0  0  0  0  0  0  0  0  0
    2.7165   -0.1400   -4.1445 C   0  0  0  0  0  0  0  0  0  0  0  0
    3.7431   -0.2397   -5.0387 O   0  0  0  0  0  0  0  0  0  0  0  0
    3.4698   -0.7712   -5.8016 H   0  0  0  0  0  0  0  0  0  0  0  0
    2.9095    0.5415   -2.9441 C   0  0  0  0  0  0  0  0  0  0  0  0
    3.8792    0.9797   -2.7314 H   0  0  0  0  0  0  0  0  0  0  0  0
    1.8679    0.6520   -2.0169 C   0  0  0  0  0  0  0  0  0  0  0  0
    2.0396    1.1697   -1.0763 H   0  0  0  0  0  0  0  0  0  0  0  0
   -0.0856   -0.4514    1.1275 C   0  0  0  0  0  0  0  0  0  0  0  0
    1.0877   -0.3059    1.4443 O   0  0  0  0  0  0  0  0  0  0  0  0
   -1.0653    0.1395    1.9061 N   0  0  0  0  0  0  0  0  0  0  0  0
   -2.0241   -0.0811    1.6581 H   0  0  0  0  0  0  0  0  0  0  0  0
   -0.7942    0.6893    3.2286 C   0  0  0  0  0  0  0  0  0  0  0  0
   -0.0427    1.4835    3.1679 H   0  0  0  0  0  0  0  0  0  0  0  0
   -1.7078    1.1129    3.6564 H   0  0  0  0  0  0  0  0  0  0  0  0
   -0.4256   -0.0939    3.8996 H   0  0  0  0  0  0  0  0  0  0  0  0
  1  2  1  0  0  0  0
  2  3  1  0  0  0  0
  2  4  1  0  0  0  0
  2  5  1  0  0  0  0
  5  6  2  0  0  0  0
  5  7  1  0  0  0  0
  7  8  1  0  0  0  0
  7  9  1  0  0  0  0
  9 10  1  0  0  0  0
  9 11  1  0  0  0  0
  9 26  1  0  0  0  0
 11 12  1  0  0  0  0
 11 13  1  0  0  0  0
 11 14  1  0  0  0  0
 14 15  2  0  0  0  0
 14 24  1  0  0  0  0
 15 16  1  0  0  0  0
 15 17  1  0  0  0  0
 17 18  1  0  0  0  0
 17 19  2  0  0  0  0
 19 20  1  0  0  0  0
 19 22  1  0  0  0  0
 20 21  1  0  0  0  0
 22 23  1  0  0  0  0
 22 24  2  0  0  0  0
 24 25  1  0  0  0  0
 26 27  2  0  0  0  0
 26 28  1  0  0  0  0
 28 29  1  0  0  0  0
 28 30  1  0  0  0  0
 30 31  1  0  0  0  0
 30 32  1  0  0  0  0
 30 33  1  0  0  0  0
M  END
$$$$

  -OEChem-03222214083D

 33 33  0     1  0  0  0  0  0999 V2000
   -3.2100   -4.6206    0.7069 H   0  0  0  0  0  0  0  0  0  0  0  0
   -3.1871   -3.7262    0.0776 C   0  0  0  0  0  0  0  0  0  0  0  0
   -4.0811   -3.1312    0.2793 H   0  0  0  0  0  0  0  0  0  0  0  0
   -3.1896   -4.0348   -0.9706 H   0  0  0  0  0  0  0  0  0  0  0  0
   -1.9427   -2.9114    0.3764 C   0  0  0  0  0  0  0  0  0  0  0  0
   -1.1777   -3.2752    1.2508 O   0  0  0  0  0  0  0  0  0  0  0  0
   -1.6967   -1.7545   -0.3376 N   0  0  0  0  0  0  0  0  0  0  0  0
   -2.3162   -1.5723   -1.1211 H   0  0  0  0  0  0  0  0  0  0  0  0
   -0.4351   -0.9899   -0.2637 C   0  0  1  0  0  0  0  0  0  0  0  0
    0.3777   -1.6708   -0.5430 H   0  0  0  0  0  0  0  0  0  0  0  0
   -0.4849    0.1837   -1.2684 C   0  0  0  0  0  0  0  0  0  0  0  0
   -1.4498    0.2071   -1.7843 H   0  0  0  0  0  0  0  0  0  0  0  0
   -0.3897    1.1406   -0.7433 H   0  0  0  0  0  0  0  0  0  0  0  0
    0.6290    0.0738   -2.2806 C   0  0  0  0  0  0  0  0  0  0  0  0
    0.3703   -0.3408   -3.5958 C   0  0  0  0  0  0  0  0  0  0  0  0
   -0.6417   -0.5855   -3.9033 H   0  0  0  0  0  0  0  0  0  0  0  0
    1.4137   -0.4424   -4.5242 C   0  0  0  0  0  0  0  0  0  0  0  0
    1.1980   -0.7623   -5.5377 H   0  0  0  0  0  0  0  0  0  0  0  0
    2.7226   -0.1332   -4.1467 C   0  0  0  0  0  0  0  0  0  0  0  0
    3.7468   -0.2293   -5.0441 O   0  0  0  0  0  0  0  0  0  0  0  0
    3.4159   -0.5582   -5.8935 H   0  0  0  0  0  0  0  0  0  0  0  0
    2.9849    0.2746   -2.8402 C   0  0  0  0  0  0  0  0  0  0  0  0
    4.0044    0.5076   -2.5501 H   0  0  0  0  0  0  0  0  0  0  0  0
    1.9467    0.3779   -1.9083 C   0  0  0  0  0  0  0  0  0  0  0  0
    2.1698    0.6873   -0.8896 H   0  0  0  0  0  0  0  0  0  0  0  0
   -0.0841   -0.4583    1.1437 C   0  0  0  0  0  0  0  0  0  0  0  0
    1.0892   -0.3251    1.4668 O   0  0  0  0  0  0  0  0  0  0  0  0
   -1.0624    0.1420    1.9164 N   0  0  0  0  0  0  0  0  0  0  0  0
   -2.0215   -0.0721    1.6640 H   0  0  0  0  0  0  0  0  0  0  0  0
   -0.7943    0.6919    3.2394 C   0  0  0  0  0  0  0  0  0  0  0  0
   -0.0386    1.4824    3.1803 H   0  0  0  0  0  0  0  0  0  0  0  0
   -1.7073    1.1205    3.6635 H   0  0  0  0  0  0  0  0  0  0  0  0
   -0.4322   -0.0922    3.9130 H   0  0  0  0  0  0  0  0  0  0  0  0
  1  2  1  0  0  0  0
  2  3  1  0  0  0  0
  2  4  1  0  0  0  0
  2  5  1  0  0  0  0
  5  6  2  0  0  0  0
  5  7  1  0  0  0  0
  7  8  1  0  0  0  0
  7  9  1  0  0  0  0
  9 10  1  0  0  0  0
  9 11  1  0  0  0  0
  9 26  1  0  0  0  0
 11 12  1  0  0  0  0
 11 13  1  0  0  0  0
 11 14  1  0  0  0  0
 14 15  2  0  0  0  0
 14 24  1  0  0  0  0
 15 16  1  0  0  0  0
 15 17  1  0  0  0  0
 17 18  1  0  0  0  0
 17 19  2  0  0  0  0
 19 20  1  0  0  0  0
 19 22  1  0  0  0  0
 20 21  1  0  0  0  0
 22 23  1  0  0  0  0
 22 24  2  0  0  0  0
 24 25  1  0  0  0  0
 26 27  2  0  0  0  0
 26 28  1  0  0  0  0
 28 29  1  0  0  0  0
 28 30  1  0  0  0  0
 30 31  1  0  0  0  0
 30 32  1  0  0  0  0
 30 33  1  0  0  0  0
M  END
$$$$

  -OEChem-03222214083D

 33 33  0     1  0  0  0  0  0999 V2000
   -3.2516   -4.6044    0.7258 H   0  0  0  0  0  0  0  0  0  0  0  0
   -3.2158   -3.7123    0.0937 C   0  0  0  0  0  0  0  0  0  0  0  0
   -4.1048   -3.1077    0.2883 H   0  0  0  0  0  0  0  0  0  0  0  0
   -3.2163   -4.0245   -0.9534 H   0  0  0  0  0  0  0  0  0  0  0  0
   -1.9645   -2.9092    0.3968 C   0  0  0  0  0  0  0  0  0  0  0  0
   -1.2125   -3.2747    1.2817 O   0  0  0  0  0  0  0  0  0  0  0  0
   -1.6964   -1.7621   -0.3256 N   0  0  0  0  0  0  0  0  0  0  0  0
   -2.3007   -1.5848   -1.1220 H   0  0  0  0  0  0  0  0  0  0  0  0
   -0.4255   -1.0133   -0.2448 C   0  0  1  0  0  0  0  0  0  0  0  0
    0.3800   -1.7077   -0.5103 H   0  0  0  0  0  0  0  0  0  0  0  0
   -0.4550    0.1532   -1.2615 C   0  0  0  0  0  0  0  0  0  0  0  0
   -1.4200    0.1817   -1.7764 H   0  0  0  0  0  0  0  0  0  0  0  0
   -0.3523    1.1116   -0.7406 H   0  0  0  0  0  0  0  0  0  0  0  0
    0.6597    0.0434   -2.2767 C   0  0  0  0  0  0  0  0  0  0  0  0
    0.3729   -0.0620   -3.6468 C   0  0  0  0  0  0  0  0  0  0  0  0
   -0.6567   -0.0820   -3.9908 H   0  0  0  0  0  0  0  0  0  0  0  0
    1.4091   -0.1427   -4.5852 C   0  0  0  0  0  0  0  0  0  0  0  0
    1.1698   -0.2281   -5.6393 H   0  0  0  0  0  0  0  0  0  0  0  0
    2.7408   -0.1104   -4.1657 C   0  0  0  0  0  0  0  0  0  0  0  0
    3.7579   -0.1870   -5.0730 O   0  0  0  0  0  0  0  0  0  0  0  0
    3.3995   -0.2730   -5.9694 H   0  0  0  0  0  0  0  0  0  0  0  0
    3.0325    0.0059   -2.8083 C   0  0  0  0  0  0  0  0  0  0  0  0
    4.0690    0.0349   -2.4876 H   0  0  0  0  0  0  0  0  0  0  0  0
    2.0019    0.0867   -1.8660 C   0  0  0  0  0  0  0  0  0  0  0  0
    2.2521    0.1827   -0.8119 H   0  0  0  0  0  0  0  0  0  0  0  0
   -0.0872   -0.4750    1.1637 C   0  0  0  0  0  0  0  0  0  0  0  0
    1.0819   -0.3754    1.5126 O   0  0  0  0  0  0  0  0  0  0  0  0
   -1.0676    0.1438    1.9187 N   0  0  0  0  0  0  0  0  0  0  0  0
   -2.0260   -0.0457    1.6450 H   0  0  0  0  0  0  0  0  0  0  0  0
   -0.8137    0.6842    3.2483 C   0  0  0  0  0  0  0  0  0  0  0  0
   -0.0345    1.4525    3.2080 H   0  0  0  0  0  0  0  0  0  0  0  0
   -1.7232    1.1387    3.6524 H   0  0  0  0  0  0  0  0  0  0  0  0
   -0.4894   -0.1107    3.9283 H   0  0  0  0  0  0  0  0  0  0  0  0
  1  2  1  0  0  0  0
  2  3  1  0  0  0  0
  2  4  1  0  0  0  0
  2  5  1  0  0  0  0
  5  6  2  0  0  0  0
  5  7  1  0  0  0  0
  7  8  1  0  0  0  0
  7  9  1  0  0  0  0
  9 10  1  0  0  0  0
  9 11  1  0  0  0  0
  9 26  1  0  0  0  0
 11 12  1  0  0  0  0
 11 13  1  0  0  0  0
 11 14  1  0  0  0  0
 14 15  2  0  0  0  0
 14 24  1  0  0  0  0
 15 16  1  0  0  0  0
 15 17  1  0  0  0  0
 17 18  1  0  0  0  0
 17 19  2  0  0  0  0
 19 20  1  0  0  0  0
 19 22  1  0  0  0  0
 20 21  1  0  0  0  0
 22 23  1  0  0  0  0
 22 24  2  0  0  0  0
 24 25  1  0  0  0  0
 26 27  2  0  0  0  0
 26 28  1  0  0  0  0
 28 29  1  0  0  0  0
 28 30  1  0  0  0  0
 30 31  1  0  0  0  0
 30 32  1  0  0  0  0
 30 33  1  0  0  0  0
M  END
$$$$

  -OEChem-03222214083D

 33 33  0     1  0  0  0  0  0999 V2000
   -3.3063   -4.5948    0.7303 H   0  0  0  0  0  0  0  0  0  0  0  0
   -3.2522   -3.7057    0.0954 C   0  0  0  0  0  0  0  0  0  0  0  0
   -4.1395   -3.0931    0.2715 H   0  0  0  0  0  0  0  0  0  0  0  0
   -3.2367   -4.0227   -0.9502 H   0  0  0  0  0  0  0  0  0  0  0  0
   -2.0001   -2.9111    0.4167 C   0  0  0  0  0  0  0  0  0  0  0  0
   -1.2690   -3.2744    1.3200 O   0  0  0  0  0  0  0  0  0  0  0  0
   -1.7064   -1.7748   -0.3125 N   0  0  0  0  0  0  0  0  0  0  0  0
   -2.2917   -1.6037   -1.1245 H   0  0  0  0  0  0  0  0  0  0  0  0
   -0.4254   -1.0446   -0.2228 C   0  0  1  0  0  0  0  0  0  0  0  0
    0.3667   -1.7592   -0.4718 H   0  0  0  0  0  0  0  0  0  0  0  0
   -0.4290    0.1117   -1.2541 C   0  0  0  0  0  0  0  0  0  0  0  0
   -1.3920    0.1438   -1.7728 H   0  0  0  0  0  0  0  0  0  0  0  0
   -0.3218    1.0720   -0.7380 H   0  0  0  0  0  0  0  0  0  0  0  0
    0.6867    0.0043   -2.2725 C   0  0  0  0  0  0  0  0  0  0  0  0
    0.4175    0.2159   -3.6342 C   0  0  0  0  0  0  0  0  0  0  0  0
   -0.5957    0.4205   -3.9659 H   0  0  0  0  0  0  0  0  0  0  0  0
    1.4465    0.1616   -4.5820 C   0  0  0  0  0  0  0  0  0  0  0  0
    1.2165    0.3171   -5.6302 H   0  0  0  0  0  0  0  0  0  0  0  0
    2.7602   -0.0845   -4.1790 C   0  0  0  0  0  0  0  0  0  0  0  0
    3.7707   -0.1387   -5.0950 O   0  0  0  0  0  0  0  0  0  0  0  0
    3.4211    0.0127   -5.9860 H   0  0  0  0  0  0  0  0  0  0  0  0
    3.0418   -0.2660   -2.8272 C   0  0  0  0  0  0  0  0  0  0  0  0
    4.0666   -0.4418   -2.5168 H   0  0  0  0  0  0  0  0  0  0  0  0
    2.0177   -0.2136   -1.8758 C   0  0  0  0  0  0  0  0  0  0  0  0
    2.2700   -0.3375   -0.8254 H   0  0  0  0  0  0  0  0  0  0  0  0
   -0.0911   -0.4972    1.1829 C   0  0  0  0  0  0  0  0  0  0  0  0
    1.0762   -0.4189    1.5430 O   0  0  0  0  0  0  0  0  0  0  0  0
   -1.0674    0.1452    1.9231 N   0  0  0  0  0  0  0  0  0  0  0  0
   -2.0264   -0.0285    1.6414 H   0  0  0  0  0  0  0  0  0  0  0  0
   -0.8157    0.6958    3.2487 C   0  0  0  0  0  0  0  0  0  0  0  0
   -0.0251    1.4525    3.2062 H   0  0  0  0  0  0  0  0  0  0  0  0
   -1.7216    1.1674    3.6412 H   0  0  0  0  0  0  0  0  0  0  0  0
   -0.5083   -0.0967    3.9392 H   0  0  0  0  0  0  0  0  0  0  0  0
  1  2  1  0  0  0  0
  2  3  1  0  0  0  0
  2  4  1  0  0  0  0
  2  5  1  0  0  0  0
  5  6  2  0  0  0  0
  5  7  1  0  0  0  0
  7  8  1  0  0  0  0
  7  9  1  0  0  0  0
  9 10  1  0  0  0  0
  9 11  1  0  0  0  0
  9 26  1  0  0  0  0
 11 12  1  0  0  0  0
 11 13  1  0  0  0  0
 11 14  1  0  0  0  0
 14 15  2  0  0  0  0
 14 24  1  0  0  0  0
 15 16  1  0  0  0  0
 15 17  1  0  0  0  0
 17 18  1  0  0  0  0
 17 19  2  0  0  0  0
 19 20  1  0  0  0  0
 19 22  1  0  0  0  0
 20 21  1  0  0  0  0
 22 23  1  0  0  0  0
 22 24  2  0  0  0  0
 24 25  1  0  0  0  0
 26 27  2  0  0  0  0
 26 28  1  0  0  0  0
 28 29  1  0  0  0  0
 28 30  1  0  0  0  0
 30 31  1  0  0  0  0
 30 32  1  0  0  0  0
 30 33  1  0  0  0  0
M  END
$$$$

  -OEChem-03222214083D

 33 33  0     1  0  0  0  0  0999 V2000
   -3.3779   -4.5747    0.7645 H   0  0  0  0  0  0  0  0  0  0  0  0
   -3.3016   -3.6988    0.1138 C   0  0  0  0  0  0  0  0  0  0  0  0
   -4.1814   -3.0693    0.2670 H   0  0  0  0  0  0  0  0  0  0  0  0
   -3.2778   -4.0358   -0.9253 H   0  0  0  0  0  0  0  0  0  0  0  0
   -2.0413   -2.9177    0.4366 C   0  0  0  0  0  0  0  0  0  0  0  0
   -1.3234   -3.2800    1.3508 O   0  0  0  0  0  0  0  0  0  0  0  0
   -1.7259   -1.7928   -0.3014 N   0  0  0  0  0  0  0  0  0  0  0  0
   -2.3013   -1.6220   -1.1205 H   0  0  0  0  0  0  0  0  0  0  0  0
   -0.4358   -1.0793   -0.2056 C   0  0  1  0  0  0  0  0  0  0  0  0
    0.3363   -1.8201   -0.4326 H   0  0  0  0  0  0  0  0  0  0  0  0
   -0.4053    0.0616   -1.2566 C   0  0  0  0  0  0  0  0  0  0  0  0
   -1.3620    0.0917   -1.7873 H   0  0  0  0  0  0  0  0  0  0  0  0
   -0.3017    1.0262   -0.7474 H   0  0  0  0  0  0  0  0  0  0  0  0
    0.7130   -0.0400   -2.2773 C   0  0  0  0  0  0  0  0  0  0  0  0
    0.5078    0.4772   -3.5671 C   0  0  0  0  0  0  0  0  0  0  0  0
   -0.4571    0.8947   -3.8388 H   0  0  0  0  0  0  0  0  0  0  0  0
    1.5327    0.4576   -4.5206 C   0  0  0  0  0  0  0  0  0  0  0  0
    1.3457    0.8488   -5.5146 H   0  0  0  0  0  0  0  0  0  0  0  0
    2.7882   -0.0540   -4.1905 C   0  0  0  0  0  0  0  0  0  0  0  0
    3.7945   -0.0794   -5.1125 O   0  0  0  0  0  0  0  0  0  0  0  0
    3.4872    0.2956   -5.9518 H   0  0  0  0  0  0  0  0  0  0  0  0
    3.0189   -0.5266   -2.9014 C   0  0  0  0  0  0  0  0  0  0  0  0
    4.0044   -0.8997   -2.6417 H   0  0  0  0  0  0  0  0  0  0  0  0
    1.9987   -0.5075   -1.9441 C   0  0  0  0  0  0  0  0  0  0  0  0
    2.2313   -0.8446   -0.9371 H   0  0  0  0  0  0  0  0  0  0  0  0
   -0.0991   -0.5189    1.1934 C   0  0  0  0  0  0  0  0  0  0  0  0
    1.0688   -0.4562    1.5545 O   0  0  0  0  0  0  0  0  0  0  0  0
   -1.0679    0.1480    1.9216 N   0  0  0  0  0  0  0  0  0  0  0  0
   -2.0286   -0.0161    1.6398 H   0  0  0  0  0  0  0  0  0  0  0  0
   -0.8118    0.7093    3.2419 C   0  0  0  0  0  0  0  0  0  0  0  0
   -0.0084    1.4521    3.1940 H   0  0  0  0  0  0  0  0  0  0  0  0
   -1.7109    1.2005    3.6256 H   0  0  0  0  0  0  0  0  0  0  0  0
   -0.5205   -0.0808    3.9421 H   0  0  0  0  0  0  0  0  0  0  0  0
  1  2  1  0  0  0  0
  2  3  1  0  0  0  0
  2  4  1  0  0  0  0
  2  5  1  0  0  0  0
  5  6  2  0  0  0  0
  5  7  1  0  0  0  0
  7  8  1  0  0  0  0
  7  9  1  0  0  0  0
  9 10  1  0  0  0  0
  9 11  1  0  0  0  0
  9 26  1  0  0  0  0
 11 12  1  0  0  0  0
 11 13  1  0  0  0  0
 11 14  1  0  0  0  0
 14 15  2  0  0  0  0
 14 24  1  0  0  0  0
 15 16  1  0  0  0  0
 15 17  1  0  0  0  0
 17 18  1  0  0  0  0
 17 19  2  0  0  0  0
 19 20  1  0  0  0  0
 19 22  1  0  0  0  0
 20 21  1  0  0  0  0
 22 23  1  0  0  0  0
 22 24  2  0  0  0  0
 24 25  1  0  0  0  0
 26 27  2  0  0  0  0
 26 28  1  0  0  0  0
 28 29  1  0  0  0  0
 28 30  1  0  0  0  0
 30 31  1  0  0  0  0
 30 32  1  0  0  0  0
 30 33  1  0  0  0  0
M  END
$$$$

  -OEChem-03222214083D

 33 33  0     1  0  0  0  0  0999 V2000
   -3.4437   -4.5555    0.7901 H   0  0  0  0  0  0  0  0  0  0  0  0
   -3.3499   -3.6847    0.1348 C   0  0  0  0  0  0  0  0  0  0  0  0
   -4.2218   -3.0419    0.2768 H   0  0  0  0  0  0  0  0  0  0  0  0
   -3.3227   -4.0283   -0.9021 H   0  0  0  0  0  0  0  0  0  0  0  0
   -2.0814   -2.9193    0.4632 C   0  0  0  0  0  0  0  0  0  0  0  0
   -1.3813   -3.2799    1.3919 O   0  0  0  0  0  0  0  0  0  0  0  0
   -1.7363   -1.8115   -0.2874 N   0  0  0  0  0  0  0  0  0  0  0  0
   -2.2961   -1.6443   -1.1181 H   0  0  0  0  0  0  0  0  0  0  0  0
   -0.4366   -1.1168   -0.1819 C   0  0  1  0  0  0  0  0  0  0  0  0
    0.3172   -1.8811   -0.3763 H   0  0  0  0  0  0  0  0  0  0  0  0
   -0.3717    0.0031   -1.2558 C   0  0  0  0  0  0  0  0  0  0  0  0
   -1.3216    0.0314   -1.7984 H   0  0  0  0  0  0  0  0  0  0  0  0
   -0.2744    0.9726   -0.7547 H   0  0  0  0  0  0  0  0  0  0  0  0
    0.7468   -0.0869   -2.2823 C   0  0  0  0  0  0  0  0  0  0  0  0
    0.6380    0.7071   -3.4365 C   0  0  0  0  0  0  0  0  0  0  0  0
   -0.2490    1.3134   -3.5947 H   0  0  0  0  0  0  0  0  0  0  0  0
    1.6522    0.7258   -4.4008 C   0  0  0  0  0  0  0  0  0  0  0  0
    1.5326    1.3341   -5.2907 H   0  0  0  0  0  0  0  0  0  0  0  0
    2.8113   -0.0267   -4.2123 C   0  0  0  0  0  0  0  0  0  0  0  0
    3.8092   -0.0175   -5.1437 O   0  0  0  0  0  0  0  0  0  0  0  0
    3.5758    0.5719   -5.8768 H   0  0  0  0  0  0  0  0  0  0  0  0
    2.9583   -0.7779   -3.0501 C   0  0  0  0  0  0  0  0  0  0  0  0
    3.8761   -1.3357   -2.8934 H   0  0  0  0  0  0  0  0  0  0  0  0
    1.9478   -0.7987   -2.0825 C   0  0  0  0  0  0  0  0  0  0  0  0
    2.1434   -1.3569   -1.1724 H   0  0  0  0  0  0  0  0  0  0  0  0
   -0.1089   -0.5374    1.2109 C   0  0  0  0  0  0  0  0  0  0  0  0
    1.0547   -0.4957    1.5877 O   0  0  0  0  0  0  0  0  0  0  0  0
   -1.0742    0.1589    1.9162 N   0  0  0  0  0  0  0  0  0  0  0  0
   -2.0343    0.0083    1.6248 H   0  0  0  0  0  0  0  0  0  0  0  0
   -0.8239    0.7350    3.2311 C   0  0  0  0  0  0  0  0  0  0  0  0
   -0.0014    1.4564    3.1834 H   0  0  0  0  0  0  0  0  0  0  0  0
   -1.7164    1.2542    3.5929 H   0  0  0  0  0  0  0  0  0  0  0  0
   -0.5621   -0.0496    3.9487 H   0  0  0  0  0  0  0  0  0  0  0  0
  1  2  1  0  0  0  0
  2  3  1  0  0  0  0
  2  4  1  0  0  0  0
  2  5  1  0  0  0  0
  5  6  2  0  0  0  0
  5  7  1  0  0  0  0
  7  8  1  0  0  0  0
  7  9  1  0  0  0  0
  9 10  1  0  0  0  0
  9 11  1  0  0  0  0
  9 26  1  0  0  0  0
 11 12  1  0  0  0  0
 11 13  1  0  0  0  0
 11 14  1  0  0  0  0
 14 15  2  0  0  0  0
 14 24  1  0  0  0  0
 15 16  1  0  0  0  0
 15 17  1  0  0  0  0
 17 18  1  0  0  0  0
 17 19  2  0  0  0  0
 19 20  1  0  0  0  0
 19 22  1  0  0  0  0
 20 21  1  0  0  0  0
 22 23  1  0  0  0  0
 22 24  2  0  0  0  0
 24 25  1  0  0  0  0
 26 27  2  0  0  0  0
 26 28  1  0  0  0  0
 28 29  1  0  0  0  0
 28 30  1  0  0  0  0
 30 31  1  0  0  0  0
 30 32  1  0  0  0  0
 30 33  1  0  0  0  0
M  END
$$$$

  -OEChem-03222214083D

 33 33  0     1  0  0  0  0  0999 V2000
   -3.4297   -4.5250    0.8803 H   0  0  0  0  0  0  0  0  0  0  0  0
   -3.3028   -3.6831    0.1937 C   0  0  0  0  0  0  0  0  0  0  0  0
   -4.1703   -3.0248    0.2802 H   0  0  0  0  0  0  0  0  0  0  0  0
   -3.2458   -4.0692   -0.8268 H   0  0  0  0  0  0  0  0  0  0  0  0
   -2.0356   -2.9210    0.5329 C   0  0  0  0  0  0  0  0  0  0  0  0
   -1.3661   -3.2589    1.4919 O   0  0  0  0  0  0  0  0  0  0  0  0
   -1.6513   -1.8510   -0.2523 N   0  0  0  0  0  0  0  0  0  0  0  0
   -2.1809   -1.7135   -1.1083 H   0  0  0  0  0  0  0  0  0  0  0  0
   -0.3514   -1.1591   -0.1352 C   0  0  1  0  0  0  0  0  0  0  0  0
    0.4538   -1.8839   -0.2563 H   0  0  0  0  0  0  0  0  0  0  0  0
   -0.2910   -0.0409   -1.2101 C   0  0  0  0  0  0  0  0  0  0  0  0
   -1.3073    0.1986   -1.5386 H   0  0  0  0  0  0  0  0  0  0  0  0
    0.1015    0.8674   -0.7384 H   0  0  0  0  0  0  0  0  0  0  0  0
    0.5721   -0.2775   -2.4423 C   0  0  0  0  0  0  0  0  0  0  0  0
    0.6095    0.7521   -3.3982 C   0  0  0  0  0  0  0  0  0  0  0  0
    0.0601    1.6725   -3.2217 H   0  0  0  0  0  0  0  0  0  0  0  0
    1.3502    0.6215   -4.5781 C   0  0  0  0  0  0  0  0  0  0  0  0
    1.3648    1.4369   -5.2930 H   0  0  0  0  0  0  0  0  0  0  0  0
    2.0632   -0.5493   -4.8301 C   0  0  0  0  0  0  0  0  0  0  0  0
    2.7899   -0.6898   -5.9768 O   0  0  0  0  0  0  0  0  0  0  0  0
    2.7621    0.1314   -6.4914 H   0  0  0  0  0  0  0  0  0  0  0  0
    2.0279   -1.5852   -3.9017 C   0  0  0  0  0  0  0  0  0  0  0  0
    2.5833   -2.4948   -4.1061 H   0  0  0  0  0  0  0  0  0  0  0  0
    1.2897   -1.4604   -2.7192 C   0  0  0  0  0  0  0  0  0  0  0  0
    1.2996   -2.3108   -2.0482 H   0  0  0  0  0  0  0  0  0  0  0  0
   -0.1151   -0.5334    1.2591 C   0  0  0  0  0  0  0  0  0  0  0  0
    1.0210   -0.4646    1.7085 O   0  0  0  0  0  0  0  0  0  0  0  0
   -1.1263    0.1801    1.8785 N   0  0  0  0  0  0  0  0  0  0  0  0
   -2.0658    0.0103    1.5353 H   0  0  0  0  0  0  0  0  0  0  0  0
   -0.9619    0.8050    3.1851 C   0  0  0  0  0  0  0  0  0  0  0  0
   -0.1507    1.5405    3.1597 H   0  0  0  0  0  0  0  0  0  0  0  0
   -1.8826    1.3191    3.4773 H   0  0  0  0  0  0  0  0  0  0  0  0
   -0.7289    0.0497    3.9433 H   0  0  0  0  0  0  0  0  0  0  0  0
  1  2  1  0  0  0  0
  2  3  1  0  0  0  0
  2  4  1  0  0  0  0
  2  5  1  0  0  0  0
  5  6  2  0  0  0  0
  5  7  1  0  0  0  0
  7  8  1  0  0  0  0
  7  9  1  0  0  0  0
  9 10  1  0  0  0  0
  9 11  1  0  0  0  0
  9 26  1  0  0  0  0
 11 12  1  0  0  0  0
 11 13  1  0  0  0  0
 11 14  1  0  0  0  0
 14 15  2  0  0  0  0
 14 24  1  0  0  0  0
 15 16  1  0  0  0  0
 15 17  1  0  0  0  0
 17 18  1  0  0  0  0
 17 19  2  0  0  0  0
 19 20  1  0  0  0  0
 19 22  1  0  0  0  0
 20 21  1  0  0  0  0
 22 23  1  0  0  0  0
 22 24  2  0  0  0  0
 24 25  1  0  0  0  0
 26 27  2  0  0  0  0
 26 28  1  0  0  0  0
 28 29  1  0  0  0  0
 28 30  1  0  0  0  0
 30 31  1  0  0  0  0
 30 32  1  0  0  0  0
 30 33  1  0  0  0  0
M  END
$$$$

  -OEChem-03222214083D

 33 33  0     1  0  0  0  0  0999 V2000
   -3.3662   -4.5558    0.8498 H   0  0  0  0  0  0  0  0  0  0  0  0
   -3.2684   -3.6905    0.1878 C   0  0  0  0  0  0  0  0  0  0  0  0
   -4.1369   -3.0420    0.3257 H   0  0  0  0  0  0  0  0  0  0  0  0
   -3.2436   -4.0421   -0.8464 H   0  0  0  0  0  0  0  0  0  0  0  0
   -1.9957   -2.9294    0.5094 C   0  0  0  0  0  0  0  0  0  0  0  0
   -1.3012   -3.2810    1.4454 O   0  0  0  0  0  0  0  0  0  0  0  0
   -1.6342   -1.8438   -0.2652 N   0  0  0  0  0  0  0  0  0  0  0  0
   -2.1902   -1.6831   -1.1003 H   0  0  0  0  0  0  0  0  0  0  0  0
   -0.3444   -1.1321   -0.1516 C   0  0  1  0  0  0  0  0  0  0  0  0
    0.4787   -1.8365   -0.2963 H   0  0  0  0  0  0  0  0  0  0  0  0
   -0.3060   -0.0011   -1.2104 C   0  0  0  0  0  0  0  0  0  0  0  0
   -1.3227    0.2274   -1.5451 H   0  0  0  0  0  0  0  0  0  0  0  0
    0.0754    0.9092   -0.7335 H   0  0  0  0  0  0  0  0  0  0  0  0
    0.5632   -0.2531   -2.4311 C   0  0  0  0  0  0  0  0  0  0  0  0
    0.8867    0.8460   -3.2437 C   0  0  0  0  0  0  0  0  0  0  0  0
    0.5648    1.8431   -2.9567 H   0  0  0  0  0  0  0  0  0  0  0  0
    1.6315    0.6822   -4.4172 C   0  0  0  0  0  0  0  0  0  0  0  0
    1.8791    1.5512   -5.0170 H   0  0  0  0  0  0  0  0  0  0  0  0
    2.0473   -0.5897   -4.8109 C   0  0  0  0  0  0  0  0  0  0  0  0
    2.7723   -0.7641   -5.9542 O   0  0  0  0  0  0  0  0  0  0  0  0
    2.9757    0.0958   -6.3532 H   0  0  0  0  0  0  0  0  0  0  0  0
    1.7076   -1.6930   -4.0330 C   0  0  0  0  0  0  0  0  0  0  0  0
    2.0244   -2.6805   -4.3523 H   0  0  0  0  0  0  0  0  0  0  0  0
    0.9640   -1.5351   -2.8584 C   0  0  0  0  0  0  0  0  0  0  0  0
    0.7030   -2.4313   -2.3059 H   0  0  0  0  0  0  0  0  0  0  0  0
   -0.1062   -0.5199    1.2482 C   0  0  0  0  0  0  0  0  0  0  0  0
    1.0326   -0.4299    1.6872 O   0  0  0  0  0  0  0  0  0  0  0  0
   -1.1254    0.1687    1.8827 N   0  0  0  0  0  0  0  0  0  0  0  0
   -2.0641   -0.0115    1.5425 H   0  0  0  0  0  0  0  0  0  0  0  0
   -0.9626    0.7851    3.1934 C   0  0  0  0  0  0  0  0  0  0  0  0
   -0.1615    1.5317    3.1701 H   0  0  0  0  0  0  0  0  0  0  0  0
   -1.8885    1.2844    3.4942 H   0  0  0  0  0  0  0  0  0  0  0  0
   -0.7157    0.0266    3.9438 H   0  0  0  0  0  0  0  0  0  0  0  0
  1  2  1  0  0  0  0
  2  3  1  0  0  0  0
  2  4  1  0  0  0  0
  2  5  1  0  0  0  0
  5  6  2  0  0  0  0
  5  7  1  0  0  0  0
  7  8  1  0  0  0  0
  7  9  1  0  0  0  0
  9 10  1  0  0  0  0
  9 11  1  0  0  0  0
  9 26  1  0  0  0  0
 11 12  1  0  0  0  0
 11 13  1  0  0  0  0
 11 14  1  0  0  0  0
 14 15  2  0  0  0  0
 14 24  1  0  0  0  0
 15 16  1  0  0  0  0
 15 17  1  0  0  0  0
 17 18  1  0  0  0  0
 17 19  2  0  0  0  0
 19 20  1  0  0  0  0
 19 22  1  0  0  0  0
 20 21  1  0  0  0  0
 22 23  1  0  0  0  0
 22 24  2  0  0  0  0
 24 25  1  0  0  0  0
 26 27  2  0  0  0  0
 26 28  1  0  0  0  0
 28 29  1  0  0  0  0
 28 30  1  0  0  0  0
 30 31  1  0  0  0  0
 30 32  1  0  0  0  0
 30 33  1  0  0  0  0
M  END
$$$$

  -OEChem-03222214083D

 33 33  0     1  0  0  0  0  0999 V2000
   -3.3247   -4.5755    0.8137 H   0  0  0  0  0  0  0  0  0  0  0  0
   -3.2492   -3.6960    0.1675 C   0  0  0  0  0  0  0  0  0  0  0  0
   -4.1178   -3.0563    0.3412 H   0  0  0  0  0  0  0  0  0  0  0  0
   -3.2488   -4.0257   -0.8743 H   0  0  0  0  0  0  0  0  0  0  0  0
   -1.9735   -2.9334    0.4724 C   0  0  0  0  0  0  0  0  0  0  0  0
   -1.2535   -3.2986    1.3835 O   0  0  0  0  0  0  0  0  0  0  0  0
   -1.6412   -1.8272   -0.2854 N   0  0  0  0  0  0  0  0  0  0  0  0
   -2.2273   -1.6423   -1.0944 H   0  0  0  0  0  0  0  0  0  0  0  0
   -0.3599   -1.0990   -0.1799 C   0  0  1  0  0  0  0  0  0  0  0  0
    0.4679   -1.7920   -0.3640 H   0  0  0  0  0  0  0  0  0  0  0  0
   -0.3482    0.0445   -1.2235 C   0  0  0  0  0  0  0  0  0  0  0  0
   -1.3674    0.2599   -1.5591 H   0  0  0  0  0  0  0  0  0  0  0  0
    0.0229    0.9576   -0.7440 H   0  0  0  0  0  0  0  0  0  0  0  0
    0.5221   -0.2257   -2.4357 C   0  0  0  0  0  0  0  0  0  0  0  0
    1.1277    0.8555   -3.0959 C   0  0  0  0  0  0  0  0  0  0  0  0
    1.0128    1.8632   -2.7070 H   0  0  0  0  0  0  0  0  0  0  0  0
    1.8927    0.6534   -4.2502 C   0  0  0  0  0  0  0  0  0  0  0  0
    2.3627    1.5027   -4.7335 H   0  0  0  0  0  0  0  0  0  0  0  0
    2.0451   -0.6307   -4.7745 C   0  0  0  0  0  0  0  0  0  0  0  0
    2.7873   -0.8397   -5.9005 O   0  0  0  0  0  0  0  0  0  0  0  0
    3.1980   -0.0091   -6.1858 H   0  0  0  0  0  0  0  0  0  0  0  0
    1.4258   -1.7078   -4.1458 C   0  0  0  0  0  0  0  0  0  0  0  0
    1.5424   -2.7017   -4.5658 H   0  0  0  0  0  0  0  0  0  0  0  0
    0.6624   -1.5116   -2.9901 C   0  0  0  0  0  0  0  0  0  0  0  0
    0.1808   -2.3724   -2.5372 H   0  0  0  0  0  0  0  0  0  0  0  0
   -0.0996   -0.5098    1.2253 C   0  0  0  0  0  0  0  0  0  0  0  0
    1.0473   -0.4065    1.6393 O   0  0  0  0  0  0  0  0  0  0  0  0
   -1.1144    0.1527    1.8935 N   0  0  0  0  0  0  0  0  0  0  0  0
   -2.0578   -0.0385    1.5734 H   0  0  0  0  0  0  0  0  0  0  0  0
   -0.9306    0.7507    3.2097 C   0  0  0  0  0  0  0  0  0  0  0  0
   -0.1399    1.5078    3.1807 H   0  0  0  0  0  0  0  0  0  0  0  0
   -1.8561    1.2328    3.5383 H   0  0  0  0  0  0  0  0  0  0  0  0
   -0.6574   -0.0160    3.9423 H   0  0  0  0  0  0  0  0  0  0  0  0
  1  2  1  0  0  0  0
  2  3  1  0  0  0  0
  2  4  1  0  0  0  0
  2  5  1  0  0  0  0
  5  6  2  0  0  0  0
  5  7  1  0  0  0  0
  7  8  1  0  0  0  0
  7  9  1  0  0  0  0
  9 10  1  0  0  0  0
  9 11  1  0  0  0  0
  9 26  1  0  0  0  0
 11 12  1  0  0  0  0
 11 13  1  0  0  0  0
 11 14  1  0  0  0  0
 14 15  2  0  0  0  0
 14 24  1  0  0  0  0
 15 16  1  0  0  0  0
 15 17  1  0  0  0  0
 17 18  1  0  0  0  0
 17 19  2  0  0  0  0
 19 20  1  0  0  0  0
 19 22  1  0  0  0  0
 20 21  1  0  0  0  0
 22 23  1  0  0  0  0
 22 24  2  0  0  0  0
 24 25  1  0  0  0  0
 26 27  2  0  0  0  0
 26 28  1  0  0  0  0
 28 29  1  0  0  0  0
 28 30  1  0  0  0  0
 30 31  1  0  0  0  0
 30 32  1  0  0  0  0
 30 33  1  0  0  0  0
M  END
$$$$

  -OEChem-03222214083D

 33 33  0     1  0  0  0  0  0999 V2000
   -3.2968   -4.5879    0.7840 H   0  0  0  0  0  0  0  0  0  0  0  0
   -3.2381   -3.7013    0.1459 C   0  0  0  0  0  0  0  0  0  0  0  0
   -4.1089   -3.0705    0.3394 H   0  0  0  0  0  0  0  0  0  0  0  0
   -3.2520   -4.0206   -0.8990 H   0  0  0  0  0  0  0  0  0  0  0  0
   -1.9632   -2.9322    0.4384 C   0  0  0  0  0  0  0  0  0  0  0  0
   -1.2203   -3.3081    1.3266 O   0  0  0  0  0  0  0  0  0  0  0  0
   -1.6572   -1.8080   -0.3042 N   0  0  0  0  0  0  0  0  0  0  0  0
   -2.2705   -1.6015   -1.0872 H   0  0  0  0  0  0  0  0  0  0  0  0
   -0.3817   -1.0682   -0.2088 C   0  0  1  0  0  0  0  0  0  0  0  0
    0.4446   -1.7541   -0.4275 H   0  0  0  0  0  0  0  0  0  0  0  0
   -0.3895    0.0861   -1.2378 C   0  0  0  0  0  0  0  0  0  0  0  0
   -1.4107    0.2958   -1.5706 H   0  0  0  0  0  0  0  0  0  0  0  0
   -0.0233    1.0000   -0.7566 H   0  0  0  0  0  0  0  0  0  0  0  0
    0.4794   -0.1993   -2.4448 C   0  0  0  0  0  0  0  0  0  0  0  0
    1.3431    0.7921   -2.9370 C   0  0  0  0  0  0  0  0  0  0  0  0
    1.4170    1.7516   -2.4326 H   0  0  0  0  0  0  0  0  0  0  0  0
    2.1252    0.5561   -4.0736 C   0  0  0  0  0  0  0  0  0  0  0  0
    2.7927    1.3325   -4.4309 H   0  0  0  0  0  0  0  0  0  0  0  0
    2.0451   -0.6680   -4.7392 C   0  0  0  0  0  0  0  0  0  0  0  0
    2.8043   -0.9082   -5.8473 O   0  0  0  0  0  0  0  0  0  0  0  0
    3.3970   -0.1585   -6.0113 H   0  0  0  0  0  0  0  0  0  0  0  0
    1.1791   -1.6523   -4.2685 C   0  0  0  0  0  0  0  0  0  0  0  0
    1.1221   -2.5999   -4.7941 H   0  0  0  0  0  0  0  0  0  0  0  0
    0.3960   -1.4225   -3.1324 C   0  0  0  0  0  0  0  0  0  0  0  0
   -0.2729   -2.2054   -2.7893 H   0  0  0  0  0  0  0  0  0  0  0  0
   -0.0956   -0.5012    1.2000 C   0  0  0  0  0  0  0  0  0  0  0  0
    1.0597   -0.3870    1.5871 O   0  0  0  0  0  0  0  0  0  0  0  0
   -1.1023    0.1392    1.9009 N   0  0  0  0  0  0  0  0  0  0  0  0
   -2.0503   -0.0619    1.6007 H   0  0  0  0  0  0  0  0  0  0  0  0
   -0.8955    0.7201    3.2215 C   0  0  0  0  0  0  0  0  0  0  0  0
   -0.1149    1.4874    3.1855 H   0  0  0  0  0  0  0  0  0  0  0  0
   -1.8187    1.1860    3.5786 H   0  0  0  0  0  0  0  0  0  0  0  0
   -0.5958   -0.0535    3.9364 H   0  0  0  0  0  0  0  0  0  0  0  0
  1  2  1  0  0  0  0
  2  3  1  0  0  0  0
  2  4  1  0  0  0  0
  2  5  1  0  0  0  0
  5  6  2  0  0  0  0
  5  7  1  0  0  0  0
  7  8  1  0  0  0  0
  7  9  1  0  0  0  0
  9 10  1  0  0  0  0
  9 11  1  0  0  0  0
  9 26  1  0  0  0  0
 11 12  1  0  0  0  0
 11 13  1  0  0  0  0
 11 14  1  0  0  0  0
 14 15  2  0  0  0  0
 14 24  1  0  0  0  0
 15 16  1  0  0  0  0
 15 17  1  0  0  0  0
 17 18  1  0  0  0  0
 17 19  2  0  0  0  0
 19 20  1  0  0  0  0
 19 22  1  0  0  0  0
 20 21  1  0  0  0  0
 22 23  1  0  0  0  0
 22 24  2  0  0  0  0
 24 25  1  0  0  0  0
 26 27  2  0  0  0  0
 26 28  1  0  0  0  0
 28 29  1  0  0  0  0
 28 30  1  0  0  0  0
 30 31  1  0  0  0  0
 30 32  1  0  0  0  0
 30 33  1  0  0  0  0
M  END
$$$$

  -OEChem-03222214083D

 33 33  0     1  0  0  0  0  0999 V2000
   -3.2730   -4.5988    0.7623 H   0  0  0  0  0  0  0  0  0  0  0  0
   -3.2293   -3.7060    0.1319 C   0  0  0  0  0  0  0  0  0  0  0  0
   -4.1004   -3.0820    0.3449 H   0  0  0  0  0  0  0  0  0  0  0  0
   -3.2573   -4.0152   -0.9156 H   0  0  0  0  0  0  0  0  0  0  0  0
   -1.9546   -2.9322    0.4123 C   0  0  0  0  0  0  0  0  0  0  0  0
   -1.1967   -3.3117    1.2862 O   0  0  0  0  0  0  0  0  0  0  0  0
   -1.6696   -1.7958   -0.3200 N   0  0  0  0  0  0  0  0  0  0  0  0
   -2.2984   -1.5817   -1.0880 H   0  0  0  0  0  0  0  0  0  0  0  0
   -0.3992   -1.0461   -0.2326 C   0  0  1  0  0  0  0  0  0  0  0  0
    0.4252   -1.7272   -0.4744 H   0  0  0  0  0  0  0  0  0  0  0  0
   -0.4202    0.1181   -1.2485 C   0  0  0  0  0  0  0  0  0  0  0  0
   -1.4432    0.3219   -1.5793 H   0  0  0  0  0  0  0  0  0  0  0  0
   -0.0593    1.0344   -0.7679 H   0  0  0  0  0  0  0  0  0  0  0  0
    0.4477   -0.1777   -2.4506 C   0  0  0  0  0  0  0  0  0  0  0  0
    1.5304    0.6573   -2.7677 C   0  0  0  0  0  0  0  0  0  0  0  0
    1.7666    1.5094   -2.1362 H   0  0  0  0  0  0  0  0  0  0  0  0
    2.3252    0.3951   -3.8902 C   0  0  0  0  0  0  0  0  0  0  0  0
    3.1621    1.0478   -4.1136 H   0  0  0  0  0  0  0  0  0  0  0  0
    2.0415   -0.6978   -4.7115 C   0  0  0  0  0  0  0  0  0  0  0  0
    2.8122   -0.9654   -5.8057 O   0  0  0  0  0  0  0  0  0  0  0  0
    3.5584   -0.3474   -5.8452 H   0  0  0  0  0  0  0  0  0  0  0  0
    0.9612   -1.5242   -4.4097 C   0  0  0  0  0  0  0  0  0  0  0  0
    0.7483   -2.3703   -5.0549 H   0  0  0  0  0  0  0  0  0  0  0  0
    0.1656   -1.2688   -3.2876 C   0  0  0  0  0  0  0  0  0  0  0  0
   -0.6691   -1.9269   -3.0698 H   0  0  0  0  0  0  0  0  0  0  0  0
   -0.0929   -0.4930    1.1769 C   0  0  0  0  0  0  0  0  0  0  0  0
    1.0687   -0.3684    1.5416 O   0  0  0  0  0  0  0  0  0  0  0  0
   -1.0924    0.1313    1.9021 N   0  0  0  0  0  0  0  0  0  0  0  0
   -2.0436   -0.0769    1.6173 H   0  0  0  0  0  0  0  0  0  0  0  0
   -0.8674    0.7002    3.2250 C   0  0  0  0  0  0  0  0  0  0  0  0
   -0.0865    1.4669    3.1862 H   0  0  0  0  0  0  0  0  0  0  0  0
   -1.7854    1.1640    3.5982 H   0  0  0  0  0  0  0  0  0  0  0  0
   -0.5595   -0.0803    3.9289 H   0  0  0  0  0  0  0  0  0  0  0  0
  1  2  1  0  0  0  0
  2  3  1  0  0  0  0
  2  4  1  0  0  0  0
  2  5  1  0  0  0  0
  5  6  2  0  0  0  0
  5  7  1  0  0  0  0
  7  8  1  0  0  0  0
  7  9  1  0  0  0  0
  9 10  1  0  0  0  0
  9 11  1  0  0  0  0
  9 26  1  0  0  0  0
 11 12  1  0  0  0  0
 11 13  1  0  0  0  0
 11 14  1  0  0  0  0
 14 15  2  0  0  0  0
 14 24  1  0  0  0  0
 15 16  1  0  0  0  0
 15 17  1  0  0  0  0
 17 18  1  0  0  0  0
 17 19  2  0  0  0  0
 19 20  1  0  0  0  0
 19 22  1  0  0  0  0
 20 21  1  0  0  0  0
 22 23  1  0  0  0  0
 22 24  2  0  0  0  0
 24 25  1  0  0  0  0
 26 27  2  0  0  0  0
 26 28  1  0  0  0  0
 28 29  1  0  0  0  0
 28 30  1  0  0  0  0
 30 31  1  0  0  0  0
 30 32  1  0  0  0  0
 30 33  1  0  0  0  0
M  END
$$$$

  -OEChem-03222214083D

 33 33  0     1  0  0  0  0  0999 V2000
   -3.2579   -4.6144    0.7278 H   0  0  0  0  0  0  0  0  0  0  0  0
   -3.2206   -3.7196    0.0997 C   0  0  0  0  0  0  0  0  0  0  0  0
   -4.1043   -3.1100    0.3029 H   0  0  0  0  0  0  0  0  0  0  0  0
   -3.2304   -4.0274   -0.9487 H   0  0  0  0  0  0  0  0  0  0  0  0
   -1.9618   -2.9259    0.3971 C   0  0  0  0  0  0  0  0  0  0  0  0
   -1.2079   -3.2960    1.2787 O   0  0  0  0  0  0  0  0  0  0  0  0
   -1.6872   -1.7824   -0.3283 N   0  0  0  0  0  0  0  0  0  0  0  0
   -2.3049   -1.5857   -1.1096 H   0  0  0  0  0  0  0  0  0  0  0  0
   -0.4168   -1.0329   -0.2452 C   0  0  1  0  0  0  0  0  0  0  0  0
    0.4032   -1.7139   -0.5027 H   0  0  0  0  0  0  0  0  0  0  0  0
   -0.4441    0.1383   -1.2509 C   0  0  0  0  0  0  0  0  0  0  0  0
   -1.4687    0.3469   -1.5743 H   0  0  0  0  0  0  0  0  0  0  0  0
   -0.0764    1.0532   -0.7728 H   0  0  0  0  0  0  0  0  0  0  0  0
    0.4195   -0.1662   -2.4510 C   0  0  0  0  0  0  0  0  0  0  0  0
    1.6702    0.4517   -2.5989 C   0  0  0  0  0  0  0  0  0  0  0  0
    2.0297    1.1427   -1.8410 H   0  0  0  0  0  0  0  0  0  0  0  0
    2.4715    0.1724   -3.7121 C   0  0  0  0  0  0  0  0  0  0  0  0
    3.4382    0.6552   -3.8057 H   0  0  0  0  0  0  0  0  0  0  0  0
    2.0291   -0.7225   -4.6887 C   0  0  0  0  0  0  0  0  0  0  0  0
    2.8045   -1.0059   -5.7755 O   0  0  0  0  0  0  0  0  0  0  0  0
    3.6575   -0.5504   -5.7018 H   0  0  0  0  0  0  0  0  0  0  0  0
    0.7846   -1.3345   -4.5504 C   0  0  0  0  0  0  0  0  0  0  0  0
    0.4508   -2.0282   -5.3150 H   0  0  0  0  0  0  0  0  0  0  0  0
   -0.0195   -1.0609   -3.4385 C   0  0  0  0  0  0  0  0  0  0  0  0
   -0.9839   -1.5496   -3.3468 H   0  0  0  0  0  0  0  0  0  0  0  0
   -0.0898   -0.4892    1.1635 C   0  0  0  0  0  0  0  0  0  0  0  0
    1.0782   -0.3616    1.5074 O   0  0  0  0  0  0  0  0  0  0  0  0
   -1.0770    0.1315    1.9085 N   0  0  0  0  0  0  0  0  0  0  0  0
   -2.0332   -0.0759    1.6401 H   0  0  0  0  0  0  0  0  0  0  0  0
   -0.8283    0.7042    3.2257 C   0  0  0  0  0  0  0  0  0  0  0  0
   -0.0533    1.4758    3.1690 H   0  0  0  0  0  0  0  0  0  0  0  0
   -1.7409    1.1629    3.6175 H   0  0  0  0  0  0  0  0  0  0  0  0
   -0.5009   -0.0730    3.9242 H   0  0  0  0  0  0  0  0  0  0  0  0
  1  2  1  0  0  0  0
  2  3  1  0  0  0  0
  2  4  1  0  0  0  0
  2  5  1  0  0  0  0
  5  6  2  0  0  0  0
  5  7  1  0  0  0  0
  7  8  1  0  0  0  0
  7  9  1  0  0  0  0
  9 10  1  0  0  0  0
  9 11  1  0  0  0  0
  9 26  1  0  0  0  0
 11 12  1  0  0  0  0
 11 13  1  0  0  0  0
 11 14  1  0  0  0  0
 14 15  2  0  0  0  0
 14 24  1  0  0  0  0
 15 16  1  0  0  0  0
 15 17  1  0  0  0  0
 17 18  1  0  0  0  0
 17 19  2  0  0  0  0
 19 20  1  0  0  0  0
 19 22  1  0  0  0  0
 20 21  1  0  0  0  0
 22 23  1  0  0  0  0
 22 24  2  0  0  0  0
 24 25  1  0  0  0  0
 26 27  2  0  0  0  0
 26 28  1  0  0  0  0
 28 29  1  0  0  0  0
 28 30  1  0  0  0  0
 30 31  1  0  0  0  0
 30 32  1  0  0  0  0
 30 33  1  0  0  0  0
M  END
$$$$

  -OEChem-03222214083D

 33 33  0     1  0  0  0  0  0999 V2000
   -3.2523   -4.6179    0.7251 H   0  0  0  0  0  0  0  0  0  0  0  0
   -3.2203   -3.7235    0.0958 C   0  0  0  0  0  0  0  0  0  0  0  0
   -4.1094   -3.1206    0.2958 H   0  0  0  0  0  0  0  0  0  0  0  0
   -3.2245   -4.0325   -0.9523 H   0  0  0  0  0  0  0  0  0  0  0  0
   -1.9691   -2.9192    0.3966 C   0  0  0  0  0  0  0  0  0  0  0  0
   -1.2187   -3.2792    1.2854 O   0  0  0  0  0  0  0  0  0  0  0  0
   -1.7006   -1.7748   -0.3299 N   0  0  0  0  0  0  0  0  0  0  0  0
   -2.3043   -1.5994   -1.1271 H   0  0  0  0  0  0  0  0  0  0  0  0
   -0.4288   -1.0276   -0.2527 C   0  0  1  0  0  0  0  0  0  0  0  0
    0.3861   -1.7123   -0.5165 H   0  0  0  0  0  0  0  0  0  0  0  0
   -0.4573    0.1447   -1.2564 C   0  0  0  0  0  0  0  0  0  0  0  0
   -1.4832    0.3604   -1.5705 H   0  0  0  0  0  0  0  0  0  0  0  0
   -0.0784    1.0580   -0.7838 H   0  0  0  0  0  0  0  0  0  0  0  0
    0.4012   -0.1654   -2.4572 C   0  0  0  0  0  0  0  0  0  0  0  0
    1.7583    0.1889   -2.4582 C   0  0  0  0  0  0  0  0  0  0  0  0
    2.1926    0.6772   -1.5891 H   0  0  0  0  0  0  0  0  0  0  0  0
    2.5638   -0.0960   -3.5667 C   0  0  0  0  0  0  0  0  0  0  0  0
    3.6122    0.1812   -3.5467 H   0  0  0  0  0  0  0  0  0  0  0  0
    2.0199   -0.7339   -4.6834 C   0  0  0  0  0  0  0  0  0  0  0  0
    2.7972   -1.0187   -5.7685 O   0  0  0  0  0  0  0  0  0  0  0  0
    3.7114   -0.7407   -5.6027 H   0  0  0  0  0  0  0  0  0  0  0  0
    0.6709   -1.0851   -4.6889 C   0  0  0  0  0  0  0  0  0  0  0  0
    0.2593   -1.5798   -5.5625 H   0  0  0  0  0  0  0  0  0  0  0  0
   -0.1389   -0.8048   -3.5826 C   0  0  0  0  0  0  0  0  0  0  0  0
   -1.1866   -1.0863   -3.6051 H   0  0  0  0  0  0  0  0  0  0  0  0
   -0.0885   -0.4858    1.1529 C   0  0  0  0  0  0  0  0  0  0  0  0
    1.0840   -0.3569    1.4813 O   0  0  0  0  0  0  0  0  0  0  0  0
   -1.0673    0.1364    1.9075 N   0  0  0  0  0  0  0  0  0  0  0  0
   -2.0260   -0.0789    1.6535 H   0  0  0  0  0  0  0  0  0  0  0  0
   -0.8038    0.7017    3.2250 C   0  0  0  0  0  0  0  0  0  0  0  0
   -0.0198    1.4641    3.1665 H   0  0  0  0  0  0  0  0  0  0  0  0
   -1.7086    1.1703    3.6238 H   0  0  0  0  0  0  0  0  0  0  0  0
   -0.4814   -0.0817    3.9189 H   0  0  0  0  0  0  0  0  0  0  0  0
  1  2  1  0  0  0  0
  2  3  1  0  0  0  0
  2  4  1  0  0  0  0
  2  5  1  0  0  0  0
  5  6  2  0  0  0  0
  5  7  1  0  0  0  0
  7  8  1  0  0  0  0
  7  9  1  0  0  0  0
  9 10  1  0  0  0  0
  9 11  1  0  0  0  0
  9 26  1  0  0  0  0
 11 12  1  0  0  0  0
 11 13  1  0  0  0  0
 11 14  1  0  0  0  0
 14 15  2  0  0  0  0
 14 24  1  0  0  0  0
 15 16  1  0  0  0  0
 15 17  1  0  0  0  0
 17 18  1  0  0  0  0
 17 19  2  0  0  0  0
 19 20  1  0  0  0  0
 19 22  1  0  0  0  0
 20 21  1  0  0  0  0
 22 23  1  0  0  0  0
 22 24  2  0  0  0  0
 24 25  1  0  0  0  0
 26 27  2  0  0  0  0
 26 28  1  0  0  0  0
 28 29  1  0  0  0  0
 28 30  1  0  0  0  0
 30 31  1  0  0  0  0
 30 32  1  0  0  0  0
 30 33  1  0  0  0  0
M  END
$$$$

  -OEChem-03222214083D

 33 33  0     1  0  0  0  0  0999 V2000
   -3.2578   -4.6167    0.7152 H   0  0  0  0  0  0  0  0  0  0  0  0
   -3.2182   -3.7275    0.0795 C   0  0  0  0  0  0  0  0  0  0  0  0
   -4.1143   -3.1281    0.2571 H   0  0  0  0  0  0  0  0  0  0  0  0
   -3.1998   -4.0446   -0.9660 H   0  0  0  0  0  0  0  0  0  0  0  0
   -1.9776   -2.9140    0.3978 C   0  0  0  0  0  0  0  0  0  0  0  0
   -1.2365   -3.2683    1.2967 O   0  0  0  0  0  0  0  0  0  0  0  0
   -1.7076   -1.7692   -0.3271 N   0  0  0  0  0  0  0  0  0  0  0  0
   -2.2954   -1.6094   -1.1394 H   0  0  0  0  0  0  0  0  0  0  0  0
   -0.4332   -1.0272   -0.2503 C   0  0  1  0  0  0  0  0  0  0  0  0
    0.3757   -1.7172   -0.5167 H   0  0  0  0  0  0  0  0  0  0  0  0
   -0.4639    0.1458   -1.2544 C   0  0  0  0  0  0  0  0  0  0  0  0
   -1.4917    0.3682   -1.5571 H   0  0  0  0  0  0  0  0  0  0  0  0
   -0.0732    1.0559   -0.7852 H   0  0  0  0  0  0  0  0  0  0  0  0
    0.3892   -0.1614   -2.4601 C   0  0  0  0  0  0  0  0  0  0  0  0
    1.7873   -0.1016   -2.3599 C   0  0  0  0  0  0  0  0  0  0  0  0
    2.2518    0.1629   -1.4123 H   0  0  0  0  0  0  0  0  0  0  0  0
    2.5898   -0.3895   -3.4697 C   0  0  0  0  0  0  0  0  0  0  0  0
    3.6688   -0.3399   -3.3718 H   0  0  0  0  0  0  0  0  0  0  0  0
    2.0028   -0.7392   -4.6876 C   0  0  0  0  0  0  0  0  0  0  0  0
    2.7758   -1.0229   -5.7760 O   0  0  0  0  0  0  0  0  0  0  0  0
    3.7145   -0.9515   -5.5429 H   0  0  0  0  0  0  0  0  0  0  0  0
    0.6141   -0.8005   -4.7923 C   0  0  0  0  0  0  0  0  0  0  0  0
    0.1697   -1.0726   -5.7441 H   0  0  0  0  0  0  0  0  0  0  0  0
   -0.1938   -0.5142   -3.6861 C   0  0  0  0  0  0  0  0  0  0  0  0
   -1.2731   -0.5658   -3.7886 H   0  0  0  0  0  0  0  0  0  0  0  0
   -0.0836   -0.4876    1.1537 C   0  0  0  0  0  0  0  0  0  0  0  0
    1.0917   -0.3694    1.4765 O   0  0  0  0  0  0  0  0  0  0  0  0
   -1.0557    0.1387    1.9132 N   0  0  0  0  0  0  0  0  0  0  0  0
   -2.0167   -0.0637    1.6579 H   0  0  0  0  0  0  0  0  0  0  0  0
   -0.7866    0.7030    3.2298 C   0  0  0  0  0  0  0  0  0  0  0  0
   -0.0074    1.4699    3.1675 H   0  0  0  0  0  0  0  0  0  0  0  0
   -1.6915    1.1656    3.6349 H   0  0  0  0  0  0  0  0  0  0  0  0
   -0.4564   -0.0800    3.9204 H   0  0  0  0  0  0  0  0  0  0  0  0
  1  2  1  0  0  0  0
  2  3  1  0  0  0  0
  2  4  1  0  0  0  0
  2  5  1  0  0  0  0
  5  6  2  0  0  0  0
  5  7  1  0  0  0  0
  7  8  1  0  0  0  0
  7  9  1  0  0  0  0
  9 10  1  0  0  0  0
  9 11  1  0  0  0  0
  9 26  1  0  0  0  0
 11 12  1  0  0  0  0
 11 13  1  0  0  0  0
 11 14  1  0  0  0  0
 14 15  2  0  0  0  0
 14 24  1  0  0  0  0
 15 16  1  0  0  0  0
 15 17  1  0  0  0  0
 17 18  1  0  0  0  0
 17 19  2  0  0  0  0
 19 20  1  0  0  0  0
 19 22  1  0  0  0  0
 20 21  1  0  0  0  0
 22 23  1  0  0  0  0
 22 24  2  0  0  0  0
 24 25  1  0  0  0  0
 26 27  2  0  0  0  0
 26 28  1  0  0  0  0
 28 29  1  0  0  0  0
 28 30  1  0  0  0  0
 30 31  1  0  0  0  0
 30 32  1  0  0  0  0
 30 33  1  0  0  0  0
M  END
$$$$

  -OEChem-03222214083D

 33 33  0     1  0  0  0  0  0999 V2000
   -3.2783   -4.6121    0.7199 H   0  0  0  0  0  0  0  0  0  0  0  0
   -3.2286   -3.7248    0.0822 C   0  0  0  0  0  0  0  0  0  0  0  0
   -4.1237   -3.1212    0.2493 H   0  0  0  0  0  0  0  0  0  0  0  0
   -3.2015   -4.0452   -0.9623 H   0  0  0  0  0  0  0  0  0  0  0  0
   -1.9880   -2.9154    0.4096 C   0  0  0  0  0  0  0  0  0  0  0  0
   -1.2567   -3.2688    1.3169 O   0  0  0  0  0  0  0  0  0  0  0  0
   -1.7053   -1.7764   -0.3192 N   0  0  0  0  0  0  0  0  0  0  0  0
   -2.2821   -1.6216   -1.1407 H   0  0  0  0  0  0  0  0  0  0  0  0
   -0.4278   -1.0408   -0.2356 C   0  0  1  0  0  0  0  0  0  0  0  0
    0.3756   -1.7410   -0.4891 H   0  0  0  0  0  0  0  0  0  0  0  0
   -0.4530    0.1266   -1.2502 C   0  0  0  0  0  0  0  0  0  0  0  0
   -1.4822    0.3515   -1.5471 H   0  0  0  0  0  0  0  0  0  0  0  0
   -0.0584    1.0356   -0.7823 H   0  0  0  0  0  0  0  0  0  0  0  0
    0.3994   -0.1631   -2.4636 C   0  0  0  0  0  0  0  0  0  0  0  0
    1.7757   -0.4036   -2.3231 C   0  0  0  0  0  0  0  0  0  0  0  0
    2.2357   -0.3695   -1.3377 H   0  0  0  0  0  0  0  0  0  0  0  0
    2.5656   -0.6838   -3.4437 C   0  0  0  0  0  0  0  0  0  0  0  0
    3.6269   -0.8656   -3.3125 H   0  0  0  0  0  0  0  0  0  0  0  0
    1.9899   -0.7268   -4.7148 C   0  0  0  0  0  0  0  0  0  0  0  0
    2.7512   -1.0004   -5.8139 O   0  0  0  0  0  0  0  0  0  0  0  0
    3.6731   -1.1452   -5.5497 H   0  0  0  0  0  0  0  0  0  0  0  0
    0.6248   -0.4877   -4.8618 C   0  0  0  0  0  0  0  0  0  0  0  0
    0.1882   -0.5214   -5.8547 H   0  0  0  0  0  0  0  0  0  0  0  0
   -0.1705   -0.2069   -3.7451 C   0  0  0  0  0  0  0  0  0  0  0  0
   -1.2313   -0.0225   -3.8837 H   0  0  0  0  0  0  0  0  0  0  0  0
   -0.0862   -0.4945    1.1674 C   0  0  0  0  0  0  0  0  0  0  0  0
    1.0872   -0.3933    1.5022 O   0  0  0  0  0  0  0  0  0  0  0  0
   -1.0588    0.1424    1.9169 N   0  0  0  0  0  0  0  0  0  0  0  0
   -2.0196   -0.0482    1.6519 H   0  0  0  0  0  0  0  0  0  0  0  0
   -0.7955    0.7055    3.2350 C   0  0  0  0  0  0  0  0  0  0  0  0
   -0.0100    1.4664    3.1778 H   0  0  0  0  0  0  0  0  0  0  0  0
   -1.6999    1.1751    3.6334 H   0  0  0  0  0  0  0  0  0  0  0  0
   -0.4761   -0.0795    3.9285 H   0  0  0  0  0  0  0  0  0  0  0  0
  1  2  1  0  0  0  0
  2  3  1  0  0  0  0
  2  4  1  0  0  0  0
  2  5  1  0  0  0  0
  5  6  2  0  0  0  0
  5  7  1  0  0  0  0
  7  8  1  0  0  0  0
  7  9  1  0  0  0  0
  9 10  1  0  0  0  0
  9 11  1  0  0  0  0
  9 26  1  0  0  0  0
 11 12  1  0  0  0  0
 11 13  1  0  0  0  0
 11 14  1  0  0  0  0
 14 15  2  0  0  0  0
 14 24  1  0  0  0  0
 15 16  1  0  0  0  0
 15 17  1  0  0  0  0
 17 18  1  0  0  0  0
 17 19  2  0  0  0  0
 19 20  1  0  0  0  0
 19 22  1  0  0  0  0
 20 21  1  0  0  0  0
 22 23  1  0  0  0  0
 22 24  2  0  0  0  0
 24 25  1  0  0  0  0
 26 27  2  0  0  0  0
 26 28  1  0  0  0  0
 28 29  1  0  0  0  0
 28 30  1  0  0  0  0
 30 31  1  0  0  0  0
 30 32  1  0  0  0  0
 30 33  1  0  0  0  0
M  END
$$$$

  -OEChem-03222214083D

 33 33  0     1  0  0  0  0  0999 V2000
   -3.3140   -4.6108    0.7287 H   0  0  0  0  0  0  0  0  0  0  0  0
   -3.2516   -3.7253    0.0894 C   0  0  0  0  0  0  0  0  0  0  0  0
   -4.1469   -3.1178    0.2414 H   0  0  0  0  0  0  0  0  0  0  0  0
   -3.2101   -4.0487   -0.9535 H   0  0  0  0  0  0  0  0  0  0  0  0
   -2.0127   -2.9194    0.4331 C   0  0  0  0  0  0  0  0  0  0  0  0
   -1.3022   -3.2666    1.3591 O   0  0  0  0  0  0  0  0  0  0  0  0
   -1.7053   -1.7921   -0.3041 N   0  0  0  0  0  0  0  0  0  0  0  0
   -2.2621   -1.6450   -1.1407 H   0  0  0  0  0  0  0  0  0  0  0  0
   -0.4220   -1.0686   -0.2056 C   0  0  1  0  0  0  0  0  0  0  0  0
    0.3708   -1.7874   -0.4299 H   0  0  0  0  0  0  0  0  0  0  0  0
   -0.4233    0.0862   -1.2392 C   0  0  0  0  0  0  0  0  0  0  0  0
   -1.4508    0.3128   -1.5413 H   0  0  0  0  0  0  0  0  0  0  0  0
   -0.0319    0.9954   -0.7691 H   0  0  0  0  0  0  0  0  0  0  0  0
    0.4357   -0.1788   -2.4594 C   0  0  0  0  0  0  0  0  0  0  0  0
    1.7337   -0.7095   -2.3490 C   0  0  0  0  0  0  0  0  0  0  0  0
    2.1673   -0.9067   -1.3714 H   0  0  0  0  0  0  0  0  0  0  0  0
    2.4985   -0.9670   -3.4925 C   0  0  0  0  0  0  0  0  0  0  0  0
    3.4988   -1.3717   -3.3823 H   0  0  0  0  0  0  0  0  0  0  0  0
    1.9788   -0.6992   -4.7597 C   0  0  0  0  0  0  0  0  0  0  0  0
    2.7167   -0.9462   -5.8810 O   0  0  0  0  0  0  0  0  0  0  0  0
    3.5895   -1.2894   -5.6341 H   0  0  0  0  0  0  0  0  0  0  0  0
    0.6959   -0.1702   -4.8798 C   0  0  0  0  0  0  0  0  0  0  0  0
    0.3033    0.0381   -5.8698 H   0  0  0  0  0  0  0  0  0  0  0  0
   -0.0730    0.0907   -3.7400 C   0  0  0  0  0  0  0  0  0  0  0  0
   -1.0694    0.5049   -3.8605 H   0  0  0  0  0  0  0  0  0  0  0  0
   -0.0976   -0.5078    1.1955 C   0  0  0  0  0  0  0  0  0  0  0  0
    1.0710   -0.4214    1.5502 O   0  0  0  0  0  0  0  0  0  0  0  0
   -1.0738    0.1496    1.9221 N   0  0  0  0  0  0  0  0  0  0  0  0
   -2.0329   -0.0327    1.6451 H   0  0  0  0  0  0  0  0  0  0  0  0
   -0.8216    0.7276    3.2358 C   0  0  0  0  0  0  0  0  0  0  0  0
   -0.0259    1.4778    3.1784 H   0  0  0  0  0  0  0  0  0  0  0  0
   -1.7254    1.2138    3.6151 H   0  0  0  0  0  0  0  0  0  0  0  0
   -0.5211   -0.0514    3.9442 H   0  0  0  0  0  0  0  0  0  0  0  0
  1  2  1  0  0  0  0
  2  3  1  0  0  0  0
  2  4  1  0  0  0  0
  2  5  1  0  0  0  0
  5  6  2  0  0  0  0
  5  7  1  0  0  0  0
  7  8  1  0  0  0  0
  7  9  1  0  0  0  0
  9 10  1  0  0  0  0
  9 11  1  0  0  0  0
  9 26  1  0  0  0  0
 11 12  1  0  0  0  0
 11 13  1  0  0  0  0
 11 14  1  0  0  0  0
 14 15  2  0  0  0  0
 14 24  1  0  0  0  0
 15 16  1  0  0  0  0
 15 17  1  0  0  0  0
 17 18  1  0  0  0  0
 17 19  2  0  0  0  0
 19 20  1  0  0  0  0
 19 22  1  0  0  0  0
 20 21  1  0  0  0  0
 22 23  1  0  0  0  0
 22 24  2  0  0  0  0
 24 25  1  0  0  0  0
 26 27  2  0  0  0  0
 26 28  1  0  0  0  0
 28 29  1  0  0  0  0
 28 30  1  0  0  0  0
 30 31  1  0  0  0  0
 30 32  1  0  0  0  0
 30 33  1  0  0  0  0
M  END
$$$$

  -OEChem-03222214083D

 33 33  0     1  0  0  0  0  0999 V2000
   -3.3662   -4.5938    0.7715 H   0  0  0  0  0  0  0  0  0  0  0  0
   -3.2875   -3.7123    0.1286 C   0  0  0  0  0  0  0  0  0  0  0  0
   -4.1742   -3.0907    0.2734 H   0  0  0  0  0  0  0  0  0  0  0  0
   -3.2462   -4.0410   -0.9128 H   0  0  0  0  0  0  0  0  0  0  0  0
   -2.0384   -2.9239    0.4755 C   0  0  0  0  0  0  0  0  0  0  0  0
   -1.3485   -3.2679    1.4180 O   0  0  0  0  0  0  0  0  0  0  0  0
   -1.6956   -1.8196   -0.2807 N   0  0  0  0  0  0  0  0  0  0  0  0
   -2.2378   -1.6753   -1.1276 H   0  0  0  0  0  0  0  0  0  0  0  0
   -0.4039   -1.1128   -0.1702 C   0  0  1  0  0  0  0  0  0  0  0  0
    0.3805   -1.8490   -0.3514 H   0  0  0  0  0  0  0  0  0  0  0  0
   -0.3726    0.0226   -1.2271 C   0  0  0  0  0  0  0  0  0  0  0  0
   -1.3961    0.2531   -1.5395 H   0  0  0  0  0  0  0  0  0  0  0  0
    0.0173    0.9327   -0.7573 H   0  0  0  0  0  0  0  0  0  0  0  0
    0.4908   -0.2218   -2.4543 C   0  0  0  0  0  0  0  0  0  0  0  0
    1.6577   -1.0119   -2.4444 C   0  0  0  0  0  0  0  0  0  0  0  0
    2.0391   -1.4494   -1.5269 H   0  0  0  0  0  0  0  0  0  0  0  0
    2.3890   -1.2223   -3.6196 C   0  0  0  0  0  0  0  0  0  0  0  0
    3.2869   -1.8299   -3.5836 H   0  0  0  0  0  0  0  0  0  0  0  0
    1.9720   -0.6487   -4.8208 C   0  0  0  0  0  0  0  0  0  0  0  0
    2.6805   -0.8468   -5.9703 O   0  0  0  0  0  0  0  0  0  0  0  0
    3.4702   -1.3783   -5.7850 H   0  0  0  0  0  0  0  0  0  0  0  0
    0.8255    0.1404   -4.8427 C   0  0  0  0  0  0  0  0  0  0  0  0
    0.5111    0.5890   -5.7795 H   0  0  0  0  0  0  0  0  0  0  0  0
    0.0913    0.3546   -3.6716 C   0  0  0  0  0  0  0  0  0  0  0  0
   -0.7976    0.9766   -3.7169 H   0  0  0  0  0  0  0  0  0  0  0  0
   -0.1107   -0.5254    1.2275 C   0  0  0  0  0  0  0  0  0  0  0  0
    1.0474   -0.4513    1.6168 O   0  0  0  0  0  0  0  0  0  0  0  0
   -1.0987    0.1605    1.9111 N   0  0  0  0  0  0  0  0  0  0  0  0
   -2.0517   -0.0160    1.6107 H   0  0  0  0  0  0  0  0  0  0  0  0
   -0.8782    0.7601    3.2209 C   0  0  0  0  0  0  0  0  0  0  0  0
   -0.0663    1.4936    3.1756 H   0  0  0  0  0  0  0  0  0  0  0  0
   -1.7838    1.2716    3.5603 H   0  0  0  0  0  0  0  0  0  0  0  0
   -0.6168   -0.0101    3.9542 H   0  0  0  0  0  0  0  0  0  0  0  0
  1  2  1  0  0  0  0
  2  3  1  0  0  0  0
  2  4  1  0  0  0  0
  2  5  1  0  0  0  0
  5  6  2  0  0  0  0
  5  7  1  0  0  0  0
  7  8  1  0  0  0  0
  7  9  1  0  0  0  0
  9 10  1  0  0  0  0
  9 11  1  0  0  0  0
  9 26  1  0  0  0  0
 11 12  1  0  0  0  0
 11 13  1  0  0  0  0
 11 14  1  0  0  0  0
 14 15  2  0  0  0  0
 14 24  1  0  0  0  0
 15 16  1  0  0  0  0
 15 17  1  0  0  0  0
 17 18  1  0  0  0  0
 17 19  2  0  0  0  0
 19 20  1  0  0  0  0
 19 22  1  0  0  0  0
 20 21  1  0  0  0  0
 22 23  1  0  0  0  0
 22 24  2  0  0  0  0
 24 25  1  0  0  0  0
 26 27  2  0  0  0  0
 26 28  1  0  0  0  0
 28 29  1  0  0  0  0
 28 30  1  0  0  0  0
 30 31  1  0  0  0  0
 30 32  1  0  0  0  0
 30 33  1  0  0  0  0
M  END
$$$$

  -OEChem-03222214083D

 33 33  0     1  0  0  0  0  0999 V2000
   -3.4261   -4.5587    0.8558 H   0  0  0  0  0  0  0  0  0  0  0  0
   -3.3292   -3.6887    0.2000 C   0  0  0  0  0  0  0  0  0  0  0  0
   -4.1961   -3.0399    0.3457 H   0  0  0  0  0  0  0  0  0  0  0  0
   -3.3084   -4.0321   -0.8371 H   0  0  0  0  0  0  0  0  0  0  0  0
   -2.0550   -2.9311    0.5232 C   0  0  0  0  0  0  0  0  0  0  0  0
   -1.3700   -3.2758    1.4690 O   0  0  0  0  0  0  0  0  0  0  0  0
   -1.6845   -1.8531   -0.2573 N   0  0  0  0  0  0  0  0  0  0  0  0
   -2.2259   -1.7089   -1.1049 H   0  0  0  0  0  0  0  0  0  0  0  0
   -0.3849   -1.1600   -0.1500 C   0  0  1  0  0  0  0  0  0  0  0  0
    0.4018   -1.8998   -0.2917 H   0  0  0  0  0  0  0  0  0  0  0  0
   -0.3347   -0.0422   -1.2263 C   0  0  0  0  0  0  0  0  0  0  0  0
   -1.3558    0.1934   -1.5431 H   0  0  0  0  0  0  0  0  0  0  0  0
    0.0593    0.8688   -0.7615 H   0  0  0  0  0  0  0  0  0  0  0  0
    0.5211   -0.2779   -2.4634 C   0  0  0  0  0  0  0  0  0  0  0  0
    1.5061   -1.2800   -2.5918 C   0  0  0  0  0  0  0  0  0  0  0  0
    1.7607   -1.9539   -1.7825 H   0  0  0  0  0  0  0  0  0  0  0  0
    2.2255   -1.4276   -3.7840 C   0  0  0  0  0  0  0  0  0  0  0  0
    2.9791   -2.2045   -3.8550 H   0  0  0  0  0  0  0  0  0  0  0  0
    1.9818   -0.5821   -4.8657 C   0  0  0  0  0  0  0  0  0  0  0  0
    2.6802   -0.7191   -6.0302 O   0  0  0  0  0  0  0  0  0  0  0  0
    3.3397   -1.4243   -5.9409 H   0  0  0  0  0  0  0  0  0  0  0  0
    1.0195    0.4157   -4.7507 C   0  0  0  0  0  0  0  0  0  0  0  0
    0.8392    1.0754   -5.5932 H   0  0  0  0  0  0  0  0  0  0  0  0
    0.2975    0.5681   -3.5631 C   0  0  0  0  0  0  0  0  0  0  0  0
   -0.4453    1.3579   -3.5005 H   0  0  0  0  0  0  0  0  0  0  0  0
   -0.1182   -0.5429    1.2410 C   0  0  0  0  0  0  0  0  0  0  0  0
    1.0286   -0.4790    1.6638 O   0  0  0  0  0  0  0  0  0  0  0  0
   -1.1152    0.1680    1.8848 N   0  0  0  0  0  0  0  0  0  0  0  0
   -2.0616    0.0035    1.5581 H   0  0  0  0  0  0  0  0  0  0  0  0
   -0.9234    0.7880    3.1895 C   0  0  0  0  0  0  0  0  0  0  0  0
   -0.0990    1.5080    3.1549 H   0  0  0  0  0  0  0  0  0  0  0  0
   -1.8306    1.3192    3.4925 H   0  0  0  0  0  0  0  0  0  0  0  0
   -0.6960    0.0274    3.9437 H   0  0  0  0  0  0  0  0  0  0  0  0
  1  2  1  0  0  0  0
  2  3  1  0  0  0  0
  2  4  1  0  0  0  0
  2  5  1  0  0  0  0
  5  6  2  0  0  0  0
  5  7  1  0  0  0  0
  7  8  1  0  0  0  0
  7  9  1  0  0  0  0
  9 10  1  0  0  0  0
  9 11  1  0  0  0  0
  9 26  1  0  0  0  0
 11 12  1  0  0  0  0
 11 13  1  0  0  0  0
 11 14  1  0  0  0  0
 14 15  2  0  0  0  0
 14 24  1  0  0  0  0
 15 16  1  0  0  0  0
 15 17  1  0  0  0  0
 17 18  1  0  0  0  0
 17 19  2  0  0  0  0
 19 20  1  0  0  0  0
 19 22  1  0  0  0  0
 20 21  1  0  0  0  0
 22 23  1  0  0  0  0
 22 24  2  0  0  0  0
 24 25  1  0  0  0  0
 26 27  2  0  0  0  0
 26 28  1  0  0  0  0
 28 29  1  0  0  0  0
 28 30  1  0  0  0  0
 30 31  1  0  0  0  0
 30 32  1  0  0  0  0
 30 33  1  0  0  0  0
M  END
$$$$

  -OEChem-03222214083D

 33 33  0     1  0  0  0  0  0999 V2000
   -3.4623   -4.5166    0.9349 H   0  0  0  0  0  0  0  0  0  0  0  0
   -3.3472   -3.6731    0.2481 C   0  0  0  0  0  0  0  0  0  0  0  0
   -4.1998   -3.0006    0.3702 H   0  0  0  0  0  0  0  0  0  0  0  0
   -3.3346   -4.0542   -0.7760 H   0  0  0  0  0  0  0  0  0  0  0  0
   -2.0563   -2.9332    0.5442 C   0  0  0  0  0  0  0  0  0  0  0  0
   -1.3566   -3.2869    1.4757 O   0  0  0  0  0  0  0  0  0  0  0  0
   -1.6846   -1.8649   -0.2491 N   0  0  0  0  0  0  0  0  0  0  0  0
   -2.2447   -1.7087   -1.0824 H   0  0  0  0  0  0  0  0  0  0  0  0
   -0.3810   -1.1764   -0.1585 C   0  0  1  0  0  0  0  0  0  0  0  0
    0.4168   -1.9061   -0.2945 H   0  0  0  0  0  0  0  0  0  0  0  0
   -0.3391   -0.0618   -1.2374 C   0  0  0  0  0  0  0  0  0  0  0  0
   -1.3611    0.1788   -1.5473 H   0  0  0  0  0  0  0  0  0  0  0  0
    0.0636    0.8469   -0.7753 H   0  0  0  0  0  0  0  0  0  0  0  0
    0.4988   -0.3011   -2.4859 C   0  0  0  0  0  0  0  0  0  0  0  0
    1.2518   -1.4639   -2.7549 C   0  0  0  0  0  0  0  0  0  0  0  0
    1.2891   -2.3059   -2.0743 H   0  0  0  0  0  0  0  0  0  0  0  0
    1.9915   -1.5787   -3.9384 C   0  0  0  0  0  0  0  0  0  0  0  0
    2.5633   -2.4820   -4.1211 H   0  0  0  0  0  0  0  0  0  0  0  0
    1.9955   -0.5438   -4.8727 C   0  0  0  0  0  0  0  0  0  0  0  0
    2.7176   -0.6490   -6.0260 O   0  0  0  0  0  0  0  0  0  0  0  0
    3.2327   -1.4705   -6.0212 H   0  0  0  0  0  0  0  0  0  0  0  0
    1.2563    0.6076   -4.6217 C   0  0  0  0  0  0  0  0  0  0  0  0
    1.2653    1.4108   -5.3514 H   0  0  0  0  0  0  0  0  0  0  0  0
    0.5175    0.7294   -3.4408 C   0  0  0  0  0  0  0  0  0  0  0  0
   -0.0458    1.6417   -3.2666 H   0  0  0  0  0  0  0  0  0  0  0  0
   -0.1137   -0.5500    1.2294 C   0  0  0  0  0  0  0  0  0  0  0  0
    1.0308   -0.4934    1.6590 O   0  0  0  0  0  0  0  0  0  0  0  0
   -1.1092    0.1675    1.8692 N   0  0  0  0  0  0  0  0  0  0  0  0
   -2.0552    0.0138    1.5361 H   0  0  0  0  0  0  0  0  0  0  0  0
   -0.9175    0.7908    3.1728 C   0  0  0  0  0  0  0  0  0  0  0  0
   -0.1008    1.5194    3.1333 H   0  0  0  0  0  0  0  0  0  0  0  0
   -1.8284    1.3125    3.4813 H   0  0  0  0  0  0  0  0  0  0  0  0
   -0.6779    0.0333    3.9265 H   0  0  0  0  0  0  0  0  0  0  0  0
  1  2  1  0  0  0  0
  2  3  1  0  0  0  0
  2  4  1  0  0  0  0
  2  5  1  0  0  0  0
  5  6  2  0  0  0  0
  5  7  1  0  0  0  0
  7  8  1  0  0  0  0
  7  9  1  0  0  0  0
  9 10  1  0  0  0  0
  9 11  1  0  0  0  0
  9 26  1  0  0  0  0
 11 12  1  0  0  0  0
 11 13  1  0  0  0  0
 11 14  1  0  0  0  0
 14 15  2  0  0  0  0
 14 24  1  0  0  0  0
 15 16  1  0  0  0  0
 15 17  1  0  0  0  0
 17 18  1  0  0  0  0
 17 19  2  0  0  0  0
 19 20  1  0  0  0  0
 19 22  1  0  0  0  0
 20 21  1  0  0  0  0
 22 23  1  0  0  0  0
 22 24  2  0  0  0  0
 24 25  1  0  0  0  0
 26 27  2  0  0  0  0
 26 28  1  0  0  0  0
 28 29  1  0  0  0  0
 28 30  1  0  0  0  0
 30 31  1  0  0  0  0
 30 32  1  0  0  0  0
 30 33  1  0  0  0  0
M  END
$$$$

  -OEChem-03222214083D

 33 33  0     1  0  0  0  0  0999 V2000
   -3.4224   -4.5346    0.9198 H   0  0  0  0  0  0  0  0  0  0  0  0
   -3.3320   -3.6730    0.2521 C   0  0  0  0  0  0  0  0  0  0  0  0
   -4.1774   -3.0030    0.4263 H   0  0  0  0  0  0  0  0  0  0  0  0
   -3.3612   -4.0257   -0.7817 H   0  0  0  0  0  0  0  0  0  0  0  0
   -2.0285   -2.9429    0.5168 C   0  0  0  0  0  0  0  0  0  0  0  0
   -1.2956   -3.3184    1.4135 O   0  0  0  0  0  0  0  0  0  0  0  0
   -1.6823   -1.8579   -0.2653 N   0  0  0  0  0  0  0  0  0  0  0  0
   -2.2771   -1.6709   -1.0675 H   0  0  0  0  0  0  0  0  0  0  0  0
   -0.3858   -1.1541   -0.1883 C   0  0  1  0  0  0  0  0  0  0  0  0
    0.4282   -1.8636   -0.3533 H   0  0  0  0  0  0  0  0  0  0  0  0
   -0.3734   -0.0228   -1.2489 C   0  0  0  0  0  0  0  0  0  0  0  0
   -1.3994    0.2112   -1.5500 H   0  0  0  0  0  0  0  0  0  0  0  0
    0.0261    0.8842   -0.7804 H   0  0  0  0  0  0  0  0  0  0  0  0
    0.4549   -0.2661   -2.5011 C   0  0  0  0  0  0  0  0  0  0  0  0
    0.9452   -1.5272   -2.8978 C   0  0  0  0  0  0  0  0  0  0  0  0
    0.7319   -2.4278   -2.3326 H   0  0  0  0  0  0  0  0  0  0  0  0
    1.7145   -1.6615   -4.0601 C   0  0  0  0  0  0  0  0  0  0  0  0
    2.0812   -2.6416   -4.3450 H   0  0  0  0  0  0  0  0  0  0  0  0
    2.0053   -0.5463   -4.8459 C   0  0  0  0  0  0  0  0  0  0  0  0
    2.7555   -0.6684   -5.9794 O   0  0  0  0  0  0  0  0  0  0  0  0
    3.0664   -1.5818   -6.0753 H   0  0  0  0  0  0  0  0  0  0  0  0
    1.5234    0.7034   -4.4681 C   0  0  0  0  0  0  0  0  0  0  0  0
    1.7555    1.5671   -5.0829 H   0  0  0  0  0  0  0  0  0  0  0  0
    0.7560    0.8441   -3.3073 C   0  0  0  0  0  0  0  0  0  0  0  0
    0.3981    1.8316   -3.0304 H   0  0  0  0  0  0  0  0  0  0  0  0
   -0.1041   -0.5464    1.2055 C   0  0  0  0  0  0  0  0  0  0  0  0
    1.0462   -0.4753    1.6165 O   0  0  0  0  0  0  0  0  0  0  0  0
   -1.0991    0.1470    1.8721 N   0  0  0  0  0  0  0  0  0  0  0  0
   -2.0484   -0.0153    1.5533 H   0  0  0  0  0  0  0  0  0  0  0  0
   -0.8930    0.7653    3.1758 C   0  0  0  0  0  0  0  0  0  0  0  0
   -0.0775    1.4948    3.1300 H   0  0  0  0  0  0  0  0  0  0  0  0
   -1.8007    1.2853    3.4963 H   0  0  0  0  0  0  0  0  0  0  0  0
   -0.6435    0.0051    3.9237 H   0  0  0  0  0  0  0  0  0  0  0  0
  1  2  1  0  0  0  0
  2  3  1  0  0  0  0
  2  4  1  0  0  0  0
  2  5  1  0  0  0  0
  5  6  2  0  0  0  0
  5  7  1  0  0  0  0
  7  8  1  0  0  0  0
  7  9  1  0  0  0  0
  9 10  1  0  0  0  0
  9 11  1  0  0  0  0
  9 26  1  0  0  0  0
 11 12  1  0  0  0  0
 11 13  1  0  0  0  0
 11 14  1  0  0  0  0
 14 15  2  0  0  0  0
 14 24  1  0  0  0  0
 15 16  1  0  0  0  0
 15 17  1  0  0  0  0
 17 18  1  0  0  0  0
 17 19  2  0  0  0  0
 19 20  1  0  0  0  0
 19 22  1  0  0  0  0
 20 21  1  0  0  0  0
 22 23  1  0  0  0  0
 22 24  2  0  0  0  0
 24 25  1  0  0  0  0
 26 27  2  0  0  0  0
 26 28  1  0  0  0  0
 28 29  1  0  0  0  0
 28 30  1  0  0  0  0
 30 31  1  0  0  0  0
 30 32  1  0  0  0  0
 30 33  1  0  0  0  0
M  END
$$$$

  -OEChem-03222214083D

 33 33  0     1  0  0  0  0  0999 V2000
   -3.3624   -4.5541    0.8649 H   0  0  0  0  0  0  0  0  0  0  0  0
   -3.2966   -3.6748    0.2174 C   0  0  0  0  0  0  0  0  0  0  0  0
   -4.1419   -3.0166    0.4320 H   0  0  0  0  0  0  0  0  0  0  0  0
   -3.3518   -4.0015   -0.8238 H   0  0  0  0  0  0  0  0  0  0  0  0
   -1.9915   -2.9412    0.4644 C   0  0  0  0  0  0  0  0  0  0  0  0
   -1.2279   -3.3379    1.3253 O   0  0  0  0  0  0  0  0  0  0  0  0
   -1.6776   -1.8297   -0.2936 N   0  0  0  0  0  0  0  0  0  0  0  0
   -2.3067   -1.6099   -1.0603 H   0  0  0  0  0  0  0  0  0  0  0  0
   -0.3927   -1.1040   -0.2195 C   0  0  1  0  0  0  0  0  0  0  0  0
    0.4293   -1.7969   -0.4259 H   0  0  0  0  0  0  0  0  0  0  0  0
   -0.4080    0.0454   -1.2580 C   0  0  0  0  0  0  0  0  0  0  0  0
   -1.4362    0.2656   -1.5607 H   0  0  0  0  0  0  0  0  0  0  0  0
   -0.0227    0.9540   -0.7810 H   0  0  0  0  0  0  0  0  0  0  0  0
    0.4250   -0.2067   -2.5020 C   0  0  0  0  0  0  0  0  0  0  0  0
    0.6451   -1.4950   -3.0263 C   0  0  0  0  0  0  0  0  0  0  0  0
    0.2070   -2.3710   -2.5581 H   0  0  0  0  0  0  0  0  0  0  0  0
    1.4278   -1.6749   -4.1732 C   0  0  0  0  0  0  0  0  0  0  0  0
    1.5860   -2.6762   -4.5586 H   0  0  0  0  0  0  0  0  0  0  0  0
    1.9987   -0.5750   -4.8150 C   0  0  0  0  0  0  0  0  0  0  0  0
    2.7666   -0.7403   -5.9313 O   0  0  0  0  0  0  0  0  0  0  0  0
    2.8909   -1.6847   -6.1126 H   0  0  0  0  0  0  0  0  0  0  0  0
    1.7819    0.7039   -4.3091 C   0  0  0  0  0  0  0  0  0  0  0  0
    2.2305    1.5541   -4.8124 H   0  0  0  0  0  0  0  0  0  0  0  0
    1.0027    0.8896   -3.1623 C   0  0  0  0  0  0  0  0  0  0  0  0
    0.8544    1.8969   -2.7834 H   0  0  0  0  0  0  0  0  0  0  0  0
   -0.0949   -0.5268    1.1835 C   0  0  0  0  0  0  0  0  0  0  0  0
    1.0612   -0.4414    1.5750 O   0  0  0  0  0  0  0  0  0  0  0  0
   -1.0905    0.1309    1.8844 N   0  0  0  0  0  0  0  0  0  0  0  0
   -2.0417   -0.0426    1.5782 H   0  0  0  0  0  0  0  0  0  0  0  0
   -0.8746    0.7138    3.2028 C   0  0  0  0  0  0  0  0  0  0  0  0
   -0.0680    1.4537    3.1690 H   0  0  0  0  0  0  0  0  0  0  0  0
   -1.7842    1.2139    3.5488 H   0  0  0  0  0  0  0  0  0  0  0  0
   -0.6079   -0.0647    3.9254 H   0  0  0  0  0  0  0  0  0  0  0  0
  1  2  1  0  0  0  0
  2  3  1  0  0  0  0
  2  4  1  0  0  0  0
  2  5  1  0  0  0  0
  5  6  2  0  0  0  0
  5  7  1  0  0  0  0
  7  8  1  0  0  0  0
  7  9  1  0  0  0  0
  9 10  1  0  0  0  0
  9 11  1  0  0  0  0
  9 26  1  0  0  0  0
 11 12  1  0  0  0  0
 11 13  1  0  0  0  0
 11 14  1  0  0  0  0
 14 15  2  0  0  0  0
 14 24  1  0  0  0  0
 15 16  1  0  0  0  0
 15 17  1  0  0  0  0
 17 18  1  0  0  0  0
 17 19  2  0  0  0  0
 19 20  1  0  0  0  0
 19 22  1  0  0  0  0
 20 21  1  0  0  0  0
 22 23  1  0  0  0  0
 22 24  2  0  0  0  0
 24 25  1  0  0  0  0
 26 27  2  0  0  0  0
 26 28  1  0  0  0  0
 28 29  1  0  0  0  0
 28 30  1  0  0  0  0
 30 31  1  0  0  0  0
 30 32  1  0  0  0  0
 30 33  1  0  0  0  0
M  END
$$$$

  -OEChem-03222214083D

 33 33  0     1  0  0  0  0  0999 V2000
   -3.3095   -4.5722    0.8125 H   0  0  0  0  0  0  0  0  0  0  0  0
   -3.2628   -3.6840    0.1755 C   0  0  0  0  0  0  0  0  0  0  0  0
   -4.1114   -3.0377    0.4117 H   0  0  0  0  0  0  0  0  0  0  0  0
   -3.3304   -3.9979   -0.8689 H   0  0  0  0  0  0  0  0  0  0  0  0
   -1.9614   -2.9400    0.4121 C   0  0  0  0  0  0  0  0  0  0  0  0
   -1.1758   -3.3468    1.2481 O   0  0  0  0  0  0  0  0  0  0  0  0
   -1.6777   -1.8049   -0.3230 N   0  0  0  0  0  0  0  0  0  0  0  0
   -2.3306   -1.5652   -1.0632 H   0  0  0  0  0  0  0  0  0  0  0  0
   -0.4047   -1.0581   -0.2463 C   0  0  1  0  0  0  0  0  0  0  0  0
    0.4211   -1.7370   -0.4873 H   0  0  0  0  0  0  0  0  0  0  0  0
   -0.4393    0.1065   -1.2643 C   0  0  0  0  0  0  0  0  0  0  0  0
   -1.4683    0.3120   -1.5749 H   0  0  0  0  0  0  0  0  0  0  0  0
   -0.0713    1.0179   -0.7797 H   0  0  0  0  0  0  0  0  0  0  0  0
    0.4055   -0.1547   -2.4946 C   0  0  0  0  0  0  0  0  0  0  0  0
    0.3700   -1.3906   -3.1639 C   0  0  0  0  0  0  0  0  0  0  0  0
   -0.2719   -2.1902   -2.8075 H   0  0  0  0  0  0  0  0  0  0  0  0
    1.1623   -1.6107   -4.2970 C   0  0  0  0  0  0  0  0  0  0  0  0
    1.1237   -2.5723   -4.7969 H   0  0  0  0  0  0  0  0  0  0  0  0
    1.9969   -0.6000   -4.7771 C   0  0  0  0  0  0  0  0  0  0  0  0
    2.7769   -0.8052   -5.8783 O   0  0  0  0  0  0  0  0  0  0  0  0
    2.7029   -1.7263   -6.1715 H   0  0  0  0  0  0  0  0  0  0  0  0
    2.0352    0.6292   -4.1233 C   0  0  0  0  0  0  0  0  0  0  0  0
    2.6887    1.4088   -4.5013 H   0  0  0  0  0  0  0  0  0  0  0  0
    1.2478    0.8537   -2.9889 C   0  0  0  0  0  0  0  0  0  0  0  0
    1.3013    1.8182   -2.4919 H   0  0  0  0  0  0  0  0  0  0  0  0
   -0.0931   -0.5069    1.1634 C   0  0  0  0  0  0  0  0  0  0  0  0
    1.0680   -0.4083    1.5363 O   0  0  0  0  0  0  0  0  0  0  0  0
   -1.0871    0.1188    1.8954 N   0  0  0  0  0  0  0  0  0  0  0  0
   -2.0410   -0.0629    1.6021 H   0  0  0  0  0  0  0  0  0  0  0  0
   -0.8567    0.6773    3.2219 C   0  0  0  0  0  0  0  0  0  0  0  0
   -0.0625    1.4307    3.1894 H   0  0  0  0  0  0  0  0  0  0  0  0
   -1.7676    1.1552    3.5947 H   0  0  0  0  0  0  0  0  0  0  0  0
   -0.5646   -0.1120    3.9226 H   0  0  0  0  0  0  0  0  0  0  0  0
  1  2  1  0  0  0  0
  2  3  1  0  0  0  0
  2  4  1  0  0  0  0
  2  5  1  0  0  0  0
  5  6  2  0  0  0  0
  5  7  1  0  0  0  0
  7  8  1  0  0  0  0
  7  9  1  0  0  0  0
  9 10  1  0  0  0  0
  9 11  1  0  0  0  0
  9 26  1  0  0  0  0
 11 12  1  0  0  0  0
 11 13  1  0  0  0  0
 11 14  1  0  0  0  0
 14 15  2  0  0  0  0
 14 24  1  0  0  0  0
 15 16  1  0  0  0  0
 15 17  1  0  0  0  0
 17 18  1  0  0  0  0
 17 19  2  0  0  0  0
 19 20  1  0  0  0  0
 19 22  1  0  0  0  0
 20 21  1  0  0  0  0
 22 23  1  0  0  0  0
 22 24  2  0  0  0  0
 24 25  1  0  0  0  0
 26 27  2  0  0  0  0
 26 28  1  0  0  0  0
 28 29  1  0  0  0  0
 28 30  1  0  0  0  0
 30 31  1  0  0  0  0
 30 32  1  0  0  0  0
 30 33  1  0  0  0  0
M  END
$$$$

  -OEChem-03222214083D

 33 33  0     1  0  0  0  0  0999 V2000
   -3.2692   -4.5833    0.7638 H   0  0  0  0  0  0  0  0  0  0  0  0
   -3.2304   -3.6909    0.1323 C   0  0  0  0  0  0  0  0  0  0  0  0
   -4.0866   -3.0551    0.3690 H   0  0  0  0  0  0  0  0  0  0  0  0
   -3.2908   -3.9993   -0.9142 H   0  0  0  0  0  0  0  0  0  0  0  0
   -1.9387   -2.9342    0.3777 C   0  0  0  0  0  0  0  0  0  0  0  0
   -1.1478   -3.3404    1.2090 O   0  0  0  0  0  0  0  0  0  0  0  0
   -1.6733   -1.7849   -0.3412 N   0  0  0  0  0  0  0  0  0  0  0  0
   -2.3373   -1.5374   -1.0684 H   0  0  0  0  0  0  0  0  0  0  0  0
   -0.4088   -1.0249   -0.2620 C   0  0  1  0  0  0  0  0  0  0  0  0
    0.4196   -1.6934   -0.5247 H   0  0  0  0  0  0  0  0  0  0  0  0
   -0.4592    0.1501   -1.2637 C   0  0  0  0  0  0  0  0  0  0  0  0
   -1.4895    0.3490   -1.5743 H   0  0  0  0  0  0  0  0  0  0  0  0
   -0.0980    1.0632   -0.7772 H   0  0  0  0  0  0  0  0  0  0  0  0
    0.3920   -0.1196   -2.4843 C   0  0  0  0  0  0  0  0  0  0  0  0
    0.1333   -1.2233   -3.3135 C   0  0  0  0  0  0  0  0  0  0  0  0
   -0.6863   -1.8974   -3.0856 H   0  0  0  0  0  0  0  0  0  0  0  0
    0.9309   -1.4710   -4.4371 C   0  0  0  0  0  0  0  0  0  0  0  0
    0.7176   -2.3285   -5.0657 H   0  0  0  0  0  0  0  0  0  0  0  0
    1.9952   -0.6204   -4.7434 C   0  0  0  0  0  0  0  0  0  0  0  0
    2.7830   -0.8544   -5.8332 O   0  0  0  0  0  0  0  0  0  0  0  0
    2.5265   -1.6876   -6.2569 H   0  0  0  0  0  0  0  0  0  0  0  0
    2.2589    0.4751   -3.9241 C   0  0  0  0  0  0  0  0  0  0  0  0
    3.0915    1.1279   -4.1654 H   0  0  0  0  0  0  0  0  0  0  0  0
    1.4663    0.7265   -2.7991 C   0  0  0  0  0  0  0  0  0  0  0  0
    1.6972    1.5803   -2.1683 H   0  0  0  0  0  0  0  0  0  0  0  0
   -0.0894   -0.4904    1.1518 C   0  0  0  0  0  0  0  0  0  0  0  0
    1.0747   -0.3719    1.5096 O   0  0  0  0  0  0  0  0  0  0  0  0
   -1.0845    0.1134    1.9004 N   0  0  0  0  0  0  0  0  0  0  0  0
   -2.0384   -0.0864    1.6189 H   0  0  0  0  0  0  0  0  0  0  0  0
   -0.8482    0.6611    3.2302 C   0  0  0  0  0  0  0  0  0  0  0  0
   -0.0734    1.4342    3.1953 H   0  0  0  0  0  0  0  0  0  0  0  0
   -1.7651    1.1117    3.6217 H   0  0  0  0  0  0  0  0  0  0  0  0
   -0.5269   -0.1294    3.9163 H   0  0  0  0  0  0  0  0  0  0  0  0
  1  2  1  0  0  0  0
  2  3  1  0  0  0  0
  2  4  1  0  0  0  0
  2  5  1  0  0  0  0
  5  6  2  0  0  0  0
  5  7  1  0  0  0  0
  7  8  1  0  0  0  0
  7  9  1  0  0  0  0
  9 10  1  0  0  0  0
  9 11  1  0  0  0  0
  9 26  1  0  0  0  0
 11 12  1  0  0  0  0
 11 13  1  0  0  0  0
 11 14  1  0  0  0  0
 14 15  2  0  0  0  0
 14 24  1  0  0  0  0
 15 16  1  0  0  0  0
 15 17  1  0  0  0  0
 17 18  1  0  0  0  0
 17 19  2  0  0  0  0
 19 20  1  0  0  0  0
 19 22  1  0  0  0  0
 20 21  1  0  0  0  0
 22 23  1  0  0  0  0
 22 24  2  0  0  0  0
 24 25  1  0  0  0  0
 26 27  2  0  0  0  0
 26 28  1  0  0  0  0
 28 29  1  0  0  0  0
 28 30  1  0  0  0  0
 30 31  1  0  0  0  0
 30 32  1  0  0  0  0
 30 33  1  0  0  0  0
M  END
$$$$

  -OEChem-03222214083D

 33 33  0     1  0  0  0  0  0999 V2000
   -3.2389   -4.5992    0.7204 H   0  0  0  0  0  0  0  0  0  0  0  0
   -3.2047   -3.7061    0.0899 C   0  0  0  0  0  0  0  0  0  0  0  0
   -4.0793   -3.0886    0.3075 H   0  0  0  0  0  0  0  0  0  0  0  0
   -3.2354   -4.0154   -0.9574 H   0  0  0  0  0  0  0  0  0  0  0  0
   -1.9340   -2.9234    0.3634 C   0  0  0  0  0  0  0  0  0  0  0  0
   -1.1531   -3.3155    1.2110 O   0  0  0  0  0  0  0  0  0  0  0  0
   -1.6770   -1.7675   -0.3485 N   0  0  0  0  0  0  0  0  0  0  0  0
   -2.3228   -1.5439   -1.0991 H   0  0  0  0  0  0  0  0  0  0  0  0
   -0.4150   -1.0037   -0.2668 C   0  0  1  0  0  0  0  0  0  0  0  0
    0.4120   -1.6700   -0.5393 H   0  0  0  0  0  0  0  0  0  0  0  0
   -0.4697    0.1776   -1.2592 C   0  0  0  0  0  0  0  0  0  0  0  0
   -1.5004    0.3766   -1.5681 H   0  0  0  0  0  0  0  0  0  0  0  0
   -0.1083    1.0914   -0.7741 H   0  0  0  0  0  0  0  0  0  0  0  0
    0.3845   -0.0984   -2.4730 C   0  0  0  0  0  0  0  0  0  0  0  0
   -0.0474   -0.9960   -3.4613 C   0  0  0  0  0  0  0  0  0  0  0  0
   -1.0079   -1.4917   -3.3649 H   0  0  0  0  0  0  0  0  0  0  0  0
    0.7552   -1.2623   -4.5771 C   0  0  0  0  0  0  0  0  0  0  0  0
    0.4072   -1.9581   -5.3325 H   0  0  0  0  0  0  0  0  0  0  0  0
    1.9965   -0.6370   -4.7139 C   0  0  0  0  0  0  0  0  0  0  0  0
    2.7878   -0.8901   -5.7969 O   0  0  0  0  0  0  0  0  0  0  0  0
    2.3763   -1.5624   -6.3610 H   0  0  0  0  0  0  0  0  0  0  0  0
    2.4337    0.2494   -3.7315 C   0  0  0  0  0  0  0  0  0  0  0  0
    3.4028    0.7255   -3.8403 H   0  0  0  0  0  0  0  0  0  0  0  0
    1.6373    0.5168   -2.6128 C   0  0  0  0  0  0  0  0  0  0  0  0
    2.0020    1.1995   -1.8499 H   0  0  0  0  0  0  0  0  0  0  0  0
   -0.0876   -0.4762    1.1478 C   0  0  0  0  0  0  0  0  0  0  0  0
    1.0794   -0.3510    1.4947 O   0  0  0  0  0  0  0  0  0  0  0  0
   -1.0791    0.1208    1.9066 N   0  0  0  0  0  0  0  0  0  0  0  0
   -2.0343   -0.0831    1.6328 H   0  0  0  0  0  0  0  0  0  0  0  0
   -0.8338    0.6657    3.2360 C   0  0  0  0  0  0  0  0  0  0  0  0
   -0.0737    1.4530    3.1947 H   0  0  0  0  0  0  0  0  0  0  0  0
   -1.7530    1.0972    3.6433 H   0  0  0  0  0  0  0  0  0  0  0  0
   -0.4885   -0.1223    3.9137 H   0  0  0  0  0  0  0  0  0  0  0  0
  1  2  1  0  0  0  0
  2  3  1  0  0  0  0
  2  4  1  0  0  0  0
  2  5  1  0  0  0  0
  5  6  2  0  0  0  0
  5  7  1  0  0  0  0
  7  8  1  0  0  0  0
  7  9  1  0  0  0  0
  9 10  1  0  0  0  0
  9 11  1  0  0  0  0
  9 26  1  0  0  0  0
 11 12  1  0  0  0  0
 11 13  1  0  0  0  0
 11 14  1  0  0  0  0
 14 15  2  0  0  0  0
 14 24  1  0  0  0  0
 15 16  1  0  0  0  0
 15 17  1  0  0  0  0
 17 18  1  0  0  0  0
 17 19  2  0  0  0  0
 19 20  1  0  0  0  0
 19 22  1  0  0  0  0
 20 21  1  0  0  0  0
 22 23  1  0  0  0  0
 22 24  2  0  0  0  0
 24 25  1  0  0  0  0
 26 27  2  0  0  0  0
 26 28  1  0  0  0  0
 28 29  1  0  0  0  0
 28 30  1  0  0  0  0
 30 31  1  0  0  0  0
 30 32  1  0  0  0  0
 30 33  1  0  0  0  0
M  END
$$$$

  -OEChem-03222214083D

 33 33  0     1  0  0  0  0  0999 V2000
   -3.2160   -4.6217    0.6825 H   0  0  0  0  0  0  0  0  0  0  0  0
   -3.1892   -3.7234    0.0590 C   0  0  0  0  0  0  0  0  0  0  0  0
   -4.0801   -3.1258    0.2653 H   0  0  0  0  0  0  0  0  0  0  0  0
   -3.1947   -4.0254   -0.9909 H   0  0  0  0  0  0  0  0  0  0  0  0
   -1.9406   -2.9160    0.3606 C   0  0  0  0  0  0  0  0  0  0  0  0
   -1.1760   -3.2884    1.2318 O   0  0  0  0  0  0  0  0  0  0  0  0
   -1.6894   -1.7571   -0.3486 N   0  0  0  0  0  0  0  0  0  0  0  0
   -2.3101   -1.5644   -1.1284 H   0  0  0  0  0  0  0  0  0  0  0  0
   -0.4276   -0.9938   -0.2668 C   0  0  1  0  0  0  0  0  0  0  0  0
    0.3952   -1.6631   -0.5449 H   0  0  0  0  0  0  0  0  0  0  0  0
   -0.4795    0.1916   -1.2541 C   0  0  0  0  0  0  0  0  0  0  0  0
   -1.5106    0.3978   -1.5581 H   0  0  0  0  0  0  0  0  0  0  0  0
   -0.1093    1.1032   -0.7711 H   0  0  0  0  0  0  0  0  0  0  0  0
    0.3761   -0.0888   -2.4644 C   0  0  0  0  0  0  0  0  0  0  0  0
   -0.1604   -0.7230   -3.5947 C   0  0  0  0  0  0  0  0  0  0  0  0
   -1.2083   -1.0046   -3.6170 H   0  0  0  0  0  0  0  0  0  0  0  0
    0.6502   -0.9977   -4.7031 C   0  0  0  0  0  0  0  0  0  0  0  0
    0.2215   -1.4852   -5.5717 H   0  0  0  0  0  0  0  0  0  0  0  0
    2.0026   -0.6474   -4.6884 C   0  0  0  0  0  0  0  0  0  0  0  0
    2.8031   -0.9131   -5.7619 O   0  0  0  0  0  0  0  0  0  0  0  0
    2.2994   -1.3771   -6.4476 H   0  0  0  0  0  0  0  0  0  0  0  0
    2.5411   -0.0253   -3.5639 C   0  0  0  0  0  0  0  0  0  0  0  0
    3.5943    0.2360   -3.5555 H   0  0  0  0  0  0  0  0  0  0  0  0
    1.7366    0.2516   -2.4538 C   0  0  0  0  0  0  0  0  0  0  0  0
    2.1757    0.7234   -1.5782 H   0  0  0  0  0  0  0  0  0  0  0  0
   -0.0874   -0.4688    1.1450 C   0  0  0  0  0  0  0  0  0  0  0  0
    1.0844   -0.3333    1.4722 O   0  0  0  0  0  0  0  0  0  0  0  0
   -1.0705    0.1285    1.9138 N   0  0  0  0  0  0  0  0  0  0  0  0
   -2.0282   -0.0878    1.6580 H   0  0  0  0  0  0  0  0  0  0  0  0
   -0.8080    0.6804    3.2369 C   0  0  0  0  0  0  0  0  0  0  0  0
   -0.0420    1.4612    3.1824 H   0  0  0  0  0  0  0  0  0  0  0  0
   -1.7195    1.1223    3.6502 H   0  0  0  0  0  0  0  0  0  0  0  0
   -0.4620   -0.1057    3.9162 H   0  0  0  0  0  0  0  0  0  0  0  0
  1  2  1  0  0  0  0
  2  3  1  0  0  0  0
  2  4  1  0  0  0  0
  2  5  1  0  0  0  0
  5  6  2  0  0  0  0
  5  7  1  0  0  0  0
  7  8  1  0  0  0  0
  7  9  1  0  0  0  0
  9 10  1  0  0  0  0
  9 11  1  0  0  0  0
  9 26  1  0  0  0  0
 11 12  1  0  0  0  0
 11 13  1  0  0  0  0
 11 14  1  0  0  0  0
 14 15  2  0  0  0  0
 14 24  1  0  0  0  0
 15 16  1  0  0  0  0
 15 17  1  0  0  0  0
 17 18  1  0  0  0  0
 17 19  2  0  0  0  0
 19 20  1  0  0  0  0
 19 22  1  0  0  0  0
 20 21  1  0  0  0  0
 22 23  1  0  0  0  0
 22 24  2  0  0  0  0
 24 25  1  0  0  0  0
 26 27  2  0  0  0  0
 26 28  1  0  0  0  0
 28 29  1  0  0  0  0
 28 30  1  0  0  0  0
 30 31  1  0  0  0  0
 30 32  1  0  0  0  0
 30 33  1  0  0  0  0
M  END
$$$$

  -OEChem-03222214083D

 33 33  0     1  0  0  0  0  0999 V2000
   -3.2319   -4.6166    0.6777 H   0  0  0  0  0  0  0  0  0  0  0  0
   -3.1945   -3.7226    0.0484 C   0  0  0  0  0  0  0  0  0  0  0  0
   -4.0933   -3.1281    0.2283 H   0  0  0  0  0  0  0  0  0  0  0  0
   -3.1725   -4.0324   -0.9992 H   0  0  0  0  0  0  0  0  0  0  0  0
   -1.9579   -2.9064    0.3752 C   0  0  0  0  0  0  0  0  0  0  0  0
   -1.2154   -3.2665    1.2703 O   0  0  0  0  0  0  0  0  0  0  0  0
   -1.6929   -1.7539   -0.3392 N   0  0  0  0  0  0  0  0  0  0  0  0
   -2.2839   -1.5860   -1.1473 H   0  0  0  0  0  0  0  0  0  0  0  0
   -0.4239   -1.0034   -0.2527 C   0  0  1  0  0  0  0  0  0  0  0  0
    0.3925   -1.6832   -0.5232 H   0  0  0  0  0  0  0  0  0  0  0  0
   -0.4639    0.1787   -1.2458 C   0  0  0  0  0  0  0  0  0  0  0  0
   -1.4935    0.3972   -1.5456 H   0  0  0  0  0  0  0  0  0  0  0  0
   -0.0790    1.0868   -0.7676 H   0  0  0  0  0  0  0  0  0  0  0  0
    0.3916   -0.1080   -2.4548 C   0  0  0  0  0  0  0  0  0  0  0  0
   -0.1888   -0.4469   -3.6860 C   0  0  0  0  0  0  0  0  0  0  0  0
   -1.2682   -0.5020   -3.7857 H   0  0  0  0  0  0  0  0  0  0  0  0
    0.6186   -0.7123   -4.7988 C   0  0  0  0  0  0  0  0  0  0  0  0
    0.1567   -0.9701   -5.7454 H   0  0  0  0  0  0  0  0  0  0  0  0
    2.0095   -0.6418   -4.6906 C   0  0  0  0  0  0  0  0  0  0  0  0
    2.8053   -0.8963   -5.7697 O   0  0  0  0  0  0  0  0  0  0  0  0
    2.2621   -1.1302   -6.5374 H   0  0  0  0  0  0  0  0  0  0  0  0
    2.5902   -0.3070   -3.4689 C   0  0  0  0  0  0  0  0  0  0  0  0
    3.6714   -0.2555   -3.3912 H   0  0  0  0  0  0  0  0  0  0  0  0
    1.7892   -0.0411   -2.3534 C   0  0  0  0  0  0  0  0  0  0  0  0
    2.2562    0.2130   -1.4042 H   0  0  0  0  0  0  0  0  0  0  0  0
   -0.0853   -0.4742    1.1580 C   0  0  0  0  0  0  0  0  0  0  0  0
    1.0866   -0.3519    1.4902 O   0  0  0  0  0  0  0  0  0  0  0  0
   -1.0660    0.1377    1.9182 N   0  0  0  0  0  0  0  0  0  0  0  0
   -2.0242   -0.0666    1.6546 H   0  0  0  0  0  0  0  0  0  0  0  0
   -0.8074    0.6870    3.2431 C   0  0  0  0  0  0  0  0  0  0  0  0
   -0.0388    1.4653    3.1924 H   0  0  0  0  0  0  0  0  0  0  0  0
   -1.7194    1.1310    3.6530 H   0  0  0  0  0  0  0  0  0  0  0  0
   -0.4671   -0.1010    3.9232 H   0  0  0  0  0  0  0  0  0  0  0  0
  1  2  1  0  0  0  0
  2  3  1  0  0  0  0
  2  4  1  0  0  0  0
  2  5  1  0  0  0  0
  5  6  2  0  0  0  0
  5  7  1  0  0  0  0
  7  8  1  0  0  0  0
  7  9  1  0  0  0  0
  9 10  1  0  0  0  0
  9 11  1  0  0  0  0
  9 26  1  0  0  0  0
 11 12  1  0  0  0  0
 11 13  1  0  0  0  0
 11 14  1  0  0  0  0
 14 15  2  0  0  0  0
 14 24  1  0  0  0  0
 15 16  1  0  0  0  0
 15 17  1  0  0  0  0
 17 18  1  0  0  0  0
 17 19  2  0  0  0  0
 19 20  1  0  0  0  0
 19 22  1  0  0  0  0
 20 21  1  0  0  0  0
 22 23  1  0  0  0  0
 22 24  2  0  0  0  0
 24 25  1  0  0  0  0
 26 27  2  0  0  0  0
 26 28  1  0  0  0  0
 28 29  1  0  0  0  0
 28 30  1  0  0  0  0
 30 31  1  0  0  0  0
 30 32  1  0  0  0  0
 30 33  1  0  0  0  0
M  END
$$$$

  -OEChem-03222214083D

 33 33  0     1  0  0  0  0  0999 V2000
   -3.2713   -4.6104    0.6942 H   0  0  0  0  0  0  0  0  0  0  0  0
   -3.2242   -3.7191    0.0616 C   0  0  0  0  0  0  0  0  0  0  0  0
   -4.1225   -3.1206    0.2300 H   0  0  0  0  0  0  0  0  0  0  0  0
   -3.1929   -4.0336   -0.9844 H   0  0  0  0  0  0  0  0  0  0  0  0
   -1.9875   -2.9064    0.3974 C   0  0  0  0  0  0  0  0  0  0  0  0
   -1.2612   -3.2606    1.3082 O   0  0  0  0  0  0  0  0  0  0  0  0
   -1.7033   -1.7638   -0.3260 N   0  0  0  0  0  0  0  0  0  0  0  0
   -2.2751   -1.6077   -1.1505 H   0  0  0  0  0  0  0  0  0  0  0  0
   -0.4256   -1.0290   -0.2351 C   0  0  1  0  0  0  0  0  0  0  0  0
    0.3798   -1.7265   -0.4898 H   0  0  0  0  0  0  0  0  0  0  0  0
   -0.4450    0.1441   -1.2423 C   0  0  0  0  0  0  0  0  0  0  0  0
   -1.4724    0.3722   -1.5423 H   0  0  0  0  0  0  0  0  0  0  0  0
   -0.0504    1.0500   -0.7681 H   0  0  0  0  0  0  0  0  0  0  0  0
    0.4124   -0.1439   -2.4525 C   0  0  0  0  0  0  0  0  0  0  0  0
   -0.1477   -0.1708   -3.7388 C   0  0  0  0  0  0  0  0  0  0  0  0
   -1.2114   -0.0029   -3.8766 H   0  0  0  0  0  0  0  0  0  0  0  0
    0.6578   -0.4137   -4.8582 C   0  0  0  0  0  0  0  0  0  0  0  0
    0.2092   -0.4355   -5.8452 H   0  0  0  0  0  0  0  0  0  0  0  0
    2.0306   -0.6195   -4.7047 C   0  0  0  0  0  0  0  0  0  0  0  0
    2.8245   -0.8544   -5.7899 O   0  0  0  0  0  0  0  0  0  0  0  0
    2.2926   -0.8484   -6.6001 H   0  0  0  0  0  0  0  0  0  0  0  0
    2.5954   -0.5771   -3.4319 C   0  0  0  0  0  0  0  0  0  0  0  0
    3.6640   -0.7300   -3.3199 H   0  0  0  0  0  0  0  0  0  0  0  0
    1.7959   -0.3359   -2.3098 C   0  0  0  0  0  0  0  0  0  0  0  0
    2.2547   -0.2975   -1.3241 H   0  0  0  0  0  0  0  0  0  0  0  0
   -0.0900   -0.4904    1.1726 C   0  0  0  0  0  0  0  0  0  0  0  0
    1.0817   -0.3881    1.5130 O   0  0  0  0  0  0  0  0  0  0  0  0
   -1.0660    0.1424    1.9215 N   0  0  0  0  0  0  0  0  0  0  0  0
   -2.0256   -0.0515    1.6550 H   0  0  0  0  0  0  0  0  0  0  0  0
   -0.8064    0.6967    3.2440 C   0  0  0  0  0  0  0  0  0  0  0  0
   -0.0220    1.4592    3.1934 H   0  0  0  0  0  0  0  0  0  0  0  0
   -1.7120    1.1621    3.6443 H   0  0  0  0  0  0  0  0  0  0  0  0
   -0.4864   -0.0923    3.9326 H   0  0  0  0  0  0  0  0  0  0  0  0
  1  2  1  0  0  0  0
  2  3  1  0  0  0  0
  2  4  1  0  0  0  0
  2  5  1  0  0  0  0
  5  6  2  0  0  0  0
  5  7  1  0  0  0  0
  7  8  1  0  0  0  0
  7  9  1  0  0  0  0
  9 10  1  0  0  0  0
  9 11  1  0  0  0  0
  9 26  1  0  0  0  0
 11 12  1  0  0  0  0
 11 13  1  0  0  0  0
 11 14  1  0  0  0  0
 14 15  2  0  0  0  0
 14 24  1  0  0  0  0
 15 16  1  0  0  0  0
 15 17  1  0  0  0  0
 17 18  1  0  0  0  0
 17 19  2  0  0  0  0
 19 20  1  0  0  0  0
 19 22  1  0  0  0  0
 20 21  1  0  0  0  0
 22 23  1  0  0  0  0
 22 24  2  0  0  0  0
 24 25  1  0  0  0  0
 26 27  2  0  0  0  0
 26 28  1  0  0  0  0
 28 29  1  0  0  0  0
 28 30  1  0  0  0  0
 30 31  1  0  0  0  0
 30 32  1  0  0  0  0
 30 33  1  0  0  0  0
M  END
$$$$

  -OEChem-03222214083D

 33 33  0     1  0  0  0  0  0999 V2000
   -3.3336   -4.5950    0.7283 H   0  0  0  0  0  0  0  0  0  0  0  0
   -3.2679   -3.7107    0.0878 C   0  0  0  0  0  0  0  0  0  0  0  0
   -4.1593   -3.0978    0.2415 H   0  0  0  0  0  0  0  0  0  0  0  0
   -3.2313   -4.0356   -0.9548 H   0  0  0  0  0  0  0  0  0  0  0  0
   -2.0230   -2.9121    0.4276 C   0  0  0  0  0  0  0  0  0  0  0  0
   -1.3132   -3.2643    1.3523 O   0  0  0  0  0  0  0  0  0  0  0  0
   -1.7116   -1.7852   -0.3087 N   0  0  0  0  0  0  0  0  0  0  0  0
   -2.2693   -1.6347   -1.1440 H   0  0  0  0  0  0  0  0  0  0  0  0
   -0.4237   -1.0691   -0.2122 C   0  0  1  0  0  0  0  0  0  0  0  0
    0.3681   -1.7884   -0.4428 H   0  0  0  0  0  0  0  0  0  0  0  0
   -0.4191    0.0894   -1.2398 C   0  0  0  0  0  0  0  0  0  0  0  0
   -1.4442    0.3245   -1.5428 H   0  0  0  0  0  0  0  0  0  0  0  0
   -0.0185    0.9948   -0.7699 H   0  0  0  0  0  0  0  0  0  0  0  0
    0.4386   -0.1933   -2.4549 C   0  0  0  0  0  0  0  0  0  0  0  0
   -0.0499    0.0922   -3.7399 C   0  0  0  0  0  0  0  0  0  0  0  0
   -1.0583    0.4739   -3.8688 H   0  0  0  0  0  0  0  0  0  0  0  0
    0.7505   -0.1152   -4.8699 C   0  0  0  0  0  0  0  0  0  0  0  0
    0.3504    0.0992   -5.8548 H   0  0  0  0  0  0  0  0  0  0  0  0
    2.0567   -0.5872   -4.7283 C   0  0  0  0  0  0  0  0  0  0  0  0
    2.8456   -0.7919   -5.8233 O   0  0  0  0  0  0  0  0  0  0  0  0
    2.3646   -0.5531   -6.6302 H   0  0  0  0  0  0  0  0  0  0  0  0
    2.5632   -0.8372   -3.4552 C   0  0  0  0  0  0  0  0  0  0  0  0
    3.5862   -1.1841   -3.3504 H   0  0  0  0  0  0  0  0  0  0  0  0
    1.7681   -0.6314   -2.3228 C   0  0  0  0  0  0  0  0  0  0  0  0
    2.1977   -0.8040   -1.3387 H   0  0  0  0  0  0  0  0  0  0  0  0
   -0.0962   -0.5144    1.1909 C   0  0  0  0  0  0  0  0  0  0  0  0
    1.0725   -0.4315    1.5458 O   0  0  0  0  0  0  0  0  0  0  0  0
   -1.0700    0.1454    1.9189 N   0  0  0  0  0  0  0  0  0  0  0  0
   -2.0298   -0.0344    1.6429 H   0  0  0  0  0  0  0  0  0  0  0  0
   -0.8160    0.7145    3.2363 C   0  0  0  0  0  0  0  0  0  0  0  0
   -0.0142    1.4589    3.1847 H   0  0  0  0  0  0  0  0  0  0  0  0
   -1.7166    1.2060    3.6164 H   0  0  0  0  0  0  0  0  0  0  0  0
   -0.5230   -0.0706    3.9415 H   0  0  0  0  0  0  0  0  0  0  0  0
  1  2  1  0  0  0  0
  2  3  1  0  0  0  0
  2  4  1  0  0  0  0
  2  5  1  0  0  0  0
  5  6  2  0  0  0  0
  5  7  1  0  0  0  0
  7  8  1  0  0  0  0
  7  9  1  0  0  0  0
  9 10  1  0  0  0  0
  9 11  1  0  0  0  0
  9 26  1  0  0  0  0
 11 12  1  0  0  0  0
 11 13  1  0  0  0  0
 11 14  1  0  0  0  0
 14 15  2  0  0  0  0
 14 24  1  0  0  0  0
 15 16  1  0  0  0  0
 15 17  1  0  0  0  0
 17 18  1  0  0  0  0
 17 19  2  0  0  0  0
 19 20  1  0  0  0  0
 19 22  1  0  0  0  0
 20 21  1  0  0  0  0
 22 23  1  0  0  0  0
 22 24  2  0  0  0  0
 24 25  1  0  0  0  0
 26 27  2  0  0  0  0
 26 28  1  0  0  0  0
 28 29  1  0  0  0  0
 28 30  1  0  0  0  0
 30 31  1  0  0  0  0
 30 32  1  0  0  0  0
 30 33  1  0  0  0  0
M  END
$$$$

  -OEChem-03222214083D

 33 33  0     1  0  0  0  0  0999 V2000
   -3.4014   -4.5683    0.7897 H   0  0  0  0  0  0  0  0  0  0  0  0
   -3.3142   -3.6959    0.1359 C   0  0  0  0  0  0  0  0  0  0  0  0
   -4.1931   -3.0623    0.2757 H   0  0  0  0  0  0  0  0  0  0  0  0
   -3.2793   -4.0376   -0.9013 H   0  0  0  0  0  0  0  0  0  0  0  0
   -2.0551   -2.9180    0.4697 C   0  0  0  0  0  0  0  0  0  0  0  0
   -1.3616   -3.2661    1.4081 O   0  0  0  0  0  0  0  0  0  0  0  0
   -1.7128   -1.8134   -0.2869 N   0  0  0  0  0  0  0  0  0  0  0  0
   -2.2570   -1.6693   -1.1323 H   0  0  0  0  0  0  0  0  0  0  0  0
   -0.4149   -1.1160   -0.1854 C   0  0  1  0  0  0  0  0  0  0  0  0
    0.3628   -1.8574   -0.3795 H   0  0  0  0  0  0  0  0  0  0  0  0
   -0.3812    0.0223   -1.2387 C   0  0  0  0  0  0  0  0  0  0  0  0
   -1.4033    0.2611   -1.5492 H   0  0  0  0  0  0  0  0  0  0  0  0
    0.0195    0.9294   -0.7725 H   0  0  0  0  0  0  0  0  0  0  0  0
    0.4762   -0.2446   -2.4633 C   0  0  0  0  0  0  0  0  0  0  0  0
    0.1067    0.3413   -3.6857 C   0  0  0  0  0  0  0  0  0  0  0  0
   -0.8053    0.9270   -3.7540 H   0  0  0  0  0  0  0  0  0  0  0  0
    0.8944    0.1763   -4.8313 C   0  0  0  0  0  0  0  0  0  0  0  0
    0.5775    0.6239   -5.7670 H   0  0  0  0  0  0  0  0  0  0  0  0
    2.0830   -0.5512   -4.7657 C   0  0  0  0  0  0  0  0  0  0  0  0
    2.8611   -0.7193   -5.8749 O   0  0  0  0  0  0  0  0  0  0  0  0
    2.4644   -0.2643   -6.6333 H   0  0  0  0  0  0  0  0  0  0  0  0
    2.4878   -1.0940   -3.5495 C   0  0  0  0  0  0  0  0  0  0  0  0
    3.4282   -1.6334   -3.4973 H   0  0  0  0  0  0  0  0  0  0  0  0
    1.7044   -0.9314   -2.4018 C   0  0  0  0  0  0  0  0  0  0  0  0
    2.0854   -1.3293   -1.4658 H   0  0  0  0  0  0  0  0  0  0  0  0
   -0.1058   -0.5357    1.2118 C   0  0  0  0  0  0  0  0  0  0  0  0
    1.0552   -0.4744    1.5945 O   0  0  0  0  0  0  0  0  0  0  0  0
   -1.0836    0.1546    1.9056 N   0  0  0  0  0  0  0  0  0  0  0  0
   -2.0397   -0.0127    1.6099 H   0  0  0  0  0  0  0  0  0  0  0  0
   -0.8510    0.7400    3.2198 C   0  0  0  0  0  0  0  0  0  0  0  0
   -0.0331    1.4671    3.1776 H   0  0  0  0  0  0  0  0  0  0  0  0
   -1.7508    1.2553    3.5688 H   0  0  0  0  0  0  0  0  0  0  0  0
   -0.5925   -0.0395    3.9442 H   0  0  0  0  0  0  0  0  0  0  0  0
  1  2  1  0  0  0  0
  2  3  1  0  0  0  0
  2  4  1  0  0  0  0
  2  5  1  0  0  0  0
  5  6  2  0  0  0  0
  5  7  1  0  0  0  0
  7  8  1  0  0  0  0
  7  9  1  0  0  0  0
  9 10  1  0  0  0  0
  9 11  1  0  0  0  0
  9 26  1  0  0  0  0
 11 12  1  0  0  0  0
 11 13  1  0  0  0  0
 11 14  1  0  0  0  0
 14 15  2  0  0  0  0
 14 24  1  0  0  0  0
 15 16  1  0  0  0  0
 15 17  1  0  0  0  0
 17 18  1  0  0  0  0
 17 19  2  0  0  0  0
 19 20  1  0  0  0  0
 19 22  1  0  0  0  0
 20 21  1  0  0  0  0
 22 23  1  0  0  0  0
 22 24  2  0  0  0  0
 24 25  1  0  0  0  0
 26 27  2  0  0  0  0
 26 28  1  0  0  0  0
 28 29  1  0  0  0  0
 28 30  1  0  0  0  0
 30 31  1  0  0  0  0
 30 32  1  0  0  0  0
 30 33  1  0  0  0  0
M  END
$$$$

  -OEChem-03222214083D

 33 33  0     1  0  0  0  0  0999 V2000
   -3.4677   -4.5173    0.8633 H   0  0  0  0  0  0  0  0  0  0  0  0
   -3.3315   -3.6837    0.1683 C   0  0  0  0  0  0  0  0  0  0  0  0
   -4.2006   -3.0248    0.2351 H   0  0  0  0  0  0  0  0  0  0  0  0
   -3.2602   -4.0816   -0.8468 H   0  0  0  0  0  0  0  0  0  0  0  0
   -2.0689   -2.9168    0.5143 C   0  0  0  0  0  0  0  0  0  0  0  0
   -1.3995   -3.2553    1.4733 O   0  0  0  0  0  0  0  0  0  0  0  0
   -1.6917   -1.8383   -0.2624 N   0  0  0  0  0  0  0  0  0  0  0  0
   -2.2192   -1.7040   -1.1202 H   0  0  0  0  0  0  0  0  0  0  0  0
   -0.3872   -1.1547   -0.1505 C   0  0  1  0  0  0  0  0  0  0  0  0
    0.3918   -1.9016   -0.2969 H   0  0  0  0  0  0  0  0  0  0  0  0
   -0.3289   -0.0359   -1.2255 C   0  0  0  0  0  0  0  0  0  0  0  0
   -1.3476    0.2063   -1.5454 H   0  0  0  0  0  0  0  0  0  0  0  0
    0.0701    0.8724   -0.7594 H   0  0  0  0  0  0  0  0  0  0  0  0
    0.5291   -0.2816   -2.4590 C   0  0  0  0  0  0  0  0  0  0  0  0
    0.3262    0.5683   -3.5600 C   0  0  0  0  0  0  0  0  0  0  0  0
   -0.4372    1.3397   -3.5142 H   0  0  0  0  0  0  0  0  0  0  0  0
    1.0879    0.4390   -4.7268 C   0  0  0  0  0  0  0  0  0  0  0  0
    0.9004    1.1026   -5.5637 H   0  0  0  0  0  0  0  0  0  0  0  0
    2.0842   -0.5328   -4.8081 C   0  0  0  0  0  0  0  0  0  0  0  0
    2.8333   -0.6710   -5.9409 O   0  0  0  0  0  0  0  0  0  0  0  0
    2.5748   -0.0037   -6.5949 H   0  0  0  0  0  0  0  0  0  0  0  0
    2.3236   -1.3599   -3.7148 C   0  0  0  0  0  0  0  0  0  0  0  0
    3.1164   -2.0987   -3.7756 H   0  0  0  0  0  0  0  0  0  0  0  0
    1.5662   -1.2342   -2.5446 C   0  0  0  0  0  0  0  0  0  0  0  0
    1.8321   -1.8847   -1.7194 H   0  0  0  0  0  0  0  0  0  0  0  0
   -0.1141   -0.5434    1.2419 C   0  0  0  0  0  0  0  0  0  0  0  0
    1.0335   -0.4888    1.6637 O   0  0  0  0  0  0  0  0  0  0  0  0
   -1.1045    0.1736    1.8892 N   0  0  0  0  0  0  0  0  0  0  0  0
   -2.0525    0.0164    1.5635 H   0  0  0  0  0  0  0  0  0  0  0  0
   -0.9069    0.7809    3.1993 C   0  0  0  0  0  0  0  0  0  0  0  0
   -0.0934    1.5134    3.1641 H   0  0  0  0  0  0  0  0  0  0  0  0
   -1.8186    1.2941    3.5195 H   0  0  0  0  0  0  0  0  0  0  0  0
   -0.6595    0.0148    3.9420 H   0  0  0  0  0  0  0  0  0  0  0  0
  1  2  1  0  0  0  0
  2  3  1  0  0  0  0
  2  4  1  0  0  0  0
  2  5  1  0  0  0  0
  5  6  2  0  0  0  0
  5  7  1  0  0  0  0
  7  8  1  0  0  0  0
  7  9  1  0  0  0  0
  9 10  1  0  0  0  0
  9 11  1  0  0  0  0
  9 26  1  0  0  0  0
 11 12  1  0  0  0  0
 11 13  1  0  0  0  0
 11 14  1  0  0  0  0
 14 15  2  0  0  0  0
 14 24  1  0  0  0  0
 15 16  1  0  0  0  0
 15 17  1  0  0  0  0
 17 18  1  0  0  0  0
 17 19  2  0  0  0  0
 19 20  1  0  0  0  0
 19 22  1  0  0  0  0
 20 21  1  0  0  0  0
 22 23  1  0  0  0  0
 22 24  2  0  0  0  0
 24 25  1  0  0  0  0
 26 27  2  0  0  0  0
 26 28  1  0  0  0  0
 28 29  1  0  0  0  0
 28 30  1  0  0  0  0
 30 31  1  0  0  0  0
 30 32  1  0  0  0  0
 30 33  1  0  0  0  0
M  END
$$$$

  -OEChem-03222214083D

 33 33  0     1  0  0  0  0  0999 V2000
   -3.3693   -4.5615    0.8757 H   0  0  0  0  0  0  0  0  0  0  0  0
   -3.2670   -3.7049    0.2032 C   0  0  0  0  0  0  0  0  0  0  0  0
   -4.1398   -3.0583    0.3211 H   0  0  0  0  0  0  0  0  0  0  0  0
   -3.2276   -4.0699   -0.8260 H   0  0  0  0  0  0  0  0  0  0  0  0
   -2.0014   -2.9346    0.5302 C   0  0  0  0  0  0  0  0  0  0  0  0
   -1.3199   -3.2674    1.4826 O   0  0  0  0  0  0  0  0  0  0  0  0
   -1.6308   -1.8630   -0.2586 N   0  0  0  0  0  0  0  0  0  0  0  0
   -2.1697   -1.7257   -1.1094 H   0  0  0  0  0  0  0  0  0  0  0  0
   -0.3391   -1.1555   -0.1486 C   0  0  1  0  0  0  0  0  0  0  0  0
    0.4890   -1.8549   -0.2882 H   0  0  0  0  0  0  0  0  0  0  0  0
   -0.3100   -0.0336   -1.2110 C   0  0  0  0  0  0  0  0  0  0  0  0
   -1.3167    0.3807   -1.3282 H   0  0  0  0  0  0  0  0  0  0  0  0
    0.3236    0.7772   -0.8331 H   0  0  0  0  0  0  0  0  0  0  0  0
    0.2439   -0.4011   -2.5784 C   0  0  0  0  0  0  0  0  0  0  0  0
    0.2781    0.6094   -3.5532 C   0  0  0  0  0  0  0  0  0  0  0  0
   -0.0514    1.6135   -3.3013 H   0  0  0  0  0  0  0  0  0  0  0  0
    0.7392    0.3489   -4.8487 C   0  0  0  0  0  0  0  0  0  0  0  0
    0.7621    1.1507   -5.5786 H   0  0  0  0  0  0  0  0  0  0  0  0
    1.1650   -0.9329   -5.1960 C   0  0  0  0  0  0  0  0  0  0  0  0
    1.6151   -1.2021   -6.4564 O   0  0  0  0  0  0  0  0  0  0  0  0
    1.6228   -0.3914   -6.9882 H   0  0  0  0  0  0  0  0  0  0  0  0
    1.1238   -1.9491   -4.2456 C   0  0  0  0  0  0  0  0  0  0  0  0
    1.4536   -2.9447   -4.5248 H   0  0  0  0  0  0  0  0  0  0  0  0
    0.6646   -1.6950   -2.9484 C   0  0  0  0  0  0  0  0  0  0  0  0
    0.6428   -2.5300   -2.2572 H   0  0  0  0  0  0  0  0  0  0  0  0
   -0.1060   -0.5230    1.2427 C   0  0  0  0  0  0  0  0  0  0  0  0
    1.0322   -0.4292    1.6823 O   0  0  0  0  0  0  0  0  0  0  0  0
   -1.1245    0.1799    1.8622 N   0  0  0  0  0  0  0  0  0  0  0  0
   -2.0628   -0.0081    1.5252 H   0  0  0  0  0  0  0  0  0  0  0  0
   -0.9644    0.8139    3.1648 C   0  0  0  0  0  0  0  0  0  0  0  0
   -0.1596    1.5560    3.1345 H   0  0  0  0  0  0  0  0  0  0  0  0
   -1.8890    1.3219    3.4547 H   0  0  0  0  0  0  0  0  0  0  0  0
   -0.7249    0.0649    3.9269 H   0  0  0  0  0  0  0  0  0  0  0  0
  1  2  1  0  0  0  0
  2  3  1  0  0  0  0
  2  4  1  0  0  0  0
  2  5  1  0  0  0  0
  5  6  2  0  0  0  0
  5  7  1  0  0  0  0
  7  8  1  0  0  0  0
  7  9  1  0  0  0  0
  9 10  1  0  0  0  0
  9 11  1  0  0  0  0
  9 26  1  0  0  0  0
 11 12  1  0  0  0  0
 11 13  1  0  0  0  0
 11 14  1  0  0  0  0
 14 15  2  0  0  0  0
 14 24  1  0  0  0  0
 15 16  1  0  0  0  0
 15 17  1  0  0  0  0
 17 18  1  0  0  0  0
 17 19  2  0  0  0  0
 19 20  1  0  0  0  0
 19 22  1  0  0  0  0
 20 21  1  0  0  0  0
 22 23  1  0  0  0  0
 22 24  2  0  0  0  0
 24 25  1  0  0  0  0
 26 27  2  0  0  0  0
 26 28  1  0  0  0  0
 28 29  1  0  0  0  0
 28 30  1  0  0  0  0
 30 31  1  0  0  0  0
 30 32  1  0  0  0  0
 30 33  1  0  0  0  0
M  END
$$$$

  -OEChem-03222214083D

 33 33  0     1  0  0  0  0  0999 V2000
   -3.3530   -4.5683    0.8573 H   0  0  0  0  0  0  0  0  0  0  0  0
   -3.2641   -3.7006    0.1971 C   0  0  0  0  0  0  0  0  0  0  0  0
   -4.1326   -3.0546    0.3460 H   0  0  0  0  0  0  0  0  0  0  0  0
   -3.2493   -4.0486   -0.8385 H   0  0  0  0  0  0  0  0  0  0  0  0
   -1.9900   -2.9374    0.5072 C   0  0  0  0  0  0  0  0  0  0  0  0
   -1.2859   -3.2874    1.4365 O   0  0  0  0  0  0  0  0  0  0  0  0
   -1.6390   -1.8499   -0.2691 N   0  0  0  0  0  0  0  0  0  0  0  0
   -2.2060   -1.6848   -1.0961 H   0  0  0  0  0  0  0  0  0  0  0  0
   -0.3518   -1.1322   -0.1672 C   0  0  1  0  0  0  0  0  0  0  0  0
    0.4786   -1.8247   -0.3403 H   0  0  0  0  0  0  0  0  0  0  0  0
   -0.3364   -0.0033   -1.2210 C   0  0  0  0  0  0  0  0  0  0  0  0
   -1.3450    0.4047   -1.3408 H   0  0  0  0  0  0  0  0  0  0  0  0
    0.2923    0.8106   -0.8415 H   0  0  0  0  0  0  0  0  0  0  0  0
    0.2166   -0.3874   -2.5825 C   0  0  0  0  0  0  0  0  0  0  0  0
    0.5581    0.6439   -3.4719 C   0  0  0  0  0  0  0  0  0  0  0  0
    0.4574    1.6802   -3.1621 H   0  0  0  0  0  0  0  0  0  0  0  0
    1.0362    0.3588   -4.7559 C   0  0  0  0  0  0  0  0  0  0  0  0
    1.3005    1.1746   -5.4195 H   0  0  0  0  0  0  0  0  0  0  0  0
    1.1691   -0.9646   -5.1763 C   0  0  0  0  0  0  0  0  0  0  0  0
    1.6331   -1.2557   -6.4264 O   0  0  0  0  0  0  0  0  0  0  0  0
    1.8809   -0.4397   -6.8878 H   0  0  0  0  0  0  0  0  0  0  0  0
    0.8187   -1.9977   -4.3113 C   0  0  0  0  0  0  0  0  0  0  0  0
    0.9218   -3.0242   -4.6481 H   0  0  0  0  0  0  0  0  0  0  0  0
    0.3408   -1.7189   -3.0260 C   0  0  0  0  0  0  0  0  0  0  0  0
    0.0713   -2.5575   -2.3924 H   0  0  0  0  0  0  0  0  0  0  0  0
   -0.1004   -0.5183    1.2288 C   0  0  0  0  0  0  0  0  0  0  0  0
    1.0440   -0.4194    1.6509 O   0  0  0  0  0  0  0  0  0  0  0  0
   -1.1146    0.1664    1.8751 N   0  0  0  0  0  0  0  0  0  0  0  0
   -2.0567   -0.0233    1.5501 H   0  0  0  0  0  0  0  0  0  0  0  0
   -0.9377    0.7840    3.1835 C   0  0  0  0  0  0  0  0  0  0  0  0
   -0.1406    1.5343    3.1494 H   0  0  0  0  0  0  0  0  0  0  0  0
   -1.8619    1.2789    3.4965 H   0  0  0  0  0  0  0  0  0  0  0  0
   -0.6774    0.0272    3.9310 H   0  0  0  0  0  0  0  0  0  0  0  0
  1  2  1  0  0  0  0
  2  3  1  0  0  0  0
  2  4  1  0  0  0  0
  2  5  1  0  0  0  0
  5  6  2  0  0  0  0
  5  7  1  0  0  0  0
  7  8  1  0  0  0  0
  7  9  1  0  0  0  0
  9 10  1  0  0  0  0
  9 11  1  0  0  0  0
  9 26  1  0  0  0  0
 11 12  1  0  0  0  0
 11 13  1  0  0  0  0
 11 14  1  0  0  0  0
 14 15  2  0  0  0  0
 14 24  1  0  0  0  0
 15 16  1  0  0  0  0
 15 17  1  0  0  0  0
 17 18  1  0  0  0  0
 17 19  2  0  0  0  0
 19 20  1  0  0  0  0
 19 22  1  0  0  0  0
 20 21  1  0  0  0  0
 22 23  1  0  0  0  0
 22 24  2  0  0  0  0
 24 25  1  0  0  0  0
 26 27  2  0  0  0  0
 26 28  1  0  0  0  0
 28 29  1  0  0  0  0
 28 30  1  0  0  0  0
 30 31  1  0  0  0  0
 30 32  1  0  0  0  0
 30 33  1  0  0  0  0
M  END
$$$$

  -OEChem-03222214083D

 33 33  0     1  0  0  0  0  0999 V2000
   -3.3431   -4.5698    0.8520 H   0  0  0  0  0  0  0  0  0  0  0  0
   -3.2719   -3.6925    0.2025 C   0  0  0  0  0  0  0  0  0  0  0  0
   -4.1309   -3.0443    0.3915 H   0  0  0  0  0  0  0  0  0  0  0  0
   -3.2957   -4.0244   -0.8382 H   0  0  0  0  0  0  0  0  0  0  0  0
   -1.9828   -2.9417    0.4801 C   0  0  0  0  0  0  0  0  0  0  0  0
   -1.2456   -3.3149    1.3740 O   0  0  0  0  0  0  0  0  0  0  0  0
   -1.6565   -1.8372   -0.2828 N   0  0  0  0  0  0  0  0  0  0  0  0
   -2.2634   -1.6345   -1.0722 H   0  0  0  0  0  0  0  0  0  0  0  0
   -0.3740   -1.1086   -0.1925 C   0  0  1  0  0  0  0  0  0  0  0  0
    0.4531   -1.7976   -0.3975 H   0  0  0  0  0  0  0  0  0  0  0  0
   -0.3703    0.0289   -1.2357 C   0  0  0  0  0  0  0  0  0  0  0  0
   -1.3807    0.4321   -1.3550 H   0  0  0  0  0  0  0  0  0  0  0  0
    0.2543    0.8444   -0.8528 H   0  0  0  0  0  0  0  0  0  0  0  0
    0.1807   -0.3675   -2.5934 C   0  0  0  0  0  0  0  0  0  0  0  0
    0.8187    0.6089   -3.3755 C   0  0  0  0  0  0  0  0  0  0  0  0
    0.9321    1.6205   -2.9957 H   0  0  0  0  0  0  0  0  0  0  0  0
    1.3190    0.2978   -4.6451 C   0  0  0  0  0  0  0  0  0  0  0  0
    1.8123    1.0688   -5.2271 H   0  0  0  0  0  0  0  0  0  0  0  0
    1.1826   -0.9936   -5.1554 C   0  0  0  0  0  0  0  0  0  0  0  0
    1.6666   -1.3084   -6.3919 O   0  0  0  0  0  0  0  0  0  0  0  0
    2.1303   -0.5458   -6.7707 H   0  0  0  0  0  0  0  0  0  0  0  0
    0.5443   -1.9693   -4.3943 C   0  0  0  0  0  0  0  0  0  0  0  0
    0.4449   -2.9714   -4.7990 H   0  0  0  0  0  0  0  0  0  0  0  0
    0.0431   -1.6642   -3.1242 C   0  0  0  0  0  0  0  0  0  0  0  0
   -0.4454   -2.4537   -2.5635 H   0  0  0  0  0  0  0  0  0  0  0  0
   -0.0983   -0.5160    1.2075 C   0  0  0  0  0  0  0  0  0  0  0  0
    1.0536   -0.4097    1.6066 O   0  0  0  0  0  0  0  0  0  0  0  0
   -1.1057    0.1483    1.8849 N   0  0  0  0  0  0  0  0  0  0  0  0
   -2.0522   -0.0436    1.5743 H   0  0  0  0  0  0  0  0  0  0  0  0
   -0.9091    0.7461    3.1997 C   0  0  0  0  0  0  0  0  0  0  0  0
   -0.1140    1.4985    3.1652 H   0  0  0  0  0  0  0  0  0  0  0  0
   -1.8292    1.2343    3.5345 H   0  0  0  0  0  0  0  0  0  0  0  0
   -0.6359   -0.0217    3.9312 H   0  0  0  0  0  0  0  0  0  0  0  0
  1  2  1  0  0  0  0
  2  3  1  0  0  0  0
  2  4  1  0  0  0  0
  2  5  1  0  0  0  0
  5  6  2  0  0  0  0
  5  7  1  0  0  0  0
  7  8  1  0  0  0  0
  7  9  1  0  0  0  0
  9 10  1  0  0  0  0
  9 11  1  0  0  0  0
  9 26  1  0  0  0  0
 11 12  1  0  0  0  0
 11 13  1  0  0  0  0
 11 14  1  0  0  0  0
 14 15  2  0  0  0  0
 14 24  1  0  0  0  0
 15 16  1  0  0  0  0
 15 17  1  0  0  0  0
 17 18  1  0  0  0  0
 17 19  2  0  0  0  0
 19 20  1  0  0  0  0
 19 22  1  0  0  0  0
 20 21  1  0  0  0  0
 22 23  1  0  0  0  0
 22 24  2  0  0  0  0
 24 25  1  0  0  0  0
 26 27  2  0  0  0  0
 26 28  1  0  0  0  0
 28 29  1  0  0  0  0
 28 30  1  0  0  0  0
 30 31  1  0  0  0  0
 30 32  1  0  0  0  0
 30 33  1  0  0  0  0
M  END
$$$$

  -OEChem-03222214083D

 33 33  0     1  0  0  0  0  0999 V2000
   -3.3298   -4.5759    0.8422 H   0  0  0  0  0  0  0  0  0  0  0  0
   -3.2682   -3.6968    0.1941 C   0  0  0  0  0  0  0  0  0  0  0  0
   -4.1260   -3.0506    0.3956 H   0  0  0  0  0  0  0  0  0  0  0  0
   -3.3039   -4.0262   -0.8471 H   0  0  0  0  0  0  0  0  0  0  0  0
   -1.9771   -2.9445    0.4572 C   0  0  0  0  0  0  0  0  0  0  0  0
   -1.2212   -3.3266    1.3315 O   0  0  0  0  0  0  0  0  0  0  0  0
   -1.6716   -1.8266   -0.2945 N   0  0  0  0  0  0  0  0  0  0  0  0
   -2.3044   -1.6016   -1.0566 H   0  0  0  0  0  0  0  0  0  0  0  0
   -0.3937   -1.0890   -0.2120 C   0  0  1  0  0  0  0  0  0  0  0  0
    0.4305   -1.7752   -0.4393 H   0  0  0  0  0  0  0  0  0  0  0  0
   -0.3950    0.0584   -1.2437 C   0  0  0  0  0  0  0  0  0  0  0  0
   -1.4079    0.4551   -1.3646 H   0  0  0  0  0  0  0  0  0  0  0  0
    0.2211    0.8777   -0.8558 H   0  0  0  0  0  0  0  0  0  0  0  0
    0.1569   -0.3479   -2.5968 C   0  0  0  0  0  0  0  0  0  0  0  0
    1.0655    0.4992   -3.2522 C   0  0  0  0  0  0  0  0  0  0  0  0
    1.3840    1.4257   -2.7825 H   0  0  0  0  0  0  0  0  0  0  0  0
    1.5777    0.1639   -4.5107 C   0  0  0  0  0  0  0  0  0  0  0  0
    2.2825    0.8316   -4.9940 H   0  0  0  0  0  0  0  0  0  0  0  0
    1.1846   -1.0202   -5.1352 C   0  0  0  0  0  0  0  0  0  0  0  0
    1.6790   -1.3579   -6.3613 O   0  0  0  0  0  0  0  0  0  0  0  0
    2.3317   -0.7005   -6.6477 H   0  0  0  0  0  0  0  0  0  0  0  0
    0.2787   -1.8650   -4.4989 C   0  0  0  0  0  0  0  0  0  0  0  0
   -0.0185   -2.7850   -4.9919 H   0  0  0  0  0  0  0  0  0  0  0  0
   -0.2361   -1.5351   -3.2406 C   0  0  0  0  0  0  0  0  0  0  0  0
   -0.9365   -2.2197   -2.7762 H   0  0  0  0  0  0  0  0  0  0  0  0
   -0.0995   -0.5132    1.1912 C   0  0  0  0  0  0  0  0  0  0  0  0
    1.0585   -0.4003    1.5712 O   0  0  0  0  0  0  0  0  0  0  0  0
   -1.1004    0.1344    1.8937 N   0  0  0  0  0  0  0  0  0  0  0  0
   -2.0508   -0.0596    1.5967 H   0  0  0  0  0  0  0  0  0  0  0  0
   -0.8849    0.7240    3.2091 C   0  0  0  0  0  0  0  0  0  0  0  0
   -0.1021    1.4887    3.1635 H   0  0  0  0  0  0  0  0  0  0  0  0
   -1.8048    1.1950    3.5680 H   0  0  0  0  0  0  0  0  0  0  0  0
   -0.5841   -0.0454    3.9281 H   0  0  0  0  0  0  0  0  0  0  0  0
  1  2  1  0  0  0  0
  2  3  1  0  0  0  0
  2  4  1  0  0  0  0
  2  5  1  0  0  0  0
  5  6  2  0  0  0  0
  5  7  1  0  0  0  0
  7  8  1  0  0  0  0
  7  9  1  0  0  0  0
  9 10  1  0  0  0  0
  9 11  1  0  0  0  0
  9 26  1  0  0  0  0
 11 12  1  0  0  0  0
 11 13  1  0  0  0  0
 11 14  1  0  0  0  0
 14 15  2  0  0  0  0
 14 24  1  0  0  0  0
 15 16  1  0  0  0  0
 15 17  1  0  0  0  0
 17 18  1  0  0  0  0
 17 19  2  0  0  0  0
 19 20  1  0  0  0  0
 19 22  1  0  0  0  0
 20 21  1  0  0  0  0
 22 23  1  0  0  0  0
 22 24  2  0  0  0  0
 24 25  1  0  0  0  0
 26 27  2  0  0  0  0
 26 28  1  0  0  0  0
 28 29  1  0  0  0  0
 28 30  1  0  0  0  0
 30 31  1  0  0  0  0
 30 32  1  0  0  0  0
 30 33  1  0  0  0  0
M  END
$$$$

  -OEChem-03222214083D

 33 33  0     1  0  0  0  0  0999 V2000
   -3.3043   -4.5879    0.8064 H   0  0  0  0  0  0  0  0  0  0  0  0
   -3.2518   -3.7029    0.1659 C   0  0  0  0  0  0  0  0  0  0  0  0
   -4.1146   -3.0659    0.3739 H   0  0  0  0  0  0  0  0  0  0  0  0
   -3.2865   -4.0237   -0.8779 H   0  0  0  0  0  0  0  0  0  0  0  0
   -1.9672   -2.9412    0.4329 C   0  0  0  0  0  0  0  0  0  0  0  0
   -1.2071   -3.3225    1.3041 O   0  0  0  0  0  0  0  0  0  0  0  0
   -1.6761   -1.8120   -0.3079 N   0  0  0  0  0  0  0  0  0  0  0  0
   -2.3156   -1.5842   -1.0626 H   0  0  0  0  0  0  0  0  0  0  0  0
   -0.4031   -1.0668   -0.2270 C   0  0  1  0  0  0  0  0  0  0  0  0
    0.4214   -1.7479   -0.4689 H   0  0  0  0  0  0  0  0  0  0  0  0
   -0.4122    0.0912   -1.2459 C   0  0  0  0  0  0  0  0  0  0  0  0
   -1.4273    0.4824   -1.3667 H   0  0  0  0  0  0  0  0  0  0  0  0
    0.1991    0.9144   -0.8591 H   0  0  0  0  0  0  0  0  0  0  0  0
    0.1404   -0.3288   -2.5918 C   0  0  0  0  0  0  0  0  0  0  0  0
    1.2702    0.3189   -3.1166 C   0  0  0  0  0  0  0  0  0  0  0  0
    1.7618    1.1048   -2.5498 H   0  0  0  0  0  0  0  0  0  0  0  0
    1.7836   -0.0435   -4.3673 C   0  0  0  0  0  0  0  0  0  0  0  0
    2.6617    0.4655   -4.7497 H   0  0  0  0  0  0  0  0  0  0  0  0
    1.1704   -1.0518   -5.1122 C   0  0  0  0  0  0  0  0  0  0  0  0
    1.6634   -1.4134   -6.3322 O   0  0  0  0  0  0  0  0  0  0  0  0
    2.4715   -0.9129   -6.5247 H   0  0  0  0  0  0  0  0  0  0  0  0
    0.0434   -1.6940   -4.6046 C   0  0  0  0  0  0  0  0  0  0  0  0
   -0.4259   -2.4761   -5.1924 H   0  0  0  0  0  0  0  0  0  0  0  0
   -0.4736   -1.3362   -3.3547 C   0  0  0  0  0  0  0  0  0  0  0  0
   -1.3533   -1.8524   -2.9875 H   0  0  0  0  0  0  0  0  0  0  0  0
   -0.0984   -0.5049    1.1789 C   0  0  0  0  0  0  0  0  0  0  0  0
    1.0632   -0.3836    1.5451 O   0  0  0  0  0  0  0  0  0  0  0  0
   -1.0965    0.1281    1.8984 N   0  0  0  0  0  0  0  0  0  0  0  0
   -2.0485   -0.0747    1.6124 H   0  0  0  0  0  0  0  0  0  0  0  0
   -0.8703    0.7056    3.2174 C   0  0  0  0  0  0  0  0  0  0  0  0
   -0.0928    1.4756    3.1711 H   0  0  0  0  0  0  0  0  0  0  0  0
   -1.7891    1.1676    3.5906 H   0  0  0  0  0  0  0  0  0  0  0  0
   -0.5571   -0.0693    3.9252 H   0  0  0  0  0  0  0  0  0  0  0  0
  1  2  1  0  0  0  0
  2  3  1  0  0  0  0
  2  4  1  0  0  0  0
  2  5  1  0  0  0  0
  5  6  2  0  0  0  0
  5  7  1  0  0  0  0
  7  8  1  0  0  0  0
  7  9  1  0  0  0  0
  9 10  1  0  0  0  0
  9 11  1  0  0  0  0
  9 26  1  0  0  0  0
 11 12  1  0  0  0  0
 11 13  1  0  0  0  0
 11 14  1  0  0  0  0
 14 15  2  0  0  0  0
 14 24  1  0  0  0  0
 15 16  1  0  0  0  0
 15 17  1  0  0  0  0
 17 18  1  0  0  0  0
 17 19  2  0  0  0  0
 19 20  1  0  0  0  0
 19 22  1  0  0  0  0
 20 21  1  0  0  0  0
 22 23  1  0  0  0  0
 22 24  2  0  0  0  0
 24 25  1  0  0  0  0
 26 27  2  0  0  0  0
 26 28  1  0  0  0  0
 28 29  1  0  0  0  0
 28 30  1  0  0  0  0
 30 31  1  0  0  0  0
 30 32  1  0  0  0  0
 30 33  1  0  0  0  0
M  END
$$$$

  -OEChem-03222214083D

 33 33  0     1  0  0  0  0  0999 V2000
   -3.2806   -4.6014    0.7550 H   0  0  0  0  0  0  0  0  0  0  0  0
   -3.2353   -3.7086    0.1244 C   0  0  0  0  0  0  0  0  0  0  0  0
   -4.1110   -3.0881    0.3290 H   0  0  0  0  0  0  0  0  0  0  0  0
   -3.2526   -4.0187   -0.9232 H   0  0  0  0  0  0  0  0  0  0  0  0
   -1.9668   -2.9286    0.4157 C   0  0  0  0  0  0  0  0  0  0  0  0
   -1.2188   -3.2992    1.3020 O   0  0  0  0  0  0  0  0  0  0  0  0
   -1.6792   -1.7944   -0.3188 N   0  0  0  0  0  0  0  0  0  0  0  0
   -2.2916   -1.5982   -1.1038 H   0  0  0  0  0  0  0  0  0  0  0  0
   -0.4058   -1.0513   -0.2354 C   0  0  1  0  0  0  0  0  0  0  0  0
    0.4172   -1.7306   -0.4872 H   0  0  0  0  0  0  0  0  0  0  0  0
   -0.4234    0.1161   -1.2416 C   0  0  0  0  0  0  0  0  0  0  0  0
   -1.4387    0.5094   -1.3534 H   0  0  0  0  0  0  0  0  0  0  0  0
    0.1922    0.9386   -0.8603 H   0  0  0  0  0  0  0  0  0  0  0  0
    0.1230   -0.3128   -2.5838 C   0  0  0  0  0  0  0  0  0  0  0  0
    1.4088    0.0847   -2.9811 C   0  0  0  0  0  0  0  0  0  0  0  0
    2.0226    0.6881   -2.3173 H   0  0  0  0  0  0  0  0  0  0  0  0
    1.9182   -0.3003   -4.2270 C   0  0  0  0  0  0  0  0  0  0  0  0
    2.9167    0.0125   -4.5130 H   0  0  0  0  0  0  0  0  0  0  0  0
    1.1466   -1.0807   -5.0900 C   0  0  0  0  0  0  0  0  0  0  0  0
    1.6340   -1.4635   -6.3059 O   0  0  0  0  0  0  0  0  0  0  0  0
    2.5420   -1.1408   -6.4160 H   0  0  0  0  0  0  0  0  0  0  0  0
   -0.1346   -1.4711   -4.7062 C   0  0  0  0  0  0  0  0  0  0  0  0
   -0.7268   -2.0746   -5.3865 H   0  0  0  0  0  0  0  0  0  0  0  0
   -0.6484   -1.0897   -3.4620 C   0  0  0  0  0  0  0  0  0  0  0  0
   -1.6502   -1.4013   -3.1877 H   0  0  0  0  0  0  0  0  0  0  0  0
   -0.0937   -0.4987    1.1727 C   0  0  0  0  0  0  0  0  0  0  0  0
    1.0706   -0.3790    1.5313 O   0  0  0  0  0  0  0  0  0  0  0  0
   -1.0874    0.1311    1.9010 N   0  0  0  0  0  0  0  0  0  0  0  0
   -2.0405   -0.0755    1.6215 H   0  0  0  0  0  0  0  0  0  0  0  0
   -0.8552    0.6980    3.2236 C   0  0  0  0  0  0  0  0  0  0  0  0
   -0.0699    1.4605    3.1830 H   0  0  0  0  0  0  0  0  0  0  0  0
   -1.7692    1.1671    3.5998 H   0  0  0  0  0  0  0  0  0  0  0  0
   -0.5503   -0.0848    3.9262 H   0  0  0  0  0  0  0  0  0  0  0  0
  1  2  1  0  0  0  0
  2  3  1  0  0  0  0
  2  4  1  0  0  0  0
  2  5  1  0  0  0  0
  5  6  2  0  0  0  0
  5  7  1  0  0  0  0
  7  8  1  0  0  0  0
  7  9  1  0  0  0  0
  9 10  1  0  0  0  0
  9 11  1  0  0  0  0
  9 26  1  0  0  0  0
 11 12  1  0  0  0  0
 11 13  1  0  0  0  0
 11 14  1  0  0  0  0
 14 15  2  0  0  0  0
 14 24  1  0  0  0  0
 15 16  1  0  0  0  0
 15 17  1  0  0  0  0
 17 18  1  0  0  0  0
 17 19  2  0  0  0  0
 19 20  1  0  0  0  0
 19 22  1  0  0  0  0
 20 21  1  0  0  0  0
 22 23  1  0  0  0  0
 22 24  2  0  0  0  0
 24 25  1  0  0  0  0
 26 27  2  0  0  0  0
 26 28  1  0  0  0  0
 28 29  1  0  0  0  0
 28 30  1  0  0  0  0
 30 31  1  0  0  0  0
 30 32  1  0  0  0  0
 30 33  1  0  0  0  0
M  END
$$$$

  -OEChem-03222214083D

 33 33  0     1  0  0  0  0  0999 V2000
   -3.2596   -4.6237    0.6988 H   0  0  0  0  0  0  0  0  0  0  0  0
   -3.2190   -3.7282    0.0720 C   0  0  0  0  0  0  0  0  0  0  0  0
   -4.1199   -3.1351    0.2465 H   0  0  0  0  0  0  0  0  0  0  0  0
   -3.1894   -4.0357   -0.9762 H   0  0  0  0  0  0  0  0  0  0  0  0
   -1.9857   -2.9112    0.4094 C   0  0  0  0  0  0  0  0  0  0  0  0
   -1.2631   -3.2586    1.3259 O   0  0  0  0  0  0  0  0  0  0  0  0
   -1.6981   -1.7755   -0.3228 N   0  0  0  0  0  0  0  0  0  0  0  0
   -2.2695   -1.6234   -1.1478 H   0  0  0  0  0  0  0  0  0  0  0  0
   -0.4197   -1.0416   -0.2366 C   0  0  1  0  0  0  0  0  0  0  0  0
    0.3968   -1.7260   -0.4950 H   0  0  0  0  0  0  0  0  0  0  0  0
   -0.4384    0.1312   -1.2354 C   0  0  0  0  0  0  0  0  0  0  0  0
   -1.4515    0.5331   -1.3371 H   0  0  0  0  0  0  0  0  0  0  0  0
    0.1888    0.9487   -0.8614 H   0  0  0  0  0  0  0  0  0  0  0  0
    0.1005   -0.3044   -2.5761 C   0  0  0  0  0  0  0  0  0  0  0  0
    1.4716   -0.1940   -2.8514 C   0  0  0  0  0  0  0  0  0  0  0  0
    2.1479    0.1947   -2.0940 H   0  0  0  0  0  0  0  0  0  0  0  0
    1.9795   -0.5931   -4.0932 C   0  0  0  0  0  0  0  0  0  0  0  0
    3.0433   -0.5057   -4.2856 H   0  0  0  0  0  0  0  0  0  0  0  0
    1.1219   -1.1005   -5.0714 C   0  0  0  0  0  0  0  0  0  0  0  0
    1.6056   -1.4933   -6.2858 O   0  0  0  0  0  0  0  0  0  0  0  0
    2.5662   -1.3636   -6.3185 H   0  0  0  0  0  0  0  0  0  0  0  0
   -0.2425   -1.2055   -4.8058 C   0  0  0  0  0  0  0  0  0  0  0  0
   -0.8999   -1.5971   -5.5754 H   0  0  0  0  0  0  0  0  0  0  0  0
   -0.7558   -0.8089   -3.5660 C   0  0  0  0  0  0  0  0  0  0  0  0
   -1.8219   -0.8913   -3.3819 H   0  0  0  0  0  0  0  0  0  0  0  0
   -0.0926   -0.4943    1.1698 C   0  0  0  0  0  0  0  0  0  0  0  0
    1.0768   -0.3862    1.5162 O   0  0  0  0  0  0  0  0  0  0  0  0
   -1.0730    0.1433    1.9090 N   0  0  0  0  0  0  0  0  0  0  0  0
   -2.0310   -0.0583    1.6418 H   0  0  0  0  0  0  0  0  0  0  0  0
   -0.8194    0.7087    3.2284 C   0  0  0  0  0  0  0  0  0  0  0  0
   -0.0331    1.4693    3.1760 H   0  0  0  0  0  0  0  0  0  0  0  0
   -1.7265    1.1793    3.6195 H   0  0  0  0  0  0  0  0  0  0  0  0
   -0.5045   -0.0751    3.9253 H   0  0  0  0  0  0  0  0  0  0  0  0
  1  2  1  0  0  0  0
  2  3  1  0  0  0  0
  2  4  1  0  0  0  0
  2  5  1  0  0  0  0
  5  6  2  0  0  0  0
  5  7  1  0  0  0  0
  7  8  1  0  0  0  0
  7  9  1  0  0  0  0
  9 10  1  0  0  0  0
  9 11  1  0  0  0  0
  9 26  1  0  0  0  0
 11 12  1  0  0  0  0
 11 13  1  0  0  0  0
 11 14  1  0  0  0  0
 14 15  2  0  0  0  0
 14 24  1  0  0  0  0
 15 16  1  0  0  0  0
 15 17  1  0  0  0  0
 17 18  1  0  0  0  0
 17 19  2  0  0  0  0
 19 20  1  0  0  0  0
 19 22  1  0  0  0  0
 20 21  1  0  0  0  0
 22 23  1  0  0  0  0
 22 24  2  0  0  0  0
 24 25  1  0  0  0  0
 26 27  2  0  0  0  0
 26 28  1  0  0  0  0
 28 29  1  0  0  0  0
 28 30  1  0  0  0  0
 30 31  1  0  0  0  0
 30 32  1  0  0  0  0
 30 33  1  0  0  0  0
M  END
$$$$

  -OEChem-03222214083D

 33 33  0     1  0  0  0  0  0999 V2000
   -3.2670   -4.6184    0.6875 H   0  0  0  0  0  0  0  0  0  0  0  0
   -3.2194   -3.7243    0.0592 C   0  0  0  0  0  0  0  0  0  0  0  0
   -4.1224   -3.1312    0.2222 H   0  0  0  0  0  0  0  0  0  0  0  0
   -3.1778   -4.0339   -0.9879 H   0  0  0  0  0  0  0  0  0  0  0  0
   -1.9901   -2.9062    0.4079 C   0  0  0  0  0  0  0  0  0  0  0  0
   -1.2791   -3.2490    1.3353 O   0  0  0  0  0  0  0  0  0  0  0  0
   -1.6972   -1.7717   -0.3238 N   0  0  0  0  0  0  0  0  0  0  0  0
   -2.2501   -1.6357   -1.1647 H   0  0  0  0  0  0  0  0  0  0  0  0
   -0.4167   -1.0432   -0.2347 C   0  0  1  0  0  0  0  0  0  0  0  0
    0.3968   -1.7312   -0.4912 H   0  0  0  0  0  0  0  0  0  0  0  0
   -0.4411    0.1310   -1.2330 C   0  0  0  0  0  0  0  0  0  0  0  0
   -1.4536    0.5373   -1.3231 H   0  0  0  0  0  0  0  0  0  0  0  0
    0.1946    0.9446   -0.8646 H   0  0  0  0  0  0  0  0  0  0  0  0
    0.0916   -0.2979   -2.5777 C   0  0  0  0  0  0  0  0  0  0  0  0
    1.4700   -0.4832   -2.7610 C   0  0  0  0  0  0  0  0  0  0  0  0
    2.1543   -0.3177   -1.9322 H   0  0  0  0  0  0  0  0  0  0  0  0
    1.9711   -0.8866   -4.0037 C   0  0  0  0  0  0  0  0  0  0  0  0
    3.0396   -1.0284   -4.1243 H   0  0  0  0  0  0  0  0  0  0  0  0
    1.1009   -1.1036   -5.0741 C   0  0  0  0  0  0  0  0  0  0  0  0
    1.5799   -1.4949   -6.2906 O   0  0  0  0  0  0  0  0  0  0  0  0
    2.5463   -1.5707   -6.2568 H   0  0  0  0  0  0  0  0  0  0  0  0
   -0.2694   -0.9171   -4.8986 C   0  0  0  0  0  0  0  0  0  0  0  0
   -0.9357   -1.0842   -5.7387 H   0  0  0  0  0  0  0  0  0  0  0  0
   -0.7765   -0.5155   -3.6579 C   0  0  0  0  0  0  0  0  0  0  0  0
   -1.8461   -0.3694   -3.5438 H   0  0  0  0  0  0  0  0  0  0  0  0
   -0.0882   -0.4965    1.1713 C   0  0  0  0  0  0  0  0  0  0  0  0
    1.0823   -0.3945    1.5165 O   0  0  0  0  0  0  0  0  0  0  0  0
   -1.0661    0.1457    1.9096 N   0  0  0  0  0  0  0  0  0  0  0  0
   -2.0247   -0.0526    1.6419 H   0  0  0  0  0  0  0  0  0  0  0  0
   -0.8118    0.7051    3.2310 C   0  0  0  0  0  0  0  0  0  0  0  0
   -0.0185    1.4585    3.1829 H   0  0  0  0  0  0  0  0  0  0  0  0
   -1.7157    1.1829    3.6200 H   0  0  0  0  0  0  0  0  0  0  0  0
   -0.5070   -0.0835    3.9270 H   0  0  0  0  0  0  0  0  0  0  0  0
  1  2  1  0  0  0  0
  2  3  1  0  0  0  0
  2  4  1  0  0  0  0
  2  5  1  0  0  0  0
  5  6  2  0  0  0  0
  5  7  1  0  0  0  0
  7  8  1  0  0  0  0
  7  9  1  0  0  0  0
  9 10  1  0  0  0  0
  9 11  1  0  0  0  0
  9 26  1  0  0  0  0
 11 12  1  0  0  0  0
 11 13  1  0  0  0  0
 11 14  1  0  0  0  0
 14 15  2  0  0  0  0
 14 24  1  0  0  0  0
 15 16  1  0  0  0  0
 15 17  1  0  0  0  0
 17 18  1  0  0  0  0
 17 19  2  0  0  0  0
 19 20  1  0  0  0  0
 19 22  1  0  0  0  0
 20 21  1  0  0  0  0
 22 23  1  0  0  0  0
 22 24  2  0  0  0  0
 24 25  1  0  0  0  0
 26 27  2  0  0  0  0
 26 28  1  0  0  0  0
 28 29  1  0  0  0  0
 28 30  1  0  0  0  0
 30 31  1  0  0  0  0
 30 32  1  0  0  0  0
 30 33  1  0  0  0  0
M  END
$$$$

  -OEChem-03222214083D

 33 33  0     1  0  0  0  0  0999 V2000
   -3.2912   -4.6091    0.7002 H   0  0  0  0  0  0  0  0  0  0  0  0
   -3.2298   -3.7217    0.0634 C   0  0  0  0  0  0  0  0  0  0  0  0
   -4.1305   -3.1207    0.2094 H   0  0  0  0  0  0  0  0  0  0  0  0
   -3.1776   -4.0424   -0.9799 H   0  0  0  0  0  0  0  0  0  0  0  0
   -1.9990   -2.9087    0.4191 C   0  0  0  0  0  0  0  0  0  0  0  0
   -1.2953   -3.2536    1.3513 O   0  0  0  0  0  0  0  0  0  0  0  0
   -1.6909   -1.7806   -0.3163 N   0  0  0  0  0  0  0  0  0  0  0  0
   -2.2351   -1.6447   -1.1633 H   0  0  0  0  0  0  0  0  0  0  0  0
   -0.4067   -1.0599   -0.2183 C   0  0  1  0  0  0  0  0  0  0  0  0
    0.4021   -1.7575   -0.4585 H   0  0  0  0  0  0  0  0  0  0  0  0
   -0.4263    0.1093   -1.2257 C   0  0  0  0  0  0  0  0  0  0  0  0
   -1.4373    0.5206   -1.3081 H   0  0  0  0  0  0  0  0  0  0  0  0
    0.2144    0.9183   -0.8565 H   0  0  0  0  0  0  0  0  0  0  0  0
    0.1075   -0.2984   -2.5802 C   0  0  0  0  0  0  0  0  0  0  0  0
    1.4204   -0.7769   -2.7205 C   0  0  0  0  0  0  0  0  0  0  0  0
    2.0732   -0.8395   -1.8532 H   0  0  0  0  0  0  0  0  0  0  0  0
    1.9040   -1.1693   -3.9738 C   0  0  0  0  0  0  0  0  0  0  0  0
    2.9214   -1.5350   -4.0604 H   0  0  0  0  0  0  0  0  0  0  0  0
    1.0828   -1.0873   -5.0997 C   0  0  0  0  0  0  0  0  0  0  0  0
    1.5442   -1.4669   -6.3265 O   0  0  0  0  0  0  0  0  0  0  0  0
    2.4670   -1.7576   -6.2587 H   0  0  0  0  0  0  0  0  0  0  0  0
   -0.2203   -0.6112   -4.9690 C   0  0  0  0  0  0  0  0  0  0  0  0
   -0.8490   -0.5482   -5.8513 H   0  0  0  0  0  0  0  0  0  0  0  0
   -0.7092   -0.2174   -3.7184 C   0  0  0  0  0  0  0  0  0  0  0  0
   -1.7264    0.1539   -3.6414 H   0  0  0  0  0  0  0  0  0  0  0  0
   -0.0896   -0.5066    1.1878 C   0  0  0  0  0  0  0  0  0  0  0  0
    1.0769   -0.4199    1.5493 O   0  0  0  0  0  0  0  0  0  0  0  0
   -1.0705    0.1468    1.9124 N   0  0  0  0  0  0  0  0  0  0  0  0
   -2.0277   -0.0370    1.6303 H   0  0  0  0  0  0  0  0  0  0  0  0
   -0.8278    0.7147    3.2326 C   0  0  0  0  0  0  0  0  0  0  0  0
   -0.0323    1.4660    3.1871 H   0  0  0  0  0  0  0  0  0  0  0  0
   -1.7344    1.1974    3.6096 H   0  0  0  0  0  0  0  0  0  0  0  0
   -0.5319   -0.0696    3.9374 H   0  0  0  0  0  0  0  0  0  0  0  0
  1  2  1  0  0  0  0
  2  3  1  0  0  0  0
  2  4  1  0  0  0  0
  2  5  1  0  0  0  0
  5  6  2  0  0  0  0
  5  7  1  0  0  0  0
  7  8  1  0  0  0  0
  7  9  1  0  0  0  0
  9 10  1  0  0  0  0
  9 11  1  0  0  0  0
  9 26  1  0  0  0  0
 11 12  1  0  0  0  0
 11 13  1  0  0  0  0
 11 14  1  0  0  0  0
 14 15  2  0  0  0  0
 14 24  1  0  0  0  0
 15 16  1  0  0  0  0
 15 17  1  0  0  0  0
 17 18  1  0  0  0  0
 17 19  2  0  0  0  0
 19 20  1  0  0  0  0
 19 22  1  0  0  0  0
 20 21  1  0  0  0  0
 22 23  1  0  0  0  0
 22 24  2  0  0  0  0
 24 25  1  0  0  0  0
 26 27  2  0  0  0  0
 26 28  1  0  0  0  0
 28 29  1  0  0  0  0
 28 30  1  0  0  0  0
 30 31  1  0  0  0  0
 30 32  1  0  0  0  0
 30 33  1  0  0  0  0
M  END
$$$$

  -OEChem-03222214083D

 33 33  0     1  0  0  0  0  0999 V2000
   -3.3296   -4.5969    0.7417 H   0  0  0  0  0  0  0  0  0  0  0  0
   -3.2524   -3.7148    0.0999 C   0  0  0  0  0  0  0  0  0  0  0  0
   -4.1430   -3.0978    0.2410 H   0  0  0  0  0  0  0  0  0  0  0  0
   -3.2048   -4.0425   -0.9414 H   0  0  0  0  0  0  0  0  0  0  0  0
   -2.0091   -2.9197    0.4516 C   0  0  0  0  0  0  0  0  0  0  0  0
   -1.3177   -3.2632    1.3934 O   0  0  0  0  0  0  0  0  0  0  0  0
   -1.6757   -1.8084   -0.2981 N   0  0  0  0  0  0  0  0  0  0  0  0
   -2.2109   -1.6734   -1.1513 H   0  0  0  0  0  0  0  0  0  0  0  0
   -0.3880   -1.0953   -0.1896 C   0  0  1  0  0  0  0  0  0  0  0  0
    0.4176   -1.8049   -0.3932 H   0  0  0  0  0  0  0  0  0  0  0  0
   -0.3922    0.0597   -1.2173 C   0  0  0  0  0  0  0  0  0  0  0  0
   -1.4023    0.4731   -1.3028 H   0  0  0  0  0  0  0  0  0  0  0  0
    0.2473    0.8682   -0.8451 H   0  0  0  0  0  0  0  0  0  0  0  0
    0.1493   -0.3221   -2.5814 C   0  0  0  0  0  0  0  0  0  0  0  0
    1.3302   -1.0707   -2.7371 C   0  0  0  0  0  0  0  0  0  0  0  0
    1.9210   -1.3627   -1.8735 H   0  0  0  0  0  0  0  0  0  0  0  0
    1.7839   -1.4308   -4.0112 C   0  0  0  0  0  0  0  0  0  0  0  0
    2.6990   -2.0052   -4.1063 H   0  0  0  0  0  0  0  0  0  0  0  0
    1.0680   -1.0487   -5.1464 C   0  0  0  0  0  0  0  0  0  0  0  0
    1.5026   -1.3946   -6.3930 O   0  0  0  0  0  0  0  0  0  0  0  0
    2.3391   -1.8810   -6.3298 H   0  0  0  0  0  0  0  0  0  0  0  0
   -0.0995   -0.3029   -5.0039 C   0  0  0  0  0  0  0  0  0  0  0  0
   -0.6467   -0.0057   -5.8926 H   0  0  0  0  0  0  0  0  0  0  0  0
   -0.5578    0.0603   -3.7328 C   0  0  0  0  0  0  0  0  0  0  0  0
   -1.4698    0.6438   -3.6496 H   0  0  0  0  0  0  0  0  0  0  0  0
   -0.0974   -0.5184    1.2130 C   0  0  0  0  0  0  0  0  0  0  0  0
    1.0607   -0.4365    1.6010 O   0  0  0  0  0  0  0  0  0  0  0  0
   -1.0895    0.1543    1.9034 N   0  0  0  0  0  0  0  0  0  0  0  0
   -2.0411   -0.0264    1.6011 H   0  0  0  0  0  0  0  0  0  0  0  0
   -0.8731    0.7400    3.2203 C   0  0  0  0  0  0  0  0  0  0  0  0
   -0.0676    1.4810    3.1830 H   0  0  0  0  0  0  0  0  0  0  0  0
   -1.7830    1.2389    3.5667 H   0  0  0  0  0  0  0  0  0  0  0  0
   -0.6043   -0.0366    3.9441 H   0  0  0  0  0  0  0  0  0  0  0  0
  1  2  1  0  0  0  0
  2  3  1  0  0  0  0
  2  4  1  0  0  0  0
  2  5  1  0  0  0  0
  5  6  2  0  0  0  0
  5  7  1  0  0  0  0
  7  8  1  0  0  0  0
  7  9  1  0  0  0  0
  9 10  1  0  0  0  0
  9 11  1  0  0  0  0
  9 26  1  0  0  0  0
 11 12  1  0  0  0  0
 11 13  1  0  0  0  0
 11 14  1  0  0  0  0
 14 15  2  0  0  0  0
 14 24  1  0  0  0  0
 15 16  1  0  0  0  0
 15 17  1  0  0  0  0
 17 18  1  0  0  0  0
 17 19  2  0  0  0  0
 19 20  1  0  0  0  0
 19 22  1  0  0  0  0
 20 21  1  0  0  0  0
 22 23  1  0  0  0  0
 22 24  2  0  0  0  0
 24 25  1  0  0  0  0
 26 27  2  0  0  0  0
 26 28  1  0  0  0  0
 28 29  1  0  0  0  0
 28 30  1  0  0  0  0
 30 31  1  0  0  0  0
 30 32  1  0  0  0  0
 30 33  1  0  0  0  0
M  END
$$$$

  -OEChem-03222214083D

 33 33  0     1  0  0  0  0  0999 V2000
   -3.3694   -4.5838    0.8196 H   0  0  0  0  0  0  0  0  0  0  0  0
   -3.2805   -3.7116    0.1655 C   0  0  0  0  0  0  0  0  0  0  0  0
   -4.1616   -3.0796    0.2995 H   0  0  0  0  0  0  0  0  0  0  0  0
   -3.2393   -4.0544   -0.8712 H   0  0  0  0  0  0  0  0  0  0  0  0
   -2.0250   -2.9300    0.5048 C   0  0  0  0  0  0  0  0  0  0  0  0
   -1.3426   -3.2658    1.4558 O   0  0  0  0  0  0  0  0  0  0  0  0
   -1.6657   -1.8437   -0.2696 N   0  0  0  0  0  0  0  0  0  0  0  0
   -2.1978   -1.7114   -1.1253 H   0  0  0  0  0  0  0  0  0  0  0  0
   -0.3726   -1.1400   -0.1606 C   0  0  1  0  0  0  0  0  0  0  0  0
    0.4331   -1.8572   -0.3218 H   0  0  0  0  0  0  0  0  0  0  0  0
   -0.3563   -0.0069   -1.2145 C   0  0  0  0  0  0  0  0  0  0  0  0
   -1.3644    0.4095   -1.3089 H   0  0  0  0  0  0  0  0  0  0  0  0
    0.2822    0.8023   -0.8425 H   0  0  0  0  0  0  0  0  0  0  0  0
    0.1885   -0.3719   -2.5867 C   0  0  0  0  0  0  0  0  0  0  0  0
    1.1768   -1.3526   -2.8058 C   0  0  0  0  0  0  0  0  0  0  0  0
    1.6488   -1.8809   -1.9847 H   0  0  0  0  0  0  0  0  0  0  0  0
    1.6092   -1.6553   -4.1028 C   0  0  0  0  0  0  0  0  0  0  0  0
    2.3749   -2.4104   -4.2446 H   0  0  0  0  0  0  0  0  0  0  0  0
    1.0666   -0.9877   -5.2006 C   0  0  0  0  0  0  0  0  0  0  0  0
    1.4809   -1.2769   -6.4684 O   0  0  0  0  0  0  0  0  0  0  0  0
    2.1851   -1.9431   -6.4447 H   0  0  0  0  0  0  0  0  0  0  0  0
    0.0956   -0.0118   -4.9977 C   0  0  0  0  0  0  0  0  0  0  0  0
   -0.3168    0.5079   -5.8565 H   0  0  0  0  0  0  0  0  0  0  0  0
   -0.3391    0.2965   -3.7044 C   0  0  0  0  0  0  0  0  0  0  0  0
   -1.0954    1.0653   -3.5760 H   0  0  0  0  0  0  0  0  0  0  0  0
   -0.1096   -0.5296    1.2339 C   0  0  0  0  0  0  0  0  0  0  0  0
    1.0380   -0.4567    1.6534 O   0  0  0  0  0  0  0  0  0  0  0  0
   -1.1113    0.1682    1.8851 N   0  0  0  0  0  0  0  0  0  0  0  0
   -2.0569   -0.0050    1.5604 H   0  0  0  0  0  0  0  0  0  0  0  0
   -0.9217    0.7807    3.1940 C   0  0  0  0  0  0  0  0  0  0  0  0
   -0.1068    1.5115    3.1615 H   0  0  0  0  0  0  0  0  0  0  0  0
   -1.8343    1.2978    3.5057 H   0  0  0  0  0  0  0  0  0  0  0  0
   -0.6806    0.0176    3.9415 H   0  0  0  0  0  0  0  0  0  0  0  0
  1  2  1  0  0  0  0
  2  3  1  0  0  0  0
  2  4  1  0  0  0  0
  2  5  1  0  0  0  0
  5  6  2  0  0  0  0
  5  7  1  0  0  0  0
  7  8  1  0  0  0  0
  7  9  1  0  0  0  0
  9 10  1  0  0  0  0
  9 11  1  0  0  0  0
  9 26  1  0  0  0  0
 11 12  1  0  0  0  0
 11 13  1  0  0  0  0
 11 14  1  0  0  0  0
 14 15  2  0  0  0  0
 14 24  1  0  0  0  0
 15 16  1  0  0  0  0
 15 17  1  0  0  0  0
 17 18  1  0  0  0  0
 17 19  2  0  0  0  0
 19 20  1  0  0  0  0
 19 22  1  0  0  0  0
 20 21  1  0  0  0  0
 22 23  1  0  0  0  0
 22 24  2  0  0  0  0
 24 25  1  0  0  0  0
 26 27  2  0  0  0  0
 26 28  1  0  0  0  0
 28 29  1  0  0  0  0
 28 30  1  0  0  0  0
 30 31  1  0  0  0  0
 30 32  1  0  0  0  0
 30 33  1  0  0  0  0
M  END
$$$$

  -OEChem-03222214083D

 33 33  0     1  0  0  0  0  0999 V2000
   -3.4176   -4.5467    0.9208 H   0  0  0  0  0  0  0  0  0  0  0  0
   -3.3079   -3.7022    0.2344 C   0  0  0  0  0  0  0  0  0  0  0  0
   -4.1725   -3.0435    0.3459 H   0  0  0  0  0  0  0  0  0  0  0  0
   -3.2778   -4.0841   -0.7889 H   0  0  0  0  0  0  0  0  0  0  0  0
   -2.0322   -2.9415    0.5439 C   0  0  0  0  0  0  0  0  0  0  0  0
   -1.3411   -3.2781    1.4881 O   0  0  0  0  0  0  0  0  0  0  0  0
   -1.6643   -1.8728   -0.2502 N   0  0  0  0  0  0  0  0  0  0  0  0
   -2.2084   -1.7362   -1.0978 H   0  0  0  0  0  0  0  0  0  0  0  0
   -0.3679   -1.1731   -0.1538 C   0  0  1  0  0  0  0  0  0  0  0  0
    0.4461   -1.8851   -0.2950 H   0  0  0  0  0  0  0  0  0  0  0  0
   -0.3490   -0.0542   -1.2213 C   0  0  0  0  0  0  0  0  0  0  0  0
   -1.3560    0.3650   -1.3182 H   0  0  0  0  0  0  0  0  0  0  0  0
    0.2935    0.7551   -0.8557 H   0  0  0  0  0  0  0  0  0  0  0  0
    0.1856   -0.4166   -2.5991 C   0  0  0  0  0  0  0  0  0  0  0  0
    0.9321   -1.5760   -2.8965 C   0  0  0  0  0  0  0  0  0  0  0  0
    1.1988   -2.3047   -2.1402 H   0  0  0  0  0  0  0  0  0  0  0  0
    1.3739   -1.8259   -4.2016 C   0  0  0  0  0  0  0  0  0  0  0  0
    1.9502   -2.7221   -4.4045 H   0  0  0  0  0  0  0  0  0  0  0  0
    1.0816   -0.9306   -5.2299 C   0  0  0  0  0  0  0  0  0  0  0  0
    1.5106   -1.1669   -6.5037 O   0  0  0  0  0  0  0  0  0  0  0  0
    2.0564   -1.9681   -6.5277 H   0  0  0  0  0  0  0  0  0  0  0  0
    0.3480    0.2176   -4.9500 C   0  0  0  0  0  0  0  0  0  0  0  0
    0.1271    0.9123   -5.7539 H   0  0  0  0  0  0  0  0  0  0  0  0
   -0.0938    0.4746   -3.6484 C   0  0  0  0  0  0  0  0  0  0  0  0
   -0.6598    1.3814   -3.4560 H   0  0  0  0  0  0  0  0  0  0  0  0
   -0.1129   -0.5394    1.2323 C   0  0  0  0  0  0  0  0  0  0  0  0
    1.0311   -0.4632    1.6605 O   0  0  0  0  0  0  0  0  0  0  0  0
   -1.1171    0.1722    1.8647 N   0  0  0  0  0  0  0  0  0  0  0  0
   -2.0611    0.0018    1.5341 H   0  0  0  0  0  0  0  0  0  0  0  0
   -0.9342    0.8081    3.1633 C   0  0  0  0  0  0  0  0  0  0  0  0
   -0.1226    1.5422    3.1199 H   0  0  0  0  0  0  0  0  0  0  0  0
   -1.8500    1.3259    3.4638 H   0  0  0  0  0  0  0  0  0  0  0  0
   -0.6916    0.0588    3.9243 H   0  0  0  0  0  0  0  0  0  0  0  0
  1  2  1  0  0  0  0
  2  3  1  0  0  0  0
  2  4  1  0  0  0  0
  2  5  1  0  0  0  0
  5  6  2  0  0  0  0
  5  7  1  0  0  0  0
  7  8  1  0  0  0  0
  7  9  1  0  0  0  0
  9 10  1  0  0  0  0
  9 11  1  0  0  0  0
  9 26  1  0  0  0  0
 11 12  1  0  0  0  0
 11 13  1  0  0  0  0
 11 14  1  0  0  0  0
 14 15  2  0  0  0  0
 14 24  1  0  0  0  0
 15 16  1  0  0  0  0
 15 17  1  0  0  0  0
 17 18  1  0  0  0  0
 17 19  2  0  0  0  0
 19 20  1  0  0  0  0
 19 22  1  0  0  0  0
 20 21  1  0  0  0  0
 22 23  1  0  0  0  0
 22 24  2  0  0  0  0
 24 25  1  0  0  0  0
 26 27  2  0  0  0  0
 26 28  1  0  0  0  0
 28 29  1  0  0  0  0
 28 30  1  0  0  0  0
 30 31  1  0  0  0  0
 30 32  1  0  0  0  0
 30 33  1  0  0  0  0
M  END
$$$$

  -OEChem-03222214083D

 33 33  0     1  0  0  0  0  0999 V2000
   -3.4252   -4.5316    0.9485 H   0  0  0  0  0  0  0  0  0  0  0  0
   -3.3154   -3.6930    0.2549 C   0  0  0  0  0  0  0  0  0  0  0  0
   -4.1702   -3.0231    0.3748 H   0  0  0  0  0  0  0  0  0  0  0  0
   -3.3054   -4.0817   -0.7663 H   0  0  0  0  0  0  0  0  0  0  0  0
   -2.0258   -2.9462    0.5401 C   0  0  0  0  0  0  0  0  0  0  0  0
   -1.3112   -3.3014    1.4597 O   0  0  0  0  0  0  0  0  0  0  0  0
   -1.6686   -1.8724   -0.2520 N   0  0  0  0  0  0  0  0  0  0  0  0
   -2.2409   -1.7097   -1.0760 H   0  0  0  0  0  0  0  0  0  0  0  0
   -0.3733   -1.1688   -0.1689 C   0  0  1  0  0  0  0  0  0  0  0  0
    0.4496   -1.8698   -0.3270 H   0  0  0  0  0  0  0  0  0  0  0  0
   -0.3679   -0.0463   -1.2312 C   0  0  0  0  0  0  0  0  0  0  0  0
   -1.3758    0.3713   -1.3241 H   0  0  0  0  0  0  0  0  0  0  0  0
    0.2758    0.7631   -0.8671 H   0  0  0  0  0  0  0  0  0  0  0  0
    0.1538   -0.4127   -2.6119 C   0  0  0  0  0  0  0  0  0  0  0  0
    0.6242   -1.6907   -2.9792 C   0  0  0  0  0  0  0  0  0  0  0  0
    0.6349   -2.5228   -2.2843 H   0  0  0  0  0  0  0  0  0  0  0  0
    1.0919   -1.9336   -4.2763 C   0  0  0  0  0  0  0  0  0  0  0  0
    1.4516   -2.9237   -4.5349 H   0  0  0  0  0  0  0  0  0  0  0  0
    1.0962   -0.9137   -5.2277 C   0  0  0  0  0  0  0  0  0  0  0  0
    1.5521   -1.1431   -6.4937 O   0  0  0  0  0  0  0  0  0  0  0  0
    1.9059   -2.0434   -6.5620 H   0  0  0  0  0  0  0  0  0  0  0  0
    0.6310    0.3504   -4.8789 C   0  0  0  0  0  0  0  0  0  0  0  0
    0.6383    1.1398   -5.6235 H   0  0  0  0  0  0  0  0  0  0  0  0
    0.1662    0.6008   -3.5838 C   0  0  0  0  0  0  0  0  0  0  0  0
   -0.1857    1.5977   -3.3341 H   0  0  0  0  0  0  0  0  0  0  0  0
   -0.1067   -0.5420    1.2185 C   0  0  0  0  0  0  0  0  0  0  0  0
    1.0407   -0.4624    1.6365 O   0  0  0  0  0  0  0  0  0  0  0  0
   -1.1075    0.1618    1.8652 N   0  0  0  0  0  0  0  0  0  0  0  0
   -2.0540   -0.0059    1.5406 H   0  0  0  0  0  0  0  0  0  0  0  0
   -0.9129    0.7978    3.1621 C   0  0  0  0  0  0  0  0  0  0  0  0
   -0.1115    1.5422    3.1079 H   0  0  0  0  0  0  0  0  0  0  0  0
   -1.8305    1.3033    3.4774 H   0  0  0  0  0  0  0  0  0  0  0  0
   -0.6489    0.0507    3.9180 H   0  0  0  0  0  0  0  0  0  0  0  0
  1  2  1  0  0  0  0
  2  3  1  0  0  0  0
  2  4  1  0  0  0  0
  2  5  1  0  0  0  0
  5  6  2  0  0  0  0
  5  7  1  0  0  0  0
  7  8  1  0  0  0  0
  7  9  1  0  0  0  0
  9 10  1  0  0  0  0
  9 11  1  0  0  0  0
  9 26  1  0  0  0  0
 11 12  1  0  0  0  0
 11 13  1  0  0  0  0
 11 14  1  0  0  0  0
 14 15  2  0  0  0  0
 14 24  1  0  0  0  0
 15 16  1  0  0  0  0
 15 17  1  0  0  0  0
 17 18  1  0  0  0  0
 17 19  2  0  0  0  0
 19 20  1  0  0  0  0
 19 22  1  0  0  0  0
 20 21  1  0  0  0  0
 22 23  1  0  0  0  0
 22 24  2  0  0  0  0
 24 25  1  0  0  0  0
 26 27  2  0  0  0  0
 26 28  1  0  0  0  0
 28 29  1  0  0  0  0
 28 30  1  0  0  0  0
 30 31  1  0  0  0  0
 30 32  1  0  0  0  0
 30 33  1  0  0  0  0
M  END
$$$$

  -OEChem-03222214083D

 33 33  0     1  0  0  0  0  0999 V2000
   -3.3843   -4.5483    0.9072 H   0  0  0  0  0  0  0  0  0  0  0  0
   -3.3070   -3.6774    0.2497 C   0  0  0  0  0  0  0  0  0  0  0  0
   -4.1520   -3.0130    0.4454 H   0  0  0  0  0  0  0  0  0  0  0  0
   -3.3509   -4.0165   -0.7882 H   0  0  0  0  0  0  0  0  0  0  0  0
   -2.0025   -2.9455    0.5040 C   0  0  0  0  0  0  0  0  0  0  0  0
   -1.2570   -3.3263    1.3879 O   0  0  0  0  0  0  0  0  0  0  0  0
   -1.6692   -1.8525   -0.2722 N   0  0  0  0  0  0  0  0  0  0  0  0
   -2.2789   -1.6508   -1.0598 H   0  0  0  0  0  0  0  0  0  0  0  0
   -0.3810   -1.1340   -0.1953 C   0  0  1  0  0  0  0  0  0  0  0  0
    0.4468   -1.8241   -0.3876 H   0  0  0  0  0  0  0  0  0  0  0  0
   -0.3915   -0.0009   -1.2446 C   0  0  0  0  0  0  0  0  0  0  0  0
   -1.4028    0.4071   -1.3395 H   0  0  0  0  0  0  0  0  0  0  0  0
    0.2446    0.8120   -0.8759 H   0  0  0  0  0  0  0  0  0  0  0  0
    0.1306   -0.3754   -2.6213 C   0  0  0  0  0  0  0  0  0  0  0  0
    0.3140   -1.7034   -3.0561 C   0  0  0  0  0  0  0  0  0  0  0  0
    0.0830   -2.5470   -2.4139 H   0  0  0  0  0  0  0  0  0  0  0  0
    0.7994   -1.9726   -4.3415 C   0  0  0  0  0  0  0  0  0  0  0  0
    0.9363   -3.0021   -4.6546 H   0  0  0  0  0  0  0  0  0  0  0  0
    1.1054   -0.9265   -5.2126 C   0  0  0  0  0  0  0  0  0  0  0  0
    1.5803   -1.1799   -6.4668 O   0  0  0  0  0  0  0  0  0  0  0  0
    1.7129   -2.1328   -6.5865 H   0  0  0  0  0  0  0  0  0  0  0  0
    0.9239    0.3890   -4.7954 C   0  0  0  0  0  0  0  0  0  0  0  0
    1.1655    1.1980   -5.4772 H   0  0  0  0  0  0  0  0  0  0  0  0
    0.4412    0.6643   -3.5119 C   0  0  0  0  0  0  0  0  0  0  0  0
    0.3123    1.6991   -3.2073 H   0  0  0  0  0  0  0  0  0  0  0  0
   -0.1004   -0.5300    1.1991 C   0  0  0  0  0  0  0  0  0  0  0  0
    1.0514   -0.4448    1.6032 O   0  0  0  0  0  0  0  0  0  0  0  0
   -1.1005    0.1488    1.8730 N   0  0  0  0  0  0  0  0  0  0  0  0
   -2.0488   -0.0225    1.5562 H   0  0  0  0  0  0  0  0  0  0  0  0
   -0.8985    0.7478    3.1863 C   0  0  0  0  0  0  0  0  0  0  0  0
   -0.0879    1.4834    3.1529 H   0  0  0  0  0  0  0  0  0  0  0  0
   -1.8102    1.2563    3.5141 H   0  0  0  0  0  0  0  0  0  0  0  0
   -0.6445   -0.0224    3.9224 H   0  0  0  0  0  0  0  0  0  0  0  0
  1  2  1  0  0  0  0
  2  3  1  0  0  0  0
  2  4  1  0  0  0  0
  2  5  1  0  0  0  0
  5  6  2  0  0  0  0
  5  7  1  0  0  0  0
  7  8  1  0  0  0  0
  7  9  1  0  0  0  0
  9 10  1  0  0  0  0
  9 11  1  0  0  0  0
  9 26  1  0  0  0  0
 11 12  1  0  0  0  0
 11 13  1  0  0  0  0
 11 14  1  0  0  0  0
 14 15  2  0  0  0  0
 14 24  1  0  0  0  0
 15 16  1  0  0  0  0
 15 17  1  0  0  0  0
 17 18  1  0  0  0  0
 17 19  2  0  0  0  0
 19 20  1  0  0  0  0
 19 22  1  0  0  0  0
 20 21  1  0  0  0  0
 22 23  1  0  0  0  0
 22 24  2  0  0  0  0
 24 25  1  0  0  0  0
 26 27  2  0  0  0  0
 26 28  1  0  0  0  0
 28 29  1  0  0  0  0
 28 30  1  0  0  0  0
 30 31  1  0  0  0  0
 30 32  1  0  0  0  0
 30 33  1  0  0  0  0
M  END
$$$$

  -OEChem-03222214083D

 33 33  0     1  0  0  0  0  0999 V2000
   -3.3665   -4.5543    0.8713 H   0  0  0  0  0  0  0  0  0  0  0  0
   -3.2996   -3.6765    0.2222 C   0  0  0  0  0  0  0  0  0  0  0  0
   -4.1419   -3.0148    0.4382 H   0  0  0  0  0  0  0  0  0  0  0  0
   -3.3582   -4.0045   -0.8184 H   0  0  0  0  0  0  0  0  0  0  0  0
   -1.9913   -2.9474    0.4644 C   0  0  0  0  0  0  0  0  0  0  0  0
   -1.2246   -3.3478    1.3208 O   0  0  0  0  0  0  0  0  0  0  0  0
   -1.6781   -1.8348   -0.2919 N   0  0  0  0  0  0  0  0  0  0  0  0
   -2.3180   -1.5979   -1.0448 H   0  0  0  0  0  0  0  0  0  0  0  0
   -0.3956   -1.1049   -0.2150 C   0  0  1  0  0  0  0  0  0  0  0  0
    0.4300   -1.7896   -0.4394 H   0  0  0  0  0  0  0  0  0  0  0  0
   -0.4129    0.0409   -1.2492 C   0  0  0  0  0  0  0  0  0  0  0  0
   -1.4268    0.4410   -1.3481 H   0  0  0  0  0  0  0  0  0  0  0  0
    0.2143    0.8561   -0.8697 H   0  0  0  0  0  0  0  0  0  0  0  0
    0.1164   -0.3396   -2.6205 C   0  0  0  0  0  0  0  0  0  0  0  0
    0.0151   -1.6411   -3.1488 C   0  0  0  0  0  0  0  0  0  0  0  0
   -0.4419   -2.4432   -2.5788 H   0  0  0  0  0  0  0  0  0  0  0  0
    0.5136   -1.9346   -4.4239 C   0  0  0  0  0  0  0  0  0  0  0  0
    0.4313   -2.9450   -4.8092 H   0  0  0  0  0  0  0  0  0  0  0  0
    1.1138   -0.9358   -5.1916 C   0  0  0  0  0  0  0  0  0  0  0  0
    1.6053   -1.2129   -6.4342 O   0  0  0  0  0  0  0  0  0  0  0  0
    1.5241   -2.1609   -6.6206 H   0  0  0  0  0  0  0  0  0  0  0  0
    1.2122    0.3561   -4.6823 C   0  0  0  0  0  0  0  0  0  0  0  0
    1.6814    1.1276   -5.2839 H   0  0  0  0  0  0  0  0  0  0  0  0
    0.7185    0.6546   -3.4082 C   0  0  0  0  0  0  0  0  0  0  0  0
    0.8110    1.6695   -3.0320 H   0  0  0  0  0  0  0  0  0  0  0  0
   -0.0981   -0.5256    1.1858 C   0  0  0  0  0  0  0  0  0  0  0  0
    1.0593   -0.4344    1.5722 O   0  0  0  0  0  0  0  0  0  0  0  0
   -1.0935    0.1310    1.8881 N   0  0  0  0  0  0  0  0  0  0  0  0
   -2.0455   -0.0429    1.5841 H   0  0  0  0  0  0  0  0  0  0  0  0
   -0.8739    0.7180    3.2041 C   0  0  0  0  0  0  0  0  0  0  0  0
   -0.0753    1.4662    3.1629 H   0  0  0  0  0  0  0  0  0  0  0  0
   -1.7861    1.2085    3.5566 H   0  0  0  0  0  0  0  0  0  0  0  0
   -0.5933   -0.0569    3.9253 H   0  0  0  0  0  0  0  0  0  0  0  0
  1  2  1  0  0  0  0
  2  3  1  0  0  0  0
  2  4  1  0  0  0  0
  2  5  1  0  0  0  0
  5  6  2  0  0  0  0
  5  7  1  0  0  0  0
  7  8  1  0  0  0  0
  7  9  1  0  0  0  0
  9 10  1  0  0  0  0
  9 11  1  0  0  0  0
  9 26  1  0  0  0  0
 11 12  1  0  0  0  0
 11 13  1  0  0  0  0
 11 14  1  0  0  0  0
 14 15  2  0  0  0  0
 14 24  1  0  0  0  0
 15 16  1  0  0  0  0
 15 17  1  0  0  0  0
 17 18  1  0  0  0  0
 17 19  2  0  0  0  0
 19 20  1  0  0  0  0
 19 22  1  0  0  0  0
 20 21  1  0  0  0  0
 22 23  1  0  0  0  0
 22 24  2  0  0  0  0
 24 25  1  0  0  0  0
 26 27  2  0  0  0  0
 26 28  1  0  0  0  0
 28 29  1  0  0  0  0
 28 30  1  0  0  0  0
 30 31  1  0  0  0  0
 30 32  1  0  0  0  0
 30 33  1  0  0  0  0
M  END
$$$$

  -OEChem-03222214083D

 33 33  0     1  0  0  0  0  0999 V2000
   -3.3389   -4.5614    0.8550 H   0  0  0  0  0  0  0  0  0  0  0  0
   -3.2865   -3.6781    0.2118 C   0  0  0  0  0  0  0  0  0  0  0  0
   -4.1236   -3.0183    0.4523 H   0  0  0  0  0  0  0  0  0  0  0  0
   -3.3692   -3.9973   -0.8298 H   0  0  0  0  0  0  0  0  0  0  0  0
   -1.9724   -2.9518    0.4303 C   0  0  0  0  0  0  0  0  0  0  0  0
   -1.1815   -3.3668    1.2572 O   0  0  0  0  0  0  0  0  0  0  0  0
   -1.6838   -1.8217   -0.3100 N   0  0  0  0  0  0  0  0  0  0  0  0
   -2.3556   -1.5552   -1.0236 H   0  0  0  0  0  0  0  0  0  0  0  0
   -0.4095   -1.0765   -0.2376 C   0  0  1  0  0  0  0  0  0  0  0  0
    0.4162   -1.7536   -0.4854 H   0  0  0  0  0  0  0  0  0  0  0  0
   -0.4332    0.0825   -1.2569 C   0  0  0  0  0  0  0  0  0  0  0  0
   -1.4504    0.4732   -1.3593 H   0  0  0  0  0  0  0  0  0  0  0  0
    0.1823    0.9016   -0.8680 H   0  0  0  0  0  0  0  0  0  0  0  0
    0.1016   -0.3014   -2.6243 C   0  0  0  0  0  0  0  0  0  0  0  0
   -0.2638   -1.4984   -3.2664 C   0  0  0  0  0  0  0  0  0  0  0  0
   -0.9429   -2.1987   -2.7937 H   0  0  0  0  0  0  0  0  0  0  0  0
    0.2492   -1.8169   -4.5297 C   0  0  0  0  0  0  0  0  0  0  0  0
   -0.0419   -2.7472   -5.0049 H   0  0  0  0  0  0  0  0  0  0  0  0
    1.1304   -0.9452   -5.1712 C   0  0  0  0  0  0  0  0  0  0  0  0
    1.6399   -1.2480   -6.4008 O   0  0  0  0  0  0  0  0  0  0  0  0
    1.3546   -2.1341   -6.6716 H   0  0  0  0  0  0  0  0  0  0  0  0
    1.4950    0.2447   -4.5467 C   0  0  0  0  0  0  0  0  0  0  0  0
    2.1823    0.9172   -5.0499 H   0  0  0  0  0  0  0  0  0  0  0  0
    0.9872    0.5668   -3.2836 C   0  0  0  0  0  0  0  0  0  0  0  0
    1.2918    1.4993   -2.8166 H   0  0  0  0  0  0  0  0  0  0  0  0
   -0.0987   -0.5178    1.1693 C   0  0  0  0  0  0  0  0  0  0  0  0
    1.0630   -0.4110    1.5385 O   0  0  0  0  0  0  0  0  0  0  0  0
   -1.0929    0.1134    1.8963 N   0  0  0  0  0  0  0  0  0  0  0  0
   -2.0465   -0.0714    1.6048 H   0  0  0  0  0  0  0  0  0  0  0  0
   -0.8635    0.6872    3.2164 C   0  0  0  0  0  0  0  0  0  0  0  0
   -0.0702    1.4412    3.1754 H   0  0  0  0  0  0  0  0  0  0  0  0
   -1.7750    1.1686    3.5834 H   0  0  0  0  0  0  0  0  0  0  0  0
   -0.5713   -0.0934    3.9269 H   0  0  0  0  0  0  0  0  0  0  0  0
  1  2  1  0  0  0  0
  2  3  1  0  0  0  0
  2  4  1  0  0  0  0
  2  5  1  0  0  0  0
  5  6  2  0  0  0  0
  5  7  1  0  0  0  0
  7  8  1  0  0  0  0
  7  9  1  0  0  0  0
  9 10  1  0  0  0  0
  9 11  1  0  0  0  0
  9 26  1  0  0  0  0
 11 12  1  0  0  0  0
 11 13  1  0  0  0  0
 11 14  1  0  0  0  0
 14 15  2  0  0  0  0
 14 24  1  0  0  0  0
 15 16  1  0  0  0  0
 15 17  1  0  0  0  0
 17 18  1  0  0  0  0
 17 19  2  0  0  0  0
 19 20  1  0  0  0  0
 19 22  1  0  0  0  0
 20 21  1  0  0  0  0
 22 23  1  0  0  0  0
 22 24  2  0  0  0  0
 24 25  1  0  0  0  0
 26 27  2  0  0  0  0
 26 28  1  0  0  0  0
 28 29  1  0  0  0  0
 28 30  1  0  0  0  0
 30 31  1  0  0  0  0
 30 32  1  0  0  0  0
 30 33  1  0  0  0  0
M  END
$$$$

  -OEChem-03222214083D

 33 33  0     1  0  0  0  0  0999 V2000
   -3.3024   -4.5757    0.7881 H   0  0  0  0  0  0  0  0  0  0  0  0
   -3.2553   -3.6894    0.1488 C   0  0  0  0  0  0  0  0  0  0  0  0
   -4.1091   -3.0467    0.3758 H   0  0  0  0  0  0  0  0  0  0  0  0
   -3.3121   -4.0067   -0.8953 H   0  0  0  0  0  0  0  0  0  0  0  0
   -1.9593   -2.9397    0.3939 C   0  0  0  0  0  0  0  0  0  0  0  0
   -1.1718   -3.3484    1.2272 O   0  0  0  0  0  0  0  0  0  0  0  0
   -1.6856   -1.7951   -0.3290 N   0  0  0  0  0  0  0  0  0  0  0  0
   -2.3552   -1.5345   -1.0460 H   0  0  0  0  0  0  0  0  0  0  0  0
   -0.4171   -1.0419   -0.2525 C   0  0  1  0  0  0  0  0  0  0  0  0
    0.4092   -1.7118   -0.5185 H   0  0  0  0  0  0  0  0  0  0  0  0
   -0.4508    0.1311   -1.2532 C   0  0  0  0  0  0  0  0  0  0  0  0
   -1.4705    0.5151   -1.3539 H   0  0  0  0  0  0  0  0  0  0  0  0
    0.1582    0.9538   -0.8616 H   0  0  0  0  0  0  0  0  0  0  0  0
    0.0865   -0.2616   -2.6139 C   0  0  0  0  0  0  0  0  0  0  0  0
   -0.5049   -1.2863   -3.3723 C   0  0  0  0  0  0  0  0  0  0  0  0
   -1.3718   -1.8193   -2.9985 H   0  0  0  0  0  0  0  0  0  0  0  0
    0.0162   -1.6387   -4.6231 C   0  0  0  0  0  0  0  0  0  0  0  0
   -0.4528   -2.4333   -5.1928 H   0  0  0  0  0  0  0  0  0  0  0  0
    1.1327   -0.9728   -5.1318 C   0  0  0  0  0  0  0  0  0  0  0  0
    1.6498   -1.3083   -6.3498 O   0  0  0  0  0  0  0  0  0  0  0  0
    1.1709   -2.0661   -6.7188 H   0  0  0  0  0  0  0  0  0  0  0  0
    1.7260    0.0430   -4.3863 C   0  0  0  0  0  0  0  0  0  0  0  0
    2.5967    0.5536   -4.7851 H   0  0  0  0  0  0  0  0  0  0  0  0
    1.2112    0.3973   -3.1349 C   0  0  0  0  0  0  0  0  0  0  0  0
    1.6980    1.1864   -2.5685 H   0  0  0  0  0  0  0  0  0  0  0  0
   -0.0963   -0.5035    1.1591 C   0  0  0  0  0  0  0  0  0  0  0  0
    1.0689   -0.3886    1.5150 O   0  0  0  0  0  0  0  0  0  0  0  0
   -1.0875    0.1091    1.9055 N   0  0  0  0  0  0  0  0  0  0  0  0
   -2.0430   -0.0796    1.6224 H   0  0  0  0  0  0  0  0  0  0  0  0
   -0.8462    0.6699    3.2291 C   0  0  0  0  0  0  0  0  0  0  0  0
   -0.0865    1.4571    3.1793 H   0  0  0  0  0  0  0  0  0  0  0  0
   -1.7667    1.1054    3.6293 H   0  0  0  0  0  0  0  0  0  0  0  0
   -0.5015   -0.1091    3.9172 H   0  0  0  0  0  0  0  0  0  0  0  0
  1  2  1  0  0  0  0
  2  3  1  0  0  0  0
  2  4  1  0  0  0  0
  2  5  1  0  0  0  0
  5  6  2  0  0  0  0
  5  7  1  0  0  0  0
  7  8  1  0  0  0  0
  7  9  1  0  0  0  0
  9 10  1  0  0  0  0
  9 11  1  0  0  0  0
  9 26  1  0  0  0  0
 11 12  1  0  0  0  0
 11 13  1  0  0  0  0
 11 14  1  0  0  0  0
 14 15  2  0  0  0  0
 14 24  1  0  0  0  0
 15 16  1  0  0  0  0
 15 17  1  0  0  0  0
 17 18  1  0  0  0  0
 17 19  2  0  0  0  0
 19 20  1  0  0  0  0
 19 22  1  0  0  0  0
 20 21  1  0  0  0  0
 22 23  1  0  0  0  0
 22 24  2  0  0  0  0
 24 25  1  0  0  0  0
 26 27  2  0  0  0  0
 26 28  1  0  0  0  0
 28 29  1  0  0  0  0
 28 30  1  0  0  0  0
 30 31  1  0  0  0  0
 30 32  1  0  0  0  0
 30 33  1  0  0  0  0
M  END
$$$$

  -OEChem-03222214083D

 33 33  0     1  0  0  0  0  0999 V2000
   -3.2629   -4.6003    0.7131 H   0  0  0  0  0  0  0  0  0  0  0  0
   -3.2228   -3.7039    0.0874 C   0  0  0  0  0  0  0  0  0  0  0  0
   -4.0967   -3.0849    0.3045 H   0  0  0  0  0  0  0  0  0  0  0  0
   -3.2497   -4.0080   -0.9617 H   0  0  0  0  0  0  0  0  0  0  0  0
   -1.9507   -2.9266    0.3703 C   0  0  0  0  0  0  0  0  0  0  0  0
   -1.1812   -3.3179    1.2287 O   0  0  0  0  0  0  0  0  0  0  0  0
   -1.6821   -1.7747   -0.3434 N   0  0  0  0  0  0  0  0  0  0  0  0
   -2.3194   -1.5516   -1.1008 H   0  0  0  0  0  0  0  0  0  0  0  0
   -0.4157   -1.0192   -0.2587 C   0  0  1  0  0  0  0  0  0  0  0  0
    0.4113   -1.6851   -0.5324 H   0  0  0  0  0  0  0  0  0  0  0  0
   -0.4558    0.1662   -1.2432 C   0  0  0  0  0  0  0  0  0  0  0  0
   -1.4764    0.5502   -1.3381 H   0  0  0  0  0  0  0  0  0  0  0  0
    0.1544    0.9888   -0.8528 H   0  0  0  0  0  0  0  0  0  0  0  0
    0.0819   -0.2296   -2.5992 C   0  0  0  0  0  0  0  0  0  0  0  0
   -0.6771   -1.0189   -3.4777 C   0  0  0  0  0  0  0  0  0  0  0  0
   -1.6760   -1.3389   -3.2021 H   0  0  0  0  0  0  0  0  0  0  0  0
   -0.1571   -1.3987   -4.7211 C   0  0  0  0  0  0  0  0  0  0  0  0
   -0.7570   -2.0066   -5.3893 H   0  0  0  0  0  0  0  0  0  0  0  0
    1.1268   -0.9981   -5.0972 C   0  0  0  0  0  0  0  0  0  0  0  0
    1.6462   -1.3657   -6.3050 O   0  0  0  0  0  0  0  0  0  0  0  0
    1.0228   -1.9384   -6.7772 H   0  0  0  0  0  0  0  0  0  0  0  0
    1.8872   -0.2188   -4.2279 C   0  0  0  0  0  0  0  0  0  0  0  0
    2.8861    0.0847   -4.5245 H   0  0  0  0  0  0  0  0  0  0  0  0
    1.3730    0.1628   -2.9841 C   0  0  0  0  0  0  0  0  0  0  0  0
    1.9876    0.7605   -2.3162 H   0  0  0  0  0  0  0  0  0  0  0  0
   -0.0928   -0.4908    1.1564 C   0  0  0  0  0  0  0  0  0  0  0  0
    1.0740   -0.3696    1.5053 O   0  0  0  0  0  0  0  0  0  0  0  0
   -1.0830    0.1145    1.9100 N   0  0  0  0  0  0  0  0  0  0  0  0
   -2.0387   -0.0879    1.6363 H   0  0  0  0  0  0  0  0  0  0  0  0
   -0.8371    0.6689    3.2356 C   0  0  0  0  0  0  0  0  0  0  0  0
   -0.0685    1.4478    3.1901 H   0  0  0  0  0  0  0  0  0  0  0  0
   -1.7530    1.1137    3.6356 H   0  0  0  0  0  0  0  0  0  0  0  0
   -0.5028   -0.1163    3.9219 H   0  0  0  0  0  0  0  0  0  0  0  0
  1  2  1  0  0  0  0
  2  3  1  0  0  0  0
  2  4  1  0  0  0  0
  2  5  1  0  0  0  0
  5  6  2  0  0  0  0
  5  7  1  0  0  0  0
  7  8  1  0  0  0  0
  7  9  1  0  0  0  0
  9 10  1  0  0  0  0
  9 11  1  0  0  0  0
  9 26  1  0  0  0  0
 11 12  1  0  0  0  0
 11 13  1  0  0  0  0
 11 14  1  0  0  0  0
 14 15  2  0  0  0  0
 14 24  1  0  0  0  0
 15 16  1  0  0  0  0
 15 17  1  0  0  0  0
 17 18  1  0  0  0  0
 17 19  2  0  0  0  0
 19 20  1  0  0  0  0
 19 22  1  0  0  0  0
 20 21  1  0  0  0  0
 22 23  1  0  0  0  0
 22 24  2  0  0  0  0
 24 25  1  0  0  0  0
 26 27  2  0  0  0  0
 26 28  1  0  0  0  0
 28 29  1  0  0  0  0
 28 30  1  0  0  0  0
 30 31  1  0  0  0  0
 30 32  1  0  0  0  0
 30 33  1  0  0  0  0
M  END
$$$$

  -OEChem-03222214083D

 33 33  0     1  0  0  0  0  0999 V2000
   -3.2425   -4.6105    0.6598 H   0  0  0  0  0  0  0  0  0  0  0  0
   -3.2006   -3.7112    0.0387 C   0  0  0  0  0  0  0  0  0  0  0  0
   -4.0952   -3.1126    0.2261 H   0  0  0  0  0  0  0  0  0  0  0  0
   -3.1828   -4.0116   -1.0116 H   0  0  0  0  0  0  0  0  0  0  0  0
   -1.9576   -2.9067    0.3697 C   0  0  0  0  0  0  0  0  0  0  0  0
   -1.2244   -3.2710    1.2706 O   0  0  0  0  0  0  0  0  0  0  0  0
   -1.6797   -1.7578   -0.3452 N   0  0  0  0  0  0  0  0  0  0  0  0
   -2.2641   -1.5869   -1.1570 H   0  0  0  0  0  0  0  0  0  0  0  0
   -0.4088   -1.0117   -0.2511 C   0  0  1  0  0  0  0  0  0  0  0  0
    0.4158   -1.6813   -0.5218 H   0  0  0  0  0  0  0  0  0  0  0  0
   -0.4462    0.1764   -1.2314 C   0  0  0  0  0  0  0  0  0  0  0  0
   -1.4639    0.5694   -1.3209 H   0  0  0  0  0  0  0  0  0  0  0  0
    0.1748    0.9939   -0.8468 H   0  0  0  0  0  0  0  0  0  0  0  0
    0.0912   -0.2278   -2.5828 C   0  0  0  0  0  0  0  0  0  0  0  0
   -0.7609   -0.7396   -3.5734 C   0  0  0  0  0  0  0  0  0  0  0  0
   -1.8255   -0.8322   -3.3848 H   0  0  0  0  0  0  0  0  0  0  0  0
   -0.2478   -1.1286   -4.8169 C   0  0  0  0  0  0  0  0  0  0  0  0
   -0.9184   -1.5187   -5.5746 H   0  0  0  0  0  0  0  0  0  0  0  0
    1.1194   -1.0138   -5.0795 C   0  0  0  0  0  0  0  0  0  0  0  0
    1.6315   -1.3898   -6.2875 O   0  0  0  0  0  0  0  0  0  0  0  0
    0.9259   -1.7255   -6.8608 H   0  0  0  0  0  0  0  0  0  0  0  0
    1.9700   -0.5114   -4.0970 C   0  0  0  0  0  0  0  0  0  0  0  0
    3.0316   -0.4286   -4.3064 H   0  0  0  0  0  0  0  0  0  0  0  0
    1.4636   -0.1213   -2.8529 C   0  0  0  0  0  0  0  0  0  0  0  0
    2.1432    0.2596   -2.0948 H   0  0  0  0  0  0  0  0  0  0  0  0
   -0.0891   -0.4829    1.1642 C   0  0  0  0  0  0  0  0  0  0  0  0
    1.0779   -0.3682    1.5157 O   0  0  0  0  0  0  0  0  0  0  0  0
   -1.0782    0.1317    1.9115 N   0  0  0  0  0  0  0  0  0  0  0  0
   -2.0332   -0.0766    1.6397 H   0  0  0  0  0  0  0  0  0  0  0  0
   -0.8349    0.6771    3.2410 C   0  0  0  0  0  0  0  0  0  0  0  0
   -0.0569    1.4470    3.2042 H   0  0  0  0  0  0  0  0  0  0  0  0
   -1.7482    1.1310    3.6372 H   0  0  0  0  0  0  0  0  0  0  0  0
   -0.5145   -0.1155    3.9253 H   0  0  0  0  0  0  0  0  0  0  0  0
  1  2  1  0  0  0  0
  2  3  1  0  0  0  0
  2  4  1  0  0  0  0
  2  5  1  0  0  0  0
  5  6  2  0  0  0  0
  5  7  1  0  0  0  0
  7  8  1  0  0  0  0
  7  9  1  0  0  0  0
  9 10  1  0  0  0  0
  9 11  1  0  0  0  0
  9 26  1  0  0  0  0
 11 12  1  0  0  0  0
 11 13  1  0  0  0  0
 11 14  1  0  0  0  0
 14 15  2  0  0  0  0
 14 24  1  0  0  0  0
 15 16  1  0  0  0  0
 15 17  1  0  0  0  0
 17 18  1  0  0  0  0
 17 19  2  0  0  0  0
 19 20  1  0  0  0  0
 19 22  1  0  0  0  0
 20 21  1  0  0  0  0
 22 23  1  0  0  0  0
 22 24  2  0  0  0  0
 24 25  1  0  0  0  0
 26 27  2  0  0  0  0
 26 28  1  0  0  0  0
 28 29  1  0  0  0  0
 28 30  1  0  0  0  0
 30 31  1  0  0  0  0
 30 32  1  0  0  0  0
 30 33  1  0  0  0  0
M  END
$$$$

  -OEChem-03222214083D

 33 33  0     1  0  0  0  0  0999 V2000
   -3.2472   -4.6194    0.6354 H   0  0  0  0  0  0  0  0  0  0  0  0
   -3.2010   -3.7183    0.0167 C   0  0  0  0  0  0  0  0  0  0  0  0
   -4.1079   -3.1315    0.1808 H   0  0  0  0  0  0  0  0  0  0  0  0
   -3.1519   -4.0164   -1.0334 H   0  0  0  0  0  0  0  0  0  0  0  0
   -1.9784   -2.8970    0.3814 C   0  0  0  0  0  0  0  0  0  0  0  0
   -1.2727   -3.2442    1.3109 O   0  0  0  0  0  0  0  0  0  0  0  0
   -1.6858   -1.7546   -0.3382 N   0  0  0  0  0  0  0  0  0  0  0  0
   -2.2362   -1.6115   -1.1792 H   0  0  0  0  0  0  0  0  0  0  0  0
   -0.4084   -1.0215   -0.2367 C   0  0  1  0  0  0  0  0  0  0  0  0
    0.4099   -1.7023   -0.4977 H   0  0  0  0  0  0  0  0  0  0  0  0
   -0.4363    0.1624   -1.2236 C   0  0  0  0  0  0  0  0  0  0  0  0
   -1.4504    0.5650   -1.3108 H   0  0  0  0  0  0  0  0  0  0  0  0
    0.1946    0.9749   -0.8450 H   0  0  0  0  0  0  0  0  0  0  0  0
    0.1022   -0.2470   -2.5728 C   0  0  0  0  0  0  0  0  0  0  0  0
   -0.7614   -0.4581   -3.6584 C   0  0  0  0  0  0  0  0  0  0  0  0
   -1.8318   -0.3212   -3.5408 H   0  0  0  0  0  0  0  0  0  0  0  0
   -0.2507   -0.8407   -4.9050 C   0  0  0  0  0  0  0  0  0  0  0  0
   -0.9297   -0.9996   -5.7355 H   0  0  0  0  0  0  0  0  0  0  0  0
    1.1247   -1.0137   -5.0777 C   0  0  0  0  0  0  0  0  0  0  0  0
    1.6336   -1.3843   -6.2889 O   0  0  0  0  0  0  0  0  0  0  0  0
    0.9205   -1.4701   -6.9398 H   0  0  0  0  0  0  0  0  0  0  0  0
    1.9865   -0.8029   -4.0029 C   0  0  0  0  0  0  0  0  0  0  0  0
    3.0541   -0.9384   -4.1441 H   0  0  0  0  0  0  0  0  0  0  0  0
    1.4824   -0.4201   -2.7555 C   0  0  0  0  0  0  0  0  0  0  0  0
    2.1671   -0.2597   -1.9261 H   0  0  0  0  0  0  0  0  0  0  0  0
   -0.0885   -0.4864    1.1763 C   0  0  0  0  0  0  0  0  0  0  0  0
    1.0792   -0.3832    1.5293 O   0  0  0  0  0  0  0  0  0  0  0  0
   -1.0722    0.1450    1.9164 N   0  0  0  0  0  0  0  0  0  0  0  0
   -2.0283   -0.0602    1.6461 H   0  0  0  0  0  0  0  0  0  0  0  0
   -0.8252    0.6945    3.2436 C   0  0  0  0  0  0  0  0  0  0  0  0
   -0.0392    1.4561    3.2039 H   0  0  0  0  0  0  0  0  0  0  0  0
   -1.7342    1.1603    3.6357 H   0  0  0  0  0  0  0  0  0  0  0  0
   -0.5141   -0.0977    3.9329 H   0  0  0  0  0  0  0  0  0  0  0  0
  1  2  1  0  0  0  0
  2  3  1  0  0  0  0
  2  4  1  0  0  0  0
  2  5  1  0  0  0  0
  5  6  2  0  0  0  0
  5  7  1  0  0  0  0
  7  8  1  0  0  0  0
  7  9  1  0  0  0  0
  9 10  1  0  0  0  0
  9 11  1  0  0  0  0
  9 26  1  0  0  0  0
 11 12  1  0  0  0  0
 11 13  1  0  0  0  0
 11 14  1  0  0  0  0
 14 15  2  0  0  0  0
 14 24  1  0  0  0  0
 15 16  1  0  0  0  0
 15 17  1  0  0  0  0
 17 18  1  0  0  0  0
 17 19  2  0  0  0  0
 19 20  1  0  0  0  0
 19 22  1  0  0  0  0
 20 21  1  0  0  0  0
 22 23  1  0  0  0  0
 22 24  2  0  0  0  0
 24 25  1  0  0  0  0
 26 27  2  0  0  0  0
 26 28  1  0  0  0  0
 28 29  1  0  0  0  0
 28 30  1  0  0  0  0
 30 31  1  0  0  0  0
 30 32  1  0  0  0  0
 30 33  1  0  0  0  0
M  END
$$$$

  -OEChem-03222214083D

 33 33  0     1  0  0  0  0  0999 V2000
   -3.2870   -4.6064    0.6721 H   0  0  0  0  0  0  0  0  0  0  0  0
   -3.2264   -3.7133    0.0433 C   0  0  0  0  0  0  0  0  0  0  0  0
   -4.1287   -3.1156    0.1926 H   0  0  0  0  0  0  0  0  0  0  0  0
   -3.1709   -4.0241   -1.0027 H   0  0  0  0  0  0  0  0  0  0  0  0
   -1.9994   -2.8996    0.4088 C   0  0  0  0  0  0  0  0  0  0  0  0
   -1.3053   -3.2422    1.3488 O   0  0  0  0  0  0  0  0  0  0  0  0
   -1.6883   -1.7701   -0.3232 N   0  0  0  0  0  0  0  0  0  0  0  0
   -2.2254   -1.6361   -1.1748 H   0  0  0  0  0  0  0  0  0  0  0  0
   -0.4035   -1.0513   -0.2183 C   0  0  1  0  0  0  0  0  0  0  0  0
    0.4061   -1.7483   -0.4589 H   0  0  0  0  0  0  0  0  0  0  0  0
   -0.4164    0.1217   -1.2207 C   0  0  0  0  0  0  0  0  0  0  0  0
   -1.4268    0.5338   -1.3077 H   0  0  0  0  0  0  0  0  0  0  0  0
    0.2230    0.9296   -0.8467 H   0  0  0  0  0  0  0  0  0  0  0  0
    0.1228   -0.2874   -2.5718 C   0  0  0  0  0  0  0  0  0  0  0  0
   -0.6817   -0.1902   -3.7174 C   0  0  0  0  0  0  0  0  0  0  0  0
   -1.7050    0.1642   -3.6388 H   0  0  0  0  0  0  0  0  0  0  0  0
   -0.1745   -0.5447   -4.9735 C   0  0  0  0  0  0  0  0  0  0  0  0
   -0.8110   -0.4668   -5.8482 H   0  0  0  0  0  0  0  0  0  0  0  0
    1.1435   -0.9893   -5.0987 C   0  0  0  0  0  0  0  0  0  0  0  0
    1.6490   -1.3353   -6.3184 O   0  0  0  0  0  0  0  0  0  0  0  0
    0.9834   -1.1937   -7.0087 H   0  0  0  0  0  0  0  0  0  0  0  0
    1.9531   -1.0719   -3.9678 C   0  0  0  0  0  0  0  0  0  0  0  0
    2.9795   -1.4087   -4.0740 H   0  0  0  0  0  0  0  0  0  0  0  0
    1.4521   -0.7180   -2.7107 C   0  0  0  0  0  0  0  0  0  0  0  0
    2.1037   -0.7764   -1.8421 H   0  0  0  0  0  0  0  0  0  0  0  0
   -0.0913   -0.5023    1.1905 C   0  0  0  0  0  0  0  0  0  0  0  0
    1.0736   -0.4143    1.5562 O   0  0  0  0  0  0  0  0  0  0  0  0
   -1.0746    0.1499    1.9124 N   0  0  0  0  0  0  0  0  0  0  0  0
   -2.0305   -0.0404    1.6299 H   0  0  0  0  0  0  0  0  0  0  0  0
   -0.8360    0.7097    3.2367 C   0  0  0  0  0  0  0  0  0  0  0  0
   -0.0388    1.4596    3.1985 H   0  0  0  0  0  0  0  0  0  0  0  0
   -1.7433    1.1920    3.6123 H   0  0  0  0  0  0  0  0  0  0  0  0
   -0.5438   -0.0790    3.9381 H   0  0  0  0  0  0  0  0  0  0  0  0
  1  2  1  0  0  0  0
  2  3  1  0  0  0  0
  2  4  1  0  0  0  0
  2  5  1  0  0  0  0
  5  6  2  0  0  0  0
  5  7  1  0  0  0  0
  7  8  1  0  0  0  0
  7  9  1  0  0  0  0
  9 10  1  0  0  0  0
  9 11  1  0  0  0  0
  9 26  1  0  0  0  0
 11 12  1  0  0  0  0
 11 13  1  0  0  0  0
 11 14  1  0  0  0  0
 14 15  2  0  0  0  0
 14 24  1  0  0  0  0
 15 16  1  0  0  0  0
 15 17  1  0  0  0  0
 17 18  1  0  0  0  0
 17 19  2  0  0  0  0
 19 20  1  0  0  0  0
 19 22  1  0  0  0  0
 20 21  1  0  0  0  0
 22 23  1  0  0  0  0
 22 24  2  0  0  0  0
 24 25  1  0  0  0  0
 26 27  2  0  0  0  0
 26 28  1  0  0  0  0
 28 29  1  0  0  0  0
 28 30  1  0  0  0  0
 30 31  1  0  0  0  0
 30 32  1  0  0  0  0
 30 33  1  0  0  0  0
M  END
$$$$

  -OEChem-03222214083D

 33 33  0     1  0  0  0  0  0999 V2000
   -3.3484   -4.5839    0.7419 H   0  0  0  0  0  0  0  0  0  0  0  0
   -3.2641   -3.7076    0.0926 C   0  0  0  0  0  0  0  0  0  0  0  0
   -4.1552   -3.0884    0.2190 H   0  0  0  0  0  0  0  0  0  0  0  0
   -3.2057   -4.0450   -0.9449 H   0  0  0  0  0  0  0  0  0  0  0  0
   -2.0236   -2.9106    0.4504 C   0  0  0  0  0  0  0  0  0  0  0  0
   -1.3409   -3.2489    1.4003 O   0  0  0  0  0  0  0  0  0  0  0  0
   -1.6863   -1.8010   -0.3004 N   0  0  0  0  0  0  0  0  0  0  0  0
   -2.2156   -1.6713   -1.1579 H   0  0  0  0  0  0  0  0  0  0  0  0
   -0.3937   -1.0962   -0.1939 C   0  0  1  0  0  0  0  0  0  0  0  0
    0.4082   -1.8094   -0.4034 H   0  0  0  0  0  0  0  0  0  0  0  0
   -0.3895    0.0604   -1.2190 C   0  0  0  0  0  0  0  0  0  0  0  0
   -1.3971    0.4795   -1.3071 H   0  0  0  0  0  0  0  0  0  0  0  0
    0.2548    0.8656   -0.8478 H   0  0  0  0  0  0  0  0  0  0  0  0
    0.1497   -0.3352   -2.5786 C   0  0  0  0  0  0  0  0  0  0  0  0
   -0.5327    0.0648   -3.7390 C   0  0  0  0  0  0  0  0  0  0  0  0
   -1.4602    0.6244   -3.6618 H   0  0  0  0  0  0  0  0  0  0  0  0
   -0.0329   -0.2522   -5.0078 C   0  0  0  0  0  0  0  0  0  0  0  0
   -0.5816    0.0565   -5.8910 H   0  0  0  0  0  0  0  0  0  0  0  0
    1.1672   -0.9541   -5.1338 C   0  0  0  0  0  0  0  0  0  0  0  0
    1.6656   -1.2689   -6.3649 O   0  0  0  0  0  0  0  0  0  0  0  0
    1.0878   -0.9180   -7.0597 H   0  0  0  0  0  0  0  0  0  0  0  0
    1.8701   -1.3239   -3.9900 C   0  0  0  0  0  0  0  0  0  0  0  0
    2.8126   -1.8516   -4.0956 H   0  0  0  0  0  0  0  0  0  0  0  0
    1.3762   -1.0081   -2.7200 C   0  0  0  0  0  0  0  0  0  0  0  0
    1.9660   -1.2807   -1.8491 H   0  0  0  0  0  0  0  0  0  0  0  0
   -0.0976   -0.5226    1.2091 C   0  0  0  0  0  0  0  0  0  0  0  0
    1.0611   -0.4481    1.5965 O   0  0  0  0  0  0  0  0  0  0  0  0
   -1.0844    0.1558    1.9018 N   0  0  0  0  0  0  0  0  0  0  0  0
   -2.0376   -0.0238    1.6039 H   0  0  0  0  0  0  0  0  0  0  0  0
   -0.8619    0.7363    3.2200 C   0  0  0  0  0  0  0  0  0  0  0  0
   -0.0540    1.4748    3.1836 H   0  0  0  0  0  0  0  0  0  0  0  0
   -1.7692    1.2375    3.5699 H   0  0  0  0  0  0  0  0  0  0  0  0
   -0.5939   -0.0437    3.9404 H   0  0  0  0  0  0  0  0  0  0  0  0
  1  2  1  0  0  0  0
  2  3  1  0  0  0  0
  2  4  1  0  0  0  0
  2  5  1  0  0  0  0
  5  6  2  0  0  0  0
  5  7  1  0  0  0  0
  7  8  1  0  0  0  0
  7  9  1  0  0  0  0
  9 10  1  0  0  0  0
  9 11  1  0  0  0  0
  9 26  1  0  0  0  0
 11 12  1  0  0  0  0
 11 13  1  0  0  0  0
 11 14  1  0  0  0  0
 14 15  2  0  0  0  0
 14 24  1  0  0  0  0
 15 16  1  0  0  0  0
 15 17  1  0  0  0  0
 17 18  1  0  0  0  0
 17 19  2  0  0  0  0
 19 20  1  0  0  0  0
 19 22  1  0  0  0  0
 20 21  1  0  0  0  0
 22 23  1  0  0  0  0
 22 24  2  0  0  0  0
 24 25  1  0  0  0  0
 26 27  2  0  0  0  0
 26 28  1  0  0  0  0
 28 29  1  0  0  0  0
 28 30  1  0  0  0  0
 30 31  1  0  0  0  0
 30 32  1  0  0  0  0
 30 33  1  0  0  0  0
M  END
$$$$

  -OEChem-03222214083D

 33 33  0     1  0  0  0  0  0999 V2000
   -3.4032   -4.5599    0.8212 H   0  0  0  0  0  0  0  0  0  0  0  0
   -3.2930   -3.7057    0.1470 C   0  0  0  0  0  0  0  0  0  0  0  0
   -4.1759   -3.0686    0.2389 H   0  0  0  0  0  0  0  0  0  0  0  0
   -3.2228   -4.0754   -0.8789 H   0  0  0  0  0  0  0  0  0  0  0  0
   -2.0453   -2.9188    0.5022 C   0  0  0  0  0  0  0  0  0  0  0  0
   -1.3822   -3.2420    1.4710 O   0  0  0  0  0  0  0  0  0  0  0  0
   -1.6787   -1.8360   -0.2735 N   0  0  0  0  0  0  0  0  0  0  0  0
   -2.1921   -1.7226   -1.1431 H   0  0  0  0  0  0  0  0  0  0  0  0
   -0.3793   -1.1439   -0.1645 C   0  0  1  0  0  0  0  0  0  0  0  0
    0.4194   -1.8687   -0.3314 H   0  0  0  0  0  0  0  0  0  0  0  0
   -0.3547   -0.0091   -1.2160 C   0  0  0  0  0  0  0  0  0  0  0  0
   -1.3596    0.4152   -1.3113 H   0  0  0  0  0  0  0  0  0  0  0  0
    0.2916    0.7949   -0.8458 H   0  0  0  0  0  0  0  0  0  0  0  0
    0.1865   -0.3867   -2.5846 C   0  0  0  0  0  0  0  0  0  0  0  0
   -0.3161    0.2923   -3.7072 C   0  0  0  0  0  0  0  0  0  0  0  0
   -1.0954    1.0392   -3.5866 H   0  0  0  0  0  0  0  0  0  0  0  0
    0.1683    0.0203   -4.9919 C   0  0  0  0  0  0  0  0  0  0  0  0
   -0.2453    0.5505   -5.8428 H   0  0  0  0  0  0  0  0  0  0  0  0
    1.1819   -0.9202   -5.1735 C   0  0  0  0  0  0  0  0  0  0  0  0
    1.6644   -1.1948   -6.4205 O   0  0  0  0  0  0  0  0  0  0  0  0
    1.2232   -0.6379   -7.0799 H   0  0  0  0  0  0  0  0  0  0  0  0
    1.7181   -1.5720   -4.0667 C   0  0  0  0  0  0  0  0  0  0  0  0
    2.5239   -2.2842   -4.2135 H   0  0  0  0  0  0  0  0  0  0  0  0
    1.2394   -1.3020   -2.7798 C   0  0  0  0  0  0  0  0  0  0  0  0
    1.7217   -1.8052   -1.9485 H   0  0  0  0  0  0  0  0  0  0  0  0
   -0.1078   -0.5351    1.2294 C   0  0  0  0  0  0  0  0  0  0  0  0
    1.0424   -0.4653    1.6421 O   0  0  0  0  0  0  0  0  0  0  0  0
   -1.1018    0.1724    1.8820 N   0  0  0  0  0  0  0  0  0  0  0  0
   -2.0504   -0.0072    1.5698 H   0  0  0  0  0  0  0  0  0  0  0  0
   -0.9013    0.7815    3.1909 C   0  0  0  0  0  0  0  0  0  0  0  0
   -0.0882    1.5142    3.1528 H   0  0  0  0  0  0  0  0  0  0  0  0
   -1.8118    1.2954    3.5132 H   0  0  0  0  0  0  0  0  0  0  0  0
   -0.6515    0.0166    3.9338 H   0  0  0  0  0  0  0  0  0  0  0  0
  1  2  1  0  0  0  0
  2  3  1  0  0  0  0
  2  4  1  0  0  0  0
  2  5  1  0  0  0  0
  5  6  2  0  0  0  0
  5  7  1  0  0  0  0
  7  8  1  0  0  0  0
  7  9  1  0  0  0  0
  9 10  1  0  0  0  0
  9 11  1  0  0  0  0
  9 26  1  0  0  0  0
 11 12  1  0  0  0  0
 11 13  1  0  0  0  0
 11 14  1  0  0  0  0
 14 15  2  0  0  0  0
 14 24  1  0  0  0  0
 15 16  1  0  0  0  0
 15 17  1  0  0  0  0
 17 18  1  0  0  0  0
 17 19  2  0  0  0  0
 19 20  1  0  0  0  0
 19 22  1  0  0  0  0
 20 21  1  0  0  0  0
 22 23  1  0  0  0  0
 22 24  2  0  0  0  0
 24 25  1  0  0  0  0
 26 27  2  0  0  0  0
 26 28  1  0  0  0  0
 28 29  1  0  0  0  0
 28 30  1  0  0  0  0
 30 31  1  0  0  0  0
 30 32  1  0  0  0  0
 30 33  1  0  0  0  0
M  END
$$$$

  -OEChem-03222214083D

 33 33  0     1  0  0  0  0  0999 V2000
   -3.3936   -4.5618    0.8721 H   0  0  0  0  0  0  0  0  0  0  0  0
   -3.2888   -3.7050    0.2001 C   0  0  0  0  0  0  0  0  0  0  0  0
   -4.1639   -3.0607    0.3125 H   0  0  0  0  0  0  0  0  0  0  0  0
   -3.2418   -4.0708   -0.8285 H   0  0  0  0  0  0  0  0  0  0  0  0
   -2.0276   -2.9308    0.5355 C   0  0  0  0  0  0  0  0  0  0  0  0
   -1.3592   -3.2548    1.5002 O   0  0  0  0  0  0  0  0  0  0  0  0
   -1.6489   -1.8639   -0.2567 N   0  0  0  0  0  0  0  0  0  0  0  0
   -2.1712   -1.7432   -1.1202 H   0  0  0  0  0  0  0  0  0  0  0  0
   -0.3513   -1.1677   -0.1464 C   0  0  1  0  0  0  0  0  0  0  0  0
    0.4621   -1.8823   -0.2797 H   0  0  0  0  0  0  0  0  0  0  0  0
   -0.3159   -0.0463   -1.2116 C   0  0  0  0  0  0  0  0  0  0  0  0
   -1.3204    0.3764   -1.3184 H   0  0  0  0  0  0  0  0  0  0  0  0
    0.3256    0.7595   -0.8368 H   0  0  0  0  0  0  0  0  0  0  0  0
    0.2322   -0.4068   -2.5848 C   0  0  0  0  0  0  0  0  0  0  0  0
   -0.0271    0.4898   -3.6355 C   0  0  0  0  0  0  0  0  0  0  0  0
   -0.5963    1.3953   -3.4456 H   0  0  0  0  0  0  0  0  0  0  0  0
    0.4364    0.2411   -4.9324 C   0  0  0  0  0  0  0  0  0  0  0  0
    0.2176    0.9507   -5.7232 H   0  0  0  0  0  0  0  0  0  0  0  0
    1.1766   -0.9095   -5.2017 C   0  0  0  0  0  0  0  0  0  0  0  0
    1.6352   -1.1663   -6.4612 O   0  0  0  0  0  0  0  0  0  0  0  0
    1.4052   -0.4358   -7.0556 H   0  0  0  0  0  0  0  0  0  0  0  0
    1.4537   -1.8022   -4.1706 C   0  0  0  0  0  0  0  0  0  0  0  0
    2.0384   -2.6909   -4.3858 H   0  0  0  0  0  0  0  0  0  0  0  0
    0.9941   -1.5584   -2.8714 C   0  0  0  0  0  0  0  0  0  0  0  0
    1.2576   -2.2875   -2.1143 H   0  0  0  0  0  0  0  0  0  0  0  0
   -0.1117   -0.5334    1.2431 C   0  0  0  0  0  0  0  0  0  0  0  0
    1.0276   -0.4521    1.6830 O   0  0  0  0  0  0  0  0  0  0  0  0
   -1.1228    0.1811    1.8617 N   0  0  0  0  0  0  0  0  0  0  0  0
   -2.0629    0.0031    1.5242 H   0  0  0  0  0  0  0  0  0  0  0  0
   -0.9562    0.8169    3.1628 C   0  0  0  0  0  0  0  0  0  0  0  0
   -0.1404    1.5468    3.1315 H   0  0  0  0  0  0  0  0  0  0  0  0
   -1.8735    1.3401    3.4490 H   0  0  0  0  0  0  0  0  0  0  0  0
   -0.7291    0.0673    3.9282 H   0  0  0  0  0  0  0  0  0  0  0  0
  1  2  1  0  0  0  0
  2  3  1  0  0  0  0
  2  4  1  0  0  0  0
  2  5  1  0  0  0  0
  5  6  2  0  0  0  0
  5  7  1  0  0  0  0
  7  8  1  0  0  0  0
  7  9  1  0  0  0  0
  9 10  1  0  0  0  0
  9 11  1  0  0  0  0
  9 26  1  0  0  0  0
 11 12  1  0  0  0  0
 11 13  1  0  0  0  0
 11 14  1  0  0  0  0
 14 15  2  0  0  0  0
 14 24  1  0  0  0  0
 15 16  1  0  0  0  0
 15 17  1  0  0  0  0
 17 18  1  0  0  0  0
 17 19  2  0  0  0  0
 19 20  1  0  0  0  0
 19 22  1  0  0  0  0
 20 21  1  0  0  0  0
 22 23  1  0  0  0  0
 22 24  2  0  0  0  0
 24 25  1  0  0  0  0
 26 27  2  0  0  0  0
 26 28  1  0  0  0  0
 28 29  1  0  0  0  0
 28 30  1  0  0  0  0
 30 31  1  0  0  0  0
 30 32  1  0  0  0  0
 30 33  1  0  0  0  0
M  END
$$$$

  -OEChem-03222214083D

 33 33  0     1  0  0  0  0  0999 V2000
   -3.3469   -4.5913    0.8785 H   0  0  0  0  0  0  0  0  0  0  0  0
   -3.2672   -3.7245    0.2162 C   0  0  0  0  0  0  0  0  0  0  0  0
   -4.1422   -3.0873    0.3638 H   0  0  0  0  0  0  0  0  0  0  0  0
   -3.2492   -4.0748   -0.8188 H   0  0  0  0  0  0  0  0  0  0  0  0
   -2.0008   -2.9478    0.5250 C   0  0  0  0  0  0  0  0  0  0  0  0
   -1.2956   -3.2858    1.4581 O   0  0  0  0  0  0  0  0  0  0  0  0
   -1.6540   -1.8649   -0.2591 N   0  0  0  0  0  0  0  0  0  0  0  0
   -2.2167   -1.7116   -1.0919 H   0  0  0  0  0  0  0  0  0  0  0  0
   -0.3685   -1.1440   -0.1648 C   0  0  1  0  0  0  0  0  0  0  0  0
    0.4610   -1.8358   -0.3440 H   0  0  0  0  0  0  0  0  0  0  0  0
   -0.3602   -0.0261   -1.2249 C   0  0  0  0  0  0  0  0  0  0  0  0
   -1.2933    0.5425   -1.1548 H   0  0  0  0  0  0  0  0  0  0  0  0
    0.4567    0.6637   -0.9837 H   0  0  0  0  0  0  0  0  0  0  0  0
   -0.1532   -0.4729   -2.6632 C   0  0  0  0  0  0  0  0  0  0  0  0
   -0.1395    0.5179   -3.6577 C   0  0  0  0  0  0  0  0  0  0  0  0
   -0.2623    1.5612   -3.3813 H   0  0  0  0  0  0  0  0  0  0  0  0
    0.0338    0.1847   -5.0060 C   0  0  0  0  0  0  0  0  0  0  0  0
    0.0427    0.9706   -5.7533 H   0  0  0  0  0  0  0  0  0  0  0  0
    0.1949   -1.1486   -5.3827 C   0  0  0  0  0  0  0  0  0  0  0  0
    0.3647   -1.4877   -6.6938 O   0  0  0  0  0  0  0  0  0  0  0  0
    0.4093   -0.6890   -7.2417 H   0  0  0  0  0  0  0  0  0  0  0  0
    0.1847   -2.1427   -4.4082 C   0  0  0  0  0  0  0  0  0  0  0  0
    0.3160   -3.1770   -4.7096 H   0  0  0  0  0  0  0  0  0  0  0  0
    0.0138   -1.8156   -3.0584 C   0  0  0  0  0  0  0  0  0  0  0  0
    0.0174   -2.6281   -2.3394 H   0  0  0  0  0  0  0  0  0  0  0  0
   -0.1045   -0.5161    1.2218 C   0  0  0  0  0  0  0  0  0  0  0  0
    1.0442   -0.4135    1.6311 O   0  0  0  0  0  0  0  0  0  0  0  0
   -1.1121    0.1758    1.8707 N   0  0  0  0  0  0  0  0  0  0  0  0
   -2.0575   -0.0154    1.5558 H   0  0  0  0  0  0  0  0  0  0  0  0
   -0.9230    0.8093    3.1699 C   0  0  0  0  0  0  0  0  0  0  0  0
   -0.1207    1.5532    3.1212 H   0  0  0  0  0  0  0  0  0  0  0  0
   -1.8418    1.3152    3.4816 H   0  0  0  0  0  0  0  0  0  0  0  0
   -0.6637    0.0608    3.9263 H   0  0  0  0  0  0  0  0  0  0  0  0
  1  2  1  0  0  0  0
  2  3  1  0  0  0  0
  2  4  1  0  0  0  0
  2  5  1  0  0  0  0
  5  6  2  0  0  0  0
  5  7  1  0  0  0  0
  7  8  1  0  0  0  0
  7  9  1  0  0  0  0
  9 10  1  0  0  0  0
  9 11  1  0  0  0  0
  9 26  1  0  0  0  0
 11 12  1  0  0  0  0
 11 13  1  0  0  0  0
 11 14  1  0  0  0  0
 14 15  2  0  0  0  0
 14 24  1  0  0  0  0
 15 16  1  0  0  0  0
 15 17  1  0  0  0  0
 17 18  1  0  0  0  0
 17 19  2  0  0  0  0
 19 20  1  0  0  0  0
 19 22  1  0  0  0  0
 20 21  1  0  0  0  0
 22 23  1  0  0  0  0
 22 24  2  0  0  0  0
 24 25  1  0  0  0  0
 26 27  2  0  0  0  0
 26 28  1  0  0  0  0
 28 29  1  0  0  0  0
 28 30  1  0  0  0  0
 30 31  1  0  0  0  0
 30 32  1  0  0  0  0
 30 33  1  0  0  0  0
M  END
$$$$

  -OEChem-03222214083D

 33 33  0     1  0  0  0  0  0999 V2000
   -3.3719   -4.5745    0.9274 H   0  0  0  0  0  0  0  0  0  0  0  0
   -3.2983   -3.7093    0.2623 C   0  0  0  0  0  0  0  0  0  0  0  0
   -4.1574   -3.0575    0.4372 H   0  0  0  0  0  0  0  0  0  0  0  0
   -3.3192   -4.0594   -0.7725 H   0  0  0  0  0  0  0  0  0  0  0  0
   -2.0102   -2.9539    0.5304 C   0  0  0  0  0  0  0  0  0  0  0  0
   -1.2751   -3.3098    1.4330 O   0  0  0  0  0  0  0  0  0  0  0  0
   -1.6806   -1.8651   -0.2527 N   0  0  0  0  0  0  0  0  0  0  0  0
   -2.2821   -1.6791   -1.0508 H   0  0  0  0  0  0  0  0  0  0  0  0
   -0.3954   -1.1396   -0.1788 C   0  0  1  0  0  0  0  0  0  0  0  0
    0.4266   -1.8355   -0.3815 H   0  0  0  0  0  0  0  0  0  0  0  0
   -0.3882   -0.0244   -1.2417 C   0  0  0  0  0  0  0  0  0  0  0  0
   -1.3201    0.5456   -1.1728 H   0  0  0  0  0  0  0  0  0  0  0  0
    0.4291    0.6647   -0.9995 H   0  0  0  0  0  0  0  0  0  0  0  0
   -0.1871   -0.4742   -2.6805 C   0  0  0  0  0  0  0  0  0  0  0  0
    0.1448    0.5047   -3.6312 C   0  0  0  0  0  0  0  0  0  0  0  0
    0.2457    1.5425   -3.3260 H   0  0  0  0  0  0  0  0  0  0  0  0
    0.3471    0.1673   -4.9745 C   0  0  0  0  0  0  0  0  0  0  0  0
    0.5996    0.9444   -5.6877 H   0  0  0  0  0  0  0  0  0  0  0  0
    0.2276   -1.1589   -5.3891 C   0  0  0  0  0  0  0  0  0  0  0  0
    0.4226   -1.5018   -6.6957 O   0  0  0  0  0  0  0  0  0  0  0  0
    0.6807   -0.7216   -7.2104 H   0  0  0  0  0  0  0  0  0  0  0  0
   -0.0881   -2.1431   -4.4568 C   0  0  0  0  0  0  0  0  0  0  0  0
   -0.1657   -3.1741   -4.7862 H   0  0  0  0  0  0  0  0  0  0  0  0
   -0.2911   -1.8117   -3.1126 C   0  0  0  0  0  0  0  0  0  0  0  0
   -0.5146   -2.6195   -2.4248 H   0  0  0  0  0  0  0  0  0  0  0  0
   -0.1061   -0.5192    1.2056 C   0  0  0  0  0  0  0  0  0  0  0  0
    1.0501   -0.4148    1.5928 O   0  0  0  0  0  0  0  0  0  0  0  0
   -1.1035    0.1651    1.8778 N   0  0  0  0  0  0  0  0  0  0  0  0
   -2.0538   -0.0277    1.5795 H   0  0  0  0  0  0  0  0  0  0  0  0
   -0.8924    0.7882    3.1785 C   0  0  0  0  0  0  0  0  0  0  0  0
   -0.0941    1.5355    3.1214 H   0  0  0  0  0  0  0  0  0  0  0  0
   -1.8068    1.2881    3.5118 H   0  0  0  0  0  0  0  0  0  0  0  0
   -0.6162    0.0340    3.9229 H   0  0  0  0  0  0  0  0  0  0  0  0
  1  2  1  0  0  0  0
  2  3  1  0  0  0  0
  2  4  1  0  0  0  0
  2  5  1  0  0  0  0
  5  6  2  0  0  0  0
  5  7  1  0  0  0  0
  7  8  1  0  0  0  0
  7  9  1  0  0  0  0
  9 10  1  0  0  0  0
  9 11  1  0  0  0  0
  9 26  1  0  0  0  0
 11 12  1  0  0  0  0
 11 13  1  0  0  0  0
 11 14  1  0  0  0  0
 14 15  2  0  0  0  0
 14 24  1  0  0  0  0
 15 16  1  0  0  0  0
 15 17  1  0  0  0  0
 17 18  1  0  0  0  0
 17 19  2  0  0  0  0
 19 20  1  0  0  0  0
 19 22  1  0  0  0  0
 20 21  1  0  0  0  0
 22 23  1  0  0  0  0
 22 24  2  0  0  0  0
 24 25  1  0  0  0  0
 26 27  2  0  0  0  0
 26 28  1  0  0  0  0
 28 29  1  0  0  0  0
 28 30  1  0  0  0  0
 30 31  1  0  0  0  0
 30 32  1  0  0  0  0
 30 33  1  0  0  0  0
M  END
$$$$

  -OEChem-03222214083D

 33 33  0     1  0  0  0  0  0999 V2000
   -3.3756   -4.5657    0.9837 H   0  0  0  0  0  0  0  0  0  0  0  0
   -3.3135   -3.7022    0.3153 C   0  0  0  0  0  0  0  0  0  0  0  0
   -4.1572   -3.0386    0.5185 H   0  0  0  0  0  0  0  0  0  0  0  0
   -3.3742   -4.0535   -0.7175 H   0  0  0  0  0  0  0  0  0  0  0  0
   -2.0070   -2.9644    0.5382 C   0  0  0  0  0  0  0  0  0  0  0  0
   -1.2413   -3.3359    1.4085 O   0  0  0  0  0  0  0  0  0  0  0  0
   -1.6986   -1.8696   -0.2451 N   0  0  0  0  0  0  0  0  0  0  0  0
   -2.3457   -1.6448   -0.9957 H   0  0  0  0  0  0  0  0  0  0  0  0
   -0.4179   -1.1351   -0.1925 C   0  0  1  0  0  0  0  0  0  0  0  0
    0.3985   -1.8333   -0.4096 H   0  0  0  0  0  0  0  0  0  0  0  0
   -0.4057   -0.0212   -1.2582 C   0  0  0  0  0  0  0  0  0  0  0  0
   -1.3374    0.5491   -1.1930 H   0  0  0  0  0  0  0  0  0  0  0  0
    0.4089    0.6682   -1.0079 H   0  0  0  0  0  0  0  0  0  0  0  0
   -0.2046   -0.4704   -2.6988 C   0  0  0  0  0  0  0  0  0  0  0  0
    0.4350    0.4186   -3.5793 C   0  0  0  0  0  0  0  0  0  0  0  0
    0.7642    1.3912   -3.2239 H   0  0  0  0  0  0  0  0  0  0  0  0
    0.6558    0.0771   -4.9183 C   0  0  0  0  0  0  0  0  0  0  0  0
    1.1489    0.7857   -5.5749 H   0  0  0  0  0  0  0  0  0  0  0  0
    0.2464   -1.1653   -5.4010 C   0  0  0  0  0  0  0  0  0  0  0  0
    0.4549   -1.5111   -6.7048 O   0  0  0  0  0  0  0  0  0  0  0  0
    0.9401   -0.8071   -7.1624 H   0  0  0  0  0  0  0  0  0  0  0  0
   -0.3769   -2.0630   -4.5394 C   0  0  0  0  0  0  0  0  0  0  0  0
   -0.6792   -3.0329   -4.9207 H   0  0  0  0  0  0  0  0  0  0  0  0
   -0.6007   -1.7264   -3.2000 C   0  0  0  0  0  0  0  0  0  0  0  0
   -1.0711   -2.4729   -2.5730 H   0  0  0  0  0  0  0  0  0  0  0  0
   -0.1097   -0.5198    1.1901 C   0  0  0  0  0  0  0  0  0  0  0  0
    1.0517   -0.4070    1.5593 O   0  0  0  0  0  0  0  0  0  0  0  0
   -1.1018    0.1525    1.8819 N   0  0  0  0  0  0  0  0  0  0  0  0
   -2.0552   -0.0426    1.5952 H   0  0  0  0  0  0  0  0  0  0  0  0
   -0.8763    0.7668    3.1843 C   0  0  0  0  0  0  0  0  0  0  0  0
   -0.0833    1.5194    3.1224 H   0  0  0  0  0  0  0  0  0  0  0  0
   -1.7892    1.2583    3.5337 H   0  0  0  0  0  0  0  0  0  0  0  0
   -0.5858    0.0085    3.9190 H   0  0  0  0  0  0  0  0  0  0  0  0
  1  2  1  0  0  0  0
  2  3  1  0  0  0  0
  2  4  1  0  0  0  0
  2  5  1  0  0  0  0
  5  6  2  0  0  0  0
  5  7  1  0  0  0  0
  7  8  1  0  0  0  0
  7  9  1  0  0  0  0
  9 10  1  0  0  0  0
  9 11  1  0  0  0  0
  9 26  1  0  0  0  0
 11 12  1  0  0  0  0
 11 13  1  0  0  0  0
 11 14  1  0  0  0  0
 14 15  2  0  0  0  0
 14 24  1  0  0  0  0
 15 16  1  0  0  0  0
 15 17  1  0  0  0  0
 17 18  1  0  0  0  0
 17 19  2  0  0  0  0
 19 20  1  0  0  0  0
 19 22  1  0  0  0  0
 20 21  1  0  0  0  0
 22 23  1  0  0  0  0
 22 24  2  0  0  0  0
 24 25  1  0  0  0  0
 26 27  2  0  0  0  0
 26 28  1  0  0  0  0
 28 29  1  0  0  0  0
 28 30  1  0  0  0  0
 30 31  1  0  0  0  0
 30 32  1  0  0  0  0
 30 33  1  0  0  0  0
M  END
$$$$

  -OEChem-03222214083D

 33 33  0     1  0  0  0  0  0999 V2000
   -3.3494   -4.5821    0.9968 H   0  0  0  0  0  0  0  0  0  0  0  0
   -3.3005   -3.7170    0.3291 C   0  0  0  0  0  0  0  0  0  0  0  0
   -4.1406   -3.0544    0.5499 H   0  0  0  0  0  0  0  0  0  0  0  0
   -3.3806   -4.0667   -0.7030 H   0  0  0  0  0  0  0  0  0  0  0  0
   -1.9900   -2.9785    0.5273 C   0  0  0  0  0  0  0  0  0  0  0  0
   -1.2030   -3.3571    1.3754 O   0  0  0  0  0  0  0  0  0  0  0  0
   -1.7043   -1.8732   -0.2501 N   0  0  0  0  0  0  0  0  0  0  0  0
   -2.3824   -1.6235   -0.9634 H   0  0  0  0  0  0  0  0  0  0  0  0
   -0.4318   -1.1256   -0.2063 C   0  0  1  0  0  0  0  0  0  0  0  0
    0.3849   -1.8207   -0.4331 H   0  0  0  0  0  0  0  0  0  0  0  0
   -0.4128   -0.0013   -1.2629 C   0  0  0  0  0  0  0  0  0  0  0  0
   -1.3471    0.5656   -1.2033 H   0  0  0  0  0  0  0  0  0  0  0  0
    0.3956    0.6913   -1.0025 H   0  0  0  0  0  0  0  0  0  0  0  0
   -0.2049   -0.4581   -2.6993 C   0  0  0  0  0  0  0  0  0  0  0  0
    0.7078    0.2522   -3.4985 C   0  0  0  0  0  0  0  0  0  0  0  0
    1.2567    1.0929   -3.0836 H   0  0  0  0  0  0  0  0  0  0  0  0
    0.9322   -0.1065   -4.8322 C   0  0  0  0  0  0  0  0  0  0  0  0
    1.6467    0.4565   -5.4227 H   0  0  0  0  0  0  0  0  0  0  0  0
    0.2415   -1.1792   -5.3943 C   0  0  0  0  0  0  0  0  0  0  0  0
    0.4526   -1.5404   -6.6931 O   0  0  0  0  0  0  0  0  0  0  0  0
    1.1447   -0.9845   -7.0833 H   0  0  0  0  0  0  0  0  0  0  0  0
   -0.6741   -1.8861   -4.6204 C   0  0  0  0  0  0  0  0  0  0  0  0
   -1.2069   -2.7191   -5.0675 H   0  0  0  0  0  0  0  0  0  0  0  0
   -0.9019   -1.5316   -3.2862 C   0  0  0  0  0  0  0  0  0  0  0  0
   -1.6257   -2.1147   -2.7328 H   0  0  0  0  0  0  0  0  0  0  0  0
   -0.1148   -0.5201    1.1784 C   0  0  0  0  0  0  0  0  0  0  0  0
    1.0497   -0.3925    1.5329 O   0  0  0  0  0  0  0  0  0  0  0  0
   -1.1063    0.1344    1.8879 N   0  0  0  0  0  0  0  0  0  0  0  0
   -2.0613   -0.0683    1.6122 H   0  0  0  0  0  0  0  0  0  0  0  0
   -0.8689    0.7523    3.1865 C   0  0  0  0  0  0  0  0  0  0  0  0
   -0.0901    1.5184    3.1106 H   0  0  0  0  0  0  0  0  0  0  0  0
   -1.7839    1.2278    3.5520 H   0  0  0  0  0  0  0  0  0  0  0  0
   -0.5520   -0.0007    3.9158 H   0  0  0  0  0  0  0  0  0  0  0  0
  1  2  1  0  0  0  0
  2  3  1  0  0  0  0
  2  4  1  0  0  0  0
  2  5  1  0  0  0  0
  5  6  2  0  0  0  0
  5  7  1  0  0  0  0
  7  8  1  0  0  0  0
  7  9  1  0  0  0  0
  9 10  1  0  0  0  0
  9 11  1  0  0  0  0
  9 26  1  0  0  0  0
 11 12  1  0  0  0  0
 11 13  1  0  0  0  0
 11 14  1  0  0  0  0
 14 15  2  0  0  0  0
 14 24  1  0  0  0  0
 15 16  1  0  0  0  0
 15 17  1  0  0  0  0
 17 18  1  0  0  0  0
 17 19  2  0  0  0  0
 19 20  1  0  0  0  0
 19 22  1  0  0  0  0
 20 21  1  0  0  0  0
 22 23  1  0  0  0  0
 22 24  2  0  0  0  0
 24 25  1  0  0  0  0
 26 27  2  0  0  0  0
 26 28  1  0  0  0  0
 28 29  1  0  0  0  0
 28 30  1  0  0  0  0
 30 31  1  0  0  0  0
 30 32  1  0  0  0  0
 30 33  1  0  0  0  0
M  END
$$$$

  -OEChem-03222214083D

 33 33  0     1  0  0  0  0  0999 V2000
   -3.3128   -4.6097    0.9125 H   0  0  0  0  0  0  0  0  0  0  0  0
   -3.2700   -3.7358    0.2560 C   0  0  0  0  0  0  0  0  0  0  0  0
   -4.1309   -3.0964    0.4648 H   0  0  0  0  0  0  0  0  0  0  0  0
   -3.3176   -4.0747   -0.7818 H   0  0  0  0  0  0  0  0  0  0  0  0
   -1.9827   -2.9686    0.4933 C   0  0  0  0  0  0  0  0  0  0  0  0
   -1.2100   -3.3348    1.3600 O   0  0  0  0  0  0  0  0  0  0  0  0
   -1.7037   -1.8508   -0.2685 N   0  0  0  0  0  0  0  0  0  0  0  0
   -2.3577   -1.6303   -1.0118 H   0  0  0  0  0  0  0  0  0  0  0  0
   -0.4340   -1.0998   -0.2146 C   0  0  1  0  0  0  0  0  0  0  0  0
    0.3831   -1.7905   -0.4525 H   0  0  0  0  0  0  0  0  0  0  0  0
   -0.4177    0.0405   -1.2525 C   0  0  0  0  0  0  0  0  0  0  0  0
   -1.3548    0.6030   -1.1932 H   0  0  0  0  0  0  0  0  0  0  0  0
    0.3870    0.7375   -0.9928 H   0  0  0  0  0  0  0  0  0  0  0  0
   -0.2087   -0.4381   -2.6778 C   0  0  0  0  0  0  0  0  0  0  0  0
    0.9087    0.0198   -3.3961 C   0  0  0  0  0  0  0  0  0  0  0  0
    1.6308    0.6778   -2.9206 H   0  0  0  0  0  0  0  0  0  0  0  0
    1.1187   -0.3715   -4.7233 C   0  0  0  0  0  0  0  0  0  0  0  0
    1.9953   -0.0133   -5.2521 H   0  0  0  0  0  0  0  0  0  0  0  0
    0.2064   -1.2145   -5.3582 C   0  0  0  0  0  0  0  0  0  0  0  0
    0.4010   -1.6045   -6.6514 O   0  0  0  0  0  0  0  0  0  0  0  0
    1.2392   -1.2473   -6.9836 H   0  0  0  0  0  0  0  0  0  0  0  0
   -0.9177   -1.6562   -4.6656 C   0  0  0  0  0  0  0  0  0  0  0  0
   -1.6262   -2.3034   -5.1724 H   0  0  0  0  0  0  0  0  0  0  0  0
   -1.1320   -1.2676   -3.3387 C   0  0  0  0  0  0  0  0  0  0  0  0
   -2.0294   -1.6164   -2.8438 H   0  0  0  0  0  0  0  0  0  0  0  0
   -0.1125   -0.5120    1.1768 C   0  0  0  0  0  0  0  0  0  0  0  0
    1.0541   -0.3797    1.5230 O   0  0  0  0  0  0  0  0  0  0  0  0
   -1.1019    0.1306    1.8998 N   0  0  0  0  0  0  0  0  0  0  0  0
   -2.0576   -0.0782    1.6310 H   0  0  0  0  0  0  0  0  0  0  0  0
   -0.8584    0.7389    3.2018 C   0  0  0  0  0  0  0  0  0  0  0  0
   -0.0910    1.5163    3.1250 H   0  0  0  0  0  0  0  0  0  0  0  0
   -1.7756    1.1984    3.5820 H   0  0  0  0  0  0  0  0  0  0  0  0
   -0.5238   -0.0170    3.9199 H   0  0  0  0  0  0  0  0  0  0  0  0
  1  2  1  0  0  0  0
  2  3  1  0  0  0  0
  2  4  1  0  0  0  0
  2  5  1  0  0  0  0
  5  6  2  0  0  0  0
  5  7  1  0  0  0  0
  7  8  1  0  0  0  0
  7  9  1  0  0  0  0
  9 10  1  0  0  0  0
  9 11  1  0  0  0  0
  9 26  1  0  0  0  0
 11 12  1  0  0  0  0
 11 13  1  0  0  0  0
 11 14  1  0  0  0  0
 14 15  2  0  0  0  0
 14 24  1  0  0  0  0
 15 16  1  0  0  0  0
 15 17  1  0  0  0  0
 17 18  1  0  0  0  0
 17 19  2  0  0  0  0
 19 20  1  0  0  0  0
 19 22  1  0  0  0  0
 20 21  1  0  0  0  0
 22 23  1  0  0  0  0
 22 24  2  0  0  0  0
 24 25  1  0  0  0  0
 26 27  2  0  0  0  0
 26 28  1  0  0  0  0
 28 29  1  0  0  0  0
 28 30  1  0  0  0  0
 30 31  1  0  0  0  0
 30 32  1  0  0  0  0
 30 33  1  0  0  0  0
M  END
$$$$

  -OEChem-03222214083D

 33 33  0     1  0  0  0  0  0999 V2000
   -3.2747   -4.6365    0.7820 H   0  0  0  0  0  0  0  0  0  0  0  0
   -3.2299   -3.7539    0.1375 C   0  0  0  0  0  0  0  0  0  0  0  0
   -4.1313   -3.1568    0.2949 H   0  0  0  0  0  0  0  0  0  0  0  0
   -3.1949   -4.0828   -0.9040 H   0  0  0  0  0  0  0  0  0  0  0  0
   -1.9978   -2.9311    0.4651 C   0  0  0  0  0  0  0  0  0  0  0  0
   -1.2813   -3.2586    1.3934 O   0  0  0  0  0  0  0  0  0  0  0  0
   -1.7077   -1.8099   -0.2879 N   0  0  0  0  0  0  0  0  0  0  0  0
   -2.2702   -1.6819   -1.1221 H   0  0  0  0  0  0  0  0  0  0  0  0
   -0.4291   -1.0753   -0.2156 C   0  0  1  0  0  0  0  0  0  0  0  0
    0.3840   -1.7673   -0.4632 H   0  0  0  0  0  0  0  0  0  0  0  0
   -0.4187    0.0817   -1.2324 C   0  0  0  0  0  0  0  0  0  0  0  0
   -1.3517    0.6496   -1.1601 H   0  0  0  0  0  0  0  0  0  0  0  0
    0.3946    0.7729   -0.9837 H   0  0  0  0  0  0  0  0  0  0  0  0
   -0.2232   -0.4150   -2.6480 C   0  0  0  0  0  0  0  0  0  0  0  0
    1.0190   -0.2507   -3.2801 C   0  0  0  0  0  0  0  0  0  0  0  0
    1.8487    0.1994   -2.7414 H   0  0  0  0  0  0  0  0  0  0  0  0
    1.2086   -0.6777   -4.5997 C   0  0  0  0  0  0  0  0  0  0  0  0
    2.1805   -0.5530   -5.0651 H   0  0  0  0  0  0  0  0  0  0  0  0
    0.1547   -1.2574   -5.3079 C   0  0  0  0  0  0  0  0  0  0  0  0
    0.3284   -1.6774   -6.5947 O   0  0  0  0  0  0  0  0  0  0  0  0
    1.2451   -1.5252   -6.8727 H   0  0  0  0  0  0  0  0  0  0  0  0
   -1.0893   -1.4004   -4.6970 C   0  0  0  0  0  0  0  0  0  0  0  0
   -1.9051   -1.8392   -5.2624 H   0  0  0  0  0  0  0  0  0  0  0  0
   -1.2841   -0.9755   -3.3783 C   0  0  0  0  0  0  0  0  0  0  0  0
   -2.2699   -1.0733   -2.9375 H   0  0  0  0  0  0  0  0  0  0  0  0
   -0.1048   -0.5024    1.1814 C   0  0  0  0  0  0  0  0  0  0  0  0
    1.0634   -0.3868    1.5292 O   0  0  0  0  0  0  0  0  0  0  0  0
   -1.0880    0.1481    1.9053 N   0  0  0  0  0  0  0  0  0  0  0  0
   -2.0445   -0.0590    1.6374 H   0  0  0  0  0  0  0  0  0  0  0  0
   -0.8416    0.7362    3.2159 C   0  0  0  0  0  0  0  0  0  0  0  0
   -0.0657    1.5063    3.1515 H   0  0  0  0  0  0  0  0  0  0  0  0
   -1.7549    1.2001    3.6000 H   0  0  0  0  0  0  0  0  0  0  0  0
   -0.5170   -0.0328    3.9248 H   0  0  0  0  0  0  0  0  0  0  0  0
  1  2  1  0  0  0  0
  2  3  1  0  0  0  0
  2  4  1  0  0  0  0
  2  5  1  0  0  0  0
  5  6  2  0  0  0  0
  5  7  1  0  0  0  0
  7  8  1  0  0  0  0
  7  9  1  0  0  0  0
  9 10  1  0  0  0  0
  9 11  1  0  0  0  0
  9 26  1  0  0  0  0
 11 12  1  0  0  0  0
 11 13  1  0  0  0  0
 11 14  1  0  0  0  0
 14 15  2  0  0  0  0
 14 24  1  0  0  0  0
 15 16  1  0  0  0  0
 15 17  1  0  0  0  0
 17 18  1  0  0  0  0
 17 19  2  0  0  0  0
 19 20  1  0  0  0  0
 19 22  1  0  0  0  0
 20 21  1  0  0  0  0
 22 23  1  0  0  0  0
 22 24  2  0  0  0  0
 24 25  1  0  0  0  0
 26 27  2  0  0  0  0
 26 28  1  0  0  0  0
 28 29  1  0  0  0  0
 28 30  1  0  0  0  0
 30 31  1  0  0  0  0
 30 32  1  0  0  0  0
 30 33  1  0  0  0  0
M  END
$$$$

  -OEChem-03222214083D

 33 33  0     1  0  0  0  0  0999 V2000
   -3.2647   -4.6356    0.6935 H   0  0  0  0  0  0  0  0  0  0  0  0
   -3.2196   -3.7410    0.0659 C   0  0  0  0  0  0  0  0  0  0  0  0
   -4.1318   -3.1590    0.2168 H   0  0  0  0  0  0  0  0  0  0  0  0
   -3.1603   -4.0500   -0.9804 H   0  0  0  0  0  0  0  0  0  0  0  0
   -2.0047   -2.9084    0.4309 C   0  0  0  0  0  0  0  0  0  0  0  0
   -1.3093   -3.2349    1.3757 O   0  0  0  0  0  0  0  0  0  0  0  0
   -1.7055   -1.7814   -0.3096 N   0  0  0  0  0  0  0  0  0  0  0  0
   -2.2377   -1.6691   -1.1667 H   0  0  0  0  0  0  0  0  0  0  0  0
   -0.4230   -1.0561   -0.2216 C   0  0  1  0  0  0  0  0  0  0  0  0
    0.3891   -1.7456   -0.4784 H   0  0  0  0  0  0  0  0  0  0  0  0
   -0.4271    0.1110   -1.2237 C   0  0  0  0  0  0  0  0  0  0  0  0
   -1.3595    0.6785   -1.1384 H   0  0  0  0  0  0  0  0  0  0  0  0
    0.3906    0.8007   -0.9851 H   0  0  0  0  0  0  0  0  0  0  0  0
   -0.2407   -0.3909   -2.6352 C   0  0  0  0  0  0  0  0  0  0  0  0
    1.0488   -0.5189   -3.1716 C   0  0  0  0  0  0  0  0  0  0  0  0
    1.9165   -0.2730   -2.5648 H   0  0  0  0  0  0  0  0  0  0  0  0
    1.2289   -0.9733   -4.4830 C   0  0  0  0  0  0  0  0  0  0  0  0
    2.2345   -1.0731   -4.8771 H   0  0  0  0  0  0  0  0  0  0  0  0
    0.1229   -1.2941   -5.2728 C   0  0  0  0  0  0  0  0  0  0  0  0
    0.2868   -1.7361   -6.5533 O   0  0  0  0  0  0  0  0  0  0  0  0
    1.2302   -1.7662   -6.7758 H   0  0  0  0  0  0  0  0  0  0  0  0
   -1.1615   -1.1549   -4.7503 C   0  0  0  0  0  0  0  0  0  0  0  0
   -2.0134   -1.3964   -5.3775 H   0  0  0  0  0  0  0  0  0  0  0  0
   -1.3477   -0.7013   -3.4401 C   0  0  0  0  0  0  0  0  0  0  0  0
   -2.3571   -0.5822   -3.0595 H   0  0  0  0  0  0  0  0  0  0  0  0
   -0.0963   -0.4974    1.1797 C   0  0  0  0  0  0  0  0  0  0  0  0
    1.0727   -0.3969    1.5293 O   0  0  0  0  0  0  0  0  0  0  0  0
   -1.0748    0.1549    1.9082 N   0  0  0  0  0  0  0  0  0  0  0  0
   -2.0326   -0.0464    1.6397 H   0  0  0  0  0  0  0  0  0  0  0  0
   -0.8251    0.7211    3.2277 C   0  0  0  0  0  0  0  0  0  0  0  0
   -0.0316    1.4743    3.1788 H   0  0  0  0  0  0  0  0  0  0  0  0
   -1.7307    1.2004    3.6110 H   0  0  0  0  0  0  0  0  0  0  0  0
   -0.5230   -0.0643    3.9285 H   0  0  0  0  0  0  0  0  0  0  0  0
  1  2  1  0  0  0  0
  2  3  1  0  0  0  0
  2  4  1  0  0  0  0
  2  5  1  0  0  0  0
  5  6  2  0  0  0  0
  5  7  1  0  0  0  0
  7  8  1  0  0  0  0
  7  9  1  0  0  0  0
  9 10  1  0  0  0  0
  9 11  1  0  0  0  0
  9 26  1  0  0  0  0
 11 12  1  0  0  0  0
 11 13  1  0  0  0  0
 11 14  1  0  0  0  0
 14 15  2  0  0  0  0
 14 24  1  0  0  0  0
 15 16  1  0  0  0  0
 15 17  1  0  0  0  0
 17 18  1  0  0  0  0
 17 19  2  0  0  0  0
 19 20  1  0  0  0  0
 19 22  1  0  0  0  0
 20 21  1  0  0  0  0
 22 23  1  0  0  0  0
 22 24  2  0  0  0  0
 24 25  1  0  0  0  0
 26 27  2  0  0  0  0
 26 28  1  0  0  0  0
 28 29  1  0  0  0  0
 28 30  1  0  0  0  0
 30 31  1  0  0  0  0
 30 32  1  0  0  0  0
 30 33  1  0  0  0  0
M  END
$$$$

  -OEChem-03222214083D

 33 33  0     1  0  0  0  0  0999 V2000
   -3.2825   -4.6169    0.6647 H   0  0  0  0  0  0  0  0  0  0  0  0
   -3.2250   -3.7222    0.0382 C   0  0  0  0  0  0  0  0  0  0  0  0
   -4.1316   -3.1306    0.1856 H   0  0  0  0  0  0  0  0  0  0  0  0
   -3.1638   -4.0305   -1.0084 H   0  0  0  0  0  0  0  0  0  0  0  0
   -2.0037   -2.9021    0.4095 C   0  0  0  0  0  0  0  0  0  0  0  0
   -1.3105   -3.2407    1.3518 O   0  0  0  0  0  0  0  0  0  0  0  0
   -1.6957   -1.7719   -0.3221 N   0  0  0  0  0  0  0  0  0  0  0  0
   -2.2231   -1.6499   -1.1819 H   0  0  0  0  0  0  0  0  0  0  0  0
   -0.4115   -1.0520   -0.2230 C   0  0  1  0  0  0  0  0  0  0  0  0
    0.4004   -1.7411   -0.4808 H   0  0  0  0  0  0  0  0  0  0  0  0
   -0.4274    0.1205   -1.2181 C   0  0  0  0  0  0  0  0  0  0  0  0
   -1.3587    0.6876   -1.1189 H   0  0  0  0  0  0  0  0  0  0  0  0
    0.3937    0.8081   -0.9859 H   0  0  0  0  0  0  0  0  0  0  0  0
   -0.2458   -0.3732   -2.6329 C   0  0  0  0  0  0  0  0  0  0  0  0
    1.0170   -0.7899   -3.0798 C   0  0  0  0  0  0  0  0  0  0  0  0
    1.8704   -0.7544   -2.4071 H   0  0  0  0  0  0  0  0  0  0  0  0
    1.1863   -1.2571   -4.3881 C   0  0  0  0  0  0  0  0  0  0  0  0
    2.1696   -1.5780   -4.7146 H   0  0  0  0  0  0  0  0  0  0  0  0
    0.0979   -1.3074   -5.2614 C   0  0  0  0  0  0  0  0  0  0  0  0
    0.2523   -1.7583   -6.5399 O   0  0  0  0  0  0  0  0  0  0  0  0
    1.1816   -1.9831   -6.7026 H   0  0  0  0  0  0  0  0  0  0  0  0
   -1.1577   -0.8888   -4.8247 C   0  0  0  0  0  0  0  0  0  0  0  0
   -1.9947   -0.9257   -5.5145 H   0  0  0  0  0  0  0  0  0  0  0  0
   -1.3334   -0.4214   -3.5179 C   0  0  0  0  0  0  0  0  0  0  0  0
   -2.3174   -0.0901   -3.2006 H   0  0  0  0  0  0  0  0  0  0  0  0
   -0.0892   -0.5024    1.1825 C   0  0  0  0  0  0  0  0  0  0  0  0
    1.0787   -0.4102    1.5378 O   0  0  0  0  0  0  0  0  0  0  0  0
   -1.0684    0.1496    1.9101 N   0  0  0  0  0  0  0  0  0  0  0  0
   -2.0258   -0.0449    1.6355 H   0  0  0  0  0  0  0  0  0  0  0  0
   -0.8222    0.7102    3.2325 C   0  0  0  0  0  0  0  0  0  0  0  0
   -0.0246    1.4592    3.1897 H   0  0  0  0  0  0  0  0  0  0  0  0
   -1.7270    1.1934    3.6130 H   0  0  0  0  0  0  0  0  0  0  0  0
   -0.5274   -0.0787    3.9324 H   0  0  0  0  0  0  0  0  0  0  0  0
  1  2  1  0  0  0  0
  2  3  1  0  0  0  0
  2  4  1  0  0  0  0
  2  5  1  0  0  0  0
  5  6  2  0  0  0  0
  5  7  1  0  0  0  0
  7  8  1  0  0  0  0
  7  9  1  0  0  0  0
  9 10  1  0  0  0  0
  9 11  1  0  0  0  0
  9 26  1  0  0  0  0
 11 12  1  0  0  0  0
 11 13  1  0  0  0  0
 11 14  1  0  0  0  0
 14 15  2  0  0  0  0
 14 24  1  0  0  0  0
 15 16  1  0  0  0  0
 15 17  1  0  0  0  0
 17 18  1  0  0  0  0
 17 19  2  0  0  0  0
 19 20  1  0  0  0  0
 19 22  1  0  0  0  0
 20 21  1  0  0  0  0
 22 23  1  0  0  0  0
 22 24  2  0  0  0  0
 24 25  1  0  0  0  0
 26 27  2  0  0  0  0
 26 28  1  0  0  0  0
 28 29  1  0  0  0  0
 28 30  1  0  0  0  0
 30 31  1  0  0  0  0
 30 32  1  0  0  0  0
 30 33  1  0  0  0  0
M  END
$$$$

  -OEChem-03222214083D

 33 33  0     1  0  0  0  0  0999 V2000
   -3.3021   -4.6081    0.6752 H   0  0  0  0  0  0  0  0  0  0  0  0
   -3.2338   -3.7172    0.0444 C   0  0  0  0  0  0  0  0  0  0  0  0
   -4.1348   -3.1155    0.1857 H   0  0  0  0  0  0  0  0  0  0  0  0
   -3.1726   -4.0317   -1.0005 H   0  0  0  0  0  0  0  0  0  0  0  0
   -2.0066   -2.9068    0.4164 C   0  0  0  0  0  0  0  0  0  0  0  0
   -1.3192   -3.2484    1.3617 O   0  0  0  0  0  0  0  0  0  0  0  0
   -1.6854   -1.7821   -0.3179 N   0  0  0  0  0  0  0  0  0  0  0  0
   -2.2096   -1.6548   -1.1793 H   0  0  0  0  0  0  0  0  0  0  0  0
   -0.3996   -1.0668   -0.2102 C   0  0  1  0  0  0  0  0  0  0  0  0
    0.4115   -1.7611   -0.4513 H   0  0  0  0  0  0  0  0  0  0  0  0
   -0.4158    0.1019   -1.2124 C   0  0  0  0  0  0  0  0  0  0  0  0
   -1.3459    0.6701   -1.1073 H   0  0  0  0  0  0  0  0  0  0  0  0
    0.4065    0.7877   -0.9798 H   0  0  0  0  0  0  0  0  0  0  0  0
   -0.2309   -0.3732   -2.6361 C   0  0  0  0  0  0  0  0  0  0  0  0
    0.9281   -1.0668   -3.0208 C   0  0  0  0  0  0  0  0  0  0  0  0
    1.7213   -1.2490   -2.3003 H   0  0  0  0  0  0  0  0  0  0  0  0
    1.0792   -1.5236   -4.3349 C   0  0  0  0  0  0  0  0  0  0  0  0
    1.9819   -2.0574   -4.6120 H   0  0  0  0  0  0  0  0  0  0  0  0
    0.0771   -1.2906   -5.2784 C   0  0  0  0  0  0  0  0  0  0  0  0
    0.2151   -1.7302   -6.5628 O   0  0  0  0  0  0  0  0  0  0  0  0
    1.0790   -2.1562   -6.6767 H   0  0  0  0  0  0  0  0  0  0  0  0
   -1.0736   -0.5991   -4.9055 C   0  0  0  0  0  0  0  0  0  0  0  0
   -1.8440   -0.4184   -5.6483 H   0  0  0  0  0  0  0  0  0  0  0  0
   -1.2306   -0.1404   -3.5932 C   0  0  0  0  0  0  0  0  0  0  0  0
   -2.1335    0.4007   -3.3262 H   0  0  0  0  0  0  0  0  0  0  0  0
   -0.0896   -0.5103    1.1954 C   0  0  0  0  0  0  0  0  0  0  0  0
    1.0748   -0.4239    1.5632 O   0  0  0  0  0  0  0  0  0  0  0  0
   -1.0734    0.1496    1.9095 N   0  0  0  0  0  0  0  0  0  0  0  0
   -2.0291   -0.0402    1.6253 H   0  0  0  0  0  0  0  0  0  0  0  0
   -0.8375    0.7188    3.2301 C   0  0  0  0  0  0  0  0  0  0  0  0
   -0.0368    1.4648    3.1891 H   0  0  0  0  0  0  0  0  0  0  0  0
   -1.7443    1.2081    3.5983 H   0  0  0  0  0  0  0  0  0  0  0  0
   -0.5518   -0.0656    3.9389 H   0  0  0  0  0  0  0  0  0  0  0  0
  1  2  1  0  0  0  0
  2  3  1  0  0  0  0
  2  4  1  0  0  0  0
  2  5  1  0  0  0  0
  5  6  2  0  0  0  0
  5  7  1  0  0  0  0
  7  8  1  0  0  0  0
  7  9  1  0  0  0  0
  9 10  1  0  0  0  0
  9 11  1  0  0  0  0
  9 26  1  0  0  0  0
 11 12  1  0  0  0  0
 11 13  1  0  0  0  0
 11 14  1  0  0  0  0
 14 15  2  0  0  0  0
 14 24  1  0  0  0  0
 15 16  1  0  0  0  0
 15 17  1  0  0  0  0
 17 18  1  0  0  0  0
 17 19  2  0  0  0  0
 19 20  1  0  0  0  0
 19 22  1  0  0  0  0
 20 21  1  0  0  0  0
 22 23  1  0  0  0  0
 22 24  2  0  0  0  0
 24 25  1  0  0  0  0
 26 27  2  0  0  0  0
 26 28  1  0  0  0  0
 28 29  1  0  0  0  0
 28 30  1  0  0  0  0
 30 31  1  0  0  0  0
 30 32  1  0  0  0  0
 30 33  1  0  0  0  0
M  END
$$$$

  -OEChem-03222214083D

 33 33  0     1  0  0  0  0  0999 V2000
   -3.3222   -4.6039    0.7357 H   0  0  0  0  0  0  0  0  0  0  0  0
   -3.2486   -3.7179    0.0984 C   0  0  0  0  0  0  0  0  0  0  0  0
   -4.1410   -3.1044    0.2433 H   0  0  0  0  0  0  0  0  0  0  0  0
   -3.2004   -4.0396   -0.9447 H   0  0  0  0  0  0  0  0  0  0  0  0
   -2.0080   -2.9202    0.4543 C   0  0  0  0  0  0  0  0  0  0  0  0
   -1.3209   -3.2604    1.4005 O   0  0  0  0  0  0  0  0  0  0  0  0
   -1.6705   -1.8121   -0.2978 N   0  0  0  0  0  0  0  0  0  0  0  0
   -2.1989   -1.6808   -1.1564 H   0  0  0  0  0  0  0  0  0  0  0  0
   -0.3842   -1.0983   -0.1872 C   0  0  1  0  0  0  0  0  0  0  0  0
    0.4296   -1.7984   -0.3922 H   0  0  0  0  0  0  0  0  0  0  0  0
   -0.3923    0.0538   -1.2110 C   0  0  0  0  0  0  0  0  0  0  0  0
   -1.3226    0.6222   -1.1101 H   0  0  0  0  0  0  0  0  0  0  0  0
    0.4286    0.7404   -0.9752 H   0  0  0  0  0  0  0  0  0  0  0  0
   -0.1981   -0.4011   -2.6450 C   0  0  0  0  0  0  0  0  0  0  0  0
    0.7843   -1.3399   -3.0098 C   0  0  0  0  0  0  0  0  0  0  0  0
    1.4716   -1.7431   -2.2721 H   0  0  0  0  0  0  0  0  0  0  0  0
    0.9126   -1.7576   -4.3398 C   0  0  0  0  0  0  0  0  0  0  0  0
    1.6791   -2.4800   -4.5992 H   0  0  0  0  0  0  0  0  0  0  0  0
    0.0654   -1.2445   -5.3226 C   0  0  0  0  0  0  0  0  0  0  0  0
    0.1829   -1.6447   -6.6221 O   0  0  0  0  0  0  0  0  0  0  0  0
    0.9273   -2.2593   -6.7152 H   0  0  0  0  0  0  0  0  0  0  0  0
   -0.9063   -0.3103   -4.9732 C   0  0  0  0  0  0  0  0  0  0  0  0
   -1.5561    0.0880   -5.7459 H   0  0  0  0  0  0  0  0  0  0  0  0
   -1.0391    0.1114   -3.6459 C   0  0  0  0  0  0  0  0  0  0  0  0
   -1.8032    0.8432   -3.4004 H   0  0  0  0  0  0  0  0  0  0  0  0
   -0.0978   -0.5150    1.2132 C   0  0  0  0  0  0  0  0  0  0  0  0
    1.0589   -0.4315    1.6049 O   0  0  0  0  0  0  0  0  0  0  0  0
   -1.0916    0.1609    1.8981 N   0  0  0  0  0  0  0  0  0  0  0  0
   -2.0423   -0.0234    1.5949 H   0  0  0  0  0  0  0  0  0  0  0  0
   -0.8796    0.7450    3.2163 C   0  0  0  0  0  0  0  0  0  0  0  0
   -0.0714    1.4833    3.1843 H   0  0  0  0  0  0  0  0  0  0  0  0
   -1.7895    1.2471    3.5579 H   0  0  0  0  0  0  0  0  0  0  0  0
   -0.6169   -0.0327    3.9411 H   0  0  0  0  0  0  0  0  0  0  0  0
  1  2  1  0  0  0  0
  2  3  1  0  0  0  0
  2  4  1  0  0  0  0
  2  5  1  0  0  0  0
  5  6  2  0  0  0  0
  5  7  1  0  0  0  0
  7  8  1  0  0  0  0
  7  9  1  0  0  0  0
  9 10  1  0  0  0  0
  9 11  1  0  0  0  0
  9 26  1  0  0  0  0
 11 12  1  0  0  0  0
 11 13  1  0  0  0  0
 11 14  1  0  0  0  0
 14 15  2  0  0  0  0
 14 24  1  0  0  0  0
 15 16  1  0  0  0  0
 15 17  1  0  0  0  0
 17 18  1  0  0  0  0
 17 19  2  0  0  0  0
 19 20  1  0  0  0  0
 19 22  1  0  0  0  0
 20 21  1  0  0  0  0
 22 23  1  0  0  0  0
 22 24  2  0  0  0  0
 24 25  1  0  0  0  0
 26 27  2  0  0  0  0
 26 28  1  0  0  0  0
 28 29  1  0  0  0  0
 28 30  1  0  0  0  0
 30 31  1  0  0  0  0
 30 32  1  0  0  0  0
 30 33  1  0  0  0  0
M  END
$$$$

  -OEChem-03222214083D

 33 33  0     1  0  0  0  0  0999 V2000
   -3.3606   -4.5852    0.8355 H   0  0  0  0  0  0  0  0  0  0  0  0
   -3.2680   -3.7211    0.1711 C   0  0  0  0  0  0  0  0  0  0  0  0
   -4.1468   -3.0841    0.2974 H   0  0  0  0  0  0  0  0  0  0  0  0
   -3.2275   -4.0756   -0.8617 H   0  0  0  0  0  0  0  0  0  0  0  0
   -2.0099   -2.9401    0.5017 C   0  0  0  0  0  0  0  0  0  0  0  0
   -1.3169   -3.2779    1.4444 O   0  0  0  0  0  0  0  0  0  0  0  0
   -1.6602   -1.8504   -0.2715 N   0  0  0  0  0  0  0  0  0  0  0  0
   -2.1994   -1.7136   -1.1226 H   0  0  0  0  0  0  0  0  0  0  0  0
   -0.3735   -1.1362   -0.1667 C   0  0  1  0  0  0  0  0  0  0  0  0
    0.4473   -1.8354   -0.3421 H   0  0  0  0  0  0  0  0  0  0  0  0
   -0.3779   -0.0039   -1.2135 C   0  0  0  0  0  0  0  0  0  0  0  0
   -1.3110    0.5617   -1.1206 H   0  0  0  0  0  0  0  0  0  0  0  0
    0.4399    0.6867   -0.9793 H   0  0  0  0  0  0  0  0  0  0  0  0
   -0.1809   -0.4454   -2.6545 C   0  0  0  0  0  0  0  0  0  0  0  0
    0.5680   -1.5786   -3.0290 C   0  0  0  0  0  0  0  0  0  0  0  0
    1.0817   -2.1901   -2.2951 H   0  0  0  0  0  0  0  0  0  0  0  0
    0.6907   -1.9402   -4.3759 C   0  0  0  0  0  0  0  0  0  0  0  0
    1.2771   -2.8138   -4.6398 H   0  0  0  0  0  0  0  0  0  0  0  0
    0.0701   -1.1819   -5.3685 C   0  0  0  0  0  0  0  0  0  0  0  0
    0.1829   -1.5283   -6.6836 O   0  0  0  0  0  0  0  0  0  0  0  0
    0.7622   -2.3005   -6.7765 H   0  0  0  0  0  0  0  0  0  0  0  0
   -0.6686   -0.0575   -5.0115 C   0  0  0  0  0  0  0  0  0  0  0  0
   -1.1441    0.5307   -5.7897 H   0  0  0  0  0  0  0  0  0  0  0  0
   -0.7918    0.3113   -3.6680 C   0  0  0  0  0  0  0  0  0  0  0  0
   -1.3697    1.1962   -3.4176 H   0  0  0  0  0  0  0  0  0  0  0  0
   -0.1057   -0.5229    1.2253 C   0  0  0  0  0  0  0  0  0  0  0  0
    1.0444   -0.4358    1.6345 O   0  0  0  0  0  0  0  0  0  0  0  0
   -1.1078    0.1679    1.8832 N   0  0  0  0  0  0  0  0  0  0  0  0
   -2.0549   -0.0172    1.5693 H   0  0  0  0  0  0  0  0  0  0  0  0
   -0.9118    0.7854    3.1889 C   0  0  0  0  0  0  0  0  0  0  0  0
   -0.1053    1.5252    3.1470 H   0  0  0  0  0  0  0  0  0  0  0  0
   -1.8271    1.2929    3.5078 H   0  0  0  0  0  0  0  0  0  0  0  0
   -0.6549    0.0266    3.9356 H   0  0  0  0  0  0  0  0  0  0  0  0
  1  2  1  0  0  0  0
  2  3  1  0  0  0  0
  2  4  1  0  0  0  0
  2  5  1  0  0  0  0
  5  6  2  0  0  0  0
  5  7  1  0  0  0  0
  7  8  1  0  0  0  0
  7  9  1  0  0  0  0
  9 10  1  0  0  0  0
  9 11  1  0  0  0  0
  9 26  1  0  0  0  0
 11 12  1  0  0  0  0
 11 13  1  0  0  0  0
 11 14  1  0  0  0  0
 14 15  2  0  0  0  0
 14 24  1  0  0  0  0
 15 16  1  0  0  0  0
 15 17  1  0  0  0  0
 17 18  1  0  0  0  0
 17 19  2  0  0  0  0
 19 20  1  0  0  0  0
 19 22  1  0  0  0  0
 20 21  1  0  0  0  0
 22 23  1  0  0  0  0
 22 24  2  0  0  0  0
 24 25  1  0  0  0  0
 26 27  2  0  0  0  0
 26 28  1  0  0  0  0
 28 29  1  0  0  0  0
 28 30  1  0  0  0  0
 30 31  1  0  0  0  0
 30 32  1  0  0  0  0
 30 33  1  0  0  0  0
M  END
$$$$

  -OEChem-03222214083D

 33 33  0     1  0  0  0  0  0999 V2000
   -3.3616   -4.5856    0.8982 H   0  0  0  0  0  0  0  0  0  0  0  0
   -3.2814   -3.7186    0.2361 C   0  0  0  0  0  0  0  0  0  0  0  0
   -4.1495   -3.0742    0.3933 H   0  0  0  0  0  0  0  0  0  0  0  0
   -3.2772   -4.0677   -0.7993 H   0  0  0  0  0  0  0  0  0  0  0  0
   -2.0063   -2.9513    0.5321 C   0  0  0  0  0  0  0  0  0  0  0  0
   -1.2925   -3.2959    1.4563 O   0  0  0  0  0  0  0  0  0  0  0  0
   -1.6629   -1.8691   -0.2540 N   0  0  0  0  0  0  0  0  0  0  0  0
   -2.2294   -1.7163   -1.0844 H   0  0  0  0  0  0  0  0  0  0  0  0
   -0.3775   -1.1493   -0.1672 C   0  0  1  0  0  0  0  0  0  0  0  0
    0.4514   -1.8405   -0.3405 H   0  0  0  0  0  0  0  0  0  0  0  0
   -0.3871   -0.0282   -1.2252 C   0  0  0  0  0  0  0  0  0  0  0  0
   -1.3221    0.5351   -1.1363 H   0  0  0  0  0  0  0  0  0  0  0  0
    0.4290    0.6664   -0.9962 H   0  0  0  0  0  0  0  0  0  0  0  0
   -0.1979   -0.4690   -2.6686 C   0  0  0  0  0  0  0  0  0  0  0  0
    0.2760   -1.7395   -3.0545 C   0  0  0  0  0  0  0  0  0  0  0  0
    0.5468   -2.4954   -2.3258 H   0  0  0  0  0  0  0  0  0  0  0  0
    0.4166   -2.0687   -4.4082 C   0  0  0  0  0  0  0  0  0  0  0  0
    0.7838   -3.0524   -4.6809 H   0  0  0  0  0  0  0  0  0  0  0  0
    0.0906   -1.1406   -5.3972 C   0  0  0  0  0  0  0  0  0  0  0  0
    0.2241   -1.4538   -6.7189 O   0  0  0  0  0  0  0  0  0  0  0  0
    0.6085   -2.3388   -6.8144 H   0  0  0  0  0  0  0  0  0  0  0  0
   -0.3737    0.1188   -5.0290 C   0  0  0  0  0  0  0  0  0  0  0  0
   -0.6199    0.8378   -5.8038 H   0  0  0  0  0  0  0  0  0  0  0  0
   -0.5152    0.4540   -3.6782 C   0  0  0  0  0  0  0  0  0  0  0  0
   -0.8739    1.4454   -3.4165 H   0  0  0  0  0  0  0  0  0  0  0  0
   -0.1075   -0.5218    1.2182 C   0  0  0  0  0  0  0  0  0  0  0  0
    1.0426   -0.4299    1.6265 O   0  0  0  0  0  0  0  0  0  0  0  0
   -1.1113    0.1704    1.8725 N   0  0  0  0  0  0  0  0  0  0  0  0
   -2.0578   -0.0130    1.5564 H   0  0  0  0  0  0  0  0  0  0  0  0
   -0.9170    0.7954    3.1749 C   0  0  0  0  0  0  0  0  0  0  0  0
   -0.1058    1.5297    3.1309 H   0  0  0  0  0  0  0  0  0  0  0  0
   -1.8297    1.3111    3.4881 H   0  0  0  0  0  0  0  0  0  0  0  0
   -0.6675    0.0396    3.9270 H   0  0  0  0  0  0  0  0  0  0  0  0
  1  2  1  0  0  0  0
  2  3  1  0  0  0  0
  2  4  1  0  0  0  0
  2  5  1  0  0  0  0
  5  6  2  0  0  0  0
  5  7  1  0  0  0  0
  7  8  1  0  0  0  0
  7  9  1  0  0  0  0
  9 10  1  0  0  0  0
  9 11  1  0  0  0  0
  9 26  1  0  0  0  0
 11 12  1  0  0  0  0
 11 13  1  0  0  0  0
 11 14  1  0  0  0  0
 14 15  2  0  0  0  0
 14 24  1  0  0  0  0
 15 16  1  0  0  0  0
 15 17  1  0  0  0  0
 17 18  1  0  0  0  0
 17 19  2  0  0  0  0
 19 20  1  0  0  0  0
 19 22  1  0  0  0  0
 20 21  1  0  0  0  0
 22 23  1  0  0  0  0
 22 24  2  0  0  0  0
 24 25  1  0  0  0  0
 26 27  2  0  0  0  0
 26 28  1  0  0  0  0
 28 29  1  0  0  0  0
 28 30  1  0  0  0  0
 30 31  1  0  0  0  0
 30 32  1  0  0  0  0
 30 33  1  0  0  0  0
M  END
$$$$

  -OEChem-03222214083D

 33 33  0     1  0  0  0  0  0999 V2000
   -3.3723   -4.5795    0.9178 H   0  0  0  0  0  0  0  0  0  0  0  0
   -3.2961   -3.7139    0.2535 C   0  0  0  0  0  0  0  0  0  0  0  0
   -4.1551   -3.0613    0.4261 H   0  0  0  0  0  0  0  0  0  0  0  0
   -3.3135   -4.0636   -0.7816 H   0  0  0  0  0  0  0  0  0  0  0  0
   -2.0085   -2.9590    0.5260 C   0  0  0  0  0  0  0  0  0  0  0  0
   -1.2727   -3.3198    1.4264 O   0  0  0  0  0  0  0  0  0  0  0  0
   -1.6761   -1.8702   -0.2555 N   0  0  0  0  0  0  0  0  0  0  0  0
   -2.2720   -1.6871   -1.0587 H   0  0  0  0  0  0  0  0  0  0  0  0
   -0.3919   -1.1455   -0.1772 C   0  0  1  0  0  0  0  0  0  0  0  0
    0.4367   -1.8341   -0.3721 H   0  0  0  0  0  0  0  0  0  0  0  0
   -0.4044   -0.0239   -1.2329 C   0  0  0  0  0  0  0  0  0  0  0  0
   -1.3398    0.5388   -1.1471 H   0  0  0  0  0  0  0  0  0  0  0  0
    0.4117    0.6703   -1.0018 H   0  0  0  0  0  0  0  0  0  0  0  0
   -0.2174   -0.4648   -2.6755 C   0  0  0  0  0  0  0  0  0  0  0  0
   -0.0394   -1.8042   -3.0783 C   0  0  0  0  0  0  0  0  0  0  0  0
   -0.0188   -2.6166   -2.3595 H   0  0  0  0  0  0  0  0  0  0  0  0
    0.1212   -2.1269   -4.4314 C   0  0  0  0  0  0  0  0  0  0  0  0
    0.2586   -3.1636   -4.7194 H   0  0  0  0  0  0  0  0  0  0  0  0
    0.1079   -1.1242   -5.4012 C   0  0  0  0  0  0  0  0  0  0  0  0
    0.2657   -1.4295   -6.7221 O   0  0  0  0  0  0  0  0  0  0  0  0
    0.4403   -2.3776   -6.8268 H   0  0  0  0  0  0  0  0  0  0  0  0
   -0.0661    0.2017   -5.0151 C   0  0  0  0  0  0  0  0  0  0  0  0
   -0.0706    0.9771   -5.7745 H   0  0  0  0  0  0  0  0  0  0  0  0
   -0.2268    0.5304   -3.6652 C   0  0  0  0  0  0  0  0  0  0  0  0
   -0.3571    1.5725   -3.3871 H   0  0  0  0  0  0  0  0  0  0  0  0
   -0.1066   -0.5249    1.2082 C   0  0  0  0  0  0  0  0  0  0  0  0
    1.0483   -0.4264    1.6005 O   0  0  0  0  0  0  0  0  0  0  0  0
   -1.1039    0.1604    1.8795 N   0  0  0  0  0  0  0  0  0  0  0  0
   -2.0545   -0.0214    1.5753 H   0  0  0  0  0  0  0  0  0  0  0  0
   -0.8920    0.7918    3.1760 C   0  0  0  0  0  0  0  0  0  0  0  0
   -0.0889    1.5339    3.1153 H   0  0  0  0  0  0  0  0  0  0  0  0
   -1.8040    1.2996    3.5038 H   0  0  0  0  0  0  0  0  0  0  0  0
   -0.6219    0.0412    3.9262 H   0  0  0  0  0  0  0  0  0  0  0  0
  1  2  1  0  0  0  0
  2  3  1  0  0  0  0
  2  4  1  0  0  0  0
  2  5  1  0  0  0  0
  5  6  2  0  0  0  0
  5  7  1  0  0  0  0
  7  8  1  0  0  0  0
  7  9  1  0  0  0  0
  9 10  1  0  0  0  0
  9 11  1  0  0  0  0
  9 26  1  0  0  0  0
 11 12  1  0  0  0  0
 11 13  1  0  0  0  0
 11 14  1  0  0  0  0
 14 15  2  0  0  0  0
 14 24  1  0  0  0  0
 15 16  1  0  0  0  0
 15 17  1  0  0  0  0
 17 18  1  0  0  0  0
 17 19  2  0  0  0  0
 19 20  1  0  0  0  0
 19 22  1  0  0  0  0
 20 21  1  0  0  0  0
 22 23  1  0  0  0  0
 22 24  2  0  0  0  0
 24 25  1  0  0  0  0
 26 27  2  0  0  0  0
 26 28  1  0  0  0  0
 28 29  1  0  0  0  0
 28 30  1  0  0  0  0
 30 31  1  0  0  0  0
 30 32  1  0  0  0  0
 30 33  1  0  0  0  0
M  END
$$$$

  -OEChem-03222214083D

 33 33  0     1  0  0  0  0  0999 V2000
   -3.3829   -4.5644    0.9430 H   0  0  0  0  0  0  0  0  0  0  0  0
   -3.3129   -3.6972    0.2799 C   0  0  0  0  0  0  0  0  0  0  0  0
   -4.1576   -3.0336    0.4792 H   0  0  0  0  0  0  0  0  0  0  0  0
   -3.3643   -4.0422   -0.7556 H   0  0  0  0  0  0  0  0  0  0  0  0
   -2.0071   -2.9625    0.5189 C   0  0  0  0  0  0  0  0  0  0  0  0
   -1.2472   -3.3437    1.3901 O   0  0  0  0  0  0  0  0  0  0  0  0
   -1.6874   -1.8657   -0.2569 N   0  0  0  0  0  0  0  0  0  0  0  0
   -2.3175   -1.6463   -1.0239 H   0  0  0  0  0  0  0  0  0  0  0  0
   -0.4055   -1.1346   -0.1867 C   0  0  1  0  0  0  0  0  0  0  0  0
    0.4174   -1.8261   -0.3993 H   0  0  0  0  0  0  0  0  0  0  0  0
   -0.4092   -0.0146   -1.2448 C   0  0  0  0  0  0  0  0  0  0  0  0
   -1.3436    0.5506   -1.1685 H   0  0  0  0  0  0  0  0  0  0  0  0
    0.4056    0.6778   -1.0037 H   0  0  0  0  0  0  0  0  0  0  0  0
   -0.2131   -0.4568   -2.6865 C   0  0  0  0  0  0  0  0  0  0  0  0
   -0.3337   -1.7893   -3.1303 C   0  0  0  0  0  0  0  0  0  0  0  0
   -0.5422   -2.6007   -2.4419 H   0  0  0  0  0  0  0  0  0  0  0  0
   -0.1626   -2.1105   -4.4824 C   0  0  0  0  0  0  0  0  0  0  0  0
   -0.2510   -3.1438   -4.7996 H   0  0  0  0  0  0  0  0  0  0  0  0
    0.1250   -1.1117   -5.4130 C   0  0  0  0  0  0  0  0  0  0  0  0
    0.2955   -1.4153   -6.7327 O   0  0  0  0  0  0  0  0  0  0  0  0
    0.2472   -2.3748   -6.8637 H   0  0  0  0  0  0  0  0  0  0  0  0
    0.2411    0.2085   -4.9879 C   0  0  0  0  0  0  0  0  0  0  0  0
    0.4666    0.9805   -5.7164 H   0  0  0  0  0  0  0  0  0  0  0  0
    0.0730    0.5349   -3.6383 C   0  0  0  0  0  0  0  0  0  0  0  0
    0.1669    1.5726   -3.3310 H   0  0  0  0  0  0  0  0  0  0  0  0
   -0.1080   -0.5235    1.2000 C   0  0  0  0  0  0  0  0  0  0  0  0
    1.0502   -0.4246    1.5825 O   0  0  0  0  0  0  0  0  0  0  0  0
   -1.1020    0.1513    1.8867 N   0  0  0  0  0  0  0  0  0  0  0  0
   -2.0546   -0.0287    1.5879 H   0  0  0  0  0  0  0  0  0  0  0  0
   -0.8810    0.7687    3.1885 C   0  0  0  0  0  0  0  0  0  0  0  0
   -0.0821    1.5157    3.1284 H   0  0  0  0  0  0  0  0  0  0  0  0
   -1.7923    1.2680    3.5309 H   0  0  0  0  0  0  0  0  0  0  0  0
   -0.6003    0.0108    3.9274 H   0  0  0  0  0  0  0  0  0  0  0  0
  1  2  1  0  0  0  0
  2  3  1  0  0  0  0
  2  4  1  0  0  0  0
  2  5  1  0  0  0  0
  5  6  2  0  0  0  0
  5  7  1  0  0  0  0
  7  8  1  0  0  0  0
  7  9  1  0  0  0  0
  9 10  1  0  0  0  0
  9 11  1  0  0  0  0
  9 26  1  0  0  0  0
 11 12  1  0  0  0  0
 11 13  1  0  0  0  0
 11 14  1  0  0  0  0
 14 15  2  0  0  0  0
 14 24  1  0  0  0  0
 15 16  1  0  0  0  0
 15 17  1  0  0  0  0
 17 18  1  0  0  0  0
 17 19  2  0  0  0  0
 19 20  1  0  0  0  0
 19 22  1  0  0  0  0
 20 21  1  0  0  0  0
 22 23  1  0  0  0  0
 22 24  2  0  0  0  0
 24 25  1  0  0  0  0
 26 27  2  0  0  0  0
 26 28  1  0  0  0  0
 28 29  1  0  0  0  0
 28 30  1  0  0  0  0
 30 31  1  0  0  0  0
 30 32  1  0  0  0  0
 30 33  1  0  0  0  0
M  END
$$$$

  -OEChem-03222214083D

 33 33  0     1  0  0  0  0  0999 V2000
   -3.3902   -4.5543    0.9938 H   0  0  0  0  0  0  0  0  0  0  0  0
   -3.3271   -3.6911    0.3250 C   0  0  0  0  0  0  0  0  0  0  0  0
   -4.1556   -3.0140    0.5464 H   0  0  0  0  0  0  0  0  0  0  0  0
   -3.4150   -4.0401   -0.7066 H   0  0  0  0  0  0  0  0  0  0  0  0
   -2.0044   -2.9743    0.5215 C   0  0  0  0  0  0  0  0  0  0  0  0
   -1.2190   -3.3702    1.3630 O   0  0  0  0  0  0  0  0  0  0  0  0
   -1.7032   -1.8715   -0.2534 N   0  0  0  0  0  0  0  0  0  0  0  0
   -2.3713   -1.6181   -0.9757 H   0  0  0  0  0  0  0  0  0  0  0  0
   -0.4255   -1.1319   -0.1994 C   0  0  1  0  0  0  0  0  0  0  0  0
    0.3925   -1.8256   -0.4249 H   0  0  0  0  0  0  0  0  0  0  0  0
   -0.4216   -0.0107   -1.2576 C   0  0  0  0  0  0  0  0  0  0  0  0
   -1.3556    0.5554   -1.1863 H   0  0  0  0  0  0  0  0  0  0  0  0
    0.3918    0.6799   -1.0063 H   0  0  0  0  0  0  0  0  0  0  0  0
   -0.2224   -0.4499   -2.7010 C   0  0  0  0  0  0  0  0  0  0  0  0
   -0.6306   -1.6968   -3.2155 C   0  0  0  0  0  0  0  0  0  0  0  0
   -1.0829   -2.4538   -2.5872 H   0  0  0  0  0  0  0  0  0  0  0  0
   -0.4363   -2.0124   -4.5658 C   0  0  0  0  0  0  0  0  0  0  0  0
   -0.7482   -2.9827   -4.9367 H   0  0  0  0  0  0  0  0  0  0  0  0
    0.1581   -1.0903   -5.4270 C   0  0  0  0  0  0  0  0  0  0  0  0
    0.3520   -1.3898   -6.7442 O   0  0  0  0  0  0  0  0  0  0  0  0
    0.0765   -2.3018   -6.9231 H   0  0  0  0  0  0  0  0  0  0  0  0
    0.5583    0.1478   -4.9342 C   0  0  0  0  0  0  0  0  0  0  0  0
    1.0200    0.8618   -5.6085 H   0  0  0  0  0  0  0  0  0  0  0  0
    0.3697    0.4671   -3.5858 C   0  0  0  0  0  0  0  0  0  0  0  0
    0.6888    1.4422   -3.2286 H   0  0  0  0  0  0  0  0  0  0  0  0
   -0.1129   -0.5261    1.1863 C   0  0  0  0  0  0  0  0  0  0  0  0
    1.0494   -0.4185    1.5529 O   0  0  0  0  0  0  0  0  0  0  0  0
   -1.1018    0.1378    1.8907 N   0  0  0  0  0  0  0  0  0  0  0  0
   -2.0573   -0.0447    1.6034 H   0  0  0  0  0  0  0  0  0  0  0  0
   -0.8664    0.7530    3.1910 C   0  0  0  0  0  0  0  0  0  0  0  0
   -0.0793    1.5113    3.1207 H   0  0  0  0  0  0  0  0  0  0  0  0
   -1.7788    1.2374    3.5513 H   0  0  0  0  0  0  0  0  0  0  0  0
   -0.5617   -0.0035    3.9217 H   0  0  0  0  0  0  0  0  0  0  0  0
  1  2  1  0  0  0  0
  2  3  1  0  0  0  0
  2  4  1  0  0  0  0
  2  5  1  0  0  0  0
  5  6  2  0  0  0  0
  5  7  1  0  0  0  0
  7  8  1  0  0  0  0
  7  9  1  0  0  0  0
  9 10  1  0  0  0  0
  9 11  1  0  0  0  0
  9 26  1  0  0  0  0
 11 12  1  0  0  0  0
 11 13  1  0  0  0  0
 11 14  1  0  0  0  0
 14 15  2  0  0  0  0
 14 24  1  0  0  0  0
 15 16  1  0  0  0  0
 15 17  1  0  0  0  0
 17 18  1  0  0  0  0
 17 19  2  0  0  0  0
 19 20  1  0  0  0  0
 19 22  1  0  0  0  0
 20 21  1  0  0  0  0
 22 23  1  0  0  0  0
 22 24  2  0  0  0  0
 24 25  1  0  0  0  0
 26 27  2  0  0  0  0
 26 28  1  0  0  0  0
 28 29  1  0  0  0  0
 28 30  1  0  0  0  0
 30 31  1  0  0  0  0
 30 32  1  0  0  0  0
 30 33  1  0  0  0  0
M  END
$$$$

  -OEChem-03222214083D

 33 33  0     1  0  0  0  0  0999 V2000
   -3.3613   -4.5624    1.0009 H   0  0  0  0  0  0  0  0  0  0  0  0
   -3.3175   -3.6952    0.3356 C   0  0  0  0  0  0  0  0  0  0  0  0
   -4.1412   -3.0214    0.5825 H   0  0  0  0  0  0  0  0  0  0  0  0
   -3.4313   -4.0384   -0.6955 H   0  0  0  0  0  0  0  0  0  0  0  0
   -1.9911   -2.9772    0.5011 C   0  0  0  0  0  0  0  0  0  0  0  0
   -1.1797   -3.3829    1.3127 O   0  0  0  0  0  0  0  0  0  0  0  0
   -1.7179   -1.8601   -0.2641 N   0  0  0  0  0  0  0  0  0  0  0  0
   -2.4222   -1.5770   -0.9386 H   0  0  0  0  0  0  0  0  0  0  0  0
   -0.4474   -1.1088   -0.2245 C   0  0  1  0  0  0  0  0  0  0  0  0
    0.3691   -1.7976   -0.4697 H   0  0  0  0  0  0  0  0  0  0  0  0
   -0.4456    0.0278   -1.2677 C   0  0  0  0  0  0  0  0  0  0  0  0
   -1.3806    0.5908   -1.1899 H   0  0  0  0  0  0  0  0  0  0  0  0
    0.3639    0.7194   -1.0077 H   0  0  0  0  0  0  0  0  0  0  0  0
   -0.2522   -0.4076   -2.7133 C   0  0  0  0  0  0  0  0  0  0  0  0
   -0.9222   -1.4984   -3.3010 C   0  0  0  0  0  0  0  0  0  0  0  0
   -1.6206   -2.1052   -2.7402 H   0  0  0  0  0  0  0  0  0  0  0  0
   -0.6983   -1.8397   -4.6408 C   0  0  0  0  0  0  0  0  0  0  0  0
   -1.2208   -2.6872   -5.0710 H   0  0  0  0  0  0  0  0  0  0  0  0
    0.1911   -1.0974   -5.4180 C   0  0  0  0  0  0  0  0  0  0  0  0
    0.4180   -1.4234   -6.7239 O   0  0  0  0  0  0  0  0  0  0  0  0
   -0.0648   -2.2315   -6.9556 H   0  0  0  0  0  0  0  0  0  0  0  0
    0.8545   -0.0132   -4.8524 C   0  0  0  0  0  0  0  0  0  0  0  0
    1.5457    0.5606   -5.4615 H   0  0  0  0  0  0  0  0  0  0  0  0
    0.6369    0.3299   -3.5142 C   0  0  0  0  0  0  0  0  0  0  0  0
    1.1716    1.1804   -3.1007 H   0  0  0  0  0  0  0  0  0  0  0  0
   -0.1163   -0.5213    1.1650 C   0  0  0  0  0  0  0  0  0  0  0  0
    1.0512   -0.4036    1.5122 O   0  0  0  0  0  0  0  0  0  0  0  0
   -1.1002    0.1205    1.8966 N   0  0  0  0  0  0  0  0  0  0  0  0
   -2.0585   -0.0699    1.6240 H   0  0  0  0  0  0  0  0  0  0  0  0
   -0.8491    0.7159    3.2032 C   0  0  0  0  0  0  0  0  0  0  0  0
   -0.0697    1.4821    3.1332 H   0  0  0  0  0  0  0  0  0  0  0  0
   -1.7595    1.1868    3.5857 H   0  0  0  0  0  0  0  0  0  0  0  0
   -0.5268   -0.0504    3.9160 H   0  0  0  0  0  0  0  0  0  0  0  0
  1  2  1  0  0  0  0
  2  3  1  0  0  0  0
  2  4  1  0  0  0  0
  2  5  1  0  0  0  0
  5  6  2  0  0  0  0
  5  7  1  0  0  0  0
  7  8  1  0  0  0  0
  7  9  1  0  0  0  0
  9 10  1  0  0  0  0
  9 11  1  0  0  0  0
  9 26  1  0  0  0  0
 11 12  1  0  0  0  0
 11 13  1  0  0  0  0
 11 14  1  0  0  0  0
 14 15  2  0  0  0  0
 14 24  1  0  0  0  0
 15 16  1  0  0  0  0
 15 17  1  0  0  0  0
 17 18  1  0  0  0  0
 17 19  2  0  0  0  0
 19 20  1  0  0  0  0
 19 22  1  0  0  0  0
 20 21  1  0  0  0  0
 22 23  1  0  0  0  0
 22 24  2  0  0  0  0
 24 25  1  0  0  0  0
 26 27  2  0  0  0  0
 26 28  1  0  0  0  0
 28 29  1  0  0  0  0
 28 30  1  0  0  0  0
 30 31  1  0  0  0  0
 30 32  1  0  0  0  0
 30 33  1  0  0  0  0
M  END
$$$$

  -OEChem-03222214083D

 33 33  0     1  0  0  0  0  0999 V2000
   -3.3178   -4.5786    0.9066 H   0  0  0  0  0  0  0  0  0  0  0  0
   -3.2836   -3.6999    0.2560 C   0  0  0  0  0  0  0  0  0  0  0  0
   -4.1212   -3.0448    0.5066 H   0  0  0  0  0  0  0  0  0  0  0  0
   -3.3829   -4.0281   -0.7814 H   0  0  0  0  0  0  0  0  0  0  0  0
   -1.9708   -2.9632    0.4448 C   0  0  0  0  0  0  0  0  0  0  0  0
   -1.1591   -3.3707    1.2553 O   0  0  0  0  0  0  0  0  0  0  0  0
   -1.7120   -1.8263   -0.2956 N   0  0  0  0  0  0  0  0  0  0  0  0
   -2.4114   -1.5505   -0.9766 H   0  0  0  0  0  0  0  0  0  0  0  0
   -0.4473   -1.0666   -0.2462 C   0  0  1  0  0  0  0  0  0  0  0  0
    0.3716   -1.7452   -0.5118 H   0  0  0  0  0  0  0  0  0  0  0  0
   -0.4559    0.0947   -1.2608 C   0  0  0  0  0  0  0  0  0  0  0  0
   -1.3956    0.6490   -1.1741 H   0  0  0  0  0  0  0  0  0  0  0  0
    0.3474    0.7918   -0.9971 H   0  0  0  0  0  0  0  0  0  0  0  0
   -0.2658   -0.3453   -2.7019 C   0  0  0  0  0  0  0  0  0  0  0  0
   -1.1495   -1.2257   -3.3522 C   0  0  0  0  0  0  0  0  0  0  0  0
   -2.0284   -1.6089   -2.8495 H   0  0  0  0  0  0  0  0  0  0  0  0
   -0.9214   -1.6193   -4.6766 C   0  0  0  0  0  0  0  0  0  0  0  0
   -1.6151   -2.2978   -5.1607 H   0  0  0  0  0  0  0  0  0  0  0  0
    0.1907   -1.1413   -5.3707 C   0  0  0  0  0  0  0  0  0  0  0  0
    0.4231   -1.5185   -6.6619 O   0  0  0  0  0  0  0  0  0  0  0  0
   -0.2455   -2.1586   -6.9496 H   0  0  0  0  0  0  0  0  0  0  0  0
    1.0726   -0.2705   -4.7373 C   0  0  0  0  0  0  0  0  0  0  0  0
    1.9372    0.0954   -5.2817 H   0  0  0  0  0  0  0  0  0  0  0  0
    0.8504    0.1243   -3.4141 C   0  0  0  0  0  0  0  0  0  0  0  0
    1.5601    0.7982   -2.9420 H   0  0  0  0  0  0  0  0  0  0  0  0
   -0.1110   -0.5098    1.1543 C   0  0  0  0  0  0  0  0  0  0  0  0
    1.0580   -0.3861    1.4945 O   0  0  0  0  0  0  0  0  0  0  0  0
   -1.0959    0.1067    1.9058 N   0  0  0  0  0  0  0  0  0  0  0  0
   -2.0537   -0.0887    1.6352 H   0  0  0  0  0  0  0  0  0  0  0  0
   -0.8428    0.6785    3.2223 C   0  0  0  0  0  0  0  0  0  0  0  0
   -0.0659    1.4482    3.1642 H   0  0  0  0  0  0  0  0  0  0  0  0
   -1.7537    1.1396    3.6157 H   0  0  0  0  0  0  0  0  0  0  0  0
   -0.5165   -0.0997    3.9202 H   0  0  0  0  0  0  0  0  0  0  0  0
  1  2  1  0  0  0  0
  2  3  1  0  0  0  0
  2  4  1  0  0  0  0
  2  5  1  0  0  0  0
  5  6  2  0  0  0  0
  5  7  1  0  0  0  0
  7  8  1  0  0  0  0
  7  9  1  0  0  0  0
  9 10  1  0  0  0  0
  9 11  1  0  0  0  0
  9 26  1  0  0  0  0
 11 12  1  0  0  0  0
 11 13  1  0  0  0  0
 11 14  1  0  0  0  0
 14 15  2  0  0  0  0
 14 24  1  0  0  0  0
 15 16  1  0  0  0  0
 15 17  1  0  0  0  0
 17 18  1  0  0  0  0
 17 19  2  0  0  0  0
 19 20  1  0  0  0  0
 19 22  1  0  0  0  0
 20 21  1  0  0  0  0
 22 23  1  0  0  0  0
 22 24  2  0  0  0  0
 24 25  1  0  0  0  0
 26 27  2  0  0  0  0
 26 28  1  0  0  0  0
 28 29  1  0  0  0  0
 28 30  1  0  0  0  0
 30 31  1  0  0  0  0
 30 32  1  0  0  0  0
 30 33  1  0  0  0  0
M  END
$$$$

  -OEChem-03222214083D

 33 33  0     1  0  0  0  0  0999 V2000
   -3.2706   -4.6146    0.7433 H   0  0  0  0  0  0  0  0  0  0  0  0
   -3.2341   -3.7212    0.1131 C   0  0  0  0  0  0  0  0  0  0  0  0
   -4.1186   -3.1126    0.3152 H   0  0  0  0  0  0  0  0  0  0  0  0
   -3.2425   -4.0310   -0.9346 H   0  0  0  0  0  0  0  0  0  0  0  0
   -1.9774   -2.9242    0.4092 C   0  0  0  0  0  0  0  0  0  0  0  0
   -1.2263   -3.2880    1.2955 O   0  0  0  0  0  0  0  0  0  0  0  0
   -1.7075   -1.7812   -0.3184 N   0  0  0  0  0  0  0  0  0  0  0  0
   -2.3115   -1.6036   -1.1131 H   0  0  0  0  0  0  0  0  0  0  0  0
   -0.4367   -1.0336   -0.2458 C   0  0  1  0  0  0  0  0  0  0  0  0
    0.3806   -1.7108   -0.5189 H   0  0  0  0  0  0  0  0  0  0  0  0
   -0.4468    0.1461   -1.2370 C   0  0  0  0  0  0  0  0  0  0  0  0
   -1.3846    0.7028   -1.1419 H   0  0  0  0  0  0  0  0  0  0  0  0
    0.3615    0.8395   -0.9777 H   0  0  0  0  0  0  0  0  0  0  0  0
   -0.2607   -0.3051   -2.6703 C   0  0  0  0  0  0  0  0  0  0  0  0
   -1.2965   -0.9230   -3.3914 C   0  0  0  0  0  0  0  0  0  0  0  0
   -2.2765   -1.0528   -2.9465 H   0  0  0  0  0  0  0  0  0  0  0  0
   -1.0868   -1.3607   -4.7051 C   0  0  0  0  0  0  0  0  0  0  0  0
   -1.8989   -1.8290   -5.2505 H   0  0  0  0  0  0  0  0  0  0  0  0
    0.1597   -1.1915   -5.3113 C   0  0  0  0  0  0  0  0  0  0  0  0
    0.3770   -1.6123   -6.5915 O   0  0  0  0  0  0  0  0  0  0  0  0
   -0.4260   -2.0181   -6.9519 H   0  0  0  0  0  0  0  0  0  0  0  0
    1.1933   -0.5865   -4.6007 C   0  0  0  0  0  0  0  0  0  0  0  0
    2.1611   -0.4632   -5.0760 H   0  0  0  0  0  0  0  0  0  0  0  0
    0.9897   -0.1478   -3.2883 C   0  0  0  0  0  0  0  0  0  0  0  0
    1.8147    0.3105   -2.7496 H   0  0  0  0  0  0  0  0  0  0  0  0
   -0.1034   -0.4932    1.1617 C   0  0  0  0  0  0  0  0  0  0  0  0
    1.0664   -0.3776    1.5030 O   0  0  0  0  0  0  0  0  0  0  0  0
   -1.0862    0.1262    1.9133 N   0  0  0  0  0  0  0  0  0  0  0  0
   -2.0435   -0.0807    1.6487 H   0  0  0  0  0  0  0  0  0  0  0  0
   -0.8320    0.6797    3.2373 C   0  0  0  0  0  0  0  0  0  0  0  0
   -0.0523    1.4470    3.1895 H   0  0  0  0  0  0  0  0  0  0  0  0
   -1.7415    1.1388    3.6362 H   0  0  0  0  0  0  0  0  0  0  0  0
   -0.5083   -0.1089    3.9246 H   0  0  0  0  0  0  0  0  0  0  0  0
  1  2  1  0  0  0  0
  2  3  1  0  0  0  0
  2  4  1  0  0  0  0
  2  5  1  0  0  0  0
  5  6  2  0  0  0  0
  5  7  1  0  0  0  0
  7  8  1  0  0  0  0
  7  9  1  0  0  0  0
  9 10  1  0  0  0  0
  9 11  1  0  0  0  0
  9 26  1  0  0  0  0
 11 12  1  0  0  0  0
 11 13  1  0  0  0  0
 11 14  1  0  0  0  0
 14 15  2  0  0  0  0
 14 24  1  0  0  0  0
 15 16  1  0  0  0  0
 15 17  1  0  0  0  0
 17 18  1  0  0  0  0
 17 19  2  0  0  0  0
 19 20  1  0  0  0  0
 19 22  1  0  0  0  0
 20 21  1  0  0  0  0
 22 23  1  0  0  0  0
 22 24  2  0  0  0  0
 24 25  1  0  0  0  0
 26 27  2  0  0  0  0
 26 28  1  0  0  0  0
 28 29  1  0  0  0  0
 28 30  1  0  0  0  0
 30 31  1  0  0  0  0
 30 32  1  0  0  0  0
 30 33  1  0  0  0  0
M  END
$$$$

  -OEChem-03222214083D

 33 33  0     1  0  0  0  0  0999 V2000
   -3.2531   -4.6194    0.6280 H   0  0  0  0  0  0  0  0  0  0  0  0
   -3.2008   -3.7228    0.0035 C   0  0  0  0  0  0  0  0  0  0  0  0
   -4.1122   -3.1380    0.1496 H   0  0  0  0  0  0  0  0  0  0  0  0
   -3.1341   -4.0285   -1.0435 H   0  0  0  0  0  0  0  0  0  0  0  0
   -1.9869   -2.8946    0.3813 C   0  0  0  0  0  0  0  0  0  0  0  0
   -1.2915   -3.2352    1.3209 O   0  0  0  0  0  0  0  0  0  0  0  0
   -1.6928   -1.7529   -0.3384 N   0  0  0  0  0  0  0  0  0  0  0  0
   -2.2243   -1.6277   -1.1939 H   0  0  0  0  0  0  0  0  0  0  0  0
   -0.4138   -1.0232   -0.2365 C   0  0  1  0  0  0  0  0  0  0  0  0
    0.4027   -1.7023   -0.5064 H   0  0  0  0  0  0  0  0  0  0  0  0
   -0.4273    0.1643   -1.2150 C   0  0  0  0  0  0  0  0  0  0  0  0
   -1.3620    0.7252   -1.1144 H   0  0  0  0  0  0  0  0  0  0  0  0
    0.3872    0.8533   -0.9635 H   0  0  0  0  0  0  0  0  0  0  0  0
   -0.2411   -0.3015   -2.6395 C   0  0  0  0  0  0  0  0  0  0  0  0
   -1.3457   -0.6341   -3.4396 C   0  0  0  0  0  0  0  0  0  0  0  0
   -2.3541   -0.5259   -3.0530 H   0  0  0  0  0  0  0  0  0  0  0  0
   -1.1595   -1.0913   -4.7497 C   0  0  0  0  0  0  0  0  0  0  0  0
   -2.0217   -1.3386   -5.3591 H   0  0  0  0  0  0  0  0  0  0  0  0
    0.1298   -1.2234   -5.2704 C   0  0  0  0  0  0  0  0  0  0  0  0
    0.3237   -1.6650   -6.5475 O   0  0  0  0  0  0  0  0  0  0  0  0
   -0.5287   -1.8346   -6.9769 H   0  0  0  0  0  0  0  0  0  0  0  0
    1.2298   -0.8996   -4.4783 C   0  0  0  0  0  0  0  0  0  0  0  0
    2.2286   -1.0073   -4.8889 H   0  0  0  0  0  0  0  0  0  0  0  0
    1.0500   -0.4430   -3.1684 C   0  0  0  0  0  0  0  0  0  0  0  0
    1.9188   -0.2025   -2.5613 H   0  0  0  0  0  0  0  0  0  0  0  0
   -0.0930   -0.4896    1.1764 C   0  0  0  0  0  0  0  0  0  0  0  0
    1.0741   -0.3911    1.5329 O   0  0  0  0  0  0  0  0  0  0  0  0
   -1.0771    0.1434    1.9145 N   0  0  0  0  0  0  0  0  0  0  0  0
   -2.0332   -0.0555    1.6387 H   0  0  0  0  0  0  0  0  0  0  0  0
   -0.8335    0.6918    3.2426 C   0  0  0  0  0  0  0  0  0  0  0  0
   -0.0514    1.4573    3.2037 H   0  0  0  0  0  0  0  0  0  0  0  0
   -1.7455    1.1518    3.6349 H   0  0  0  0  0  0  0  0  0  0  0  0
   -0.5186   -0.1000    3.9307 H   0  0  0  0  0  0  0  0  0  0  0  0
  1  2  1  0  0  0  0
  2  3  1  0  0  0  0
  2  4  1  0  0  0  0
  2  5  1  0  0  0  0
  5  6  2  0  0  0  0
  5  7  1  0  0  0  0
  7  8  1  0  0  0  0
  7  9  1  0  0  0  0
  9 10  1  0  0  0  0
  9 11  1  0  0  0  0
  9 26  1  0  0  0  0
 11 12  1  0  0  0  0
 11 13  1  0  0  0  0
 11 14  1  0  0  0  0
 14 15  2  0  0  0  0
 14 24  1  0  0  0  0
 15 16  1  0  0  0  0
 15 17  1  0  0  0  0
 17 18  1  0  0  0  0
 17 19  2  0  0  0  0
 19 20  1  0  0  0  0
 19 22  1  0  0  0  0
 20 21  1  0  0  0  0
 22 23  1  0  0  0  0
 22 24  2  0  0  0  0
 24 25  1  0  0  0  0
 26 27  2  0  0  0  0
 26 28  1  0  0  0  0
 28 29  1  0  0  0  0
 28 30  1  0  0  0  0
 30 31  1  0  0  0  0
 30 32  1  0  0  0  0
 30 33  1  0  0  0  0
M  END
$$$$

  -OEChem-03222214083D

 33 33  0     1  0  0  0  0  0999 V2000
   -3.2640   -4.6146    0.6076 H   0  0  0  0  0  0  0  0  0  0  0  0
   -3.2001   -3.7217   -0.0211 C   0  0  0  0  0  0  0  0  0  0  0  0
   -4.1165   -3.1396    0.1003 H   0  0  0  0  0  0  0  0  0  0  0  0
   -3.1086   -4.0336   -1.0643 H   0  0  0  0  0  0  0  0  0  0  0  0
   -1.9974   -2.8874    0.3788 C   0  0  0  0  0  0  0  0  0  0  0  0
   -1.3178   -3.2250    1.3311 O   0  0  0  0  0  0  0  0  0  0  0  0
   -1.6881   -1.7495   -0.3407 N   0  0  0  0  0  0  0  0  0  0  0  0
   -2.2021   -1.6286   -1.2085 H   0  0  0  0  0  0  0  0  0  0  0  0
   -0.4045   -1.0302   -0.2257 C   0  0  1  0  0  0  0  0  0  0  0  0
    0.4095   -1.7158   -0.4863 H   0  0  0  0  0  0  0  0  0  0  0  0
   -0.4161    0.1539   -1.2074 C   0  0  0  0  0  0  0  0  0  0  0  0
   -1.3472    0.7207   -1.1050 H   0  0  0  0  0  0  0  0  0  0  0  0
    0.4047    0.8378   -0.9626 H   0  0  0  0  0  0  0  0  0  0  0  0
   -0.2270   -0.3198   -2.6286 C   0  0  0  0  0  0  0  0  0  0  0  0
   -1.3097   -0.3575   -3.5208 C   0  0  0  0  0  0  0  0  0  0  0  0
   -2.2938   -0.0281   -3.2011 H   0  0  0  0  0  0  0  0  0  0  0  0
   -1.1304   -0.8104   -4.8336 C   0  0  0  0  0  0  0  0  0  0  0  0
   -1.9756   -0.8314   -5.5128 H   0  0  0  0  0  0  0  0  0  0  0  0
    0.1305   -1.2273   -5.2663 C   0  0  0  0  0  0  0  0  0  0  0  0
    0.3176   -1.6677   -6.5447 O   0  0  0  0  0  0  0  0  0  0  0  0
   -0.5104   -1.6063   -7.0452 H   0  0  0  0  0  0  0  0  0  0  0  0
    1.2090   -1.1897   -4.3844 C   0  0  0  0  0  0  0  0  0  0  0  0
    2.1859   -1.5142   -4.7280 H   0  0  0  0  0  0  0  0  0  0  0  0
    1.0364   -0.7375   -3.0719 C   0  0  0  0  0  0  0  0  0  0  0  0
    1.8876   -0.7146   -2.3961 H   0  0  0  0  0  0  0  0  0  0  0  0
   -0.0903   -0.4945    1.1880 C   0  0  0  0  0  0  0  0  0  0  0  0
    1.0752   -0.4074    1.5525 O   0  0  0  0  0  0  0  0  0  0  0  0
   -1.0732    0.1506    1.9176 N   0  0  0  0  0  0  0  0  0  0  0  0
   -2.0294   -0.0414    1.6372 H   0  0  0  0  0  0  0  0  0  0  0  0
   -0.8329    0.7048    3.2440 C   0  0  0  0  0  0  0  0  0  0  0  0
   -0.0455    1.4648    3.2054 H   0  0  0  0  0  0  0  0  0  0  0  0
   -1.7436    1.1732    3.6291 H   0  0  0  0  0  0  0  0  0  0  0  0
   -0.5266   -0.0848    3.9382 H   0  0  0  0  0  0  0  0  0  0  0  0
  1  2  1  0  0  0  0
  2  3  1  0  0  0  0
  2  4  1  0  0  0  0
  2  5  1  0  0  0  0
  5  6  2  0  0  0  0
  5  7  1  0  0  0  0
  7  8  1  0  0  0  0
  7  9  1  0  0  0  0
  9 10  1  0  0  0  0
  9 11  1  0  0  0  0
  9 26  1  0  0  0  0
 11 12  1  0  0  0  0
 11 13  1  0  0  0  0
 11 14  1  0  0  0  0
 14 15  2  0  0  0  0
 14 24  1  0  0  0  0
 15 16  1  0  0  0  0
 15 17  1  0  0  0  0
 17 18  1  0  0  0  0
 17 19  2  0  0  0  0
 19 20  1  0  0  0  0
 19 22  1  0  0  0  0
 20 21  1  0  0  0  0
 22 23  1  0  0  0  0
 22 24  2  0  0  0  0
 24 25  1  0  0  0  0
 26 27  2  0  0  0  0
 26 28  1  0  0  0  0
 28 29  1  0  0  0  0
 28 30  1  0  0  0  0
 30 31  1  0  0  0  0
 30 32  1  0  0  0  0
 30 33  1  0  0  0  0
M  END
$$$$

  -OEChem-03222214083D

 33 33  0     1  0  0  0  0  0999 V2000
   -3.2917   -4.6081    0.6534 H   0  0  0  0  0  0  0  0  0  0  0  0
   -3.2274   -3.7126    0.0285 C   0  0  0  0  0  0  0  0  0  0  0  0
   -4.1329   -3.1181    0.1711 H   0  0  0  0  0  0  0  0  0  0  0  0
   -3.1605   -4.0200   -1.0179 H   0  0  0  0  0  0  0  0  0  0  0  0
   -2.0059   -2.8972    0.4093 C   0  0  0  0  0  0  0  0  0  0  0  0
   -1.3270   -3.2344    1.3623 O   0  0  0  0  0  0  0  0  0  0  0  0
   -1.6821   -1.7724   -0.3242 N   0  0  0  0  0  0  0  0  0  0  0  0
   -2.1981   -1.6499   -1.1910 H   0  0  0  0  0  0  0  0  0  0  0  0
   -0.3957   -1.0588   -0.2103 C   0  0  1  0  0  0  0  0  0  0  0  0
    0.4161   -1.7536   -0.4492 H   0  0  0  0  0  0  0  0  0  0  0  0
   -0.4031    0.1117   -1.2102 C   0  0  0  0  0  0  0  0  0  0  0  0
   -1.3320    0.6820   -1.1084 H   0  0  0  0  0  0  0  0  0  0  0  0
    0.4199    0.7949   -0.9719 H   0  0  0  0  0  0  0  0  0  0  0  0
   -0.2118   -0.3620   -2.6334 C   0  0  0  0  0  0  0  0  0  0  0  0
   -1.1960   -0.1104   -3.6021 C   0  0  0  0  0  0  0  0  0  0  0  0
   -2.1057    0.4185   -3.3334 H   0  0  0  0  0  0  0  0  0  0  0  0
   -1.0154   -0.5330   -4.9248 C   0  0  0  0  0  0  0  0  0  0  0  0
   -1.7865   -0.3314   -5.6603 H   0  0  0  0  0  0  0  0  0  0  0  0
    0.1526   -1.2033   -5.2946 C   0  0  0  0  0  0  0  0  0  0  0  0
    0.3417   -1.6179   -6.5811 O   0  0  0  0  0  0  0  0  0  0  0  0
   -0.4006   -1.3354   -7.1368 H   0  0  0  0  0  0  0  0  0  0  0  0
    1.1394   -1.4438   -4.3411 C   0  0  0  0  0  0  0  0  0  0  0  0
    2.0483   -1.9575   -4.6375 H   0  0  0  0  0  0  0  0  0  0  0  0
    0.9661   -1.0214   -3.0190 C   0  0  0  0  0  0  0  0  0  0  0  0
    1.7557   -1.2063   -2.2954 H   0  0  0  0  0  0  0  0  0  0  0  0
   -0.0917   -0.5037    1.1976 C   0  0  0  0  0  0  0  0  0  0  0  0
    1.0705   -0.4188    1.5724 O   0  0  0  0  0  0  0  0  0  0  0  0
   -1.0781    0.1571    1.9076 N   0  0  0  0  0  0  0  0  0  0  0  0
   -2.0322   -0.0355    1.6202 H   0  0  0  0  0  0  0  0  0  0  0  0
   -0.8494    0.7170    3.2338 C   0  0  0  0  0  0  0  0  0  0  0  0
   -0.0452    1.4597    3.2035 H   0  0  0  0  0  0  0  0  0  0  0  0
   -1.7567    1.2076    3.5987 H   0  0  0  0  0  0  0  0  0  0  0  0
   -0.5724   -0.0734    3.9394 H   0  0  0  0  0  0  0  0  0  0  0  0
  1  2  1  0  0  0  0
  2  3  1  0  0  0  0
  2  4  1  0  0  0  0
  2  5  1  0  0  0  0
  5  6  2  0  0  0  0
  5  7  1  0  0  0  0
  7  8  1  0  0  0  0
  7  9  1  0  0  0  0
  9 10  1  0  0  0  0
  9 11  1  0  0  0  0
  9 26  1  0  0  0  0
 11 12  1  0  0  0  0
 11 13  1  0  0  0  0
 11 14  1  0  0  0  0
 14 15  2  0  0  0  0
 14 24  1  0  0  0  0
 15 16  1  0  0  0  0
 15 17  1  0  0  0  0
 17 18  1  0  0  0  0
 17 19  2  0  0  0  0
 19 20  1  0  0  0  0
 19 22  1  0  0  0  0
 20 21  1  0  0  0  0
 22 23  1  0  0  0  0
 22 24  2  0  0  0  0
 24 25  1  0  0  0  0
 26 27  2  0  0  0  0
 26 28  1  0  0  0  0
 28 29  1  0  0  0  0
 28 30  1  0  0  0  0
 30 31  1  0  0  0  0
 30 32  1  0  0  0  0
 30 33  1  0  0  0  0
M  END
$$$$

  -OEChem-03222214083D

 33 33  0     1  0  0  0  0  0999 V2000
   -3.3297   -4.6026    0.7211 H   0  0  0  0  0  0  0  0  0  0  0  0
   -3.2501   -3.7211    0.0784 C   0  0  0  0  0  0  0  0  0  0  0  0
   -4.1499   -3.1136    0.2004 H   0  0  0  0  0  0  0  0  0  0  0  0
   -3.1781   -4.0509   -0.9609 H   0  0  0  0  0  0  0  0  0  0  0  0
   -2.0226   -2.9117    0.4526 C   0  0  0  0  0  0  0  0  0  0  0  0
   -1.3502   -3.2418    1.4128 O   0  0  0  0  0  0  0  0  0  0  0  0
   -1.6800   -1.8050   -0.2995 N   0  0  0  0  0  0  0  0  0  0  0  0
   -2.1946   -1.6849   -1.1678 H   0  0  0  0  0  0  0  0  0  0  0  0
   -0.3894   -1.0993   -0.1864 C   0  0  1  0  0  0  0  0  0  0  0  0
    0.4200   -1.8048   -0.3931 H   0  0  0  0  0  0  0  0  0  0  0  0
   -0.3859    0.0539   -1.2087 C   0  0  0  0  0  0  0  0  0  0  0  0
   -1.3126    0.6288   -1.1114 H   0  0  0  0  0  0  0  0  0  0  0  0
    0.4397    0.7342   -0.9713 H   0  0  0  0  0  0  0  0  0  0  0  0
   -0.1909   -0.4085   -2.6393 C   0  0  0  0  0  0  0  0  0  0  0  0
   -1.0068    0.1215   -3.6520 C   0  0  0  0  0  0  0  0  0  0  0  0
   -1.7845    0.8390   -3.4066 H   0  0  0  0  0  0  0  0  0  0  0  0
   -0.8319   -0.2635   -4.9866 C   0  0  0  0  0  0  0  0  0  0  0  0
   -1.4770    0.1535   -5.7523 H   0  0  0  0  0  0  0  0  0  0  0  0
    0.1712   -1.1713   -5.3291 C   0  0  0  0  0  0  0  0  0  0  0  0
    0.3520   -1.5533   -6.6268 O   0  0  0  0  0  0  0  0  0  0  0  0
   -0.2647   -1.0778   -7.2042 H   0  0  0  0  0  0  0  0  0  0  0  0
    1.0043   -1.6816   -4.3369 C   0  0  0  0  0  0  0  0  0  0  0  0
    1.7939   -2.3730   -4.6138 H   0  0  0  0  0  0  0  0  0  0  0  0
    0.8362   -1.2982   -3.0019 C   0  0  0  0  0  0  0  0  0  0  0  0
    1.5232   -1.6928   -2.2592 H   0  0  0  0  0  0  0  0  0  0  0  0
   -0.0997   -0.5181    1.2145 C   0  0  0  0  0  0  0  0  0  0  0  0
    1.0581   -0.4345    1.6029 O   0  0  0  0  0  0  0  0  0  0  0  0
   -1.0900    0.1640    1.8988 N   0  0  0  0  0  0  0  0  0  0  0  0
   -2.0422   -0.0263    1.6040 H   0  0  0  0  0  0  0  0  0  0  0  0
   -0.8716    0.7569    3.2122 C   0  0  0  0  0  0  0  0  0  0  0  0
   -0.0633    1.4948    3.1717 H   0  0  0  0  0  0  0  0  0  0  0  0
   -1.7799    1.2617    3.5544 H   0  0  0  0  0  0  0  0  0  0  0  0
   -0.6060   -0.0160    3.9412 H   0  0  0  0  0  0  0  0  0  0  0  0
  1  2  1  0  0  0  0
  2  3  1  0  0  0  0
  2  4  1  0  0  0  0
  2  5  1  0  0  0  0
  5  6  2  0  0  0  0
  5  7  1  0  0  0  0
  7  8  1  0  0  0  0
  7  9  1  0  0  0  0
  9 10  1  0  0  0  0
  9 11  1  0  0  0  0
  9 26  1  0  0  0  0
 11 12  1  0  0  0  0
 11 13  1  0  0  0  0
 11 14  1  0  0  0  0
 14 15  2  0  0  0  0
 14 24  1  0  0  0  0
 15 16  1  0  0  0  0
 15 17  1  0  0  0  0
 17 18  1  0  0  0  0
 17 19  2  0  0  0  0
 19 20  1  0  0  0  0
 19 22  1  0  0  0  0
 20 21  1  0  0  0  0
 22 23  1  0  0  0  0
 22 24  2  0  0  0  0
 24 25  1  0  0  0  0
 26 27  2  0  0  0  0
 26 28  1  0  0  0  0
 28 29  1  0  0  0  0
 28 30  1  0  0  0  0
 30 31  1  0  0  0  0
 30 32  1  0  0  0  0
 30 33  1  0  0  0  0
M  END
$$$$

  -OEChem-03222214083D

 33 33  0     1  0  0  0  0  0999 V2000
   -3.3427   -4.5986    0.8046 H   0  0  0  0  0  0  0  0  0  0  0  0
   -3.2609   -3.7243    0.1523 C   0  0  0  0  0  0  0  0  0  0  0  0
   -4.1514   -3.1045    0.2814 H   0  0  0  0  0  0  0  0  0  0  0  0
   -3.2081   -4.0651   -0.8847 H   0  0  0  0  0  0  0  0  0  0  0  0
   -2.0179   -2.9271    0.5015 C   0  0  0  0  0  0  0  0  0  0  0  0
   -1.3440   -3.2484    1.4636 O   0  0  0  0  0  0  0  0  0  0  0  0
   -1.6624   -1.8413   -0.2749 N   0  0  0  0  0  0  0  0  0  0  0  0
   -2.1820   -1.7250   -1.1409 H   0  0  0  0  0  0  0  0  0  0  0  0
   -0.3718   -1.1339   -0.1669 C   0  0  1  0  0  0  0  0  0  0  0  0
    0.4451   -1.8383   -0.3385 H   0  0  0  0  0  0  0  0  0  0  0  0
   -0.3614   -0.0012   -1.2133 C   0  0  0  0  0  0  0  0  0  0  0  0
   -1.2902    0.5718   -1.1254 H   0  0  0  0  0  0  0  0  0  0  0  0
    0.4607    0.6830   -0.9753 H   0  0  0  0  0  0  0  0  0  0  0  0
   -0.1603   -0.4477   -2.6518 C   0  0  0  0  0  0  0  0  0  0  0  0
   -0.7454    0.3189   -3.6732 C   0  0  0  0  0  0  0  0  0  0  0  0
   -1.3347    1.1967   -3.4241 H   0  0  0  0  0  0  0  0  0  0  0  0
   -0.5827   -0.0295   -5.0191 C   0  0  0  0  0  0  0  0  0  0  0  0
   -1.0503    0.5756   -5.7880 H   0  0  0  0  0  0  0  0  0  0  0  0
    0.1809   -1.1435   -5.3672 C   0  0  0  0  0  0  0  0  0  0  0  0
    0.3483   -1.4929   -6.6759 O   0  0  0  0  0  0  0  0  0  0  0  0
   -0.0804   -0.8423   -7.2530 H   0  0  0  0  0  0  0  0  0  0  0  0
    0.7876   -1.8981   -4.3671 C   0  0  0  0  0  0  0  0  0  0  0  0
    1.3945   -2.7531   -4.6472 H   0  0  0  0  0  0  0  0  0  0  0  0
    0.6308   -1.5534   -3.0199 C   0  0  0  0  0  0  0  0  0  0  0  0
    1.1472   -2.1584   -2.2826 H   0  0  0  0  0  0  0  0  0  0  0  0
   -0.1066   -0.5191    1.2251 C   0  0  0  0  0  0  0  0  0  0  0  0
    1.0426   -0.4339    1.6375 O   0  0  0  0  0  0  0  0  0  0  0  0
   -1.1089    0.1783    1.8762 N   0  0  0  0  0  0  0  0  0  0  0  0
   -2.0551   -0.0106    1.5617 H   0  0  0  0  0  0  0  0  0  0  0  0
   -0.9174    0.7915    3.1848 C   0  0  0  0  0  0  0  0  0  0  0  0
   -0.1037    1.5238    3.1502 H   0  0  0  0  0  0  0  0  0  0  0  0
   -1.8300    1.3071    3.4989 H   0  0  0  0  0  0  0  0  0  0  0  0
   -0.6734    0.0286    3.9316 H   0  0  0  0  0  0  0  0  0  0  0  0
  1  2  1  0  0  0  0
  2  3  1  0  0  0  0
  2  4  1  0  0  0  0
  2  5  1  0  0  0  0
  5  6  2  0  0  0  0
  5  7  1  0  0  0  0
  7  8  1  0  0  0  0
  7  9  1  0  0  0  0
  9 10  1  0  0  0  0
  9 11  1  0  0  0  0
  9 26  1  0  0  0  0
 11 12  1  0  0  0  0
 11 13  1  0  0  0  0
 11 14  1  0  0  0  0
 14 15  2  0  0  0  0
 14 24  1  0  0  0  0
 15 16  1  0  0  0  0
 15 17  1  0  0  0  0
 17 18  1  0  0  0  0
 17 19  2  0  0  0  0
 19 20  1  0  0  0  0
 19 22  1  0  0  0  0
 20 21  1  0  0  0  0
 22 23  1  0  0  0  0
 22 24  2  0  0  0  0
 24 25  1  0  0  0  0
 26 27  2  0  0  0  0
 26 28  1  0  0  0  0
 28 29  1  0  0  0  0
 28 30  1  0  0  0  0
 30 31  1  0  0  0  0
 30 32  1  0  0  0  0
 30 33  1  0  0  0  0
M  END
$$$$

  -OEChem-03222214083D

 33 33  0     1  0  0  0  0  0999 V2000
   -3.3483   -4.5945    0.8518 H   0  0  0  0  0  0  0  0  0  0  0  0
   -3.2556   -3.7336    0.1835 C   0  0  0  0  0  0  0  0  0  0  0  0
   -4.1404   -3.1028    0.2972 H   0  0  0  0  0  0  0  0  0  0  0  0
   -3.2028   -4.0944   -0.8466 H   0  0  0  0  0  0  0  0  0  0  0  0
   -2.0063   -2.9420    0.5224 C   0  0  0  0  0  0  0  0  0  0  0  0
   -1.3270   -3.2642    1.4801 O   0  0  0  0  0  0  0  0  0  0  0  0
   -1.6467   -1.8639   -0.2627 N   0  0  0  0  0  0  0  0  0  0  0  0
   -2.1787   -1.7373   -1.1199 H   0  0  0  0  0  0  0  0  0  0  0  0
   -0.3589   -1.1504   -0.1565 C   0  0  1  0  0  0  0  0  0  0  0  0
    0.4692   -1.8459   -0.3175 H   0  0  0  0  0  0  0  0  0  0  0  0
   -0.3470   -0.0279   -1.2127 C   0  0  0  0  0  0  0  0  0  0  0  0
   -1.2787    0.5422   -1.1353 H   0  0  0  0  0  0  0  0  0  0  0  0
    0.4717    0.6593   -0.9706 H   0  0  0  0  0  0  0  0  0  0  0  0
   -0.1395   -0.4666   -2.6537 C   0  0  0  0  0  0  0  0  0  0  0  0
   -0.4391    0.4597   -3.6659 C   0  0  0  0  0  0  0  0  0  0  0  0
   -0.7962    1.4514   -3.4026 H   0  0  0  0  0  0  0  0  0  0  0  0
   -0.2814    0.1294   -5.0168 C   0  0  0  0  0  0  0  0  0  0  0  0
   -0.5192    0.8645   -5.7779 H   0  0  0  0  0  0  0  0  0  0  0  0
    0.1812   -1.1354   -5.3791 C   0  0  0  0  0  0  0  0  0  0  0  0
    0.3382   -1.4709   -6.6926 O   0  0  0  0  0  0  0  0  0  0  0  0
    0.1300   -0.7114   -7.2582 H   0  0  0  0  0  0  0  0  0  0  0  0
    0.4879   -2.0631   -4.3875 C   0  0  0  0  0  0  0  0  0  0  0  0
    0.8540   -3.0429   -4.6774 H   0  0  0  0  0  0  0  0  0  0  0  0
    0.3344   -1.7381   -3.0350 C   0  0  0  0  0  0  0  0  0  0  0  0
    0.5946   -2.4982   -2.3066 H   0  0  0  0  0  0  0  0  0  0  0  0
   -0.1070   -0.5193    1.2312 C   0  0  0  0  0  0  0  0  0  0  0  0
    1.0385   -0.4197    1.6507 O   0  0  0  0  0  0  0  0  0  0  0  0
   -1.1176    0.1804    1.8668 N   0  0  0  0  0  0  0  0  0  0  0  0
   -2.0611   -0.0159    1.5495 H   0  0  0  0  0  0  0  0  0  0  0  0
   -0.9360    0.8232    3.1622 C   0  0  0  0  0  0  0  0  0  0  0  0
   -0.1323    1.5654    3.1132 H   0  0  0  0  0  0  0  0  0  0  0  0
   -1.8557    1.3329    3.4643 H   0  0  0  0  0  0  0  0  0  0  0  0
   -0.6828    0.0797    3.9252 H   0  0  0  0  0  0  0  0  0  0  0  0
  1  2  1  0  0  0  0
  2  3  1  0  0  0  0
  2  4  1  0  0  0  0
  2  5  1  0  0  0  0
  5  6  2  0  0  0  0
  5  7  1  0  0  0  0
  7  8  1  0  0  0  0
  7  9  1  0  0  0  0
  9 10  1  0  0  0  0
  9 11  1  0  0  0  0
  9 26  1  0  0  0  0
 11 12  1  0  0  0  0
 11 13  1  0  0  0  0
 11 14  1  0  0  0  0
 14 15  2  0  0  0  0
 14 24  1  0  0  0  0
 15 16  1  0  0  0  0
 15 17  1  0  0  0  0
 17 18  1  0  0  0  0
 17 19  2  0  0  0  0
 19 20  1  0  0  0  0
 19 22  1  0  0  0  0
 20 21  1  0  0  0  0
 22 23  1  0  0  0  0
 22 24  2  0  0  0  0
 24 25  1  0  0  0  0
 26 27  2  0  0  0  0
 26 28  1  0  0  0  0
 28 29  1  0  0  0  0
 28 30  1  0  0  0  0
 30 31  1  0  0  0  0
 30 32  1  0  0  0  0
 30 33  1  0  0  0  0
M  END
$$$$

  -OEChem-03222214083D

 33 33  0     1  0  0  0  0  0999 V2000
   -3.3611   -4.6028    0.9804 H   0  0  0  0  0  0  0  0  0  0  0  0
   -3.3009   -3.7420    0.3082 C   0  0  0  0  0  0  0  0  0  0  0  0
   -4.1670   -3.0989    0.4817 H   0  0  0  0  0  0  0  0  0  0  0  0
   -3.3222   -4.1008   -0.7238 H   0  0  0  0  0  0  0  0  0  0  0  0
   -2.0205   -2.9690    0.5635 C   0  0  0  0  0  0  0  0  0  0  0  0
   -1.2718   -3.3130    1.4598 O   0  0  0  0  0  0  0  0  0  0  0  0
   -1.7114   -1.8792   -0.2257 N   0  0  0  0  0  0  0  0  0  0  0  0
   -2.3195   -1.7056   -1.0223 H   0  0  0  0  0  0  0  0  0  0  0  0
   -0.4327   -1.1419   -0.1714 C   0  0  1  0  0  0  0  0  0  0  0  0
    0.3838   -1.8407   -0.3847 H   0  0  0  0  0  0  0  0  0  0  0  0
   -0.4318   -0.0387   -1.2465 C   0  0  0  0  0  0  0  0  0  0  0  0
   -1.2358    0.6691   -1.0194 H   0  0  0  0  0  0  0  0  0  0  0  0
    0.5141    0.5086   -1.1669 H   0  0  0  0  0  0  0  0  0  0  0  0
   -0.5845   -0.4903   -2.6915 C   0  0  0  0  0  0  0  0  0  0  0  0
   -0.5893    0.5027   -3.6841 C   0  0  0  0  0  0  0  0  0  0  0  0
   -0.5183    1.5491   -3.4005 H   0  0  0  0  0  0  0  0  0  0  0  0
   -0.6923    0.1687   -5.0392 C   0  0  0  0  0  0  0  0  0  0  0  0
   -0.7059    0.9575   -5.7834 H   0  0  0  0  0  0  0  0  0  0  0  0
   -0.7705   -1.1685   -5.4272 C   0  0  0  0  0  0  0  0  0  0  0  0
   -0.8713   -1.5081   -6.7451 O   0  0  0  0  0  0  0  0  0  0  0  0
   -0.8387   -0.7123   -7.2982 H   0  0  0  0  0  0  0  0  0  0  0  0
   -0.7297   -2.1669   -4.4581 C   0  0  0  0  0  0  0  0  0  0  0  0
   -0.7656   -3.2056   -4.7704 H   0  0  0  0  0  0  0  0  0  0  0  0
   -0.6249   -1.8386   -3.1021 C   0  0  0  0  0  0  0  0  0  0  0  0
   -0.5571   -2.6553   -2.3912 H   0  0  0  0  0  0  0  0  0  0  0  0
   -0.1170   -0.5104    1.2013 C   0  0  0  0  0  0  0  0  0  0  0  0
    1.0472   -0.3951    1.5606 O   0  0  0  0  0  0  0  0  0  0  0  0
   -1.1035    0.1719    1.8911 N   0  0  0  0  0  0  0  0  0  0  0  0
   -2.0592   -0.0255    1.6131 H   0  0  0  0  0  0  0  0  0  0  0  0
   -0.8674    0.8065    3.1818 C   0  0  0  0  0  0  0  0  0  0  0  0
   -0.0744    1.5576    3.1014 H   0  0  0  0  0  0  0  0  0  0  0  0
   -1.7773    1.3039    3.5311 H   0  0  0  0  0  0  0  0  0  0  0  0
   -0.5711    0.0595    3.9259 H   0  0  0  0  0  0  0  0  0  0  0  0
  1  2  1  0  0  0  0
  2  3  1  0  0  0  0
  2  4  1  0  0  0  0
  2  5  1  0  0  0  0
  5  6  2  0  0  0  0
  5  7  1  0  0  0  0
  7  8  1  0  0  0  0
  7  9  1  0  0  0  0
  9 10  1  0  0  0  0
  9 11  1  0  0  0  0
  9 26  1  0  0  0  0
 11 12  1  0  0  0  0
 11 13  1  0  0  0  0
 11 14  1  0  0  0  0
 14 15  2  0  0  0  0
 14 24  1  0  0  0  0
 15 16  1  0  0  0  0
 15 17  1  0  0  0  0
 17 18  1  0  0  0  0
 17 19  2  0  0  0  0
 19 20  1  0  0  0  0
 19 22  1  0  0  0  0
 20 21  1  0  0  0  0
 22 23  1  0  0  0  0
 22 24  2  0  0  0  0
 24 25  1  0  0  0  0
 26 27  2  0  0  0  0
 26 28  1  0  0  0  0
 28 29  1  0  0  0  0
 28 30  1  0  0  0  0
 30 31  1  0  0  0  0
 30 32  1  0  0  0  0
 30 33  1  0  0  0  0
M  END
$$$$

  -OEChem-03222214083D

 33 33  0     1  0  0  0  0  0999 V2000
   -3.3710   -4.5941    1.1093 H   0  0  0  0  0  0  0  0  0  0  0  0
   -3.3264   -3.7434    0.4233 C   0  0  0  0  0  0  0  0  0  0  0  0
   -4.1730   -3.0831    0.6260 H   0  0  0  0  0  0  0  0  0  0  0  0
   -3.3995   -4.1151   -0.6017 H   0  0  0  0  0  0  0  0  0  0  0  0
   -2.0230   -2.9900    0.6120 C   0  0  0  0  0  0  0  0  0  0  0  0
   -1.2367   -3.3424    1.4720 O   0  0  0  0  0  0  0  0  0  0  0  0
   -1.7375   -1.9054   -0.1934 N   0  0  0  0  0  0  0  0  0  0  0  0
   -2.3992   -1.6960   -0.9364 H   0  0  0  0  0  0  0  0  0  0  0  0
   -0.4634   -1.1589   -0.1765 C   0  0  1  0  0  0  0  0  0  0  0  0
    0.3463   -1.8638   -0.3965 H   0  0  0  0  0  0  0  0  0  0  0  0
   -0.4580   -0.0697   -1.2675 C   0  0  0  0  0  0  0  0  0  0  0  0
   -1.2561    0.6453   -1.0436 H   0  0  0  0  0  0  0  0  0  0  0  0
    0.4916    0.4709   -1.1826 H   0  0  0  0  0  0  0  0  0  0  0  0
   -0.6128   -0.5043   -2.7204 C   0  0  0  0  0  0  0  0  0  0  0  0
   -0.2890    0.4441   -3.7053 C   0  0  0  0  0  0  0  0  0  0  0  0
    0.0146    1.4449   -3.4107 H   0  0  0  0  0  0  0  0  0  0  0  0
   -0.3624    0.1317   -5.0674 C   0  0  0  0  0  0  0  0  0  0  0  0
   -0.1217    0.8919   -5.8028 H   0  0  0  0  0  0  0  0  0  0  0  0
   -0.7370   -1.1487   -5.4719 C   0  0  0  0  0  0  0  0  0  0  0  0
   -0.8119   -1.4694   -6.7963 O   0  0  0  0  0  0  0  0  0  0  0  0
   -0.5351   -0.7145   -7.3386 H   0  0  0  0  0  0  0  0  0  0  0  0
   -1.0196   -2.1145   -4.5110 C   0  0  0  0  0  0  0  0  0  0  0  0
   -1.2814   -3.1167   -4.8347 H   0  0  0  0  0  0  0  0  0  0  0  0
   -0.9467   -1.8065   -3.1481 C   0  0  0  0  0  0  0  0  0  0  0  0
   -1.1272   -2.6170   -2.4533 H   0  0  0  0  0  0  0  0  0  0  0  0
   -0.1248   -0.5142    1.1846 C   0  0  0  0  0  0  0  0  0  0  0  0
    1.0453   -0.3835    1.5183 O   0  0  0  0  0  0  0  0  0  0  0  0
   -1.1035    0.1653    1.8884 N   0  0  0  0  0  0  0  0  0  0  0  0
   -2.0629   -0.0403    1.6303 H   0  0  0  0  0  0  0  0  0  0  0  0
   -0.8474    0.8128    3.1688 C   0  0  0  0  0  0  0  0  0  0  0  0
   -0.0597    1.5668    3.0679 H   0  0  0  0  0  0  0  0  0  0  0  0
   -1.7531    1.3092    3.5296 H   0  0  0  0  0  0  0  0  0  0  0  0
   -0.5345    0.0742    3.9142 H   0  0  0  0  0  0  0  0  0  0  0  0
  1  2  1  0  0  0  0
  2  3  1  0  0  0  0
  2  4  1  0  0  0  0
  2  5  1  0  0  0  0
  5  6  2  0  0  0  0
  5  7  1  0  0  0  0
  7  8  1  0  0  0  0
  7  9  1  0  0  0  0
  9 10  1  0  0  0  0
  9 11  1  0  0  0  0
  9 26  1  0  0  0  0
 11 12  1  0  0  0  0
 11 13  1  0  0  0  0
 11 14  1  0  0  0  0
 14 15  2  0  0  0  0
 14 24  1  0  0  0  0
 15 16  1  0  0  0  0
 15 17  1  0  0  0  0
 17 18  1  0  0  0  0
 17 19  2  0  0  0  0
 19 20  1  0  0  0  0
 19 22  1  0  0  0  0
 20 21  1  0  0  0  0
 22 23  1  0  0  0  0
 22 24  2  0  0  0  0
 24 25  1  0  0  0  0
 26 27  2  0  0  0  0
 26 28  1  0  0  0  0
 28 29  1  0  0  0  0
 28 30  1  0  0  0  0
 30 31  1  0  0  0  0
 30 32  1  0  0  0  0
 30 33  1  0  0  0  0
M  END
$$$$

  -OEChem-03222214083D

 33 33  0     1  0  0  0  0  0999 V2000
   -3.3434   -4.6007    1.2241 H   0  0  0  0  0  0  0  0  0  0  0  0
   -3.3186   -3.7602    0.5245 C   0  0  0  0  0  0  0  0  0  0  0  0
   -4.1476   -3.0869    0.7547 H   0  0  0  0  0  0  0  0  0  0  0  0
   -3.4404   -4.1454   -0.4907 H   0  0  0  0  0  0  0  0  0  0  0  0
   -1.9993   -3.0205    0.6443 C   0  0  0  0  0  0  0  0  0  0  0  0
   -1.1742   -3.3791    1.4646 O   0  0  0  0  0  0  0  0  0  0  0  0
   -1.7463   -1.9360   -0.1726 N   0  0  0  0  0  0  0  0  0  0  0  0
   -2.4626   -1.6868   -0.8484 H   0  0  0  0  0  0  0  0  0  0  0  0
   -0.4845   -1.1719   -0.1851 C   0  0  1  0  0  0  0  0  0  0  0  0
    0.3249   -1.8772   -0.4055 H   0  0  0  0  0  0  0  0  0  0  0  0
   -0.4653   -0.0881   -1.2854 C   0  0  0  0  0  0  0  0  0  0  0  0
   -1.2650    0.6281   -1.0716 H   0  0  0  0  0  0  0  0  0  0  0  0
    0.4825    0.4526   -1.1828 H   0  0  0  0  0  0  0  0  0  0  0  0
   -0.6087   -0.5123   -2.7455 C   0  0  0  0  0  0  0  0  0  0  0  0
    0.0268    0.2980   -3.7038 C   0  0  0  0  0  0  0  0  0  0  0  0
    0.5763    1.1809   -3.3887 H   0  0  0  0  0  0  0  0  0  0  0  0
   -0.0346   -0.0011   -5.0692 C   0  0  0  0  0  0  0  0  0  0  0  0
    0.4622    0.6499   -5.7802 H   0  0  0  0  0  0  0  0  0  0  0  0
   -0.7270   -1.1277   -5.5073 C   0  0  0  0  0  0  0  0  0  0  0  0
   -0.7930   -1.4350   -6.8354 O   0  0  0  0  0  0  0  0  0  0  0  0
   -0.2733   -0.7987   -7.3508 H   0  0  0  0  0  0  0  0  0  0  0  0
   -1.3508   -1.9511   -4.5757 C   0  0  0  0  0  0  0  0  0  0  0  0
   -1.8764   -2.8336   -4.9258 H   0  0  0  0  0  0  0  0  0  0  0  0
   -1.2934   -1.6554   -3.2090 C   0  0  0  0  0  0  0  0  0  0  0  0
   -1.7820   -2.3552   -2.5470 H   0  0  0  0  0  0  0  0  0  0  0  0
   -0.1340   -0.5172    1.1685 C   0  0  0  0  0  0  0  0  0  0  0  0
    1.0390   -0.3670    1.4836 O   0  0  0  0  0  0  0  0  0  0  0  0
   -1.1110    0.1494    1.8867 N   0  0  0  0  0  0  0  0  0  0  0  0
   -2.0720   -0.0639    1.6417 H   0  0  0  0  0  0  0  0  0  0  0  0
   -0.8429    0.8101    3.1580 C   0  0  0  0  0  0  0  0  0  0  0  0
   -0.0725    1.5792    3.0371 H   0  0  0  0  0  0  0  0  0  0  0  0
   -1.7513    1.2904    3.5335 H   0  0  0  0  0  0  0  0  0  0  0  0
   -0.5002    0.0826    3.9015 H   0  0  0  0  0  0  0  0  0  0  0  0
  1  2  1  0  0  0  0
  2  3  1  0  0  0  0
  2  4  1  0  0  0  0
  2  5  1  0  0  0  0
  5  6  2  0  0  0  0
  5  7  1  0  0  0  0
  7  8  1  0  0  0  0
  7  9  1  0  0  0  0
  9 10  1  0  0  0  0
  9 11  1  0  0  0  0
  9 26  1  0  0  0  0
 11 12  1  0  0  0  0
 11 13  1  0  0  0  0
 11 14  1  0  0  0  0
 14 15  2  0  0  0  0
 14 24  1  0  0  0  0
 15 16  1  0  0  0  0
 15 17  1  0  0  0  0
 17 18  1  0  0  0  0
 17 19  2  0  0  0  0
 19 20  1  0  0  0  0
 19 22  1  0  0  0  0
 20 21  1  0  0  0  0
 22 23  1  0  0  0  0
 22 24  2  0  0  0  0
 24 25  1  0  0  0  0
 26 27  2  0  0  0  0
 26 28  1  0  0  0  0
 28 29  1  0  0  0  0
 28 30  1  0  0  0  0
 30 31  1  0  0  0  0
 30 32  1  0  0  0  0
 30 33  1  0  0  0  0
M  END
$$$$

  -OEChem-03222214083D

 33 33  0     1  0  0  0  0  0999 V2000
   -3.2992   -4.6256    1.1989 H   0  0  0  0  0  0  0  0  0  0  0  0
   -3.2880   -3.7773    0.5084 C   0  0  0  0  0  0  0  0  0  0  0  0
   -4.1161   -3.1099    0.7583 H   0  0  0  0  0  0  0  0  0  0  0  0
   -3.4230   -4.1520   -0.5093 H   0  0  0  0  0  0  0  0  0  0  0  0
   -1.9695   -3.0348    0.6168 C   0  0  0  0  0  0  0  0  0  0  0  0
   -1.1308   -3.4013    1.4197 O   0  0  0  0  0  0  0  0  0  0  0  0
   -1.7358   -1.9364   -0.1872 N   0  0  0  0  0  0  0  0  0  0  0  0
   -2.4728   -1.6694   -0.8307 H   0  0  0  0  0  0  0  0  0  0  0  0
   -0.4840   -1.1570   -0.1971 C   0  0  1  0  0  0  0  0  0  0  0  0
    0.3294   -1.8556   -0.4236 H   0  0  0  0  0  0  0  0  0  0  0  0
   -0.4550   -0.0591   -1.2846 C   0  0  0  0  0  0  0  0  0  0  0  0
   -1.2610    0.6522   -1.0784 H   0  0  0  0  0  0  0  0  0  0  0  0
    0.4870    0.4889   -1.1697 H   0  0  0  0  0  0  0  0  0  0  0  0
   -0.5876   -0.5024   -2.7383 C   0  0  0  0  0  0  0  0  0  0  0  0
    0.2928    0.0682   -3.6756 C   0  0  0  0  0  0  0  0  0  0  0  0
    1.0564    0.7692   -3.3499 H   0  0  0  0  0  0  0  0  0  0  0  0
    0.2176   -0.2551   -5.0349 C   0  0  0  0  0  0  0  0  0  0  0  0
    0.9201    0.1938   -5.7288 H   0  0  0  0  0  0  0  0  0  0  0  0
   -0.7537   -1.1450   -5.4898 C   0  0  0  0  0  0  0  0  0  0  0  0
   -0.8377   -1.4714   -6.8123 O   0  0  0  0  0  0  0  0  0  0  0  0
   -0.1270   -1.0357   -7.3080 H   0  0  0  0  0  0  0  0  0  0  0  0
   -1.6520   -1.6984   -4.5831 C   0  0  0  0  0  0  0  0  0  0  0  0
   -2.4126   -2.3806   -4.9488 H   0  0  0  0  0  0  0  0  0  0  0  0
   -1.5807   -1.3777   -3.2229 C   0  0  0  0  0  0  0  0  0  0  0  0
   -2.3236   -1.8253   -2.5790 H   0  0  0  0  0  0  0  0  0  0  0  0
   -0.1355   -0.5173    1.1641 C   0  0  0  0  0  0  0  0  0  0  0  0
    1.0370   -0.3532    1.4744 O   0  0  0  0  0  0  0  0  0  0  0  0
   -1.1179    0.1264    1.8958 N   0  0  0  0  0  0  0  0  0  0  0  0
   -2.0773   -0.0968    1.6540 H   0  0  0  0  0  0  0  0  0  0  0  0
   -0.8511    0.7838    3.1688 C   0  0  0  0  0  0  0  0  0  0  0  0
   -0.0980    1.5693    3.0451 H   0  0  0  0  0  0  0  0  0  0  0  0
   -1.7654    1.2429    3.5564 H   0  0  0  0  0  0  0  0  0  0  0  0
   -0.4867    0.0586    3.9040 H   0  0  0  0  0  0  0  0  0  0  0  0
  1  2  1  0  0  0  0
  2  3  1  0  0  0  0
  2  4  1  0  0  0  0
  2  5  1  0  0  0  0
  5  6  2  0  0  0  0
  5  7  1  0  0  0  0
  7  8  1  0  0  0  0
  7  9  1  0  0  0  0
  9 10  1  0  0  0  0
  9 11  1  0  0  0  0
  9 26  1  0  0  0  0
 11 12  1  0  0  0  0
 11 13  1  0  0  0  0
 11 14  1  0  0  0  0
 14 15  2  0  0  0  0
 14 24  1  0  0  0  0
 15 16  1  0  0  0  0
 15 17  1  0  0  0  0
 17 18  1  0  0  0  0
 17 19  2  0  0  0  0
 19 20  1  0  0  0  0
 19 22  1  0  0  0  0
 20 21  1  0  0  0  0
 22 23  1  0  0  0  0
 22 24  2  0  0  0  0
 24 25  1  0  0  0  0
 26 27  2  0  0  0  0
 26 28  1  0  0  0  0
 28 29  1  0  0  0  0
 28 30  1  0  0  0  0
 30 31  1  0  0  0  0
 30 32  1  0  0  0  0
 30 33  1  0  0  0  0
M  END
$$$$

  -OEChem-03222214083D

 33 33  0     1  0  0  0  0  0999 V2000
   -3.2413   -4.7014    0.9947 H   0  0  0  0  0  0  0  0  0  0  0  0
   -3.2217   -3.8427    0.3173 C   0  0  0  0  0  0  0  0  0  0  0  0
   -4.1336   -3.2586    0.4624 H   0  0  0  0  0  0  0  0  0  0  0  0
   -3.1908   -4.2093   -0.7116 H   0  0  0  0  0  0  0  0  0  0  0  0
   -2.0037   -2.9830    0.5994 C   0  0  0  0  0  0  0  0  0  0  0  0
   -1.2714   -3.2600    1.5318 O   0  0  0  0  0  0  0  0  0  0  0  0
   -1.7420   -1.8893   -0.2032 N   0  0  0  0  0  0  0  0  0  0  0  0
   -2.3060   -1.8198   -1.0417 H   0  0  0  0  0  0  0  0  0  0  0  0
   -0.4716   -1.1393   -0.1840 C   0  0  1  0  0  0  0  0  0  0  0  0
    0.3335   -1.8474   -0.4095 H   0  0  0  0  0  0  0  0  0  0  0  0
   -0.4239   -0.0195   -1.2474 C   0  0  0  0  0  0  0  0  0  0  0  0
   -1.2185    0.7040   -1.0375 H   0  0  0  0  0  0  0  0  0  0  0  0
    0.5271    0.5147   -1.1413 H   0  0  0  0  0  0  0  0  0  0  0  0
   -0.5730   -0.4934   -2.6827 C   0  0  0  0  0  0  0  0  0  0  0  0
    0.4672   -0.2449   -3.5936 C   0  0  0  0  0  0  0  0  0  0  0  0
    1.3917    0.2129   -3.2527 H   0  0  0  0  0  0  0  0  0  0  0  0
    0.3451   -0.6024   -4.9411 C   0  0  0  0  0  0  0  0  0  0  0  0
    1.1744   -0.4225   -5.6167 H   0  0  0  0  0  0  0  0  0  0  0  0
   -0.8359   -1.1781   -5.4092 C   0  0  0  0  0  0  0  0  0  0  0  0
   -0.9693   -1.5304   -6.7211 O   0  0  0  0  0  0  0  0  0  0  0  0
   -0.1485   -1.3413   -7.2019 H   0  0  0  0  0  0  0  0  0  0  0  0
   -1.8980   -1.3741   -4.5311 C   0  0  0  0  0  0  0  0  0  0  0  0
   -2.8241   -1.7906   -4.9141 H   0  0  0  0  0  0  0  0  0  0  0  0
   -1.7784   -1.0202   -3.1829 C   0  0  0  0  0  0  0  0  0  0  0  0
   -2.6496   -1.1333   -2.5499 H   0  0  0  0  0  0  0  0  0  0  0  0
   -0.1296   -0.5090    1.1836 C   0  0  0  0  0  0  0  0  0  0  0  0
    1.0428   -0.3687    1.5072 O   0  0  0  0  0  0  0  0  0  0  0  0
   -1.1079    0.1583    1.8987 N   0  0  0  0  0  0  0  0  0  0  0  0
   -2.0668   -0.0655    1.6533 H   0  0  0  0  0  0  0  0  0  0  0  0
   -0.8463    0.8053    3.1781 C   0  0  0  0  0  0  0  0  0  0  0  0
   -0.0969    1.5953    3.0624 H   0  0  0  0  0  0  0  0  0  0  0  0
   -1.7637    1.2559    3.5683 H   0  0  0  0  0  0  0  0  0  0  0  0
   -0.4789    0.0758    3.9074 H   0  0  0  0  0  0  0  0  0  0  0  0
  1  2  1  0  0  0  0
  2  3  1  0  0  0  0
  2  4  1  0  0  0  0
  2  5  1  0  0  0  0
  5  6  2  0  0  0  0
  5  7  1  0  0  0  0
  7  8  1  0  0  0  0
  7  9  1  0  0  0  0
  9 10  1  0  0  0  0
  9 11  1  0  0  0  0
  9 26  1  0  0  0  0
 11 12  1  0  0  0  0
 11 13  1  0  0  0  0
 11 14  1  0  0  0  0
 14 15  2  0  0  0  0
 14 24  1  0  0  0  0
 15 16  1  0  0  0  0
 15 17  1  0  0  0  0
 17 18  1  0  0  0  0
 17 19  2  0  0  0  0
 19 20  1  0  0  0  0
 19 22  1  0  0  0  0
 20 21  1  0  0  0  0
 22 23  1  0  0  0  0
 22 24  2  0  0  0  0
 24 25  1  0  0  0  0
 26 27  2  0  0  0  0
 26 28  1  0  0  0  0
 28 29  1  0  0  0  0
 28 30  1  0  0  0  0
 30 31  1  0  0  0  0
 30 32  1  0  0  0  0
 30 33  1  0  0  0  0
M  END
$$$$

  -OEChem-03222214083D

 33 33  0     1  0  0  0  0  0999 V2000
   -3.2342   -4.6930    0.8167 H   0  0  0  0  0  0  0  0  0  0  0  0
   -3.2132   -3.8083    0.1738 C   0  0  0  0  0  0  0  0  0  0  0  0
   -4.1394   -3.2467    0.3171 H   0  0  0  0  0  0  0  0  0  0  0  0
   -3.1486   -4.1337   -0.8675 H   0  0  0  0  0  0  0  0  0  0  0  0
   -2.0192   -2.9391    0.5212 C   0  0  0  0  0  0  0  0  0  0  0  0
   -1.3218   -3.2246    1.4778 O   0  0  0  0  0  0  0  0  0  0  0  0
   -1.7376   -1.8295   -0.2521 N   0  0  0  0  0  0  0  0  0  0  0  0
   -2.2582   -1.7664   -1.1209 H   0  0  0  0  0  0  0  0  0  0  0  0
   -0.4587   -1.0945   -0.1960 C   0  0  1  0  0  0  0  0  0  0  0  0
    0.3451   -1.7985   -0.4388 H   0  0  0  0  0  0  0  0  0  0  0  0
   -0.4277    0.0463   -1.2315 C   0  0  0  0  0  0  0  0  0  0  0  0
   -1.2234    0.7642   -1.0076 H   0  0  0  0  0  0  0  0  0  0  0  0
    0.5226    0.5841   -1.1393 H   0  0  0  0  0  0  0  0  0  0  0  0
   -0.5895   -0.4477   -2.6532 C   0  0  0  0  0  0  0  0  0  0  0  0
    0.5240   -0.4993   -3.5057 C   0  0  0  0  0  0  0  0  0  0  0  0
    1.5088   -0.2317   -3.1319 H   0  0  0  0  0  0  0  0  0  0  0  0
    0.3840   -0.9106   -4.8362 C   0  0  0  0  0  0  0  0  0  0  0  0
    1.2608   -0.9589   -5.4727 H   0  0  0  0  0  0  0  0  0  0  0  0
   -0.8738   -1.2509   -5.3369 C   0  0  0  0  0  0  0  0  0  0  0  0
   -1.0224   -1.6531   -6.6323 O   0  0  0  0  0  0  0  0  0  0  0  0
   -0.1631   -1.6490   -7.0823 H   0  0  0  0  0  0  0  0  0  0  0  0
   -1.9910   -1.1640   -4.5093 C   0  0  0  0  0  0  0  0  0  0  0  0
   -2.9668   -1.4074   -4.9169 H   0  0  0  0  0  0  0  0  0  0  0  0
   -1.8566   -0.7520   -3.1794 C   0  0  0  0  0  0  0  0  0  0  0  0
   -2.7477   -0.6509   -2.5685 H   0  0  0  0  0  0  0  0  0  0  0  0
   -0.1185   -0.4977    1.1863 C   0  0  0  0  0  0  0  0  0  0  0  0
    1.0538   -0.3861    1.5214 O   0  0  0  0  0  0  0  0  0  0  0  0
   -1.0921    0.1679    1.9092 N   0  0  0  0  0  0  0  0  0  0  0  0
   -2.0517   -0.0422    1.6544 H   0  0  0  0  0  0  0  0  0  0  0  0
   -0.8313    0.7635    3.2133 C   0  0  0  0  0  0  0  0  0  0  0  0
   -0.0417    1.5188    3.1396 H   0  0  0  0  0  0  0  0  0  0  0  0
   -1.7351    1.2474    3.5957 H   0  0  0  0  0  0  0  0  0  0  0  0
   -0.5176   -0.0052    3.9274 H   0  0  0  0  0  0  0  0  0  0  0  0
  1  2  1  0  0  0  0
  2  3  1  0  0  0  0
  2  4  1  0  0  0  0
  2  5  1  0  0  0  0
  5  6  2  0  0  0  0
  5  7  1  0  0  0  0
  7  8  1  0  0  0  0
  7  9  1  0  0  0  0
  9 10  1  0  0  0  0
  9 11  1  0  0  0  0
  9 26  1  0  0  0  0
 11 12  1  0  0  0  0
 11 13  1  0  0  0  0
 11 14  1  0  0  0  0
 14 15  2  0  0  0  0
 14 24  1  0  0  0  0
 15 16  1  0  0  0  0
 15 17  1  0  0  0  0
 17 18  1  0  0  0  0
 17 19  2  0  0  0  0
 19 20  1  0  0  0  0
 19 22  1  0  0  0  0
 20 21  1  0  0  0  0
 22 23  1  0  0  0  0
 22 24  2  0  0  0  0
 24 25  1  0  0  0  0
 26 27  2  0  0  0  0
 26 28  1  0  0  0  0
 28 29  1  0  0  0  0
 28 30  1  0  0  0  0
 30 31  1  0  0  0  0
 30 32  1  0  0  0  0
 30 33  1  0  0  0  0
M  END
$$$$

  -OEChem-03222214083D

 33 33  0     1  0  0  0  0  0999 V2000
   -3.2650   -4.6543    0.7121 H   0  0  0  0  0  0  0  0  0  0  0  0
   -3.2255   -3.7603    0.0829 C   0  0  0  0  0  0  0  0  0  0  0  0
   -4.1445   -3.1872    0.2273 H   0  0  0  0  0  0  0  0  0  0  0  0
   -3.1562   -4.0703   -0.9626 H   0  0  0  0  0  0  0  0  0  0  0  0
   -2.0224   -2.9134    0.4528 C   0  0  0  0  0  0  0  0  0  0  0  0
   -1.3308   -3.2278    1.4046 O   0  0  0  0  0  0  0  0  0  0  0  0
   -1.7274   -1.7884   -0.2919 N   0  0  0  0  0  0  0  0  0  0  0  0
   -2.2424   -1.6972   -1.1630 H   0  0  0  0  0  0  0  0  0  0  0  0
   -0.4450   -1.0627   -0.2089 C   0  0  1  0  0  0  0  0  0  0  0  0
    0.3585   -1.7616   -0.4668 H   0  0  0  0  0  0  0  0  0  0  0  0
   -0.4319    0.0943   -1.2227 C   0  0  0  0  0  0  0  0  0  0  0  0
   -1.2287    0.8059   -0.9831 H   0  0  0  0  0  0  0  0  0  0  0  0
    0.5176    0.6355   -1.1418 H   0  0  0  0  0  0  0  0  0  0  0  0
   -0.6018   -0.4073   -2.6381 C   0  0  0  0  0  0  0  0  0  0  0  0
    0.5221   -0.7502   -3.4037 C   0  0  0  0  0  0  0  0  0  0  0  0
    1.5173   -0.6728   -2.9736 H   0  0  0  0  0  0  0  0  0  0  0  0
    0.3715   -1.2036   -4.7194 C   0  0  0  0  0  0  0  0  0  0  0  0
    1.2519   -1.4720   -5.2932 H   0  0  0  0  0  0  0  0  0  0  0  0
   -0.9008   -1.3066   -5.2851 C   0  0  0  0  0  0  0  0  0  0  0  0
   -1.0579   -1.7459   -6.5672 O   0  0  0  0  0  0  0  0  0  0  0  0
   -0.1918   -1.9244   -6.9659 H   0  0  0  0  0  0  0  0  0  0  0  0
   -2.0204   -0.9496   -4.5360 C   0  0  0  0  0  0  0  0  0  0  0  0
   -3.0030   -1.0204   -4.9916 H   0  0  0  0  0  0  0  0  0  0  0  0
   -1.8762   -0.4948   -3.2210 C   0  0  0  0  0  0  0  0  0  0  0  0
   -2.7586   -0.1997   -2.6611 H   0  0  0  0  0  0  0  0  0  0  0  0
   -0.1064   -0.4972    1.1866 C   0  0  0  0  0  0  0  0  0  0  0  0
    1.0656   -0.3996    1.5269 O   0  0  0  0  0  0  0  0  0  0  0  0
   -1.0776    0.1602    1.9203 N   0  0  0  0  0  0  0  0  0  0  0  0
   -2.0376   -0.0433    1.6618 H   0  0  0  0  0  0  0  0  0  0  0  0
   -0.8162    0.7294    3.2363 C   0  0  0  0  0  0  0  0  0  0  0  0
   -0.0162    1.4753    3.1804 H   0  0  0  0  0  0  0  0  0  0  0  0
   -1.7154    1.2189    3.6219 H   0  0  0  0  0  0  0  0  0  0  0  0
   -0.5178   -0.0555    3.9391 H   0  0  0  0  0  0  0  0  0  0  0  0
  1  2  1  0  0  0  0
  2  3  1  0  0  0  0
  2  4  1  0  0  0  0
  2  5  1  0  0  0  0
  5  6  2  0  0  0  0
  5  7  1  0  0  0  0
  7  8  1  0  0  0  0
  7  9  1  0  0  0  0
  9 10  1  0  0  0  0
  9 11  1  0  0  0  0
  9 26  1  0  0  0  0
 11 12  1  0  0  0  0
 11 13  1  0  0  0  0
 11 14  1  0  0  0  0
 14 15  2  0  0  0  0
 14 24  1  0  0  0  0
 15 16  1  0  0  0  0
 15 17  1  0  0  0  0
 17 18  1  0  0  0  0
 17 19  2  0  0  0  0
 19 20  1  0  0  0  0
 19 22  1  0  0  0  0
 20 21  1  0  0  0  0
 22 23  1  0  0  0  0
 22 24  2  0  0  0  0
 24 25  1  0  0  0  0
 26 27  2  0  0  0  0
 26 28  1  0  0  0  0
 28 29  1  0  0  0  0
 28 30  1  0  0  0  0
 30 31  1  0  0  0  0
 30 32  1  0  0  0  0
 30 33  1  0  0  0  0
M  END
$$$$

  -OEChem-03222214083D

 33 33  0     1  0  0  0  0  0999 V2000
   -3.2904   -4.6291    0.6536 H   0  0  0  0  0  0  0  0  0  0  0  0
   -3.2372   -3.7308    0.0318 C   0  0  0  0  0  0  0  0  0  0  0  0
   -4.1501   -3.1480    0.1753 H   0  0  0  0  0  0  0  0  0  0  0  0
   -3.1660   -4.0335   -1.0158 H   0  0  0  0  0  0  0  0  0  0  0  0
   -2.0264   -2.9008    0.4153 C   0  0  0  0  0  0  0  0  0  0  0  0
   -1.3369   -3.2362    1.3616 O   0  0  0  0  0  0  0  0  0  0  0  0
   -1.7193   -1.7684   -0.3126 N   0  0  0  0  0  0  0  0  0  0  0  0
   -2.2386   -1.6502   -1.1788 H   0  0  0  0  0  0  0  0  0  0  0  0
   -0.4340   -1.0502   -0.2132 C   0  0  1  0  0  0  0  0  0  0  0  0
    0.3694   -1.7467   -0.4760 H   0  0  0  0  0  0  0  0  0  0  0  0
   -0.4309    0.1155   -1.2156 C   0  0  0  0  0  0  0  0  0  0  0  0
   -1.2259    0.8248   -0.9631 H   0  0  0  0  0  0  0  0  0  0  0  0
    0.5197    0.6555   -1.1411 H   0  0  0  0  0  0  0  0  0  0  0  0
   -0.6043   -0.3822   -2.6317 C   0  0  0  0  0  0  0  0  0  0  0  0
    0.4609   -1.0065   -3.2969 C   0  0  0  0  0  0  0  0  0  0  0  0
    1.4182   -1.1275   -2.7966 H   0  0  0  0  0  0  0  0  0  0  0  0
    0.2994   -1.4803   -4.6039 C   0  0  0  0  0  0  0  0  0  0  0  0
    1.1338   -1.9627   -5.1017 H   0  0  0  0  0  0  0  0  0  0  0  0
   -0.9253   -1.3315   -5.2581 C   0  0  0  0  0  0  0  0  0  0  0  0
   -1.0930   -1.7886   -6.5328 O   0  0  0  0  0  0  0  0  0  0  0  0
   -0.2603   -2.1582   -6.8656 H   0  0  0  0  0  0  0  0  0  0  0  0
   -1.9855   -0.7063   -4.6044 C   0  0  0  0  0  0  0  0  0  0  0  0
   -2.9301   -0.5895   -5.1258 H   0  0  0  0  0  0  0  0  0  0  0  0
   -1.8300   -0.2295   -3.2983 C   0  0  0  0  0  0  0  0  0  0  0  0
   -2.6648    0.2644   -2.8095 H   0  0  0  0  0  0  0  0  0  0  0  0
   -0.0979   -0.5019    1.1893 C   0  0  0  0  0  0  0  0  0  0  0  0
    1.0735   -0.4142    1.5342 O   0  0  0  0  0  0  0  0  0  0  0  0
   -1.0679    0.1529    1.9267 N   0  0  0  0  0  0  0  0  0  0  0  0
   -2.0286   -0.0398    1.6621 H   0  0  0  0  0  0  0  0  0  0  0  0
   -0.8066    0.7131    3.2467 C   0  0  0  0  0  0  0  0  0  0  0  0
   -0.0081    1.4608    3.1951 H   0  0  0  0  0  0  0  0  0  0  0  0
   -1.7066    1.1980    3.6366 H   0  0  0  0  0  0  0  0  0  0  0  0
   -0.5056   -0.0760    3.9438 H   0  0  0  0  0  0  0  0  0  0  0  0
  1  2  1  0  0  0  0
  2  3  1  0  0  0  0
  2  4  1  0  0  0  0
  2  5  1  0  0  0  0
  5  6  2  0  0  0  0
  5  7  1  0  0  0  0
  7  8  1  0  0  0  0
  7  9  1  0  0  0  0
  9 10  1  0  0  0  0
  9 11  1  0  0  0  0
  9 26  1  0  0  0  0
 11 12  1  0  0  0  0
 11 13  1  0  0  0  0
 11 14  1  0  0  0  0
 14 15  2  0  0  0  0
 14 24  1  0  0  0  0
 15 16  1  0  0  0  0
 15 17  1  0  0  0  0
 17 18  1  0  0  0  0
 17 19  2  0  0  0  0
 19 20  1  0  0  0  0
 19 22  1  0  0  0  0
 20 21  1  0  0  0  0
 22 23  1  0  0  0  0
 22 24  2  0  0  0  0
 24 25  1  0  0  0  0
 26 27  2  0  0  0  0
 26 28  1  0  0  0  0
 28 29  1  0  0  0  0
 28 30  1  0  0  0  0
 30 31  1  0  0  0  0
 30 32  1  0  0  0  0
 30 33  1  0  0  0  0
M  END
$$$$

  -OEChem-03222214083D

 33 33  0     1  0  0  0  0  0999 V2000
   -3.3112   -4.6120    0.6623 H   0  0  0  0  0  0  0  0  0  0  0  0
   -3.2477   -3.7156    0.0390 C   0  0  0  0  0  0  0  0  0  0  0  0
   -4.1503   -3.1182    0.1879 H   0  0  0  0  0  0  0  0  0  0  0  0
   -3.1887   -4.0202   -1.0089 H   0  0  0  0  0  0  0  0  0  0  0  0
   -2.0208   -2.9056    0.4133 C   0  0  0  0  0  0  0  0  0  0  0  0
   -1.3285   -3.2523    1.3535 O   0  0  0  0  0  0  0  0  0  0  0  0
   -1.7021   -1.7767   -0.3147 N   0  0  0  0  0  0  0  0  0  0  0  0
   -2.2302   -1.6405   -1.1734 H   0  0  0  0  0  0  0  0  0  0  0  0
   -0.4168   -1.0599   -0.2070 C   0  0  1  0  0  0  0  0  0  0  0  0
    0.3898   -1.7565   -0.4575 H   0  0  0  0  0  0  0  0  0  0  0  0
   -0.4193    0.1044   -1.2122 C   0  0  0  0  0  0  0  0  0  0  0  0
   -1.2158    0.8097   -0.9535 H   0  0  0  0  0  0  0  0  0  0  0  0
    0.5302    0.6459   -1.1382 H   0  0  0  0  0  0  0  0  0  0  0  0
   -0.5891   -0.3799   -2.6353 C   0  0  0  0  0  0  0  0  0  0  0  0
    0.3415   -1.2591   -3.2113 C   0  0  0  0  0  0  0  0  0  0  0  0
    1.2126   -1.5799   -2.6464 H   0  0  0  0  0  0  0  0  0  0  0  0
    0.1623   -1.7260   -4.5184 C   0  0  0  0  0  0  0  0  0  0  0  0
    0.8930   -2.4043   -4.9460 H   0  0  0  0  0  0  0  0  0  0  0  0
   -0.9469   -1.3198   -5.2627 C   0  0  0  0  0  0  0  0  0  0  0  0
   -1.1310   -1.7680   -6.5383 O   0  0  0  0  0  0  0  0  0  0  0  0
   -0.3782   -2.3154   -6.8106 H   0  0  0  0  0  0  0  0  0  0  0  0
   -1.8732   -0.4451   -4.6981 C   0  0  0  0  0  0  0  0  0  0  0  0
   -2.7290   -0.1306   -5.2869 H   0  0  0  0  0  0  0  0  0  0  0  0
   -1.6985    0.0263   -3.3927 C   0  0  0  0  0  0  0  0  0  0  0  0
   -2.4302    0.7115   -2.9746 H   0  0  0  0  0  0  0  0  0  0  0  0
   -0.0948   -0.5075    1.1967 C   0  0  0  0  0  0  0  0  0  0  0  0
    1.0728   -0.4207    1.5538 O   0  0  0  0  0  0  0  0  0  0  0  0
   -1.0724    0.1505    1.9211 N   0  0  0  0  0  0  0  0  0  0  0  0
   -2.0303   -0.0423    1.6467 H   0  0  0  0  0  0  0  0  0  0  0  0
   -0.8254    0.7134    3.2422 C   0  0  0  0  0  0  0  0  0  0  0  0
   -0.0261    1.4605    3.1969 H   0  0  0  0  0  0  0  0  0  0  0  0
   -1.7291    1.1997    3.6214 H   0  0  0  0  0  0  0  0  0  0  0  0
   -0.5325   -0.0743    3.9442 H   0  0  0  0  0  0  0  0  0  0  0  0
  1  2  1  0  0  0  0
  2  3  1  0  0  0  0
  2  4  1  0  0  0  0
  2  5  1  0  0  0  0
  5  6  2  0  0  0  0
  5  7  1  0  0  0  0
  7  8  1  0  0  0  0
  7  9  1  0  0  0  0
  9 10  1  0  0  0  0
  9 11  1  0  0  0  0
  9 26  1  0  0  0  0
 11 12  1  0  0  0  0
 11 13  1  0  0  0  0
 11 14  1  0  0  0  0
 14 15  2  0  0  0  0
 14 24  1  0  0  0  0
 15 16  1  0  0  0  0
 15 17  1  0  0  0  0
 17 18  1  0  0  0  0
 17 19  2  0  0  0  0
 19 20  1  0  0  0  0
 19 22  1  0  0  0  0
 20 21  1  0  0  0  0
 22 23  1  0  0  0  0
 22 24  2  0  0  0  0
 24 25  1  0  0  0  0
 26 27  2  0  0  0  0
 26 28  1  0  0  0  0
 28 29  1  0  0  0  0
 28 30  1  0  0  0  0
 30 31  1  0  0  0  0
 30 32  1  0  0  0  0
 30 33  1  0  0  0  0
M  END
$$$$

  -OEChem-03222214083D

 33 33  0     1  0  0  0  0  0999 V2000
   -3.3282   -4.6056    0.7306 H   0  0  0  0  0  0  0  0  0  0  0  0
   -3.2555   -3.7179    0.0955 C   0  0  0  0  0  0  0  0  0  0  0  0
   -4.1445   -3.1012    0.2487 H   0  0  0  0  0  0  0  0  0  0  0  0
   -3.2162   -4.0363   -0.9491 H   0  0  0  0  0  0  0  0  0  0  0  0
   -2.0094   -2.9258    0.4444 C   0  0  0  0  0  0  0  0  0  0  0  0
   -1.3070   -3.2781    1.3749 O   0  0  0  0  0  0  0  0  0  0  0  0
   -1.6830   -1.8080   -0.2970 N   0  0  0  0  0  0  0  0  0  0  0  0
   -2.2255   -1.6594   -1.1446 H   0  0  0  0  0  0  0  0  0  0  0  0
   -0.4010   -1.0860   -0.1899 C   0  0  1  0  0  0  0  0  0  0  0  0
    0.4141   -1.7802   -0.4146 H   0  0  0  0  0  0  0  0  0  0  0  0
   -0.4083    0.0645   -1.2127 C   0  0  0  0  0  0  0  0  0  0  0  0
   -1.2091    0.7658   -0.9559 H   0  0  0  0  0  0  0  0  0  0  0  0
    0.5377    0.6117   -1.1365 H   0  0  0  0  0  0  0  0  0  0  0  0
   -0.5696   -0.4051   -2.6463 C   0  0  0  0  0  0  0  0  0  0  0  0
    0.1567   -1.4951   -3.1585 C   0  0  0  0  0  0  0  0  0  0  0  0
    0.8877   -2.0132   -2.5451 H   0  0  0  0  0  0  0  0  0  0  0  0
   -0.0380   -1.9244   -4.4764 C   0  0  0  0  0  0  0  0  0  0  0  0
    0.5342   -2.7659   -4.8522 H   0  0  0  0  0  0  0  0  0  0  0  0
   -0.9566   -1.2719   -5.2996 C   0  0  0  0  0  0  0  0  0  0  0  0
   -1.1529   -1.6826   -6.5860 O   0  0  0  0  0  0  0  0  0  0  0  0
   -0.5413   -2.4035   -6.8026 H   0  0  0  0  0  0  0  0  0  0  0  0
   -1.6769   -0.1882   -4.8031 C   0  0  0  0  0  0  0  0  0  0  0  0
   -2.3848    0.3167   -5.4527 H   0  0  0  0  0  0  0  0  0  0  0  0
   -1.4868    0.2457   -3.4867 C   0  0  0  0  0  0  0  0  0  0  0  0
   -2.0587    1.0949   -3.1236 H   0  0  0  0  0  0  0  0  0  0  0  0
   -0.0984   -0.5112    1.2098 C   0  0  0  0  0  0  0  0  0  0  0  0
    1.0633   -0.4194    1.5845 O   0  0  0  0  0  0  0  0  0  0  0  0
   -1.0873    0.1539    1.9121 N   0  0  0  0  0  0  0  0  0  0  0  0
   -2.0410   -0.0355    1.6214 H   0  0  0  0  0  0  0  0  0  0  0  0
   -0.8611    0.7364    3.2287 C   0  0  0  0  0  0  0  0  0  0  0  0
   -0.0607    1.4826    3.1869 H   0  0  0  0  0  0  0  0  0  0  0  0
   -1.7706    1.2287    3.5853 H   0  0  0  0  0  0  0  0  0  0  0  0
   -0.5802   -0.0407    3.9474 H   0  0  0  0  0  0  0  0  0  0  0  0
  1  2  1  0  0  0  0
  2  3  1  0  0  0  0
  2  4  1  0  0  0  0
  2  5  1  0  0  0  0
  5  6  2  0  0  0  0
  5  7  1  0  0  0  0
  7  8  1  0  0  0  0
  7  9  1  0  0  0  0
  9 10  1  0  0  0  0
  9 11  1  0  0  0  0
  9 26  1  0  0  0  0
 11 12  1  0  0  0  0
 11 13  1  0  0  0  0
 11 14  1  0  0  0  0
 14 15  2  0  0  0  0
 14 24  1  0  0  0  0
 15 16  1  0  0  0  0
 15 17  1  0  0  0  0
 17 18  1  0  0  0  0
 17 19  2  0  0  0  0
 19 20  1  0  0  0  0
 19 22  1  0  0  0  0
 20 21  1  0  0  0  0
 22 23  1  0  0  0  0
 22 24  2  0  0  0  0
 24 25  1  0  0  0  0
 26 27  2  0  0  0  0
 26 28  1  0  0  0  0
 28 29  1  0  0  0  0
 28 30  1  0  0  0  0
 30 31  1  0  0  0  0
 30 32  1  0  0  0  0
 30 33  1  0  0  0  0
M  END
$$$$

  -OEChem-03222214083D

 33 33  0     1  0  0  0  0  0999 V2000
   -3.3267   -4.6142    0.8179 H   0  0  0  0  0  0  0  0  0  0  0  0
   -3.2619   -3.7322    0.1742 C   0  0  0  0  0  0  0  0  0  0  0  0
   -4.1441   -3.1094    0.3401 H   0  0  0  0  0  0  0  0  0  0  0  0
   -3.2457   -4.0592   -0.8683 H   0  0  0  0  0  0  0  0  0  0  0  0
   -2.0041   -2.9454    0.4916 C   0  0  0  0  0  0  0  0  0  0  0  0
   -1.2861   -3.2935    1.4115 O   0  0  0  0  0  0  0  0  0  0  0  0
   -1.6807   -1.8399   -0.2694 N   0  0  0  0  0  0  0  0  0  0  0  0
   -2.2439   -1.6848   -1.1021 H   0  0  0  0  0  0  0  0  0  0  0  0
   -0.4023   -1.1087   -0.1766 C   0  0  1  0  0  0  0  0  0  0  0  0
    0.4209   -1.7988   -0.3850 H   0  0  0  0  0  0  0  0  0  0  0  0
   -0.4135    0.0225   -1.2209 C   0  0  0  0  0  0  0  0  0  0  0  0
   -1.2207    0.7199   -0.9736 H   0  0  0  0  0  0  0  0  0  0  0  0
    0.5287    0.5764   -1.1454 H   0  0  0  0  0  0  0  0  0  0  0  0
   -0.5703   -0.4394   -2.6600 C   0  0  0  0  0  0  0  0  0  0  0  0
   -0.1022   -1.6845   -3.1230 C   0  0  0  0  0  0  0  0  0  0  0  0
    0.4222   -2.3693   -2.4646 H   0  0  0  0  0  0  0  0  0  0  0  0
   -0.2913   -2.0669   -4.4563 C   0  0  0  0  0  0  0  0  0  0  0  0
    0.0794   -3.0296   -4.7911 H   0  0  0  0  0  0  0  0  0  0  0  0
   -0.9453   -1.2149   -5.3467 C   0  0  0  0  0  0  0  0  0  0  0  0
   -1.1336   -1.5787   -6.6482 O   0  0  0  0  0  0  0  0  0  0  0  0
   -0.7032   -2.4303   -6.8221 H   0  0  0  0  0  0  0  0  0  0  0  0
   -1.4063    0.0210   -4.9013 C   0  0  0  0  0  0  0  0  0  0  0  0
   -1.9084    0.6809   -5.6013 H   0  0  0  0  0  0  0  0  0  0  0  0
   -1.2202    0.4088   -3.5705 C   0  0  0  0  0  0  0  0  0  0  0  0
   -1.5855    1.3799   -3.2489 H   0  0  0  0  0  0  0  0  0  0  0  0
   -0.1070   -0.5076    1.2140 C   0  0  0  0  0  0  0  0  0  0  0  0
    1.0528   -0.4057    1.5914 O   0  0  0  0  0  0  0  0  0  0  0  0
   -1.1008    0.1636    1.9040 N   0  0  0  0  0  0  0  0  0  0  0  0
   -2.0530   -0.0302    1.6116 H   0  0  0  0  0  0  0  0  0  0  0  0
   -0.8807    0.7644    3.2136 C   0  0  0  0  0  0  0  0  0  0  0  0
   -0.0778    1.5078    3.1656 H   0  0  0  0  0  0  0  0  0  0  0  0
   -1.7909    1.2644    3.5579 H   0  0  0  0  0  0  0  0  0  0  0  0
   -0.6062   -0.0034    3.9448 H   0  0  0  0  0  0  0  0  0  0  0  0
  1  2  1  0  0  0  0
  2  3  1  0  0  0  0
  2  4  1  0  0  0  0
  2  5  1  0  0  0  0
  5  6  2  0  0  0  0
  5  7  1  0  0  0  0
  7  8  1  0  0  0  0
  7  9  1  0  0  0  0
  9 10  1  0  0  0  0
  9 11  1  0  0  0  0
  9 26  1  0  0  0  0
 11 12  1  0  0  0  0
 11 13  1  0  0  0  0
 11 14  1  0  0  0  0
 14 15  2  0  0  0  0
 14 24  1  0  0  0  0
 15 16  1  0  0  0  0
 15 17  1  0  0  0  0
 17 18  1  0  0  0  0
 17 19  2  0  0  0  0
 19 20  1  0  0  0  0
 19 22  1  0  0  0  0
 20 21  1  0  0  0  0
 22 23  1  0  0  0  0
 22 24  2  0  0  0  0
 24 25  1  0  0  0  0
 26 27  2  0  0  0  0
 26 28  1  0  0  0  0
 28 29  1  0  0  0  0
 28 30  1  0  0  0  0
 30 31  1  0  0  0  0
 30 32  1  0  0  0  0
 30 33  1  0  0  0  0
M  END
$$$$

  -OEChem-03222214083D

 33 33  0     1  0  0  0  0  0999 V2000
   -3.3338   -4.6141    0.8982 H   0  0  0  0  0  0  0  0  0  0  0  0
   -3.2754   -3.7390    0.2446 C   0  0  0  0  0  0  0  0  0  0  0  0
   -4.1457   -3.1043    0.4275 H   0  0  0  0  0  0  0  0  0  0  0  0
   -3.2895   -4.0757   -0.7949 H   0  0  0  0  0  0  0  0  0  0  0  0
   -2.0012   -2.9640    0.5226 C   0  0  0  0  0  0  0  0  0  0  0  0
   -1.2578   -3.3188    1.4193 O   0  0  0  0  0  0  0  0  0  0  0  0
   -1.6898   -1.8623   -0.2488 N   0  0  0  0  0  0  0  0  0  0  0  0
   -2.2859   -1.6863   -1.0541 H   0  0  0  0  0  0  0  0  0  0  0  0
   -0.4150   -1.1216   -0.1732 C   0  0  1  0  0  0  0  0  0  0  0  0
    0.4095   -1.8098   -0.3860 H   0  0  0  0  0  0  0  0  0  0  0  0
   -0.4261   -0.0032   -1.2315 C   0  0  0  0  0  0  0  0  0  0  0  0
   -1.2365    0.6939   -0.9931 H   0  0  0  0  0  0  0  0  0  0  0  0
    0.5146    0.5531   -1.1538 H   0  0  0  0  0  0  0  0  0  0  0  0
   -0.5786   -0.4577   -2.6746 C   0  0  0  0  0  0  0  0  0  0  0  0
   -0.3996   -1.7897   -3.0994 C   0  0  0  0  0  0  0  0  0  0  0  0
   -0.1124   -2.5710   -2.4028 H   0  0  0  0  0  0  0  0  0  0  0  0
   -0.5725   -2.1400   -4.4435 C   0  0  0  0  0  0  0  0  0  0  0  0
   -0.4258   -3.1704   -4.7488 H   0  0  0  0  0  0  0  0  0  0  0  0
   -0.9241   -1.1709   -5.3834 C   0  0  0  0  0  0  0  0  0  0  0  0
   -1.0921   -1.5033   -6.6962 O   0  0  0  0  0  0  0  0  0  0  0  0
   -0.8672   -2.4363   -6.8355 H   0  0  0  0  0  0  0  0  0  0  0  0
   -1.1001    0.1488   -4.9763 C   0  0  0  0  0  0  0  0  0  0  0  0
   -1.3677    0.8985   -5.7139 H   0  0  0  0  0  0  0  0  0  0  0  0
   -0.9275    0.5050   -3.6347 C   0  0  0  0  0  0  0  0  0  0  0  0
   -1.0657    1.5419   -3.3413 H   0  0  0  0  0  0  0  0  0  0  0  0
   -0.1134   -0.5083    1.2109 C   0  0  0  0  0  0  0  0  0  0  0  0
    1.0477   -0.3968    1.5807 O   0  0  0  0  0  0  0  0  0  0  0  0
   -1.1069    0.1611    1.9032 N   0  0  0  0  0  0  0  0  0  0  0  0
   -2.0602   -0.0399    1.6194 H   0  0  0  0  0  0  0  0  0  0  0  0
   -0.8802    0.7825    3.2019 C   0  0  0  0  0  0  0  0  0  0  0  0
   -0.0803    1.5279    3.1373 H   0  0  0  0  0  0  0  0  0  0  0  0
   -1.7900    1.2845    3.5442 H   0  0  0  0  0  0  0  0  0  0  0  0
   -0.5981    0.0268    3.9426 H   0  0  0  0  0  0  0  0  0  0  0  0
  1  2  1  0  0  0  0
  2  3  1  0  0  0  0
  2  4  1  0  0  0  0
  2  5  1  0  0  0  0
  5  6  2  0  0  0  0
  5  7  1  0  0  0  0
  7  8  1  0  0  0  0
  7  9  1  0  0  0  0
  9 10  1  0  0  0  0
  9 11  1  0  0  0  0
  9 26  1  0  0  0  0
 11 12  1  0  0  0  0
 11 13  1  0  0  0  0
 11 14  1  0  0  0  0
 14 15  2  0  0  0  0
 14 24  1  0  0  0  0
 15 16  1  0  0  0  0
 15 17  1  0  0  0  0
 17 18  1  0  0  0  0
 17 19  2  0  0  0  0
 19 20  1  0  0  0  0
 19 22  1  0  0  0  0
 20 21  1  0  0  0  0
 22 23  1  0  0  0  0
 22 24  2  0  0  0  0
 24 25  1  0  0  0  0
 26 27  2  0  0  0  0
 26 28  1  0  0  0  0
 28 29  1  0  0  0  0
 28 30  1  0  0  0  0
 30 31  1  0  0  0  0
 30 32  1  0  0  0  0
 30 33  1  0  0  0  0
M  END
$$$$

  -OEChem-03222214083D

 33 33  0     1  0  0  0  0  0999 V2000
   -3.3461   -4.6080    0.9974 H   0  0  0  0  0  0  0  0  0  0  0  0
   -3.2948   -3.7418    0.3312 C   0  0  0  0  0  0  0  0  0  0  0  0
   -4.1502   -3.0924    0.5322 H   0  0  0  0  0  0  0  0  0  0  0  0
   -3.3456   -4.0914   -0.7028 H   0  0  0  0  0  0  0  0  0  0  0  0
   -2.0014   -2.9828    0.5611 C   0  0  0  0  0  0  0  0  0  0  0  0
   -1.2321   -3.3437    1.4329 O   0  0  0  0  0  0  0  0  0  0  0  0
   -1.7022   -1.8875   -0.2243 N   0  0  0  0  0  0  0  0  0  0  0  0
   -2.3369   -1.6846   -0.9925 H   0  0  0  0  0  0  0  0  0  0  0  0
   -0.4312   -1.1372   -0.1694 C   0  0  1  0  0  0  0  0  0  0  0  0
    0.3902   -1.8302   -0.3826 H   0  0  0  0  0  0  0  0  0  0  0  0
   -0.4319   -0.0350   -1.2462 C   0  0  0  0  0  0  0  0  0  0  0  0
   -1.2420    0.6667   -1.0220 H   0  0  0  0  0  0  0  0  0  0  0  0
    0.5095    0.5193   -1.1597 H   0  0  0  0  0  0  0  0  0  0  0  0
   -0.5718   -0.4800   -2.6953 C   0  0  0  0  0  0  0  0  0  0  0  0
   -0.6959   -1.8212   -3.1129 C   0  0  0  0  0  0  0  0  0  0  0  0
   -0.6399   -2.6428   -2.4069 H   0  0  0  0  0  0  0  0  0  0  0  0
   -0.8565   -2.1369   -4.4676 C   0  0  0  0  0  0  0  0  0  0  0  0
   -0.9387   -3.1763   -4.7667 H   0  0  0  0  0  0  0  0  0  0  0  0
   -0.8999   -1.1244   -5.4264 C   0  0  0  0  0  0  0  0  0  0  0  0
   -1.0543   -1.4214   -6.7496 O   0  0  0  0  0  0  0  0  0  0  0  0
   -1.0570   -2.3824   -6.8789 H   0  0  0  0  0  0  0  0  0  0  0  0
   -0.7792    0.2032   -5.0269 C   0  0  0  0  0  0  0  0  0  0  0  0
   -0.8106    0.9857   -5.7781 H   0  0  0  0  0  0  0  0  0  0  0  0
   -0.6166    0.5240   -3.6754 C   0  0  0  0  0  0  0  0  0  0  0  0
   -0.5267    1.5680   -3.3882 H   0  0  0  0  0  0  0  0  0  0  0  0
   -0.1207   -0.5064    1.2045 C   0  0  0  0  0  0  0  0  0  0  0  0
    1.0423   -0.3872    1.5659 O   0  0  0  0  0  0  0  0  0  0  0  0
   -1.1119    0.1642    1.8989 N   0  0  0  0  0  0  0  0  0  0  0  0
   -2.0665   -0.0315    1.6168 H   0  0  0  0  0  0  0  0  0  0  0  0
   -0.8795    0.7971    3.1914 C   0  0  0  0  0  0  0  0  0  0  0  0
   -0.0840    1.5460    3.1159 H   0  0  0  0  0  0  0  0  0  0  0  0
   -1.7891    1.2970    3.5377 H   0  0  0  0  0  0  0  0  0  0  0  0
   -0.5884    0.0483    3.9355 H   0  0  0  0  0  0  0  0  0  0  0  0
  1  2  1  0  0  0  0
  2  3  1  0  0  0  0
  2  4  1  0  0  0  0
  2  5  1  0  0  0  0
  5  6  2  0  0  0  0
  5  7  1  0  0  0  0
  7  8  1  0  0  0  0
  7  9  1  0  0  0  0
  9 10  1  0  0  0  0
  9 11  1  0  0  0  0
  9 26  1  0  0  0  0
 11 12  1  0  0  0  0
 11 13  1  0  0  0  0
 11 14  1  0  0  0  0
 14 15  2  0  0  0  0
 14 24  1  0  0  0  0
 15 16  1  0  0  0  0
 15 17  1  0  0  0  0
 17 18  1  0  0  0  0
 17 19  2  0  0  0  0
 19 20  1  0  0  0  0
 19 22  1  0  0  0  0
 20 21  1  0  0  0  0
 22 23  1  0  0  0  0
 22 24  2  0  0  0  0
 24 25  1  0  0  0  0
 26 27  2  0  0  0  0
 26 28  1  0  0  0  0
 28 29  1  0  0  0  0
 28 30  1  0  0  0  0
 30 31  1  0  0  0  0
 30 32  1  0  0  0  0
 30 33  1  0  0  0  0
M  END
$$$$

  -OEChem-03222214083D

 33 33  0     1  0  0  0  0  0999 V2000
   -3.3569   -4.5948    1.1331 H   0  0  0  0  0  0  0  0  0  0  0  0
   -3.3149   -3.7444    0.4463 C   0  0  0  0  0  0  0  0  0  0  0  0
   -4.1486   -3.0733    0.6664 H   0  0  0  0  0  0  0  0  0  0  0  0
   -3.4134   -4.1147   -0.5769 H   0  0  0  0  0  0  0  0  0  0  0  0
   -1.9983   -3.0081    0.6091 C   0  0  0  0  0  0  0  0  0  0  0  0
   -1.1956   -3.3775    1.4463 O   0  0  0  0  0  0  0  0  0  0  0  0
   -1.7192   -1.9200   -0.1939 N   0  0  0  0  0  0  0  0  0  0  0  0
   -2.4021   -1.6833   -0.9087 H   0  0  0  0  0  0  0  0  0  0  0  0
   -0.4537   -1.1600   -0.1699 C   0  0  1  0  0  0  0  0  0  0  0  0
    0.3635   -1.8584   -0.3824 H   0  0  0  0  0  0  0  0  0  0  0  0
   -0.4435   -0.0732   -1.2645 C   0  0  0  0  0  0  0  0  0  0  0  0
   -1.2499    0.6359   -1.0508 H   0  0  0  0  0  0  0  0  0  0  0  0
    0.5004    0.4757   -1.1695 H   0  0  0  0  0  0  0  0  0  0  0  0
   -0.5764   -0.5061   -2.7205 C   0  0  0  0  0  0  0  0  0  0  0  0
   -1.0000   -1.7768   -3.1635 C   0  0  0  0  0  0  0  0  0  0  0  0
   -1.1936   -2.5908   -2.4767 H   0  0  0  0  0  0  0  0  0  0  0  0
   -1.1355   -2.0523   -4.5299 C   0  0  0  0  0  0  0  0  0  0  0  0
   -1.4479   -3.0418   -4.8461 H   0  0  0  0  0  0  0  0  0  0  0  0
   -0.8615   -1.0678   -5.4787 C   0  0  0  0  0  0  0  0  0  0  0  0
   -0.9899   -1.3269   -6.8127 O   0  0  0  0  0  0  0  0  0  0  0  0
   -1.2247   -2.2573   -6.9519 H   0  0  0  0  0  0  0  0  0  0  0  0
   -0.4490    0.1918   -5.0572 C   0  0  0  0  0  0  0  0  0  0  0  0
   -0.2361    0.9547   -5.7992 H   0  0  0  0  0  0  0  0  0  0  0  0
   -0.3092    0.4709   -3.6941 C   0  0  0  0  0  0  0  0  0  0  0  0
    0.0086    1.4653   -3.3925 H   0  0  0  0  0  0  0  0  0  0  0  0
   -0.1294   -0.5119    1.1932 C   0  0  0  0  0  0  0  0  0  0  0  0
    1.0371   -0.3784    1.5379 O   0  0  0  0  0  0  0  0  0  0  0  0
   -1.1167    0.1577    1.8943 N   0  0  0  0  0  0  0  0  0  0  0  0
   -2.0737   -0.0429    1.6242 H   0  0  0  0  0  0  0  0  0  0  0  0
   -0.8718    0.8117    3.1739 C   0  0  0  0  0  0  0  0  0  0  0  0
   -0.0859    1.5680    3.0750 H   0  0  0  0  0  0  0  0  0  0  0  0
   -1.7816    1.3066    3.5265 H   0  0  0  0  0  0  0  0  0  0  0  0
   -0.5611    0.0770    3.9244 H   0  0  0  0  0  0  0  0  0  0  0  0
  1  2  1  0  0  0  0
  2  3  1  0  0  0  0
  2  4  1  0  0  0  0
  2  5  1  0  0  0  0
  5  6  2  0  0  0  0
  5  7  1  0  0  0  0
  7  8  1  0  0  0  0
  7  9  1  0  0  0  0
  9 10  1  0  0  0  0
  9 11  1  0  0  0  0
  9 26  1  0  0  0  0
 11 12  1  0  0  0  0
 11 13  1  0  0  0  0
 11 14  1  0  0  0  0
 14 15  2  0  0  0  0
 14 24  1  0  0  0  0
 15 16  1  0  0  0  0
 15 17  1  0  0  0  0
 17 18  1  0  0  0  0
 17 19  2  0  0  0  0
 19 20  1  0  0  0  0
 19 22  1  0  0  0  0
 20 21  1  0  0  0  0
 22 23  1  0  0  0  0
 22 24  2  0  0  0  0
 24 25  1  0  0  0  0
 26 27  2  0  0  0  0
 26 28  1  0  0  0  0
 28 29  1  0  0  0  0
 28 30  1  0  0  0  0
 30 31  1  0  0  0  0
 30 32  1  0  0  0  0
 30 33  1  0  0  0  0
M  END
$$$$

  -OEChem-03222214083D

 33 33  0     1  0  0  0  0  0999 V2000
   -3.3458   -4.5886    1.2364 H   0  0  0  0  0  0  0  0  0  0  0  0
   -3.3232   -3.7483    0.5363 C   0  0  0  0  0  0  0  0  0  0  0  0
   -4.1374   -3.0631    0.7839 H   0  0  0  0  0  0  0  0  0  0  0  0
   -3.4722   -4.1313   -0.4762 H   0  0  0  0  0  0  0  0  0  0  0  0
   -1.9907   -3.0282    0.6296 C   0  0  0  0  0  0  0  0  0  0  0  0
   -1.1477   -3.4114    1.4198 O   0  0  0  0  0  0  0  0  0  0  0  0
   -1.7451   -1.9353   -0.1781 N   0  0  0  0  0  0  0  0  0  0  0  0
   -2.4806   -1.6571   -0.8210 H   0  0  0  0  0  0  0  0  0  0  0  0
   -0.4865   -1.1657   -0.1872 C   0  0  1  0  0  0  0  0  0  0  0  0
    0.3255   -1.8657   -0.4143 H   0  0  0  0  0  0  0  0  0  0  0  0
   -0.4735   -0.0750   -1.2808 C   0  0  0  0  0  0  0  0  0  0  0  0
   -1.2737    0.6388   -1.0612 H   0  0  0  0  0  0  0  0  0  0  0  0
    0.4741    0.4665   -1.1782 H   0  0  0  0  0  0  0  0  0  0  0  0
   -0.6170   -0.4920   -2.7427 C   0  0  0  0  0  0  0  0  0  0  0  0
   -1.3220   -1.6189   -3.2164 C   0  0  0  0  0  0  0  0  0  0  0  0
   -1.7987   -2.3287   -2.5558 H   0  0  0  0  0  0  0  0  0  0  0  0
   -1.4112   -1.8870   -4.5885 C   0  0  0  0  0  0  0  0  0  0  0  0
   -1.9498   -2.7658   -4.9257 H   0  0  0  0  0  0  0  0  0  0  0  0
   -0.8101   -1.0368   -5.5156 C   0  0  0  0  0  0  0  0  0  0  0  0
   -0.8891   -1.2923   -6.8541 O   0  0  0  0  0  0  0  0  0  0  0  0
   -1.3387   -2.1374   -7.0077 H   0  0  0  0  0  0  0  0  0  0  0  0
   -0.1203    0.0837   -5.0664 C   0  0  0  0  0  0  0  0  0  0  0  0
    0.3458    0.7440   -5.7909 H   0  0  0  0  0  0  0  0  0  0  0  0
   -0.0262    0.3545   -3.6978 C   0  0  0  0  0  0  0  0  0  0  0  0
    0.5161    1.2407   -3.3794 H   0  0  0  0  0  0  0  0  0  0  0  0
   -0.1349   -0.5220    1.1717 C   0  0  0  0  0  0  0  0  0  0  0  0
    1.0381   -0.3745    1.4878 O   0  0  0  0  0  0  0  0  0  0  0  0
   -1.1123    0.1343    1.8992 N   0  0  0  0  0  0  0  0  0  0  0  0
   -2.0737   -0.0732    1.6514 H   0  0  0  0  0  0  0  0  0  0  0  0
   -0.8432    0.7956    3.1699 C   0  0  0  0  0  0  0  0  0  0  0  0
   -0.0737    1.5653    3.0472 H   0  0  0  0  0  0  0  0  0  0  0  0
   -1.7513    1.2759    3.5464 H   0  0  0  0  0  0  0  0  0  0  0  0
   -0.4993    0.0689    3.9135 H   0  0  0  0  0  0  0  0  0  0  0  0
  1  2  1  0  0  0  0
  2  3  1  0  0  0  0
  2  4  1  0  0  0  0
  2  5  1  0  0  0  0
  5  6  2  0  0  0  0
  5  7  1  0  0  0  0
  7  8  1  0  0  0  0
  7  9  1  0  0  0  0
  9 10  1  0  0  0  0
  9 11  1  0  0  0  0
  9 26  1  0  0  0  0
 11 12  1  0  0  0  0
 11 13  1  0  0  0  0
 11 14  1  0  0  0  0
 14 15  2  0  0  0  0
 14 24  1  0  0  0  0
 15 16  1  0  0  0  0
 15 17  1  0  0  0  0
 17 18  1  0  0  0  0
 17 19  2  0  0  0  0
 19 20  1  0  0  0  0
 19 22  1  0  0  0  0
 20 21  1  0  0  0  0
 22 23  1  0  0  0  0
 22 24  2  0  0  0  0
 24 25  1  0  0  0  0
 26 27  2  0  0  0  0
 26 28  1  0  0  0  0
 28 29  1  0  0  0  0
 28 30  1  0  0  0  0
 30 31  1  0  0  0  0
 30 32  1  0  0  0  0
 30 33  1  0  0  0  0
M  END
$$$$

  -OEChem-03222214083D

 33 33  0     1  0  0  0  0  0999 V2000
   -3.3163   -4.5968    1.1929 H   0  0  0  0  0  0  0  0  0  0  0  0
   -3.3115   -3.7438    0.5082 C   0  0  0  0  0  0  0  0  0  0  0  0
   -4.1228   -3.0665    0.7852 H   0  0  0  0  0  0  0  0  0  0  0  0
   -3.4796   -4.1091   -0.5077 H   0  0  0  0  0  0  0  0  0  0  0  0
   -1.9797   -3.0215    0.5859 C   0  0  0  0  0  0  0  0  0  0  0  0
   -1.1181   -3.4194    1.3482 O   0  0  0  0  0  0  0  0  0  0  0  0
   -1.7586   -1.9079   -0.2009 N   0  0  0  0  0  0  0  0  0  0  0  0
   -2.5196   -1.6040   -0.7989 H   0  0  0  0  0  0  0  0  0  0  0  0
   -0.5060   -1.1299   -0.2156 C   0  0  1  0  0  0  0  0  0  0  0  0
    0.3036   -1.8241   -0.4682 H   0  0  0  0  0  0  0  0  0  0  0  0
   -0.4951   -0.0132   -1.2843 C   0  0  0  0  0  0  0  0  0  0  0  0
   -1.2966    0.6948   -1.0507 H   0  0  0  0  0  0  0  0  0  0  0  0
    0.4496    0.5311   -1.1735 H   0  0  0  0  0  0  0  0  0  0  0  0
   -0.6510   -0.4225   -2.7465 C   0  0  0  0  0  0  0  0  0  0  0  0
   -1.5953   -1.3500   -3.2324 C   0  0  0  0  0  0  0  0  0  0  0  0
   -2.3084   -1.8396   -2.5855 H   0  0  0  0  0  0  0  0  0  0  0  0
   -1.6550   -1.6707   -4.5944 C   0  0  0  0  0  0  0  0  0  0  0  0
   -2.3881   -2.3900   -4.9425 H   0  0  0  0  0  0  0  0  0  0  0  0
   -0.7811   -1.0701   -5.4994 C   0  0  0  0  0  0  0  0  0  0  0  0
   -0.8304   -1.3764   -6.8286 O   0  0  0  0  0  0  0  0  0  0  0  0
   -1.4842   -2.0742   -6.9876 H   0  0  0  0  0  0  0  0  0  0  0  0
    0.1509   -0.1472   -5.0386 C   0  0  0  0  0  0  0  0  0  0  0  0
    0.8289    0.3184   -5.7465 H   0  0  0  0  0  0  0  0  0  0  0  0
    0.2172    0.1730   -3.6791 C   0  0  0  0  0  0  0  0  0  0  0  0
    0.9607    0.8951   -3.3532 H   0  0  0  0  0  0  0  0  0  0  0  0
   -0.1357   -0.5175    1.1525 C   0  0  0  0  0  0  0  0  0  0  0  0
    1.0412   -0.3730    1.4550 O   0  0  0  0  0  0  0  0  0  0  0  0
   -1.1047    0.1132    1.9128 N   0  0  0  0  0  0  0  0  0  0  0  0
   -2.0692   -0.0865    1.6714 H   0  0  0  0  0  0  0  0  0  0  0  0
   -0.8176    0.7353    3.1993 C   0  0  0  0  0  0  0  0  0  0  0  0
   -0.0593    1.5174    3.0870 H   0  0  0  0  0  0  0  0  0  0  0  0
   -1.7234    1.1914    3.6098 H   0  0  0  0  0  0  0  0  0  0  0  0
   -0.4506   -0.0117    3.9110 H   0  0  0  0  0  0  0  0  0  0  0  0
  1  2  1  0  0  0  0
  2  3  1  0  0  0  0
  2  4  1  0  0  0  0
  2  5  1  0  0  0  0
  5  6  2  0  0  0  0
  5  7  1  0  0  0  0
  7  8  1  0  0  0  0
  7  9  1  0  0  0  0
  9 10  1  0  0  0  0
  9 11  1  0  0  0  0
  9 26  1  0  0  0  0
 11 12  1  0  0  0  0
 11 13  1  0  0  0  0
 11 14  1  0  0  0  0
 14 15  2  0  0  0  0
 14 24  1  0  0  0  0
 15 16  1  0  0  0  0
 15 17  1  0  0  0  0
 17 18  1  0  0  0  0
 17 19  2  0  0  0  0
 19 20  1  0  0  0  0
 19 22  1  0  0  0  0
 20 21  1  0  0  0  0
 22 23  1  0  0  0  0
 22 24  2  0  0  0  0
 24 25  1  0  0  0  0
 26 27  2  0  0  0  0
 26 28  1  0  0  0  0
 28 29  1  0  0  0  0
 28 30  1  0  0  0  0
 30 31  1  0  0  0  0
 30 32  1  0  0  0  0
 30 33  1  0  0  0  0
M  END
$$$$

  -OEChem-03222214083D

 33 33  0     1  0  0  0  0  0999 V2000
   -3.2823   -4.6441    0.9803 H   0  0  0  0  0  0  0  0  0  0  0  0
   -3.2730   -3.7701    0.3226 C   0  0  0  0  0  0  0  0  0  0  0  0
   -4.1406   -3.1473    0.5536 H   0  0  0  0  0  0  0  0  0  0  0  0
   -3.3407   -4.1105   -0.7134 H   0  0  0  0  0  0  0  0  0  0  0  0
   -1.9948   -2.9784    0.5262 C   0  0  0  0  0  0  0  0  0  0  0  0
   -1.1881   -3.3376    1.3643 O   0  0  0  0  0  0  0  0  0  0  0  0
   -1.7639   -1.8487   -0.2345 N   0  0  0  0  0  0  0  0  0  0  0  0
   -2.4353   -1.6506   -0.9659 H   0  0  0  0  0  0  0  0  0  0  0  0
   -0.5035   -1.0825   -0.2263 C   0  0  1  0  0  0  0  0  0  0  0  0
    0.3006   -1.7755   -0.4982 H   0  0  0  0  0  0  0  0  0  0  0  0
   -0.4851    0.0682   -1.2578 C   0  0  0  0  0  0  0  0  0  0  0  0
   -1.2832    0.7745   -1.0081 H   0  0  0  0  0  0  0  0  0  0  0  0
    0.4609    0.6097   -1.1454 H   0  0  0  0  0  0  0  0  0  0  0  0
   -0.6543   -0.3398   -2.7139 C   0  0  0  0  0  0  0  0  0  0  0  0
   -1.7894   -1.0097   -3.2087 C   0  0  0  0  0  0  0  0  0  0  0  0
   -2.6472   -1.2045   -2.5787 H   0  0  0  0  0  0  0  0  0  0  0  0
   -1.8620   -1.4042   -4.5505 C   0  0  0  0  0  0  0  0  0  0  0  0
   -2.7501   -1.9106   -4.9126 H   0  0  0  0  0  0  0  0  0  0  0  0
   -0.8029   -1.1412   -5.4196 C   0  0  0  0  0  0  0  0  0  0  0  0
   -0.8617   -1.5229   -6.7291 O   0  0  0  0  0  0  0  0  0  0  0  0
   -1.6936   -1.9878   -6.9064 H   0  0  0  0  0  0  0  0  0  0  0  0
    0.3250   -0.4795   -4.9437 C   0  0  0  0  0  0  0  0  0  0  0  0
    1.1470   -0.2780   -5.6230 H   0  0  0  0  0  0  0  0  0  0  0  0
    0.4020   -0.0840   -3.6047 C   0  0  0  0  0  0  0  0  0  0  0  0
    1.3009    0.4199   -3.2608 H   0  0  0  0  0  0  0  0  0  0  0  0
   -0.1276   -0.5051    1.1556 C   0  0  0  0  0  0  0  0  0  0  0  0
    1.0517   -0.3676    1.4531 O   0  0  0  0  0  0  0  0  0  0  0  0
   -1.0906    0.1179    1.9294 N   0  0  0  0  0  0  0  0  0  0  0  0
   -2.0554   -0.0919    1.6968 H   0  0  0  0  0  0  0  0  0  0  0  0
   -0.7964    0.7135    3.2267 C   0  0  0  0  0  0  0  0  0  0  0  0
   -0.0439    1.5026    3.1250 H   0  0  0  0  0  0  0  0  0  0  0  0
   -1.7014    1.1550    3.6546 H   0  0  0  0  0  0  0  0  0  0  0  0
   -0.4187   -0.0464    3.9190 H   0  0  0  0  0  0  0  0  0  0  0  0
  1  2  1  0  0  0  0
  2  3  1  0  0  0  0
  2  4  1  0  0  0  0
  2  5  1  0  0  0  0
  5  6  2  0  0  0  0
  5  7  1  0  0  0  0
  7  8  1  0  0  0  0
  7  9  1  0  0  0  0
  9 10  1  0  0  0  0
  9 11  1  0  0  0  0
  9 26  1  0  0  0  0
 11 12  1  0  0  0  0
 11 13  1  0  0  0  0
 11 14  1  0  0  0  0
 14 15  2  0  0  0  0
 14 24  1  0  0  0  0
 15 16  1  0  0  0  0
 15 17  1  0  0  0  0
 17 18  1  0  0  0  0
 17 19  2  0  0  0  0
 19 20  1  0  0  0  0
 19 22  1  0  0  0  0
 20 21  1  0  0  0  0
 22 23  1  0  0  0  0
 22 24  2  0  0  0  0
 24 25  1  0  0  0  0
 26 27  2  0  0  0  0
 26 28  1  0  0  0  0
 28 29  1  0  0  0  0
 28 30  1  0  0  0  0
 30 31  1  0  0  0  0
 30 32  1  0  0  0  0
 30 33  1  0  0  0  0
M  END
$$$$

  -OEChem-03222214083D

 33 33  0     1  0  0  0  0  0999 V2000
   -3.2469   -4.6620    0.7443 H   0  0  0  0  0  0  0  0  0  0  0  0
   -3.2168   -3.7759    0.1036 C   0  0  0  0  0  0  0  0  0  0  0  0
   -4.1393   -3.2078    0.2451 H   0  0  0  0  0  0  0  0  0  0  0  0
   -3.1504   -4.0992   -0.9380 H   0  0  0  0  0  0  0  0  0  0  0  0
   -2.0178   -2.9165    0.4583 C   0  0  0  0  0  0  0  0  0  0  0  0
   -1.3090   -3.2286    1.3979 O   0  0  0  0  0  0  0  0  0  0  0  0
   -1.7478   -1.7847   -0.2867 N   0  0  0  0  0  0  0  0  0  0  0  0
   -2.2768   -1.7001   -1.1480 H   0  0  0  0  0  0  0  0  0  0  0  0
   -0.4693   -1.0501   -0.2243 C   0  0  1  0  0  0  0  0  0  0  0  0
    0.3322   -1.7464   -0.4954 H   0  0  0  0  0  0  0  0  0  0  0  0
   -0.4421    0.1240   -1.2245 C   0  0  0  0  0  0  0  0  0  0  0  0
   -1.2341    0.8349   -0.9682 H   0  0  0  0  0  0  0  0  0  0  0  0
    0.5098    0.6564   -1.1181 H   0  0  0  0  0  0  0  0  0  0  0  0
   -0.6151   -0.3048   -2.6675 C   0  0  0  0  0  0  0  0  0  0  0  0
   -1.8663   -0.6901   -3.1798 C   0  0  0  0  0  0  0  0  0  0  0  0
   -2.7575   -0.6149   -2.5653 H   0  0  0  0  0  0  0  0  0  0  0  0
   -1.9893   -1.1356   -4.5013 C   0  0  0  0  0  0  0  0  0  0  0  0
   -2.9643   -1.4176   -4.8839 H   0  0  0  0  0  0  0  0  0  0  0  0
   -0.8639   -1.2090   -5.3243 C   0  0  0  0  0  0  0  0  0  0  0  0
   -0.9704   -1.6414   -6.6145 O   0  0  0  0  0  0  0  0  0  0  0  0
   -1.8946   -1.8430   -6.8267 H   0  0  0  0  0  0  0  0  0  0  0  0
    0.3806   -0.8348   -4.8230 C   0  0  0  0  0  0  0  0  0  0  0  0
    1.2517   -0.8970   -5.4674 H   0  0  0  0  0  0  0  0  0  0  0  0
    0.5088   -0.3879   -3.5036 C   0  0  0  0  0  0  0  0  0  0  0  0
    1.4915   -0.1129   -3.1301 H   0  0  0  0  0  0  0  0  0  0  0  0
   -0.1171   -0.4942    1.1728 C   0  0  0  0  0  0  0  0  0  0  0  0
    1.0576   -0.3922    1.5018 O   0  0  0  0  0  0  0  0  0  0  0  0
   -1.0846    0.1480    1.9250 N   0  0  0  0  0  0  0  0  0  0  0  0
   -2.0470   -0.0531    1.6729 H   0  0  0  0  0  0  0  0  0  0  0  0
   -0.8114    0.7142    3.2399 C   0  0  0  0  0  0  0  0  0  0  0  0
   -0.0300    1.4787    3.1741 H   0  0  0  0  0  0  0  0  0  0  0  0
   -1.7141    1.1804    3.6458 H   0  0  0  0  0  0  0  0  0  0  0  0
   -0.4819   -0.0682    3.9317 H   0  0  0  0  0  0  0  0  0  0  0  0
  1  2  1  0  0  0  0
  2  3  1  0  0  0  0
  2  4  1  0  0  0  0
  2  5  1  0  0  0  0
  5  6  2  0  0  0  0
  5  7  1  0  0  0  0
  7  8  1  0  0  0  0
  7  9  1  0  0  0  0
  9 10  1  0  0  0  0
  9 11  1  0  0  0  0
  9 26  1  0  0  0  0
 11 12  1  0  0  0  0
 11 13  1  0  0  0  0
 11 14  1  0  0  0  0
 14 15  2  0  0  0  0
 14 24  1  0  0  0  0
 15 16  1  0  0  0  0
 15 17  1  0  0  0  0
 17 18  1  0  0  0  0
 17 19  2  0  0  0  0
 19 20  1  0  0  0  0
 19 22  1  0  0  0  0
 20 21  1  0  0  0  0
 22 23  1  0  0  0  0
 22 24  2  0  0  0  0
 24 25  1  0  0  0  0
 26 27  2  0  0  0  0
 26 28  1  0  0  0  0
 28 29  1  0  0  0  0
 28 30  1  0  0  0  0
 30 31  1  0  0  0  0
 30 32  1  0  0  0  0
 30 33  1  0  0  0  0
M  END
$$$$

  -OEChem-03222214083D

 33 33  0     1  0  0  0  0  0999 V2000
   -3.2629   -4.6343    0.6337 H   0  0  0  0  0  0  0  0  0  0  0  0
   -3.2078   -3.7435    0.0012 C   0  0  0  0  0  0  0  0  0  0  0  0
   -4.1304   -3.1701    0.1192 H   0  0  0  0  0  0  0  0  0  0  0  0
   -3.1123   -4.0591   -1.0407 H   0  0  0  0  0  0  0  0  0  0  0  0
   -2.0145   -2.8947    0.3984 C   0  0  0  0  0  0  0  0  0  0  0  0
   -1.3340   -3.2184    1.3549 O   0  0  0  0  0  0  0  0  0  0  0  0
   -1.7190   -1.7561   -0.3253 N   0  0  0  0  0  0  0  0  0  0  0  0
   -2.2236   -1.6579   -1.2014 H   0  0  0  0  0  0  0  0  0  0  0  0
   -0.4369   -1.0319   -0.2248 C   0  0  1  0  0  0  0  0  0  0  0  0
    0.3684   -1.7238   -0.4957 H   0  0  0  0  0  0  0  0  0  0  0  0
   -0.4202    0.1498   -1.2107 C   0  0  0  0  0  0  0  0  0  0  0  0
   -1.2164    0.8562   -0.9537 H   0  0  0  0  0  0  0  0  0  0  0  0
    0.5300    0.6870   -1.1137 H   0  0  0  0  0  0  0  0  0  0  0  0
   -0.5874   -0.3088   -2.6411 C   0  0  0  0  0  0  0  0  0  0  0  0
   -1.8630   -0.4196   -3.2181 C   0  0  0  0  0  0  0  0  0  0  0  0
   -2.7444   -0.1283   -2.6543 H   0  0  0  0  0  0  0  0  0  0  0  0
   -2.0098   -0.8839   -4.5306 C   0  0  0  0  0  0  0  0  0  0  0  0
   -3.0004   -0.9556   -4.9667 H   0  0  0  0  0  0  0  0  0  0  0  0
   -0.8855   -1.2471   -5.2754 C   0  0  0  0  0  0  0  0  0  0  0  0
   -1.0155   -1.7010   -6.5560 O   0  0  0  0  0  0  0  0  0  0  0  0
   -1.9468   -1.6879   -6.8249 H   0  0  0  0  0  0  0  0  0  0  0  0
    0.3822   -1.1449   -4.7054 C   0  0  0  0  0  0  0  0  0  0  0  0
    1.2507   -1.4318   -5.2897 H   0  0  0  0  0  0  0  0  0  0  0  0
    0.5349   -0.6798   -3.3950 C   0  0  0  0  0  0  0  0  0  0  0  0
    1.5298   -0.6138   -2.9629 H   0  0  0  0  0  0  0  0  0  0  0  0
   -0.1043   -0.4929    1.1828 C   0  0  0  0  0  0  0  0  0  0  0  0
    1.0659   -0.3980    1.5291 O   0  0  0  0  0  0  0  0  0  0  0  0
   -1.0800    0.1500    1.9237 N   0  0  0  0  0  0  0  0  0  0  0  0
   -2.0388   -0.0526    1.6596 H   0  0  0  0  0  0  0  0  0  0  0  0
   -0.8241    0.7052    3.2467 C   0  0  0  0  0  0  0  0  0  0  0  0
   -0.0364    1.4643    3.1991 H   0  0  0  0  0  0  0  0  0  0  0  0
   -1.7300    1.1750    3.6410 H   0  0  0  0  0  0  0  0  0  0  0  0
   -0.5115   -0.0844    3.9380 H   0  0  0  0  0  0  0  0  0  0  0  0
  1  2  1  0  0  0  0
  2  3  1  0  0  0  0
  2  4  1  0  0  0  0
  2  5  1  0  0  0  0
  5  6  2  0  0  0  0
  5  7  1  0  0  0  0
  7  8  1  0  0  0  0
  7  9  1  0  0  0  0
  9 10  1  0  0  0  0
  9 11  1  0  0  0  0
  9 26  1  0  0  0  0
 11 12  1  0  0  0  0
 11 13  1  0  0  0  0
 11 14  1  0  0  0  0
 14 15  2  0  0  0  0
 14 24  1  0  0  0  0
 15 16  1  0  0  0  0
 15 17  1  0  0  0  0
 17 18  1  0  0  0  0
 17 19  2  0  0  0  0
 19 20  1  0  0  0  0
 19 22  1  0  0  0  0
 20 21  1  0  0  0  0
 22 23  1  0  0  0  0
 22 24  2  0  0  0  0
 24 25  1  0  0  0  0
 26 27  2  0  0  0  0
 26 28  1  0  0  0  0
 28 29  1  0  0  0  0
 28 30  1  0  0  0  0
 30 31  1  0  0  0  0
 30 32  1  0  0  0  0
 30 33  1  0  0  0  0
M  END
$$$$

  -OEChem-03222214083D

 33 33  0     1  0  0  0  0  0999 V2000
   -3.2757   -4.6247    0.5922 H   0  0  0  0  0  0  0  0  0  0  0  0
   -3.2165   -3.7228   -0.0239 C   0  0  0  0  0  0  0  0  0  0  0  0
   -4.1352   -3.1463    0.1067 H   0  0  0  0  0  0  0  0  0  0  0  0
   -3.1249   -4.0193   -1.0716 H   0  0  0  0  0  0  0  0  0  0  0  0
   -2.0173   -2.8885    0.3849 C   0  0  0  0  0  0  0  0  0  0  0  0
   -1.3470   -3.2214    1.3457 O   0  0  0  0  0  0  0  0  0  0  0  0
   -1.7046   -1.7511   -0.3329 N   0  0  0  0  0  0  0  0  0  0  0  0
   -2.2070   -1.6372   -1.2094 H   0  0  0  0  0  0  0  0  0  0  0  0
   -0.4204   -1.0330   -0.2166 C   0  0  1  0  0  0  0  0  0  0  0  0
    0.3862   -1.7259   -0.4794 H   0  0  0  0  0  0  0  0  0  0  0  0
   -0.4127    0.1433   -1.2068 C   0  0  0  0  0  0  0  0  0  0  0  0
   -1.2100    0.8484   -0.9501 H   0  0  0  0  0  0  0  0  0  0  0  0
    0.5368    0.6833   -1.1196 H   0  0  0  0  0  0  0  0  0  0  0  0
   -0.5761   -0.3350   -2.6308 C   0  0  0  0  0  0  0  0  0  0  0  0
   -1.7969   -0.1722   -3.3044 C   0  0  0  0  0  0  0  0  0  0  0  0
   -2.6309    0.3198   -2.8121 H   0  0  0  0  0  0  0  0  0  0  0  0
   -1.9479   -0.6331   -4.6178 C   0  0  0  0  0  0  0  0  0  0  0  0
   -2.8956   -0.4962   -5.1274 H   0  0  0  0  0  0  0  0  0  0  0  0
   -0.8825   -1.2601   -5.2682 C   0  0  0  0  0  0  0  0  0  0  0  0
   -1.0159   -1.7117   -6.5492 O   0  0  0  0  0  0  0  0  0  0  0  0
   -1.8890   -1.4768   -6.8989 H   0  0  0  0  0  0  0  0  0  0  0  0
    0.3312   -1.4238   -4.6032 C   0  0  0  0  0  0  0  0  0  0  0  0
    1.1548   -1.9101   -5.1162 H   0  0  0  0  0  0  0  0  0  0  0  0
    0.4889   -0.9640   -3.2916 C   0  0  0  0  0  0  0  0  0  0  0  0
    1.4424   -1.0993   -2.7877 H   0  0  0  0  0  0  0  0  0  0  0  0
   -0.0968   -0.4936    1.1923 C   0  0  0  0  0  0  0  0  0  0  0  0
    1.0713   -0.4041    1.5473 O   0  0  0  0  0  0  0  0  0  0  0  0
   -1.0746    0.1558    1.9239 N   0  0  0  0  0  0  0  0  0  0  0  0
   -2.0321   -0.0441    1.6531 H   0  0  0  0  0  0  0  0  0  0  0  0
   -0.8259    0.7077    3.2497 C   0  0  0  0  0  0  0  0  0  0  0  0
   -0.0295    1.4583    3.2099 H   0  0  0  0  0  0  0  0  0  0  0  0
   -1.7307    1.1869    3.6354 H   0  0  0  0  0  0  0  0  0  0  0  0
   -0.5279   -0.0854    3.9436 H   0  0  0  0  0  0  0  0  0  0  0  0
  1  2  1  0  0  0  0
  2  3  1  0  0  0  0
  2  4  1  0  0  0  0
  2  5  1  0  0  0  0
  5  6  2  0  0  0  0
  5  7  1  0  0  0  0
  7  8  1  0  0  0  0
  7  9  1  0  0  0  0
  9 10  1  0  0  0  0
  9 11  1  0  0  0  0
  9 26  1  0  0  0  0
 11 12  1  0  0  0  0
 11 13  1  0  0  0  0
 11 14  1  0  0  0  0
 14 15  2  0  0  0  0
 14 24  1  0  0  0  0
 15 16  1  0  0  0  0
 15 17  1  0  0  0  0
 17 18  1  0  0  0  0
 17 19  2  0  0  0  0
 19 20  1  0  0  0  0
 19 22  1  0  0  0  0
 20 21  1  0  0  0  0
 22 23  1  0  0  0  0
 22 24  2  0  0  0  0
 24 25  1  0  0  0  0
 26 27  2  0  0  0  0
 26 28  1  0  0  0  0
 28 29  1  0  0  0  0
 28 30  1  0  0  0  0
 30 31  1  0  0  0  0
 30 32  1  0  0  0  0
 30 33  1  0  0  0  0
M  END
$$$$

  -OEChem-03222214083D

 33 33  0     1  0  0  0  0  0999 V2000
   -3.2980   -4.6140    0.6382 H   0  0  0  0  0  0  0  0  0  0  0  0
   -3.2349   -3.7141    0.0194 C   0  0  0  0  0  0  0  0  0  0  0  0
   -4.1399   -3.1203    0.1672 H   0  0  0  0  0  0  0  0  0  0  0  0
   -3.1702   -4.0134   -1.0296 H   0  0  0  0  0  0  0  0  0  0  0  0
   -2.0134   -2.9008    0.4041 C   0  0  0  0  0  0  0  0  0  0  0  0
   -1.3335   -3.2413    1.3554 O   0  0  0  0  0  0  0  0  0  0  0  0
   -1.6916   -1.7719   -0.3231 N   0  0  0  0  0  0  0  0  0  0  0  0
   -2.2071   -1.6453   -1.1905 H   0  0  0  0  0  0  0  0  0  0  0  0
   -0.4077   -1.0538   -0.2067 C   0  0  1  0  0  0  0  0  0  0  0  0
    0.4019   -1.7490   -0.4523 H   0  0  0  0  0  0  0  0  0  0  0  0
   -0.4046    0.1129   -1.2094 C   0  0  0  0  0  0  0  0  0  0  0  0
   -1.2033    0.8165   -0.9531 H   0  0  0  0  0  0  0  0  0  0  0  0
    0.5436    0.6557   -1.1277 H   0  0  0  0  0  0  0  0  0  0  0  0
   -0.5654   -0.3666   -2.6353 C   0  0  0  0  0  0  0  0  0  0  0  0
   -1.6561    0.0611   -3.4086 C   0  0  0  0  0  0  0  0  0  0  0  0
   -2.3911    0.7420   -2.9885 H   0  0  0  0  0  0  0  0  0  0  0  0
   -1.8070   -0.3806   -4.7285 C   0  0  0  0  0  0  0  0  0  0  0  0
   -2.6564   -0.0414   -5.3116 H   0  0  0  0  0  0  0  0  0  0  0  0
   -0.8671   -1.2470   -5.2906 C   0  0  0  0  0  0  0  0  0  0  0  0
   -1.0025   -1.6821   -6.5771 O   0  0  0  0  0  0  0  0  0  0  0  0
   -1.7614   -1.2510   -6.9992 H   0  0  0  0  0  0  0  0  0  0  0  0
    0.2242   -1.6659   -4.5323 C   0  0  0  0  0  0  0  0  0  0  0  0
    0.9549   -2.3329   -4.9788 H   0  0  0  0  0  0  0  0  0  0  0  0
    0.3817   -1.2260   -3.2139 C   0  0  0  0  0  0  0  0  0  0  0  0
    1.2467   -1.5542   -2.6439 H   0  0  0  0  0  0  0  0  0  0  0  0
   -0.0955   -0.4996    1.1990 C   0  0  0  0  0  0  0  0  0  0  0  0
    1.0689   -0.4128    1.5663 O   0  0  0  0  0  0  0  0  0  0  0  0
   -1.0788    0.1583    1.9158 N   0  0  0  0  0  0  0  0  0  0  0  0
   -2.0341   -0.0355    1.6331 H   0  0  0  0  0  0  0  0  0  0  0  0
   -0.8433    0.7152    3.2418 C   0  0  0  0  0  0  0  0  0  0  0  0
   -0.0391    1.4578    3.2096 H   0  0  0  0  0  0  0  0  0  0  0  0
   -1.7482    1.2059    3.6123 H   0  0  0  0  0  0  0  0  0  0  0  0
   -0.5634   -0.0773    3.9439 H   0  0  0  0  0  0  0  0  0  0  0  0
  1  2  1  0  0  0  0
  2  3  1  0  0  0  0
  2  4  1  0  0  0  0
  2  5  1  0  0  0  0
  5  6  2  0  0  0  0
  5  7  1  0  0  0  0
  7  8  1  0  0  0  0
  7  9  1  0  0  0  0
  9 10  1  0  0  0  0
  9 11  1  0  0  0  0
  9 26  1  0  0  0  0
 11 12  1  0  0  0  0
 11 13  1  0  0  0  0
 11 14  1  0  0  0  0
 14 15  2  0  0  0  0
 14 24  1  0  0  0  0
 15 16  1  0  0  0  0
 15 17  1  0  0  0  0
 17 18  1  0  0  0  0
 17 19  2  0  0  0  0
 19 20  1  0  0  0  0
 19 22  1  0  0  0  0
 20 21  1  0  0  0  0
 22 23  1  0  0  0  0
 22 24  2  0  0  0  0
 24 25  1  0  0  0  0
 26 27  2  0  0  0  0
 26 28  1  0  0  0  0
 28 29  1  0  0  0  0
 28 30  1  0  0  0  0
 30 31  1  0  0  0  0
 30 32  1  0  0  0  0
 30 33  1  0  0  0  0
M  END
$$$$

  -OEChem-03222214083D

 33 33  0     1  0  0  0  0  0999 V2000
   -3.3187   -4.6107    0.7082 H   0  0  0  0  0  0  0  0  0  0  0  0
   -3.2439   -3.7259    0.0697 C   0  0  0  0  0  0  0  0  0  0  0  0
   -4.1450   -3.1216    0.1983 H   0  0  0  0  0  0  0  0  0  0  0  0
   -3.1751   -4.0502   -0.9717 H   0  0  0  0  0  0  0  0  0  0  0  0
   -2.0172   -2.9153    0.4437 C   0  0  0  0  0  0  0  0  0  0  0  0
   -1.3356   -3.2512    1.3955 O   0  0  0  0  0  0  0  0  0  0  0  0
   -1.6856   -1.7997   -0.2991 N   0  0  0  0  0  0  0  0  0  0  0  0
   -2.2069   -1.6715   -1.1628 H   0  0  0  0  0  0  0  0  0  0  0  0
   -0.4007   -1.0833   -0.1871 C   0  0  1  0  0  0  0  0  0  0  0  0
    0.4113   -1.7826   -0.4084 H   0  0  0  0  0  0  0  0  0  0  0  0
   -0.3957    0.0668   -1.2109 C   0  0  0  0  0  0  0  0  0  0  0  0
   -1.1941    0.7730   -0.9596 H   0  0  0  0  0  0  0  0  0  0  0  0
    0.5533    0.6082   -1.1310 H   0  0  0  0  0  0  0  0  0  0  0  0
   -0.5523   -0.4061   -2.6437 C   0  0  0  0  0  0  0  0  0  0  0  0
   -1.4417    0.2621   -3.5007 C   0  0  0  0  0  0  0  0  0  0  0  0
   -2.0212    1.1055   -3.1360 H   0  0  0  0  0  0  0  0  0  0  0  0
   -1.5954   -0.1466   -4.8308 C   0  0  0  0  0  0  0  0  0  0  0  0
   -2.2918    0.3800   -5.4744 H   0  0  0  0  0  0  0  0  0  0  0  0
   -0.8528   -1.2199   -5.3254 C   0  0  0  0  0  0  0  0  0  0  0  0
   -0.9929   -1.6270   -6.6206 O   0  0  0  0  0  0  0  0  0  0  0  0
   -1.6055   -1.0413   -7.0917 H   0  0  0  0  0  0  0  0  0  0  0  0
    0.0485   -1.8750   -4.4898 C   0  0  0  0  0  0  0  0  0  0  0  0
    0.6332   -2.6991   -4.8861 H   0  0  0  0  0  0  0  0  0  0  0  0
    0.2084   -1.4696   -3.1604 C   0  0  0  0  0  0  0  0  0  0  0  0
    0.9355   -1.9882   -2.5427 H   0  0  0  0  0  0  0  0  0  0  0  0
   -0.1009   -0.5082    1.2136 C   0  0  0  0  0  0  0  0  0  0  0  0
    1.0599   -0.4184    1.5916 O   0  0  0  0  0  0  0  0  0  0  0  0
   -1.0900    0.1621    1.9112 N   0  0  0  0  0  0  0  0  0  0  0  0
   -2.0430   -0.0340    1.6232 H   0  0  0  0  0  0  0  0  0  0  0  0
   -0.8658    0.7492    3.2264 C   0  0  0  0  0  0  0  0  0  0  0  0
   -0.0640    1.4939    3.1830 H   0  0  0  0  0  0  0  0  0  0  0  0
   -1.7752    1.2443    3.5803 H   0  0  0  0  0  0  0  0  0  0  0  0
   -0.5874   -0.0257    3.9484 H   0  0  0  0  0  0  0  0  0  0  0  0
  1  2  1  0  0  0  0
  2  3  1  0  0  0  0
  2  4  1  0  0  0  0
  2  5  1  0  0  0  0
  5  6  2  0  0  0  0
  5  7  1  0  0  0  0
  7  8  1  0  0  0  0
  7  9  1  0  0  0  0
  9 10  1  0  0  0  0
  9 11  1  0  0  0  0
  9 26  1  0  0  0  0
 11 12  1  0  0  0  0
 11 13  1  0  0  0  0
 11 14  1  0  0  0  0
 14 15  2  0  0  0  0
 14 24  1  0  0  0  0
 15 16  1  0  0  0  0
 15 17  1  0  0  0  0
 17 18  1  0  0  0  0
 17 19  2  0  0  0  0
 19 20  1  0  0  0  0
 19 22  1  0  0  0  0
 20 21  1  0  0  0  0
 22 23  1  0  0  0  0
 22 24  2  0  0  0  0
 24 25  1  0  0  0  0
 26 27  2  0  0  0  0
 26 28  1  0  0  0  0
 28 29  1  0  0  0  0
 28 30  1  0  0  0  0
 30 31  1  0  0  0  0
 30 32  1  0  0  0  0
 30 33  1  0  0  0  0
M  END
$$$$

  -OEChem-03222214083D

 33 33  0     1  0  0  0  0  0999 V2000
   -3.3216   -4.6208    0.7865 H   0  0  0  0  0  0  0  0  0  0  0  0
   -3.2489   -3.7431    0.1379 C   0  0  0  0  0  0  0  0  0  0  0  0
   -4.1453   -3.1323    0.2693 H   0  0  0  0  0  0  0  0  0  0  0  0
   -3.1931   -4.0782   -0.9008 H   0  0  0  0  0  0  0  0  0  0  0  0
   -2.0141   -2.9349    0.4896 C   0  0  0  0  0  0  0  0  0  0  0  0
   -1.3258   -3.2610    1.4397 O   0  0  0  0  0  0  0  0  0  0  0  0
   -1.6804   -1.8340   -0.2739 N   0  0  0  0  0  0  0  0  0  0  0  0
   -2.2151   -1.7052   -1.1295 H   0  0  0  0  0  0  0  0  0  0  0  0
   -0.3977   -1.1117   -0.1724 C   0  0  1  0  0  0  0  0  0  0  0  0
    0.4217   -1.8081   -0.3739 H   0  0  0  0  0  0  0  0  0  0  0  0
   -0.3923    0.0198   -1.2168 C   0  0  0  0  0  0  0  0  0  0  0  0
   -1.1953    0.7244   -0.9757 H   0  0  0  0  0  0  0  0  0  0  0  0
    0.5542    0.5656   -1.1353 H   0  0  0  0  0  0  0  0  0  0  0  0
   -0.5422   -0.4434   -2.6559 C   0  0  0  0  0  0  0  0  0  0  0  0
   -1.1699    0.4119   -3.5759 C   0  0  0  0  0  0  0  0  0  0  0  0
   -1.5452    1.3780   -3.2502 H   0  0  0  0  0  0  0  0  0  0  0  0
   -1.3225    0.0376   -4.9159 C   0  0  0  0  0  0  0  0  0  0  0  0
   -1.8171    0.7128   -5.6057 H   0  0  0  0  0  0  0  0  0  0  0  0
   -0.8373   -1.1930   -5.3595 C   0  0  0  0  0  0  0  0  0  0  0  0
   -0.9784   -1.5693   -6.6638 O   0  0  0  0  0  0  0  0  0  0  0  0
   -1.3851   -0.8536   -7.1764 H   0  0  0  0  0  0  0  0  0  0  0  0
   -0.1940   -2.0416   -4.4620 C   0  0  0  0  0  0  0  0  0  0  0  0
    0.1925   -2.9910   -4.8188 H   0  0  0  0  0  0  0  0  0  0  0  0
   -0.0360   -1.6718   -3.1220 C   0  0  0  0  0  0  0  0  0  0  0  0
    0.4902   -2.3542   -2.4625 H   0  0  0  0  0  0  0  0  0  0  0  0
   -0.1086   -0.5081    1.2187 C   0  0  0  0  0  0  0  0  0  0  0  0
    1.0496   -0.4061    1.6010 O   0  0  0  0  0  0  0  0  0  0  0  0
   -1.1037    0.1724    1.8978 N   0  0  0  0  0  0  0  0  0  0  0  0
   -2.0548   -0.0340    1.6105 H   0  0  0  0  0  0  0  0  0  0  0  0
   -0.8868    0.7861    3.2018 C   0  0  0  0  0  0  0  0  0  0  0  0
   -0.0873    1.5324    3.1471 H   0  0  0  0  0  0  0  0  0  0  0  0
   -1.7989    1.2855    3.5414 H   0  0  0  0  0  0  0  0  0  0  0  0
   -0.6095    0.0266    3.9402 H   0  0  0  0  0  0  0  0  0  0  0  0
  1  2  1  0  0  0  0
  2  3  1  0  0  0  0
  2  4  1  0  0  0  0
  2  5  1  0  0  0  0
  5  6  2  0  0  0  0
  5  7  1  0  0  0  0
  7  8  1  0  0  0  0
  7  9  1  0  0  0  0
  9 10  1  0  0  0  0
  9 11  1  0  0  0  0
  9 26  1  0  0  0  0
 11 12  1  0  0  0  0
 11 13  1  0  0  0  0
 11 14  1  0  0  0  0
 14 15  2  0  0  0  0
 14 24  1  0  0  0  0
 15 16  1  0  0  0  0
 15 17  1  0  0  0  0
 17 18  1  0  0  0  0
 17 19  2  0  0  0  0
 19 20  1  0  0  0  0
 19 22  1  0  0  0  0
 20 21  1  0  0  0  0
 22 23  1  0  0  0  0
 22 24  2  0  0  0  0
 24 25  1  0  0  0  0
 26 27  2  0  0  0  0
 26 28  1  0  0  0  0
 28 29  1  0  0  0  0
 28 30  1  0  0  0  0
 30 31  1  0  0  0  0
 30 32  1  0  0  0  0
 30 33  1  0  0  0  0
M  END
$$$$

  -OEChem-03222214083D

 33 33  0     1  0  0  0  0  0999 V2000
   -3.3346   -4.6152    0.8734 H   0  0  0  0  0  0  0  0  0  0  0  0
   -3.2660   -3.7456    0.2135 C   0  0  0  0  0  0  0  0  0  0  0  0
   -4.1493   -3.1201    0.3622 H   0  0  0  0  0  0  0  0  0  0  0  0
   -3.2429   -4.0927   -0.8224 H   0  0  0  0  0  0  0  0  0  0  0  0
   -2.0102   -2.9528    0.5235 C   0  0  0  0  0  0  0  0  0  0  0  0
   -1.2945   -3.2871    1.4501 O   0  0  0  0  0  0  0  0  0  0  0  0
   -1.6848   -1.8583   -0.2525 N   0  0  0  0  0  0  0  0  0  0  0  0
   -2.2525   -1.7085   -1.0832 H   0  0  0  0  0  0  0  0  0  0  0  0
   -0.4048   -1.1271   -0.1688 C   0  0  1  0  0  0  0  0  0  0  0  0
    0.4174   -1.8212   -0.3708 H   0  0  0  0  0  0  0  0  0  0  0  0
   -0.4031   -0.0105   -1.2289 C   0  0  0  0  0  0  0  0  0  0  0  0
   -1.2090    0.6934   -0.9964 H   0  0  0  0  0  0  0  0  0  0  0  0
    0.5416    0.5387   -1.1476 H   0  0  0  0  0  0  0  0  0  0  0  0
   -0.5514   -0.4695   -2.6708 C   0  0  0  0  0  0  0  0  0  0  0  0
   -0.8785    0.4928   -3.6393 C   0  0  0  0  0  0  0  0  0  0  0  0
   -1.0311    1.5272   -3.3442 H   0  0  0  0  0  0  0  0  0  0  0  0
   -1.0146    0.1401   -4.9870 C   0  0  0  0  0  0  0  0  0  0  0  0
   -1.2757    0.9017   -5.7138 H   0  0  0  0  0  0  0  0  0  0  0  0
   -0.8111   -1.1799   -5.3902 C   0  0  0  0  0  0  0  0  0  0  0  0
   -0.9391   -1.5372   -6.7011 O   0  0  0  0  0  0  0  0  0  0  0  0
   -1.1279   -0.7558   -7.2433 H   0  0  0  0  0  0  0  0  0  0  0  0
   -0.4641   -2.1406   -4.4441 C   0  0  0  0  0  0  0  0  0  0  0  0
   -0.2932   -3.1621   -4.7683 H   0  0  0  0  0  0  0  0  0  0  0  0
   -0.3249   -1.7937   -3.0960 C   0  0  0  0  0  0  0  0  0  0  0  0
   -0.0324   -2.5724   -2.3990 H   0  0  0  0  0  0  0  0  0  0  0  0
   -0.1113   -0.5074    1.2141 C   0  0  0  0  0  0  0  0  0  0  0  0
    1.0474   -0.3971    1.5922 O   0  0  0  0  0  0  0  0  0  0  0  0
   -1.1071    0.1738    1.8914 N   0  0  0  0  0  0  0  0  0  0  0  0
   -2.0584   -0.0279    1.6015 H   0  0  0  0  0  0  0  0  0  0  0  0
   -0.8897    0.7999    3.1895 C   0  0  0  0  0  0  0  0  0  0  0  0
   -0.0929    1.5485    3.1264 H   0  0  0  0  0  0  0  0  0  0  0  0
   -1.8033    1.2986    3.5267 H   0  0  0  0  0  0  0  0  0  0  0  0
   -0.6080    0.0478    3.9340 H   0  0  0  0  0  0  0  0  0  0  0  0
  1  2  1  0  0  0  0
  2  3  1  0  0  0  0
  2  4  1  0  0  0  0
  2  5  1  0  0  0  0
  5  6  2  0  0  0  0
  5  7  1  0  0  0  0
  7  8  1  0  0  0  0
  7  9  1  0  0  0  0
  9 10  1  0  0  0  0
  9 11  1  0  0  0  0
  9 26  1  0  0  0  0
 11 12  1  0  0  0  0
 11 13  1  0  0  0  0
 11 14  1  0  0  0  0
 14 15  2  0  0  0  0
 14 24  1  0  0  0  0
 15 16  1  0  0  0  0
 15 17  1  0  0  0  0
 17 18  1  0  0  0  0
 17 19  2  0  0  0  0
 19 20  1  0  0  0  0
 19 22  1  0  0  0  0
 20 21  1  0  0  0  0
 22 23  1  0  0  0  0
 22 24  2  0  0  0  0
 24 25  1  0  0  0  0
 26 27  2  0  0  0  0
 26 28  1  0  0  0  0
 28 29  1  0  0  0  0
 28 30  1  0  0  0  0
 30 31  1  0  0  0  0
 30 32  1  0  0  0  0
 30 33  1  0  0  0  0
M  END
$$$$

  -OEChem-03222214083D

 33 33  0     1  0  0  0  0  0999 V2000
   -3.3134   -4.6464    1.1936 H   0  0  0  0  0  0  0  0  0  0  0  0
   -3.3023   -3.7979    0.5033 C   0  0  0  0  0  0  0  0  0  0  0  0
   -4.1590   -3.1559    0.7215 H   0  0  0  0  0  0  0  0  0  0  0  0
   -3.3890   -4.1754   -0.5186 H   0  0  0  0  0  0  0  0  0  0  0  0
   -2.0121   -3.0151    0.6612 C   0  0  0  0  0  0  0  0  0  0  0  0
   -1.1971   -3.3498    1.5014 O   0  0  0  0  0  0  0  0  0  0  0  0
   -1.7706   -1.9231   -0.1483 N   0  0  0  0  0  0  0  0  0  0  0  0
   -2.4522   -1.7296   -0.8781 H   0  0  0  0  0  0  0  0  0  0  0  0
   -0.5124   -1.1504   -0.1641 C   0  0  1  0  0  0  0  0  0  0  0  0
    0.2954   -1.8520   -0.4006 H   0  0  0  0  0  0  0  0  0  0  0  0
   -0.5245   -0.0688   -1.2667 C   0  0  0  0  0  0  0  0  0  0  0  0
   -1.1484    0.7596   -0.9147 H   0  0  0  0  0  0  0  0  0  0  0  0
    0.4970    0.3162   -1.3617 H   0  0  0  0  0  0  0  0  0  0  0  0
   -1.0174   -0.4409   -2.6600 C   0  0  0  0  0  0  0  0  0  0  0  0
   -1.0168    0.5774   -3.6280 C   0  0  0  0  0  0  0  0  0  0  0  0
   -0.7469    1.5907   -3.3432 H   0  0  0  0  0  0  0  0  0  0  0  0
   -1.3780    0.3192   -4.9551 C   0  0  0  0  0  0  0  0  0  0  0  0
   -1.3922    1.1329   -5.6721 H   0  0  0  0  0  0  0  0  0  0  0  0
   -1.7067   -0.9765   -5.3510 C   0  0  0  0  0  0  0  0  0  0  0  0
   -2.0601   -1.2448   -6.6416 O   0  0  0  0  0  0  0  0  0  0  0  0
   -2.0056   -0.4383   -7.1772 H   0  0  0  0  0  0  0  0  0  0  0  0
   -1.6462   -2.0113   -4.4227 C   0  0  0  0  0  0  0  0  0  0  0  0
   -1.8606   -3.0237   -4.7498 H   0  0  0  0  0  0  0  0  0  0  0  0
   -1.2844   -1.7563   -3.0954 C   0  0  0  0  0  0  0  0  0  0  0  0
   -1.1833   -2.6114   -2.4370 H   0  0  0  0  0  0  0  0  0  0  0  0
   -0.1402   -0.4974    1.1834 C   0  0  0  0  0  0  0  0  0  0  0  0
    1.0383   -0.3429    1.4747 O   0  0  0  0  0  0  0  0  0  0  0  0
   -1.1063    0.1649    1.9197 N   0  0  0  0  0  0  0  0  0  0  0  0
   -2.0702   -0.0583    1.6942 H   0  0  0  0  0  0  0  0  0  0  0  0
   -0.8183    0.8184    3.1901 C   0  0  0  0  0  0  0  0  0  0  0  0
   -0.0464    1.5846    3.0624 H   0  0  0  0  0  0  0  0  0  0  0  0
   -1.7194    1.3009    3.5800 H   0  0  0  0  0  0  0  0  0  0  0  0
   -0.4691    0.0856    3.9252 H   0  0  0  0  0  0  0  0  0  0  0  0
  1  2  1  0  0  0  0
  2  3  1  0  0  0  0
  2  4  1  0  0  0  0
  2  5  1  0  0  0  0
  5  6  2  0  0  0  0
  5  7  1  0  0  0  0
  7  8  1  0  0  0  0
  7  9  1  0  0  0  0
  9 10  1  0  0  0  0
  9 11  1  0  0  0  0
  9 26  1  0  0  0  0
 11 12  1  0  0  0  0
 11 13  1  0  0  0  0
 11 14  1  0  0  0  0
 14 15  2  0  0  0  0
 14 24  1  0  0  0  0
 15 16  1  0  0  0  0
 15 17  1  0  0  0  0
 17 18  1  0  0  0  0
 17 19  2  0  0  0  0
 19 20  1  0  0  0  0
 19 22  1  0  0  0  0
 20 21  1  0  0  0  0
 22 23  1  0  0  0  0
 22 24  2  0  0  0  0
 24 25  1  0  0  0  0
 26 27  2  0  0  0  0
 26 28  1  0  0  0  0
 28 29  1  0  0  0  0
 28 30  1  0  0  0  0
 30 31  1  0  0  0  0
 30 32  1  0  0  0  0
 30 33  1  0  0  0  0
M  END
$$$$

  -OEChem-03222214083D

 33 33  0     1  0  0  0  0  0999 V2000
   -3.2743   -4.6498    1.3778 H   0  0  0  0  0  0  0  0  0  0  0  0
   -3.2854   -3.8214    0.6636 C   0  0  0  0  0  0  0  0  0  0  0  0
   -4.1179   -3.1575    0.9080 H   0  0  0  0  0  0  0  0  0  0  0  0
   -3.4329   -4.2264   -0.3403 H   0  0  0  0  0  0  0  0  0  0  0  0
   -1.9759   -3.0580    0.7281 C   0  0  0  0  0  0  0  0  0  0  0  0
   -1.1129   -3.3972    1.5170 O   0  0  0  0  0  0  0  0  0  0  0  0
   -1.7744   -1.9754   -0.1050 N   0  0  0  0  0  0  0  0  0  0  0  0
   -2.5217   -1.7411   -0.7528 H   0  0  0  0  0  0  0  0  0  0  0  0
   -0.5343   -1.1807   -0.1659 C   0  0  1  0  0  0  0  0  0  0  0  0
    0.2766   -1.8802   -0.3979 H   0  0  0  0  0  0  0  0  0  0  0  0
   -0.5483   -0.1184   -1.2899 C   0  0  0  0  0  0  0  0  0  0  0  0
   -1.1721    0.7130   -0.9459 H   0  0  0  0  0  0  0  0  0  0  0  0
    0.4753    0.2648   -1.3722 H   0  0  0  0  0  0  0  0  0  0  0  0
   -1.0296   -0.4644   -2.6987 C   0  0  0  0  0  0  0  0  0  0  0  0
   -0.7029    0.4642   -3.7033 C   0  0  0  0  0  0  0  0  0  0  0  0
   -0.1878    1.3839   -3.4390 H   0  0  0  0  0  0  0  0  0  0  0  0
   -1.0445    0.2455   -5.0423 C   0  0  0  0  0  0  0  0  0  0  0  0
   -0.7963    0.9950   -5.7857 H   0  0  0  0  0  0  0  0  0  0  0  0
   -1.6940   -0.9293   -5.4144 C   0  0  0  0  0  0  0  0  0  0  0  0
   -2.0332   -1.1598   -6.7159 O   0  0  0  0  0  0  0  0  0  0  0  0
   -1.7209   -0.4317   -7.2752 H   0  0  0  0  0  0  0  0  0  0  0  0
   -1.9793   -1.8865   -4.4471 C   0  0  0  0  0  0  0  0  0  0  0  0
   -2.4548   -2.8131   -4.7527 H   0  0  0  0  0  0  0  0  0  0  0  0
   -1.6382   -1.6718   -3.1070 C   0  0  0  0  0  0  0  0  0  0  0  0
   -1.8359   -2.4926   -2.4325 H   0  0  0  0  0  0  0  0  0  0  0  0
   -0.1497   -0.5014    1.1653 C   0  0  0  0  0  0  0  0  0  0  0  0
    1.0302   -0.3172    1.4324 O   0  0  0  0  0  0  0  0  0  0  0  0
   -1.1158    0.1508    1.9108 N   0  0  0  0  0  0  0  0  0  0  0  0
   -2.0802   -0.0833    1.7000 H   0  0  0  0  0  0  0  0  0  0  0  0
   -0.8183    0.8424    3.1587 C   0  0  0  0  0  0  0  0  0  0  0  0
   -0.0817    1.6355    2.9924 H   0  0  0  0  0  0  0  0  0  0  0  0
   -1.7264    1.2974    3.5651 H   0  0  0  0  0  0  0  0  0  0  0  0
   -0.4196    0.1404    3.8985 H   0  0  0  0  0  0  0  0  0  0  0  0
  1  2  1  0  0  0  0
  2  3  1  0  0  0  0
  2  4  1  0  0  0  0
  2  5  1  0  0  0  0
  5  6  2  0  0  0  0
  5  7  1  0  0  0  0
  7  8  1  0  0  0  0
  7  9  1  0  0  0  0
  9 10  1  0  0  0  0
  9 11  1  0  0  0  0
  9 26  1  0  0  0  0
 11 12  1  0  0  0  0
 11 13  1  0  0  0  0
 11 14  1  0  0  0  0
 14 15  2  0  0  0  0
 14 24  1  0  0  0  0
 15 16  1  0  0  0  0
 15 17  1  0  0  0  0
 17 18  1  0  0  0  0
 17 19  2  0  0  0  0
 19 20  1  0  0  0  0
 19 22  1  0  0  0  0
 20 21  1  0  0  0  0
 22 23  1  0  0  0  0
 22 24  2  0  0  0  0
 24 25  1  0  0  0  0
 26 27  2  0  0  0  0
 26 28  1  0  0  0  0
 28 29  1  0  0  0  0
 28 30  1  0  0  0  0
 30 31  1  0  0  0  0
 30 32  1  0  0  0  0
 30 33  1  0  0  0  0
M  END
$$$$

  -OEChem-03222214083D

 33 33  0     1  0  0  0  0  0999 V2000
   -3.1989   -4.6679    1.4697 H   0  0  0  0  0  0  0  0  0  0  0  0
   -3.2413   -3.8462    0.7490 C   0  0  0  0  0  0  0  0  0  0  0  0
   -4.0545   -3.1731    1.0309 H   0  0  0  0  0  0  0  0  0  0  0  0
   -3.4445   -4.2589   -0.2421 H   0  0  0  0  0  0  0  0  0  0  0  0
   -1.9234   -3.0948    0.7373 C   0  0  0  0  0  0  0  0  0  0  0  0
   -1.0182   -3.4439    1.4729 O   0  0  0  0  0  0  0  0  0  0  0  0
   -1.7652   -2.0071   -0.0989 N   0  0  0  0  0  0  0  0  0  0  0  0
   -2.5685   -1.7280   -0.6523 H   0  0  0  0  0  0  0  0  0  0  0  0
   -0.5458   -1.1854   -0.1810 C   0  0  1  0  0  0  0  0  0  0  0  0
    0.2712   -1.8780   -0.4135 H   0  0  0  0  0  0  0  0  0  0  0  0
   -0.5477   -0.1249   -1.3098 C   0  0  0  0  0  0  0  0  0  0  0  0
   -1.1812    0.7037   -0.9779 H   0  0  0  0  0  0  0  0  0  0  0  0
    0.4748    0.2648   -1.3683 H   0  0  0  0  0  0  0  0  0  0  0  0
   -1.0094   -0.4725   -2.7268 C   0  0  0  0  0  0  0  0  0  0  0  0
   -0.4039    0.2551   -3.7685 C   0  0  0  0  0  0  0  0  0  0  0  0
    0.3482    1.0052   -3.5400 H   0  0  0  0  0  0  0  0  0  0  0  0
   -0.7446    0.0406   -5.1082 C   0  0  0  0  0  0  0  0  0  0  0  0
   -0.2535    0.6202   -5.8825 H   0  0  0  0  0  0  0  0  0  0  0  0
   -1.7069   -0.9099   -5.4401 C   0  0  0  0  0  0  0  0  0  0  0  0
   -2.0479   -1.1346   -6.7421 O   0  0  0  0  0  0  0  0  0  0  0  0
   -1.5043   -0.5850   -7.3277 H   0  0  0  0  0  0  0  0  0  0  0  0
   -2.3252   -1.6363   -4.4286 C   0  0  0  0  0  0  0  0  0  0  0  0
   -3.0735   -2.3747   -4.6976 H   0  0  0  0  0  0  0  0  0  0  0  0
   -1.9879   -1.4246   -3.0870 C   0  0  0  0  0  0  0  0  0  0  0  0
   -2.5166   -2.0342   -2.3713 H   0  0  0  0  0  0  0  0  0  0  0  0
   -0.1571   -0.5013    1.1473 C   0  0  0  0  0  0  0  0  0  0  0  0
    1.0220   -0.2909    1.3988 O   0  0  0  0  0  0  0  0  0  0  0  0
   -1.1260    0.1260    1.9107 N   0  0  0  0  0  0  0  0  0  0  0  0
   -2.0889   -0.1221    1.7110 H   0  0  0  0  0  0  0  0  0  0  0  0
   -0.8250    0.8189    3.1573 C   0  0  0  0  0  0  0  0  0  0  0  0
   -0.0968    1.6189    2.9871 H   0  0  0  0  0  0  0  0  0  0  0  0
   -1.7342    1.2653    3.5709 H   0  0  0  0  0  0  0  0  0  0  0  0
   -0.4145    0.1194    3.8929 H   0  0  0  0  0  0  0  0  0  0  0  0
  1  2  1  0  0  0  0
  2  3  1  0  0  0  0
  2  4  1  0  0  0  0
  2  5  1  0  0  0  0
  5  6  2  0  0  0  0
  5  7  1  0  0  0  0
  7  8  1  0  0  0  0
  7  9  1  0  0  0  0
  9 10  1  0  0  0  0
  9 11  1  0  0  0  0
  9 26  1  0  0  0  0
 11 12  1  0  0  0  0
 11 13  1  0  0  0  0
 11 14  1  0  0  0  0
 14 15  2  0  0  0  0
 14 24  1  0  0  0  0
 15 16  1  0  0  0  0
 15 17  1  0  0  0  0
 17 18  1  0  0  0  0
 17 19  2  0  0  0  0
 19 20  1  0  0  0  0
 19 22  1  0  0  0  0
 20 21  1  0  0  0  0
 22 23  1  0  0  0  0
 22 24  2  0  0  0  0
 24 25  1  0  0  0  0
 26 27  2  0  0  0  0
 26 28  1  0  0  0  0
 28 29  1  0  0  0  0
 28 30  1  0  0  0  0
 30 31  1  0  0  0  0
 30 32  1  0  0  0  0
 30 33  1  0  0  0  0
M  END
$$$$

  -OEChem-03222214083D

 33 33  0     1  0  0  0  0  0999 V2000
   -3.1122   -4.8076    1.2320 H   0  0  0  0  0  0  0  0  0  0  0  0
   -3.1461   -3.9776    0.5205 C   0  0  0  0  0  0  0  0  0  0  0  0
   -4.0871   -3.4386    0.6535 H   0  0  0  0  0  0  0  0  0  0  0  0
   -3.1054   -4.3842   -0.4929 H   0  0  0  0  0  0  0  0  0  0  0  0
   -1.9749   -3.0417    0.7535 C   0  0  0  0  0  0  0  0  0  0  0  0
   -1.2289   -3.2325    1.6968 O   0  0  0  0  0  0  0  0  0  0  0  0
   -1.7737   -1.9783   -0.1059 N   0  0  0  0  0  0  0  0  0  0  0  0
   -2.3158   -2.0200   -0.9605 H   0  0  0  0  0  0  0  0  0  0  0  0
   -0.5236   -1.1972   -0.1562 C   0  0  1  0  0  0  0  0  0  0  0  0
    0.2817   -1.9105   -0.3633 H   0  0  0  0  0  0  0  0  0  0  0  0
   -0.4712   -0.1191   -1.2699 C   0  0  0  0  0  0  0  0  0  0  0  0
   -1.0845    0.7301   -0.9506 H   0  0  0  0  0  0  0  0  0  0  0  0
    0.5618    0.2423   -1.3250 H   0  0  0  0  0  0  0  0  0  0  0  0
   -0.9444   -0.4995   -2.6673 C   0  0  0  0  0  0  0  0  0  0  0  0
   -0.1495   -0.1139   -3.7617 C   0  0  0  0  0  0  0  0  0  0  0  0
    0.8211    0.3450   -3.5933 H   0  0  0  0  0  0  0  0  0  0  0  0
   -0.5672   -0.3362   -5.0790 C   0  0  0  0  0  0  0  0  0  0  0  0
    0.0856   -0.0586   -5.8999 H   0  0  0  0  0  0  0  0  0  0  0  0
   -1.8169   -0.8995   -5.3306 C   0  0  0  0  0  0  0  0  0  0  0  0
   -2.2383   -1.1221   -6.6091 O   0  0  0  0  0  0  0  0  0  0  0  0
   -1.5463   -0.8632   -7.2376 H   0  0  0  0  0  0  0  0  0  0  0  0
   -2.6549   -1.2068   -4.2635 C   0  0  0  0  0  0  0  0  0  0  0  0
   -3.6459   -1.5977   -4.4712 H   0  0  0  0  0  0  0  0  0  0  0  0
   -2.2387   -0.9842   -2.9464 C   0  0  0  0  0  0  0  0  0  0  0  0
   -2.9693   -1.1503   -2.1658 H   0  0  0  0  0  0  0  0  0  0  0  0
   -0.1575   -0.5000    1.1732 C   0  0  0  0  0  0  0  0  0  0  0  0
    1.0207   -0.3203    1.4538 O   0  0  0  0  0  0  0  0  0  0  0  0
   -1.1293    0.1740    1.8912 N   0  0  0  0  0  0  0  0  0  0  0  0
   -2.0896   -0.0821    1.6855 H   0  0  0  0  0  0  0  0  0  0  0  0
   -0.8445    0.8748    3.1369 C   0  0  0  0  0  0  0  0  0  0  0  0
   -0.1175    1.6762    2.9686 H   0  0  0  0  0  0  0  0  0  0  0  0
   -1.7600    1.3199    3.5381 H   0  0  0  0  0  0  0  0  0  0  0  0
   -0.4390    0.1814    3.8813 H   0  0  0  0  0  0  0  0  0  0  0  0
  1  2  1  0  0  0  0
  2  3  1  0  0  0  0
  2  4  1  0  0  0  0
  2  5  1  0  0  0  0
  5  6  2  0  0  0  0
  5  7  1  0  0  0  0
  7  8  1  0  0  0  0
  7  9  1  0  0  0  0
  9 10  1  0  0  0  0
  9 11  1  0  0  0  0
  9 26  1  0  0  0  0
 11 12  1  0  0  0  0
 11 13  1  0  0  0  0
 11 14  1  0  0  0  0
 14 15  2  0  0  0  0
 14 24  1  0  0  0  0
 15 16  1  0  0  0  0
 15 17  1  0  0  0  0
 17 18  1  0  0  0  0
 17 19  2  0  0  0  0
 19 20  1  0  0  0  0
 19 22  1  0  0  0  0
 20 21  1  0  0  0  0
 22 23  1  0  0  0  0
 22 24  2  0  0  0  0
 24 25  1  0  0  0  0
 26 27  2  0  0  0  0
 26 28  1  0  0  0  0
 28 29  1  0  0  0  0
 28 30  1  0  0  0  0
 30 31  1  0  0  0  0
 30 32  1  0  0  0  0
 30 33  1  0  0  0  0
M  END
$$$$

  -OEChem-03222214083D

 33 33  0     1  0  0  0  0  0999 V2000
   -3.1507   -4.7867    1.0151 H   0  0  0  0  0  0  0  0  0  0  0  0
   -3.1653   -3.9266    0.3395 C   0  0  0  0  0  0  0  0  0  0  0  0
   -4.1101   -3.3933    0.4687 H   0  0  0  0  0  0  0  0  0  0  0  0
   -3.0956   -4.2889   -0.6892 H   0  0  0  0  0  0  0  0  0  0  0  0
   -2.0014   -3.0028    0.6457 C   0  0  0  0  0  0  0  0  0  0  0  0
   -1.2856   -3.2295    1.6044 O   0  0  0  0  0  0  0  0  0  0  0  0
   -1.7677   -1.9120   -0.1691 N   0  0  0  0  0  0  0  0  0  0  0  0
   -2.2857   -1.9173   -1.0424 H   0  0  0  0  0  0  0  0  0  0  0  0
   -0.5056   -1.1472   -0.1661 C   0  0  1  0  0  0  0  0  0  0  0  0
    0.2963   -1.8578   -0.3945 H   0  0  0  0  0  0  0  0  0  0  0  0
   -0.4612   -0.0393   -1.2449 C   0  0  0  0  0  0  0  0  0  0  0  0
   -1.0798    0.8007   -0.9116 H   0  0  0  0  0  0  0  0  0  0  0  0
    0.5670    0.3333   -1.3115 H   0  0  0  0  0  0  0  0  0  0  0  0
   -0.9497   -0.4494   -2.6225 C   0  0  0  0  0  0  0  0  0  0  0  0
   -0.0714   -0.3720   -3.7155 C   0  0  0  0  0  0  0  0  0  0  0  0
    0.9706   -0.1063   -3.5590 H   0  0  0  0  0  0  0  0  0  0  0  0
   -0.5122   -0.6604   -5.0122 C   0  0  0  0  0  0  0  0  0  0  0  0
    0.1934   -0.6224   -5.8351 H   0  0  0  0  0  0  0  0  0  0  0  0
   -1.8491   -0.9857   -5.2423 C   0  0  0  0  0  0  0  0  0  0  0  0
   -2.2911   -1.2689   -6.5018 O   0  0  0  0  0  0  0  0  0  0  0  0
   -1.5583   -1.2044   -7.1340 H   0  0  0  0  0  0  0  0  0  0  0  0
   -2.7466   -0.9951   -4.1779 C   0  0  0  0  0  0  0  0  0  0  0  0
   -3.7925   -1.2089   -4.3739 H   0  0  0  0  0  0  0  0  0  0  0  0
   -2.3089   -0.7078   -2.8810 C   0  0  0  0  0  0  0  0  0  0  0  0
   -3.0458   -0.6551   -2.0862 H   0  0  0  0  0  0  0  0  0  0  0  0
   -0.1436   -0.4991    1.1876 C   0  0  0  0  0  0  0  0  0  0  0  0
    1.0345   -0.3469    1.4838 O   0  0  0  0  0  0  0  0  0  0  0  0
   -1.1121    0.1684    1.9156 N   0  0  0  0  0  0  0  0  0  0  0  0
   -2.0737   -0.0703    1.6956 H   0  0  0  0  0  0  0  0  0  0  0  0
   -0.8277    0.8252    3.1849 C   0  0  0  0  0  0  0  0  0  0  0  0
   -0.0622    1.5972    3.0542 H   0  0  0  0  0  0  0  0  0  0  0  0
   -1.7318    1.3009    3.5761 H   0  0  0  0  0  0  0  0  0  0  0  0
   -0.4713    0.0961    3.9200 H   0  0  0  0  0  0  0  0  0  0  0  0
  1  2  1  0  0  0  0
  2  3  1  0  0  0  0
  2  4  1  0  0  0  0
  2  5  1  0  0  0  0
  5  6  2  0  0  0  0
  5  7  1  0  0  0  0
  7  8  1  0  0  0  0
  7  9  1  0  0  0  0
  9 10  1  0  0  0  0
  9 11  1  0  0  0  0
  9 26  1  0  0  0  0
 11 12  1  0  0  0  0
 11 13  1  0  0  0  0
 11 14  1  0  0  0  0
 14 15  2  0  0  0  0
 14 24  1  0  0  0  0
 15 16  1  0  0  0  0
 15 17  1  0  0  0  0
 17 18  1  0  0  0  0
 17 19  2  0  0  0  0
 19 20  1  0  0  0  0
 19 22  1  0  0  0  0
 20 21  1  0  0  0  0
 22 23  1  0  0  0  0
 22 24  2  0  0  0  0
 24 25  1  0  0  0  0
 26 27  2  0  0  0  0
 26 28  1  0  0  0  0
 28 29  1  0  0  0  0
 28 30  1  0  0  0  0
 30 31  1  0  0  0  0
 30 32  1  0  0  0  0
 30 33  1  0  0  0  0
M  END
$$$$

  -OEChem-03222214083D

 33 33  0     1  0  0  0  0  0999 V2000
   -3.2146   -4.7226    0.8687 H   0  0  0  0  0  0  0  0  0  0  0  0
   -3.2054   -3.8420    0.2199 C   0  0  0  0  0  0  0  0  0  0  0  0
   -4.1334   -3.2851    0.3684 H   0  0  0  0  0  0  0  0  0  0  0  0
   -3.1490   -4.1735   -0.8198 H   0  0  0  0  0  0  0  0  0  0  0  0
   -2.0149   -2.9617    0.5506 C   0  0  0  0  0  0  0  0  0  0  0  0
   -1.3027   -3.2376    1.4992 O   0  0  0  0  0  0  0  0  0  0  0  0
   -1.7572   -1.8478   -0.2238 N   0  0  0  0  0  0  0  0  0  0  0  0
   -2.2844   -1.7944   -1.0912 H   0  0  0  0  0  0  0  0  0  0  0  0
   -0.4870   -1.0970   -0.1838 C   0  0  1  0  0  0  0  0  0  0  0  0
    0.3122   -1.8041   -0.4318 H   0  0  0  0  0  0  0  0  0  0  0  0
   -0.4552    0.0332   -1.2349 C   0  0  0  0  0  0  0  0  0  0  0  0
   -1.0747    0.8662   -0.8856 H   0  0  0  0  0  0  0  0  0  0  0  0
    0.5697    0.4119   -1.3151 H   0  0  0  0  0  0  0  0  0  0  0  0
   -0.9563   -0.3920   -2.5997 C   0  0  0  0  0  0  0  0  0  0  0  0
   -0.0447   -0.6153   -3.6425 C   0  0  0  0  0  0  0  0  0  0  0  0
    1.0232   -0.5303   -3.4593 H   0  0  0  0  0  0  0  0  0  0  0  0
   -0.4973   -0.9656   -4.9201 C   0  0  0  0  0  0  0  0  0  0  0  0
    0.2248   -1.1508   -5.7080 H   0  0  0  0  0  0  0  0  0  0  0  0
   -1.8658   -1.0715   -5.1757 C   0  0  0  0  0  0  0  0  0  0  0  0
   -2.3186   -1.4159   -6.4160 O   0  0  0  0  0  0  0  0  0  0  0  0
   -1.5706   -1.5458   -7.0199 H   0  0  0  0  0  0  0  0  0  0  0  0
   -2.7794   -0.8099   -4.1569 C   0  0  0  0  0  0  0  0  0  0  0  0
   -3.8410   -0.8716   -4.3743 H   0  0  0  0  0  0  0  0  0  0  0  0
   -2.3322   -0.4566   -2.8795 C   0  0  0  0  0  0  0  0  0  0  0  0
   -3.0603   -0.2191   -2.1094 H   0  0  0  0  0  0  0  0  0  0  0  0
   -0.1278   -0.4951    1.1911 C   0  0  0  0  0  0  0  0  0  0  0  0
    1.0496   -0.3682    1.5015 O   0  0  0  0  0  0  0  0  0  0  0  0
   -1.0943    0.1605    1.9323 N   0  0  0  0  0  0  0  0  0  0  0  0
   -2.0561   -0.0641    1.6982 H   0  0  0  0  0  0  0  0  0  0  0  0
   -0.8145    0.7618    3.2301 C   0  0  0  0  0  0  0  0  0  0  0  0
   -0.0275    1.5183    3.1419 H   0  0  0  0  0  0  0  0  0  0  0  0
   -1.7128    1.2461    3.6242 H   0  0  0  0  0  0  0  0  0  0  0  0
   -0.4892   -0.0034    3.9428 H   0  0  0  0  0  0  0  0  0  0  0  0
  1  2  1  0  0  0  0
  2  3  1  0  0  0  0
  2  4  1  0  0  0  0
  2  5  1  0  0  0  0
  5  6  2  0  0  0  0
  5  7  1  0  0  0  0
  7  8  1  0  0  0  0
  7  9  1  0  0  0  0
  9 10  1  0  0  0  0
  9 11  1  0  0  0  0
  9 26  1  0  0  0  0
 11 12  1  0  0  0  0
 11 13  1  0  0  0  0
 11 14  1  0  0  0  0
 14 15  2  0  0  0  0
 14 24  1  0  0  0  0
 15 16  1  0  0  0  0
 15 17  1  0  0  0  0
 17 18  1  0  0  0  0
 17 19  2  0  0  0  0
 19 20  1  0  0  0  0
 19 22  1  0  0  0  0
 20 21  1  0  0  0  0
 22 23  1  0  0  0  0
 22 24  2  0  0  0  0
 24 25  1  0  0  0  0
 26 27  2  0  0  0  0
 26 28  1  0  0  0  0
 28 29  1  0  0  0  0
 28 30  1  0  0  0  0
 30 31  1  0  0  0  0
 30 32  1  0  0  0  0
 30 33  1  0  0  0  0
M  END
$$$$

  -OEChem-03222214083D

 33 33  0     1  0  0  0  0  0999 V2000
   -3.2736   -4.6669    0.7574 H   0  0  0  0  0  0  0  0  0  0  0  0
   -3.2396   -3.7759    0.1240 C   0  0  0  0  0  0  0  0  0  0  0  0
   -4.1555   -3.2001    0.2765 H   0  0  0  0  0  0  0  0  0  0  0  0
   -3.1844   -4.0906   -0.9211 H   0  0  0  0  0  0  0  0  0  0  0  0
   -2.0301   -2.9305    0.4765 C   0  0  0  0  0  0  0  0  0  0  0  0
   -1.3215   -3.2472    1.4151 O   0  0  0  0  0  0  0  0  0  0  0  0
   -1.7491   -1.8013   -0.2663 N   0  0  0  0  0  0  0  0  0  0  0  0
   -2.2825   -1.7000   -1.1264 H   0  0  0  0  0  0  0  0  0  0  0  0
   -0.4714   -1.0648   -0.1963 C   0  0  1  0  0  0  0  0  0  0  0  0
    0.3250   -1.7697   -0.4592 H   0  0  0  0  0  0  0  0  0  0  0  0
   -0.4465    0.0831   -1.2252 C   0  0  0  0  0  0  0  0  0  0  0  0
   -1.0633    0.9115   -0.8610 H   0  0  0  0  0  0  0  0  0  0  0  0
    0.5772    0.4625   -1.3153 H   0  0  0  0  0  0  0  0  0  0  0  0
   -0.9557   -0.3482   -2.5829 C   0  0  0  0  0  0  0  0  0  0  0  0
   -0.0671   -0.8647   -3.5368 C   0  0  0  0  0  0  0  0  0  0  0  0
    0.9880   -0.9668   -3.2971 H   0  0  0  0  0  0  0  0  0  0  0  0
   -0.5318   -1.2620   -4.7962 C   0  0  0  0  0  0  0  0  0  0  0  0
    0.1688   -1.6666   -5.5187 H   0  0  0  0  0  0  0  0  0  0  0  0
   -1.8853   -1.1373   -5.1167 C   0  0  0  0  0  0  0  0  0  0  0  0
   -2.3504   -1.5237   -6.3402 O   0  0  0  0  0  0  0  0  0  0  0  0
   -1.6170   -1.8375   -6.8921 H   0  0  0  0  0  0  0  0  0  0  0  0
   -2.7700   -0.6064   -4.1798 C   0  0  0  0  0  0  0  0  0  0  0  0
   -3.8171   -0.5006   -4.4454 H   0  0  0  0  0  0  0  0  0  0  0  0
   -2.3112   -0.2049   -2.9209 C   0  0  0  0  0  0  0  0  0  0  0  0
   -3.0120    0.2232   -2.2097 H   0  0  0  0  0  0  0  0  0  0  0  0
   -0.1139   -0.4970    1.1932 C   0  0  0  0  0  0  0  0  0  0  0  0
    1.0628   -0.3888    1.5126 O   0  0  0  0  0  0  0  0  0  0  0  0
   -1.0777    0.1533    1.9425 N   0  0  0  0  0  0  0  0  0  0  0  0
   -2.0402   -0.0570    1.6991 H   0  0  0  0  0  0  0  0  0  0  0  0
   -0.7999    0.7264    3.2533 C   0  0  0  0  0  0  0  0  0  0  0  0
   -0.0091    1.4807    3.1830 H   0  0  0  0  0  0  0  0  0  0  0  0
   -1.6977    1.2066    3.6537 H   0  0  0  0  0  0  0  0  0  0  0  0
   -0.4812   -0.0546    3.9518 H   0  0  0  0  0  0  0  0  0  0  0  0
  1  2  1  0  0  0  0
  2  3  1  0  0  0  0
  2  4  1  0  0  0  0
  2  5  1  0  0  0  0
  5  6  2  0  0  0  0
  5  7  1  0  0  0  0
  7  8  1  0  0  0  0
  7  9  1  0  0  0  0
  9 10  1  0  0  0  0
  9 11  1  0  0  0  0
  9 26  1  0  0  0  0
 11 12  1  0  0  0  0
 11 13  1  0  0  0  0
 11 14  1  0  0  0  0
 14 15  2  0  0  0  0
 14 24  1  0  0  0  0
 15 16  1  0  0  0  0
 15 17  1  0  0  0  0
 17 18  1  0  0  0  0
 17 19  2  0  0  0  0
 19 20  1  0  0  0  0
 19 22  1  0  0  0  0
 20 21  1  0  0  0  0
 22 23  1  0  0  0  0
 22 24  2  0  0  0  0
 24 25  1  0  0  0  0
 26 27  2  0  0  0  0
 26 28  1  0  0  0  0
 28 29  1  0  0  0  0
 28 30  1  0  0  0  0
 30 31  1  0  0  0  0
 30 32  1  0  0  0  0
 30 33  1  0  0  0  0
M  END
$$$$

  -OEChem-03222214083D

 33 33  0     1  0  0  0  0  0999 V2000
   -3.3063   -4.6293    0.6969 H   0  0  0  0  0  0  0  0  0  0  0  0
   -3.2597   -3.7294    0.0769 C   0  0  0  0  0  0  0  0  0  0  0  0
   -4.1633   -3.1384    0.2441 H   0  0  0  0  0  0  0  0  0  0  0  0
   -3.2170   -4.0282   -0.9732 H   0  0  0  0  0  0  0  0  0  0  0  0
   -2.0328   -2.9119    0.4336 C   0  0  0  0  0  0  0  0  0  0  0  0
   -1.3196   -3.2591    1.3580 O   0  0  0  0  0  0  0  0  0  0  0  0
   -1.7389   -1.7747   -0.2914 N   0  0  0  0  0  0  0  0  0  0  0  0
   -2.2843   -1.6365   -1.1394 H   0  0  0  0  0  0  0  0  0  0  0  0
   -0.4580   -1.0460   -0.2045 C   0  0  1  0  0  0  0  0  0  0  0  0
    0.3381   -1.7494   -0.4715 H   0  0  0  0  0  0  0  0  0  0  0  0
   -0.4380    0.1098   -1.2226 C   0  0  0  0  0  0  0  0  0  0  0  0
   -1.0519    0.9361   -0.8491 H   0  0  0  0  0  0  0  0  0  0  0  0
    0.5854    0.4885   -1.3196 H   0  0  0  0  0  0  0  0  0  0  0  0
   -0.9495   -0.3229   -2.5787 C   0  0  0  0  0  0  0  0  0  0  0  0
   -0.1473   -1.1117   -3.4161 C   0  0  0  0  0  0  0  0  0  0  0  0
    0.8508   -1.4009   -3.0975 H   0  0  0  0  0  0  0  0  0  0  0  0
   -0.6250   -1.5339   -4.6621 C   0  0  0  0  0  0  0  0  0  0  0  0
    0.0089   -2.1446   -5.2960 H   0  0  0  0  0  0  0  0  0  0  0  0
   -1.9061   -1.1707   -5.0822 C   0  0  0  0  0  0  0  0  0  0  0  0
   -2.3827   -1.5775   -6.2943 O   0  0  0  0  0  0  0  0  0  0  0  0
   -1.6957   -2.0640   -6.7764 H   0  0  0  0  0  0  0  0  0  0  0  0
   -2.7057   -0.3830   -4.2563 C   0  0  0  0  0  0  0  0  0  0  0  0
   -3.6973   -0.1013   -4.5965 H   0  0  0  0  0  0  0  0  0  0  0  0
   -2.2332    0.0444   -3.0109 C   0  0  0  0  0  0  0  0  0  0  0  0
   -2.8685    0.6637   -2.3837 H   0  0  0  0  0  0  0  0  0  0  0  0
   -0.1064   -0.4986    1.1938 C   0  0  0  0  0  0  0  0  0  0  0  0
    1.0687   -0.4051    1.5237 O   0  0  0  0  0  0  0  0  0  0  0  0
   -1.0713    0.1469    1.9458 N   0  0  0  0  0  0  0  0  0  0  0  0
   -2.0339   -0.0497    1.6909 H   0  0  0  0  0  0  0  0  0  0  0  0
   -0.7977    0.6999    3.2663 C   0  0  0  0  0  0  0  0  0  0  0  0
   -0.0009    1.4490    3.2107 H   0  0  0  0  0  0  0  0  0  0  0  0
   -1.6941    1.1816    3.6682 H   0  0  0  0  0  0  0  0  0  0  0  0
   -0.4885   -0.0928    3.9558 H   0  0  0  0  0  0  0  0  0  0  0  0
  1  2  1  0  0  0  0
  2  3  1  0  0  0  0
  2  4  1  0  0  0  0
  2  5  1  0  0  0  0
  5  6  2  0  0  0  0
  5  7  1  0  0  0  0
  7  8  1  0  0  0  0
  7  9  1  0  0  0  0
  9 10  1  0  0  0  0
  9 11  1  0  0  0  0
  9 26  1  0  0  0  0
 11 12  1  0  0  0  0
 11 13  1  0  0  0  0
 11 14  1  0  0  0  0
 14 15  2  0  0  0  0
 14 24  1  0  0  0  0
 15 16  1  0  0  0  0
 15 17  1  0  0  0  0
 17 18  1  0  0  0  0
 17 19  2  0  0  0  0
 19 20  1  0  0  0  0
 19 22  1  0  0  0  0
 20 21  1  0  0  0  0
 22 23  1  0  0  0  0
 22 24  2  0  0  0  0
 24 25  1  0  0  0  0
 26 27  2  0  0  0  0
 26 28  1  0  0  0  0
 28 29  1  0  0  0  0
 28 30  1  0  0  0  0
 30 31  1  0  0  0  0
 30 32  1  0  0  0  0
 30 33  1  0  0  0  0
M  END
$$$$

  -OEChem-03222214083D

 33 33  0     1  0  0  0  0  0999 V2000
   -3.3235   -4.6151    0.6981 H   0  0  0  0  0  0  0  0  0  0  0  0
   -3.2685   -3.7155    0.0786 C   0  0  0  0  0  0  0  0  0  0  0  0
   -4.1634   -3.1131    0.2515 H   0  0  0  0  0  0  0  0  0  0  0  0
   -3.2361   -4.0142   -0.9721 H   0  0  0  0  0  0  0  0  0  0  0  0
   -2.0286   -2.9150    0.4293 C   0  0  0  0  0  0  0  0  0  0  0  0
   -1.3090   -3.2777    1.3426 O   0  0  0  0  0  0  0  0  0  0  0  0
   -1.7258   -1.7791   -0.2932 N   0  0  0  0  0  0  0  0  0  0  0  0
   -2.2852   -1.6176   -1.1279 H   0  0  0  0  0  0  0  0  0  0  0  0
   -0.4455   -1.0505   -0.1999 C   0  0  1  0  0  0  0  0  0  0  0  0
    0.3543   -1.7520   -0.4602 H   0  0  0  0  0  0  0  0  0  0  0  0
   -0.4323    0.1035   -1.2207 C   0  0  0  0  0  0  0  0  0  0  0  0
   -1.0470    0.9267   -0.8419 H   0  0  0  0  0  0  0  0  0  0  0  0
    0.5900    0.4837   -1.3198 H   0  0  0  0  0  0  0  0  0  0  0  0
   -0.9405   -0.3228   -2.5822 C   0  0  0  0  0  0  0  0  0  0  0  0
   -0.2944   -1.3437   -3.2972 C   0  0  0  0  0  0  0  0  0  0  0  0
    0.5939   -1.8178   -2.8883 H   0  0  0  0  0  0  0  0  0  0  0  0
   -0.7840   -1.7582   -4.5410 C   0  0  0  0  0  0  0  0  0  0  0  0
   -0.2700   -2.5470   -5.0797 H   0  0  0  0  0  0  0  0  0  0  0  0
   -1.9224   -1.1584   -5.0823 C   0  0  0  0  0  0  0  0  0  0  0  0
   -2.4075   -1.5538   -6.2947 O   0  0  0  0  0  0  0  0  0  0  0  0
   -1.8181   -2.2145   -6.6907 H   0  0  0  0  0  0  0  0  0  0  0  0
   -2.5685   -0.1444   -4.3778 C   0  0  0  0  0  0  0  0  0  0  0  0
   -3.4502    0.3185   -4.8094 H   0  0  0  0  0  0  0  0  0  0  0  0
   -2.0834    0.2753   -3.1344 C   0  0  0  0  0  0  0  0  0  0  0  0
   -2.6007    1.0694   -2.6033 H   0  0  0  0  0  0  0  0  0  0  0  0
   -0.1024   -0.5008    1.1997 C   0  0  0  0  0  0  0  0  0  0  0  0
    1.0704   -0.4080    1.5375 O   0  0  0  0  0  0  0  0  0  0  0  0
   -1.0724    0.1461    1.9442 N   0  0  0  0  0  0  0  0  0  0  0  0
   -2.0336   -0.0445    1.6792 H   0  0  0  0  0  0  0  0  0  0  0  0
   -0.8093    0.6995    3.2665 C   0  0  0  0  0  0  0  0  0  0  0  0
   -0.0151    1.4518    3.2167 H   0  0  0  0  0  0  0  0  0  0  0  0
   -1.7103    1.1770    3.6631 H   0  0  0  0  0  0  0  0  0  0  0  0
   -0.5016   -0.0926    3.9574 H   0  0  0  0  0  0  0  0  0  0  0  0
  1  2  1  0  0  0  0
  2  3  1  0  0  0  0
  2  4  1  0  0  0  0
  2  5  1  0  0  0  0
  5  6  2  0  0  0  0
  5  7  1  0  0  0  0
  7  8  1  0  0  0  0
  7  9  1  0  0  0  0
  9 10  1  0  0  0  0
  9 11  1  0  0  0  0
  9 26  1  0  0  0  0
 11 12  1  0  0  0  0
 11 13  1  0  0  0  0
 11 14  1  0  0  0  0
 14 15  2  0  0  0  0
 14 24  1  0  0  0  0
 15 16  1  0  0  0  0
 15 17  1  0  0  0  0
 17 18  1  0  0  0  0
 17 19  2  0  0  0  0
 19 20  1  0  0  0  0
 19 22  1  0  0  0  0
 20 21  1  0  0  0  0
 22 23  1  0  0  0  0
 22 24  2  0  0  0  0
 24 25  1  0  0  0  0
 26 27  2  0  0  0  0
 26 28  1  0  0  0  0
 28 29  1  0  0  0  0
 28 30  1  0  0  0  0
 30 31  1  0  0  0  0
 30 32  1  0  0  0  0
 30 33  1  0  0  0  0
M  END
$$$$

  -OEChem-03222214083D

 33 33  0     1  0  0  0  0  0999 V2000
   -3.3222   -4.6184    0.7700 H   0  0  0  0  0  0  0  0  0  0  0  0
   -3.2682   -3.7253    0.1409 C   0  0  0  0  0  0  0  0  0  0  0  0
   -4.1513   -3.1093    0.3263 H   0  0  0  0  0  0  0  0  0  0  0  0
   -3.2609   -4.0339   -0.9074 H   0  0  0  0  0  0  0  0  0  0  0  0
   -2.0115   -2.9378    0.4592 C   0  0  0  0  0  0  0  0  0  0  0  0
   -1.2742   -3.3054    1.3562 O   0  0  0  0  0  0  0  0  0  0  0  0
   -1.7115   -1.8091   -0.2758 N   0  0  0  0  0  0  0  0  0  0  0  0
   -2.2920   -1.6344   -1.0935 H   0  0  0  0  0  0  0  0  0  0  0  0
   -0.4372   -1.0692   -0.1882 C   0  0  1  0  0  0  0  0  0  0  0  0
    0.3722   -1.7649   -0.4332 H   0  0  0  0  0  0  0  0  0  0  0  0
   -0.4338    0.0729   -1.2236 C   0  0  0  0  0  0  0  0  0  0  0  0
   -1.0573    0.8907   -0.8472 H   0  0  0  0  0  0  0  0  0  0  0  0
    0.5854    0.4621   -1.3198 H   0  0  0  0  0  0  0  0  0  0  0  0
   -0.9328   -0.3437   -2.5953 C   0  0  0  0  0  0  0  0  0  0  0  0
   -0.5064   -1.5395   -3.2005 C   0  0  0  0  0  0  0  0  0  0  0  0
    0.2187   -2.1787   -2.7045 H   0  0  0  0  0  0  0  0  0  0  0  0
   -1.0022   -1.9194   -4.4532 C   0  0  0  0  0  0  0  0  0  0  0  0
   -0.6594   -2.8448   -4.9037 H   0  0  0  0  0  0  0  0  0  0  0  0
   -1.9268   -1.1112   -5.1167 C   0  0  0  0  0  0  0  0  0  0  0  0
   -2.4156   -1.4709   -6.3388 O   0  0  0  0  0  0  0  0  0  0  0  0
   -1.9739   -2.2756   -6.6520 H   0  0  0  0  0  0  0  0  0  0  0  0
   -2.3520    0.0766   -4.5259 C   0  0  0  0  0  0  0  0  0  0  0  0
   -3.0670    0.7014   -5.0516 H   0  0  0  0  0  0  0  0  0  0  0  0
   -1.8595    0.4621   -3.2746 C   0  0  0  0  0  0  0  0  0  0  0  0
   -2.2039    1.3937   -2.8345 H   0  0  0  0  0  0  0  0  0  0  0  0
   -0.1070   -0.4994    1.2067 C   0  0  0  0  0  0  0  0  0  0  0  0
    1.0620   -0.3978    1.5542 O   0  0  0  0  0  0  0  0  0  0  0  0
   -1.0861    0.1484    1.9383 N   0  0  0  0  0  0  0  0  0  0  0  0
   -2.0445   -0.0409    1.6629 H   0  0  0  0  0  0  0  0  0  0  0  0
   -0.8365    0.7162    3.2574 C   0  0  0  0  0  0  0  0  0  0  0  0
   -0.0424    1.4688    3.2082 H   0  0  0  0  0  0  0  0  0  0  0  0
   -1.7417    1.1972    3.6400 H   0  0  0  0  0  0  0  0  0  0  0  0
   -0.5352   -0.0683    3.9596 H   0  0  0  0  0  0  0  0  0  0  0  0
  1  2  1  0  0  0  0
  2  3  1  0  0  0  0
  2  4  1  0  0  0  0
  2  5  1  0  0  0  0
  5  6  2  0  0  0  0
  5  7  1  0  0  0  0
  7  8  1  0  0  0  0
  7  9  1  0  0  0  0
  9 10  1  0  0  0  0
  9 11  1  0  0  0  0
  9 26  1  0  0  0  0
 11 12  1  0  0  0  0
 11 13  1  0  0  0  0
 11 14  1  0  0  0  0
 14 15  2  0  0  0  0
 14 24  1  0  0  0  0
 15 16  1  0  0  0  0
 15 17  1  0  0  0  0
 17 18  1  0  0  0  0
 17 19  2  0  0  0  0
 19 20  1  0  0  0  0
 19 22  1  0  0  0  0
 20 21  1  0  0  0  0
 22 23  1  0  0  0  0
 22 24  2  0  0  0  0
 24 25  1  0  0  0  0
 26 27  2  0  0  0  0
 26 28  1  0  0  0  0
 28 29  1  0  0  0  0
 28 30  1  0  0  0  0
 30 31  1  0  0  0  0
 30 32  1  0  0  0  0
 30 33  1  0  0  0  0
M  END
$$$$

  -OEChem-03222214083D

 33 33  0     1  0  0  0  0  0999 V2000
   -3.3108   -4.6360    0.8825 H   0  0  0  0  0  0  0  0  0  0  0  0
   -3.2676   -3.7531    0.2384 C   0  0  0  0  0  0  0  0  0  0  0  0
   -4.1428   -3.1298    0.4365 H   0  0  0  0  0  0  0  0  0  0  0  0
   -3.2883   -4.0779   -0.8047 H   0  0  0  0  0  0  0  0  0  0  0  0
   -1.9985   -2.9683    0.5130 C   0  0  0  0  0  0  0  0  0  0  0  0
   -1.2390   -3.3274    1.3946 O   0  0  0  0  0  0  0  0  0  0  0  0
   -1.7121   -1.8489   -0.2415 N   0  0  0  0  0  0  0  0  0  0  0  0
   -2.3228   -1.6647   -1.0345 H   0  0  0  0  0  0  0  0  0  0  0  0
   -0.4458   -1.0928   -0.1743 C   0  0  1  0  0  0  0  0  0  0  0  0
    0.3700   -1.7843   -0.4106 H   0  0  0  0  0  0  0  0  0  0  0  0
   -0.4485    0.0303   -1.2312 C   0  0  0  0  0  0  0  0  0  0  0  0
   -1.0812    0.8453   -0.8639 H   0  0  0  0  0  0  0  0  0  0  0  0
    0.5690    0.4259   -1.3215 H   0  0  0  0  0  0  0  0  0  0  0  0
   -0.9349   -0.3718   -2.6149 C   0  0  0  0  0  0  0  0  0  0  0  0
   -0.7751   -1.6737   -3.1274 C   0  0  0  0  0  0  0  0  0  0  0  0
   -0.2583   -2.4362   -2.5519 H   0  0  0  0  0  0  0  0  0  0  0  0
   -1.2615   -2.0064   -4.3966 C   0  0  0  0  0  0  0  0  0  0  0  0
   -1.1229   -3.0140   -4.7734 H   0  0  0  0  0  0  0  0  0  0  0  0
   -1.9131   -1.0472   -5.1724 C   0  0  0  0  0  0  0  0  0  0  0  0
   -2.3886   -1.3599   -6.4128 O   0  0  0  0  0  0  0  0  0  0  0  0
   -2.1277   -2.2624   -6.6533 H   0  0  0  0  0  0  0  0  0  0  0  0
   -2.0743    0.2442   -4.6765 C   0  0  0  0  0  0  0  0  0  0  0  0
   -2.5777    0.9861   -5.2883 H   0  0  0  0  0  0  0  0  0  0  0  0
   -1.5881    0.5833   -3.4094 C   0  0  0  0  0  0  0  0  0  0  0  0
   -1.7230    1.5984   -3.0461 H   0  0  0  0  0  0  0  0  0  0  0  0
   -0.1175   -0.4966    1.2099 C   0  0  0  0  0  0  0  0  0  0  0  0
    1.0514   -0.3739    1.5507 O   0  0  0  0  0  0  0  0  0  0  0  0
   -1.1015    0.1511    1.9353 N   0  0  0  0  0  0  0  0  0  0  0  0
   -2.0590   -0.0534    1.6683 H   0  0  0  0  0  0  0  0  0  0  0  0
   -0.8520    0.7485    3.2409 C   0  0  0  0  0  0  0  0  0  0  0  0
   -0.0635    1.5055    3.1732 H   0  0  0  0  0  0  0  0  0  0  0  0
   -1.7597    1.2308    3.6157 H   0  0  0  0  0  0  0  0  0  0  0  0
   -0.5427   -0.0186    3.9586 H   0  0  0  0  0  0  0  0  0  0  0  0
  1  2  1  0  0  0  0
  2  3  1  0  0  0  0
  2  4  1  0  0  0  0
  2  5  1  0  0  0  0
  5  6  2  0  0  0  0
  5  7  1  0  0  0  0
  7  8  1  0  0  0  0
  7  9  1  0  0  0  0
  9 10  1  0  0  0  0
  9 11  1  0  0  0  0
  9 26  1  0  0  0  0
 11 12  1  0  0  0  0
 11 13  1  0  0  0  0
 11 14  1  0  0  0  0
 14 15  2  0  0  0  0
 14 24  1  0  0  0  0
 15 16  1  0  0  0  0
 15 17  1  0  0  0  0
 17 18  1  0  0  0  0
 17 19  2  0  0  0  0
 19 20  1  0  0  0  0
 19 22  1  0  0  0  0
 20 21  1  0  0  0  0
 22 23  1  0  0  0  0
 22 24  2  0  0  0  0
 24 25  1  0  0  0  0
 26 27  2  0  0  0  0
 26 28  1  0  0  0  0
 28 29  1  0  0  0  0
 28 30  1  0  0  0  0
 30 31  1  0  0  0  0
 30 32  1  0  0  0  0
 30 33  1  0  0  0  0
M  END
$$$$

  -OEChem-03222214083D

 33 33  0     1  0  0  0  0  0999 V2000
   -3.2967   -4.6533    1.0412 H   0  0  0  0  0  0  0  0  0  0  0  0
   -3.2672   -3.7889    0.3718 C   0  0  0  0  0  0  0  0  0  0  0  0
   -4.1295   -3.1517    0.5819 H   0  0  0  0  0  0  0  0  0  0  0  0
   -3.3257   -4.1416   -0.6607 H   0  0  0  0  0  0  0  0  0  0  0  0
   -1.9824   -3.0102    0.5823 C   0  0  0  0  0  0  0  0  0  0  0  0
   -1.1861   -3.3676    1.4311 O   0  0  0  0  0  0  0  0  0  0  0  0
   -1.7208   -1.9012   -0.1967 N   0  0  0  0  0  0  0  0  0  0  0  0
   -2.3787   -1.6976   -0.9456 H   0  0  0  0  0  0  0  0  0  0  0  0
   -0.4654   -1.1242   -0.1606 C   0  0  1  0  0  0  0  0  0  0  0  0
    0.3539   -1.8147   -0.3892 H   0  0  0  0  0  0  0  0  0  0  0  0
   -0.4676   -0.0244   -1.2442 C   0  0  0  0  0  0  0  0  0  0  0  0
   -1.1078    0.7913   -0.8922 H   0  0  0  0  0  0  0  0  0  0  0  0
    0.5490    0.3761   -1.3237 H   0  0  0  0  0  0  0  0  0  0  0  0
   -0.9347   -0.4086   -2.6421 C   0  0  0  0  0  0  0  0  0  0  0  0
   -1.0682   -1.7372   -3.0936 C   0  0  0  0  0  0  0  0  0  0  0  0
   -0.7743   -2.5738   -2.4673 H   0  0  0  0  0  0  0  0  0  0  0  0
   -1.5410   -2.0124   -4.3820 C   0  0  0  0  0  0  0  0  0  0  0  0
   -1.6258   -3.0426   -4.7108 H   0  0  0  0  0  0  0  0  0  0  0  0
   -1.8894   -0.9695   -5.2404 C   0  0  0  0  0  0  0  0  0  0  0  0
   -2.3465   -1.2260   -6.5005 O   0  0  0  0  0  0  0  0  0  0  0  0
   -2.2921   -2.1754   -6.6899 H   0  0  0  0  0  0  0  0  0  0  0  0
   -1.7621    0.3471   -4.8070 C   0  0  0  0  0  0  0  0  0  0  0  0
   -2.0320    1.1540   -5.4808 H   0  0  0  0  0  0  0  0  0  0  0  0
   -1.2880    0.6273   -3.5213 C   0  0  0  0  0  0  0  0  0  0  0  0
   -1.1970    1.6635   -3.2070 H   0  0  0  0  0  0  0  0  0  0  0  0
   -0.1317   -0.4965    1.2086 C   0  0  0  0  0  0  0  0  0  0  0  0
    1.0383   -0.3482    1.5350 O   0  0  0  0  0  0  0  0  0  0  0  0
   -1.1185    0.1492    1.9320 N   0  0  0  0  0  0  0  0  0  0  0  0
   -2.0763   -0.0681    1.6767 H   0  0  0  0  0  0  0  0  0  0  0  0
   -0.8637    0.7960    3.2129 C   0  0  0  0  0  0  0  0  0  0  0  0
   -0.0895    1.5634    3.1074 H   0  0  0  0  0  0  0  0  0  0  0  0
   -1.7749    1.2759    3.5820 H   0  0  0  0  0  0  0  0  0  0  0  0
   -0.5324    0.0601    3.9532 H   0  0  0  0  0  0  0  0  0  0  0  0
  1  2  1  0  0  0  0
  2  3  1  0  0  0  0
  2  4  1  0  0  0  0
  2  5  1  0  0  0  0
  5  6  2  0  0  0  0
  5  7  1  0  0  0  0
  7  8  1  0  0  0  0
  7  9  1  0  0  0  0
  9 10  1  0  0  0  0
  9 11  1  0  0  0  0
  9 26  1  0  0  0  0
 11 12  1  0  0  0  0
 11 13  1  0  0  0  0
 11 14  1  0  0  0  0
 14 15  2  0  0  0  0
 14 24  1  0  0  0  0
 15 16  1  0  0  0  0
 15 17  1  0  0  0  0
 17 18  1  0  0  0  0
 17 19  2  0  0  0  0
 19 20  1  0  0  0  0
 19 22  1  0  0  0  0
 20 21  1  0  0  0  0
 22 23  1  0  0  0  0
 22 24  2  0  0  0  0
 24 25  1  0  0  0  0
 26 27  2  0  0  0  0
 26 28  1  0  0  0  0
 28 29  1  0  0  0  0
 28 30  1  0  0  0  0
 30 31  1  0  0  0  0
 30 32  1  0  0  0  0
 30 33  1  0  0  0  0
M  END
$$$$

  -OEChem-03222214083D

 33 33  0     1  0  0  0  0  0999 V2000
   -3.2653   -4.6600    1.2270 H   0  0  0  0  0  0  0  0  0  0  0  0
   -3.2593   -3.8134    0.5344 C   0  0  0  0  0  0  0  0  0  0  0  0
   -4.1047   -3.1614    0.7676 H   0  0  0  0  0  0  0  0  0  0  0  0
   -3.3693   -4.1928   -0.4844 H   0  0  0  0  0  0  0  0  0  0  0  0
   -1.9587   -3.0432    0.6641 C   0  0  0  0  0  0  0  0  0  0  0  0
   -1.1248   -3.3910    1.4799 O   0  0  0  0  0  0  0  0  0  0  0  0
   -1.7273   -1.9511   -0.1480 N   0  0  0  0  0  0  0  0  0  0  0  0
   -2.4383   -1.7254   -0.8390 H   0  0  0  0  0  0  0  0  0  0  0  0
   -0.4852   -1.1547   -0.1533 C   0  0  1  0  0  0  0  0  0  0  0  0
    0.3368   -1.8464   -0.3690 H   0  0  0  0  0  0  0  0  0  0  0  0
   -0.4858   -0.0842   -1.2680 C   0  0  0  0  0  0  0  0  0  0  0  0
   -1.1291    0.7369   -0.9337 H   0  0  0  0  0  0  0  0  0  0  0  0
    0.5317    0.3159   -1.3377 H   0  0  0  0  0  0  0  0  0  0  0  0
   -0.9358   -0.4544   -2.6786 C   0  0  0  0  0  0  0  0  0  0  0  0
   -1.3667   -1.7306   -3.0988 C   0  0  0  0  0  0  0  0  0  0  0  0
   -1.3097   -2.5969   -2.4508 H   0  0  0  0  0  0  0  0  0  0  0  0
   -1.8200   -1.9426   -4.4065 C   0  0  0  0  0  0  0  0  0  0  0  0
   -2.1280   -2.9375   -4.7092 H   0  0  0  0  0  0  0  0  0  0  0  0
   -1.8612   -0.8880   -5.3178 C   0  0  0  0  0  0  0  0  0  0  0  0
   -2.2998   -1.0838   -6.5955 O   0  0  0  0  0  0  0  0  0  0  0  0
   -2.4892   -2.0228   -6.7448 H   0  0  0  0  0  0  0  0  0  0  0  0
   -1.4413    0.3767   -4.9185 C   0  0  0  0  0  0  0  0  0  0  0  0
   -1.4724    1.1937   -5.6323 H   0  0  0  0  0  0  0  0  0  0  0  0
   -0.9833    0.5920   -3.6147 C   0  0  0  0  0  0  0  0  0  0  0  0
   -0.6664    1.5911   -3.3279 H   0  0  0  0  0  0  0  0  0  0  0  0
   -0.1454   -0.4885    1.1963 C   0  0  0  0  0  0  0  0  0  0  0  0
    1.0251   -0.3196    1.5099 O   0  0  0  0  0  0  0  0  0  0  0  0
   -1.1338    0.1580    1.9171 N   0  0  0  0  0  0  0  0  0  0  0  0
   -2.0914   -0.0663    1.6682 H   0  0  0  0  0  0  0  0  0  0  0  0
   -0.8768    0.8256    3.1870 C   0  0  0  0  0  0  0  0  0  0  0  0
   -0.1052    1.5937    3.0684 H   0  0  0  0  0  0  0  0  0  0  0  0
   -1.7882    1.3086    3.5519 H   0  0  0  0  0  0  0  0  0  0  0  0
   -0.5413    0.1015    3.9369 H   0  0  0  0  0  0  0  0  0  0  0  0
  1  2  1  0  0  0  0
  2  3  1  0  0  0  0
  2  4  1  0  0  0  0
  2  5  1  0  0  0  0
  5  6  2  0  0  0  0
  5  7  1  0  0  0  0
  7  8  1  0  0  0  0
  7  9  1  0  0  0  0
  9 10  1  0  0  0  0
  9 11  1  0  0  0  0
  9 26  1  0  0  0  0
 11 12  1  0  0  0  0
 11 13  1  0  0  0  0
 11 14  1  0  0  0  0
 14 15  2  0  0  0  0
 14 24  1  0  0  0  0
 15 16  1  0  0  0  0
 15 17  1  0  0  0  0
 17 18  1  0  0  0  0
 17 19  2  0  0  0  0
 19 20  1  0  0  0  0
 19 22  1  0  0  0  0
 20 21  1  0  0  0  0
 22 23  1  0  0  0  0
 22 24  2  0  0  0  0
 24 25  1  0  0  0  0
 26 27  2  0  0  0  0
 26 28  1  0  0  0  0
 28 29  1  0  0  0  0
 28 30  1  0  0  0  0
 30 31  1  0  0  0  0
 30 32  1  0  0  0  0
 30 33  1  0  0  0  0
M  END
$$$$

  -OEChem-03222214083D

 33 33  0     1  0  0  0  0  0999 V2000
   -3.2326   -4.6589    1.4105 H   0  0  0  0  0  0  0  0  0  0  0  0
   -3.2524   -3.8352    0.6912 C   0  0  0  0  0  0  0  0  0  0  0  0
   -4.0804   -3.1685    0.9434 H   0  0  0  0  0  0  0  0  0  0  0  0
   -3.4138   -4.2460   -0.3083 H   0  0  0  0  0  0  0  0  0  0  0  0
   -1.9401   -3.0749    0.7330 C   0  0  0  0  0  0  0  0  0  0  0  0
   -1.0628   -3.4193    1.5035 O   0  0  0  0  0  0  0  0  0  0  0  0
   -1.7496   -1.9923   -0.1030 N   0  0  0  0  0  0  0  0  0  0  0  0
   -2.5169   -1.7366   -0.7180 H   0  0  0  0  0  0  0  0  0  0  0  0
   -0.5199   -1.1820   -0.1583 C   0  0  1  0  0  0  0  0  0  0  0  0
    0.3003   -1.8749   -0.3775 H   0  0  0  0  0  0  0  0  0  0  0  0
   -0.5233   -0.1266   -1.2899 C   0  0  0  0  0  0  0  0  0  0  0  0
   -1.1587    0.7016   -0.9595 H   0  0  0  0  0  0  0  0  0  0  0  0
    0.4985    0.2642   -1.3573 H   0  0  0  0  0  0  0  0  0  0  0  0
   -0.9772   -0.4777   -2.7071 C   0  0  0  0  0  0  0  0  0  0  0  0
   -1.6948   -1.6258   -3.1099 C   0  0  0  0  0  0  0  0  0  0  0  0
   -1.9226   -2.4407   -2.4380 H   0  0  0  0  0  0  0  0  0  0  0  0
   -2.1013   -1.7920   -4.4404 C   0  0  0  0  0  0  0  0  0  0  0  0
   -2.6380   -2.6903   -4.7263 H   0  0  0  0  0  0  0  0  0  0  0  0
   -1.8115   -0.8182   -5.3948 C   0  0  0  0  0  0  0  0  0  0  0  0
   -2.2031   -0.9704   -6.6936 O   0  0  0  0  0  0  0  0  0  0  0  0
   -2.6286   -1.8326   -6.8170 H   0  0  0  0  0  0  0  0  0  0  0  0
   -1.1096    0.3201   -5.0160 C   0  0  0  0  0  0  0  0  0  0  0  0
   -0.8841    1.0758   -5.7617 H   0  0  0  0  0  0  0  0  0  0  0  0
   -0.6991    0.4887   -3.6901 C   0  0  0  0  0  0  0  0  0  0  0  0
   -0.1585    1.3931   -3.4242 H   0  0  0  0  0  0  0  0  0  0  0  0
   -0.1557   -0.4950    1.1756 C   0  0  0  0  0  0  0  0  0  0  0  0
    1.0194   -0.3032    1.4575 O   0  0  0  0  0  0  0  0  0  0  0  0
   -1.1349    0.1460    1.9141 N   0  0  0  0  0  0  0  0  0  0  0  0
   -2.0957   -0.0921    1.6925 H   0  0  0  0  0  0  0  0  0  0  0  0
   -0.8545    0.8407    3.1647 C   0  0  0  0  0  0  0  0  0  0  0  0
   -0.1321    1.6477    3.0025 H   0  0  0  0  0  0  0  0  0  0  0  0
   -1.7724    1.2776    3.5689 H   0  0  0  0  0  0  0  0  0  0  0  0
   -0.4454    0.1448    3.9046 H   0  0  0  0  0  0  0  0  0  0  0  0
  1  2  1  0  0  0  0
  2  3  1  0  0  0  0
  2  4  1  0  0  0  0
  2  5  1  0  0  0  0
  5  6  2  0  0  0  0
  5  7  1  0  0  0  0
  7  8  1  0  0  0  0
  7  9  1  0  0  0  0
  9 10  1  0  0  0  0
  9 11  1  0  0  0  0
  9 26  1  0  0  0  0
 11 12  1  0  0  0  0
 11 13  1  0  0  0  0
 11 14  1  0  0  0  0
 14 15  2  0  0  0  0
 14 24  1  0  0  0  0
 15 16  1  0  0  0  0
 15 17  1  0  0  0  0
 17 18  1  0  0  0  0
 17 19  2  0  0  0  0
 19 20  1  0  0  0  0
 19 22  1  0  0  0  0
 20 21  1  0  0  0  0
 22 23  1  0  0  0  0
 22 24  2  0  0  0  0
 24 25  1  0  0  0  0
 26 27  2  0  0  0  0
 26 28  1  0  0  0  0
 28 29  1  0  0  0  0
 28 30  1  0  0  0  0
 30 31  1  0  0  0  0
 30 32  1  0  0  0  0
 30 33  1  0  0  0  0
M  END
$$$$

  -OEChem-03222214083D

 33 33  0     1  0  0  0  0  0999 V2000
   -3.2099   -4.6547    1.4728 H   0  0  0  0  0  0  0  0  0  0  0  0
   -3.2560   -3.8305    0.7553 C   0  0  0  0  0  0  0  0  0  0  0  0
   -4.0565   -3.1498    1.0539 H   0  0  0  0  0  0  0  0  0  0  0  0
   -3.4809   -4.2380   -0.2332 H   0  0  0  0  0  0  0  0  0  0  0  0
   -1.9305   -3.0933    0.7233 C   0  0  0  0  0  0  0  0  0  0  0  0
   -1.0136   -3.4630    1.4336 O   0  0  0  0  0  0  0  0  0  0  0  0
   -1.7777   -1.9958   -0.1014 N   0  0  0  0  0  0  0  0  0  0  0  0
   -2.5909   -1.6945   -0.6280 H   0  0  0  0  0  0  0  0  0  0  0  0
   -0.5567   -1.1761   -0.1812 C   0  0  1  0  0  0  0  0  0  0  0  0
    0.2572   -1.8676   -0.4277 H   0  0  0  0  0  0  0  0  0  0  0  0
   -0.5639   -0.1034   -1.2988 C   0  0  0  0  0  0  0  0  0  0  0  0
   -1.1932    0.7235   -0.9541 H   0  0  0  0  0  0  0  0  0  0  0  0
    0.4596    0.2834   -1.3607 H   0  0  0  0  0  0  0  0  0  0  0  0
   -1.0342   -0.4324   -2.7172 C   0  0  0  0  0  0  0  0  0  0  0  0
   -2.0000   -1.3934   -3.0884 C   0  0  0  0  0  0  0  0  0  0  0  0
   -2.5030   -2.0304   -2.3777 H   0  0  0  0  0  0  0  0  0  0  0  0
   -2.3521   -1.5819   -4.4309 C   0  0  0  0  0  0  0  0  0  0  0  0
   -3.0900   -2.3337   -4.6882 H   0  0  0  0  0  0  0  0  0  0  0  0
   -1.7604   -0.8141   -5.4320 C   0  0  0  0  0  0  0  0  0  0  0  0
   -2.0974   -0.9930   -6.7426 O   0  0  0  0  0  0  0  0  0  0  0  0
   -2.7241   -1.7274   -6.8304 H   0  0  0  0  0  0  0  0  0  0  0  0
   -0.8158    0.1447   -5.0860 C   0  0  0  0  0  0  0  0  0  0  0  0
   -0.3577    0.7433   -5.8666 H   0  0  0  0  0  0  0  0  0  0  0  0
   -0.4583    0.3336   -3.7478 C   0  0  0  0  0  0  0  0  0  0  0  0
    0.2823    1.0936   -3.5140 H   0  0  0  0  0  0  0  0  0  0  0  0
   -0.1578   -0.5097    1.1532 C   0  0  0  0  0  0  0  0  0  0  0  0
    1.0236   -0.3122    1.4027 O   0  0  0  0  0  0  0  0  0  0  0  0
   -1.1183    0.1110    1.9325 N   0  0  0  0  0  0  0  0  0  0  0  0
   -2.0851   -0.1194    1.7312 H   0  0  0  0  0  0  0  0  0  0  0  0
   -0.8044    0.8035    3.1764 C   0  0  0  0  0  0  0  0  0  0  0  0
   -0.0982    1.6203    2.9930 H   0  0  0  0  0  0  0  0  0  0  0  0
   -1.7136    1.2270    3.6135 H   0  0  0  0  0  0  0  0  0  0  0  0
   -0.3611    0.1099    3.8988 H   0  0  0  0  0  0  0  0  0  0  0  0
  1  2  1  0  0  0  0
  2  3  1  0  0  0  0
  2  4  1  0  0  0  0
  2  5  1  0  0  0  0
  5  6  2  0  0  0  0
  5  7  1  0  0  0  0
  7  8  1  0  0  0  0
  7  9  1  0  0  0  0
  9 10  1  0  0  0  0
  9 11  1  0  0  0  0
  9 26  1  0  0  0  0
 11 12  1  0  0  0  0
 11 13  1  0  0  0  0
 11 14  1  0  0  0  0
 14 15  2  0  0  0  0
 14 24  1  0  0  0  0
 15 16  1  0  0  0  0
 15 17  1  0  0  0  0
 17 18  1  0  0  0  0
 17 19  2  0  0  0  0
 19 20  1  0  0  0  0
 19 22  1  0  0  0  0
 20 21  1  0  0  0  0
 22 23  1  0  0  0  0
 22 24  2  0  0  0  0
 24 25  1  0  0  0  0
 26 27  2  0  0  0  0
 26 28  1  0  0  0  0
 28 29  1  0  0  0  0
 28 30  1  0  0  0  0
 30 31  1  0  0  0  0
 30 32  1  0  0  0  0
 30 33  1  0  0  0  0
M  END
$$$$

  -OEChem-03222214083D

 33 33  0     1  0  0  0  0  0999 V2000
   -3.2105   -4.6775    1.3193 H   0  0  0  0  0  0  0  0  0  0  0  0
   -3.2592   -3.8262    0.6340 C   0  0  0  0  0  0  0  0  0  0  0  0
   -4.0783   -3.1726    0.9431 H   0  0  0  0  0  0  0  0  0  0  0  0
   -3.4571   -4.1985   -0.3742 H   0  0  0  0  0  0  0  0  0  0  0  0
   -1.9477   -3.0637    0.6565 C   0  0  0  0  0  0  0  0  0  0  0  0
   -1.0414   -3.4370    1.3785 O   0  0  0  0  0  0  0  0  0  0  0  0
   -1.7967   -1.9413   -0.1341 N   0  0  0  0  0  0  0  0  0  0  0  0
   -2.5944   -1.6584   -0.6892 H   0  0  0  0  0  0  0  0  0  0  0  0
   -0.5711   -1.1262   -0.2035 C   0  0  1  0  0  0  0  0  0  0  0  0
    0.2336   -1.8178   -0.4772 H   0  0  0  0  0  0  0  0  0  0  0  0
   -0.5681   -0.0169   -1.2858 C   0  0  0  0  0  0  0  0  0  0  0  0
   -1.1917    0.8051   -0.9194 H   0  0  0  0  0  0  0  0  0  0  0  0
    0.4559    0.3693   -1.3416 H   0  0  0  0  0  0  0  0  0  0  0  0
   -1.0578   -0.3330   -2.6987 C   0  0  0  0  0  0  0  0  0  0  0  0
   -2.2270   -1.0534   -3.0209 C   0  0  0  0  0  0  0  0  0  0  0  0
   -2.9218   -1.3943   -2.2685 H   0  0  0  0  0  0  0  0  0  0  0  0
   -2.5646   -1.3232   -4.3532 C   0  0  0  0  0  0  0  0  0  0  0  0
   -3.4719   -1.8743   -4.5740 H   0  0  0  0  0  0  0  0  0  0  0  0
   -1.7466   -0.8818   -5.3919 C   0  0  0  0  0  0  0  0  0  0  0  0
   -2.0653   -1.1417   -6.6934 O   0  0  0  0  0  0  0  0  0  0  0  0
   -2.8710   -1.6785   -6.7410 H   0  0  0  0  0  0  0  0  0  0  0  0
   -0.5941   -0.1639   -5.0939 C   0  0  0  0  0  0  0  0  0  0  0  0
    0.0393    0.1807   -5.9049 H   0  0  0  0  0  0  0  0  0  0  0  0
   -0.2525    0.1071   -3.7654 C   0  0  0  0  0  0  0  0  0  0  0  0
    0.6598    0.6641   -3.5703 H   0  0  0  0  0  0  0  0  0  0  0  0
   -0.1504   -0.5045    1.1454 C   0  0  0  0  0  0  0  0  0  0  0  0
    1.0355   -0.3170    1.3823 O   0  0  0  0  0  0  0  0  0  0  0  0
   -1.0974    0.0968    1.9556 N   0  0  0  0  0  0  0  0  0  0  0  0
   -2.0660   -0.1394    1.7695 H   0  0  0  0  0  0  0  0  0  0  0  0
   -0.7616    0.7340    3.2228 C   0  0  0  0  0  0  0  0  0  0  0  0
   -0.0318    1.5358    3.0685 H   0  0  0  0  0  0  0  0  0  0  0  0
   -1.6569    1.1680    3.6776 H   0  0  0  0  0  0  0  0  0  0  0  0
   -0.3378    0.0015    3.9177 H   0  0  0  0  0  0  0  0  0  0  0  0
  1  2  1  0  0  0  0
  2  3  1  0  0  0  0
  2  4  1  0  0  0  0
  2  5  1  0  0  0  0
  5  6  2  0  0  0  0
  5  7  1  0  0  0  0
  7  8  1  0  0  0  0
  7  9  1  0  0  0  0
  9 10  1  0  0  0  0
  9 11  1  0  0  0  0
  9 26  1  0  0  0  0
 11 12  1  0  0  0  0
 11 13  1  0  0  0  0
 11 14  1  0  0  0  0
 14 15  2  0  0  0  0
 14 24  1  0  0  0  0
 15 16  1  0  0  0  0
 15 17  1  0  0  0  0
 17 18  1  0  0  0  0
 17 19  2  0  0  0  0
 19 20  1  0  0  0  0
 19 22  1  0  0  0  0
 20 21  1  0  0  0  0
 22 23  1  0  0  0  0
 22 24  2  0  0  0  0
 24 25  1  0  0  0  0
 26 27  2  0  0  0  0
 26 28  1  0  0  0  0
 28 29  1  0  0  0  0
 28 30  1  0  0  0  0
 30 31  1  0  0  0  0
 30 32  1  0  0  0  0
 30 33  1  0  0  0  0
M  END
$$$$

  -OEChem-03222214083D

 33 33  0     1  0  0  0  0  0999 V2000
   -3.1934   -4.7378    0.9611 H   0  0  0  0  0  0  0  0  0  0  0  0
   -3.2038   -3.8722    0.2923 C   0  0  0  0  0  0  0  0  0  0  0  0
   -4.1418   -3.3298    0.4332 H   0  0  0  0  0  0  0  0  0  0  0  0
   -3.1455   -4.2267   -0.7397 H   0  0  0  0  0  0  0  0  0  0  0  0
   -2.0271   -2.9638    0.5971 C   0  0  0  0  0  0  0  0  0  0  0  0
   -1.2892   -3.2246    1.5297 O   0  0  0  0  0  0  0  0  0  0  0  0
   -1.8102   -1.8476   -0.1878 N   0  0  0  0  0  0  0  0  0  0  0  0
   -2.3482   -1.8272   -1.0470 H   0  0  0  0  0  0  0  0  0  0  0  0
   -0.5422   -1.0932   -0.1968 C   0  0  1  0  0  0  0  0  0  0  0  0
    0.2454   -1.8047   -0.4683 H   0  0  0  0  0  0  0  0  0  0  0  0
   -0.4978    0.0551   -1.2361 C   0  0  0  0  0  0  0  0  0  0  0  0
   -1.0967    0.8883   -0.8534 H   0  0  0  0  0  0  0  0  0  0  0  0
    0.5353    0.4148   -1.2973 H   0  0  0  0  0  0  0  0  0  0  0  0
   -1.0115   -0.2546   -2.6341 C   0  0  0  0  0  0  0  0  0  0  0  0
   -2.3325   -0.6657   -2.8946 C   0  0  0  0  0  0  0  0  0  0  0  0
   -3.0774   -0.6666   -2.1062 H   0  0  0  0  0  0  0  0  0  0  0  0
   -2.7339   -1.0149   -4.1896 C   0  0  0  0  0  0  0  0  0  0  0  0
   -3.7609   -1.3116   -4.3721 H   0  0  0  0  0  0  0  0  0  0  0  0
   -1.8209   -0.9686   -5.2436 C   0  0  0  0  0  0  0  0  0  0  0  0
   -2.1984   -1.3068   -6.5109 O   0  0  0  0  0  0  0  0  0  0  0  0
   -3.1386   -1.5416   -6.5307 H   0  0  0  0  0  0  0  0  0  0  0  0
   -0.5105   -0.5681   -4.9987 C   0  0  0  0  0  0  0  0  0  0  0  0
    0.1956   -0.5360   -5.8223 H   0  0  0  0  0  0  0  0  0  0  0  0
   -0.1060   -0.2160   -3.7070 C   0  0  0  0  0  0  0  0  0  0  0  0
    0.9270    0.0789   -3.5431 H   0  0  0  0  0  0  0  0  0  0  0  0
   -0.1402   -0.4973    1.1703 C   0  0  0  0  0  0  0  0  0  0  0  0
    1.0458   -0.3674    1.4444 O   0  0  0  0  0  0  0  0  0  0  0  0
   -1.0851    0.1493    1.9467 N   0  0  0  0  0  0  0  0  0  0  0  0
   -2.0533   -0.0768    1.7432 H   0  0  0  0  0  0  0  0  0  0  0  0
   -0.7654    0.7528    3.2340 C   0  0  0  0  0  0  0  0  0  0  0  0
    0.0017    1.5254    3.1159 H   0  0  0  0  0  0  0  0  0  0  0  0
   -1.6572    1.2174    3.6652 H   0  0  0  0  0  0  0  0  0  0  0  0
   -0.3964   -0.0073    3.9308 H   0  0  0  0  0  0  0  0  0  0  0  0
  1  2  1  0  0  0  0
  2  3  1  0  0  0  0
  2  4  1  0  0  0  0
  2  5  1  0  0  0  0
  5  6  2  0  0  0  0
  5  7  1  0  0  0  0
  7  8  1  0  0  0  0
  7  9  1  0  0  0  0
  9 10  1  0  0  0  0
  9 11  1  0  0  0  0
  9 26  1  0  0  0  0
 11 12  1  0  0  0  0
 11 13  1  0  0  0  0
 11 14  1  0  0  0  0
 14 15  2  0  0  0  0
 14 24  1  0  0  0  0
 15 16  1  0  0  0  0
 15 17  1  0  0  0  0
 17 18  1  0  0  0  0
 17 19  2  0  0  0  0
 19 20  1  0  0  0  0
 19 22  1  0  0  0  0
 20 21  1  0  0  0  0
 22 23  1  0  0  0  0
 22 24  2  0  0  0  0
 24 25  1  0  0  0  0
 26 27  2  0  0  0  0
 26 28  1  0  0  0  0
 28 29  1  0  0  0  0
 28 30  1  0  0  0  0
 30 31  1  0  0  0  0
 30 32  1  0  0  0  0
 30 33  1  0  0  0  0
M  END
$$$$

  -OEChem-03222214083D

 33 33  0     1  0  0  0  0  0999 V2000
   -3.2283   -4.6991    0.7653 H   0  0  0  0  0  0  0  0  0  0  0  0
   -3.2144   -3.8079    0.1310 C   0  0  0  0  0  0  0  0  0  0  0  0
   -4.1485   -3.2595    0.2734 H   0  0  0  0  0  0  0  0  0  0  0  0
   -3.1385   -4.1223   -0.9128 H   0  0  0  0  0  0  0  0  0  0  0  0
   -2.0342   -2.9263    0.4949 C   0  0  0  0  0  0  0  0  0  0  0  0
   -1.3305   -3.2194    1.4444 O   0  0  0  0  0  0  0  0  0  0  0  0
   -1.7759   -1.7948   -0.2538 N   0  0  0  0  0  0  0  0  0  0  0  0
   -2.2939   -1.7322   -1.1251 H   0  0  0  0  0  0  0  0  0  0  0  0
   -0.5005   -1.0538   -0.2031 C   0  0  1  0  0  0  0  0  0  0  0  0
    0.2916   -1.7611   -0.4726 H   0  0  0  0  0  0  0  0  0  0  0  0
   -0.4563    0.1050   -1.2245 C   0  0  0  0  0  0  0  0  0  0  0  0
   -1.0658    0.9332   -0.8484 H   0  0  0  0  0  0  0  0  0  0  0  0
    0.5728    0.4746   -1.2912 H   0  0  0  0  0  0  0  0  0  0  0  0
   -0.9602   -0.2560   -2.6082 C   0  0  0  0  0  0  0  0  0  0  0  0
   -2.3327   -0.4026   -2.8774 C   0  0  0  0  0  0  0  0  0  0  0  0
   -3.0656   -0.1885   -2.1046 H   0  0  0  0  0  0  0  0  0  0  0  0
   -2.7721   -0.7888   -4.1492 C   0  0  0  0  0  0  0  0  0  0  0  0
   -3.8348   -0.8864   -4.3435 H   0  0  0  0  0  0  0  0  0  0  0  0
   -1.8470   -1.0390   -5.1646 C   0  0  0  0  0  0  0  0  0  0  0  0
   -2.2617   -1.4123   -6.4103 O   0  0  0  0  0  0  0  0  0  0  0  0
   -3.2299   -1.4134   -6.4567 H   0  0  0  0  0  0  0  0  0  0  0  0
   -0.4854   -0.9042   -4.9038 C   0  0  0  0  0  0  0  0  0  0  0  0
    0.2272   -1.1037   -5.6977 H   0  0  0  0  0  0  0  0  0  0  0  0
   -0.0407   -0.5184   -3.6348 C   0  0  0  0  0  0  0  0  0  0  0  0
    1.0266   -0.4303   -3.4510 H   0  0  0  0  0  0  0  0  0  0  0  0
   -0.1282   -0.4891    1.1847 C   0  0  0  0  0  0  0  0  0  0  0  0
    1.0520   -0.3779    1.4900 O   0  0  0  0  0  0  0  0  0  0  0  0
   -1.0844    0.1545    1.9497 N   0  0  0  0  0  0  0  0  0  0  0  0
   -2.0493   -0.0590    1.7194 H   0  0  0  0  0  0  0  0  0  0  0  0
   -0.7895    0.7235    3.2589 C   0  0  0  0  0  0  0  0  0  0  0  0
   -0.0021    1.4806    3.1810 H   0  0  0  0  0  0  0  0  0  0  0  0
   -1.6825    1.1997    3.6745 H   0  0  0  0  0  0  0  0  0  0  0  0
   -0.4583   -0.0593    3.9496 H   0  0  0  0  0  0  0  0  0  0  0  0
  1  2  1  0  0  0  0
  2  3  1  0  0  0  0
  2  4  1  0  0  0  0
  2  5  1  0  0  0  0
  5  6  2  0  0  0  0
  5  7  1  0  0  0  0
  7  8  1  0  0  0  0
  7  9  1  0  0  0  0
  9 10  1  0  0  0  0
  9 11  1  0  0  0  0
  9 26  1  0  0  0  0
 11 12  1  0  0  0  0
 11 13  1  0  0  0  0
 11 14  1  0  0  0  0
 14 15  2  0  0  0  0
 14 24  1  0  0  0  0
 15 16  1  0  0  0  0
 15 17  1  0  0  0  0
 17 18  1  0  0  0  0
 17 19  2  0  0  0  0
 19 20  1  0  0  0  0
 19 22  1  0  0  0  0
 20 21  1  0  0  0  0
 22 23  1  0  0  0  0
 22 24  2  0  0  0  0
 24 25  1  0  0  0  0
 26 27  2  0  0  0  0
 26 28  1  0  0  0  0
 28 29  1  0  0  0  0
 28 30  1  0  0  0  0
 30 31  1  0  0  0  0
 30 32  1  0  0  0  0
 30 33  1  0  0  0  0
M  END
$$$$

  -OEChem-03222214083D

 33 33  0     1  0  0  0  0  0999 V2000
   -3.2638   -4.6538    0.6602 H   0  0  0  0  0  0  0  0  0  0  0  0
   -3.2244   -3.7565    0.0362 C   0  0  0  0  0  0  0  0  0  0  0  0
   -4.1491   -3.1911    0.1733 H   0  0  0  0  0  0  0  0  0  0  0  0
   -3.1416   -4.0608   -1.0101 H   0  0  0  0  0  0  0  0  0  0  0  0
   -2.0315   -2.9035    0.4247 C   0  0  0  0  0  0  0  0  0  0  0  0
   -1.3413   -3.2247    1.3752 O   0  0  0  0  0  0  0  0  0  0  0  0
   -1.7460   -1.7630   -0.2993 N   0  0  0  0  0  0  0  0  0  0  0  0
   -2.2610   -1.6611   -1.1703 H   0  0  0  0  0  0  0  0  0  0  0  0
   -0.4662   -1.0325   -0.2095 C   0  0  1  0  0  0  0  0  0  0  0  0
    0.3289   -1.7362   -0.4789 H   0  0  0  0  0  0  0  0  0  0  0  0
   -0.4277    0.1339   -1.2170 C   0  0  0  0  0  0  0  0  0  0  0  0
   -1.0416    0.9590   -0.8405 H   0  0  0  0  0  0  0  0  0  0  0  0
    0.5992    0.5082   -1.2929 H   0  0  0  0  0  0  0  0  0  0  0  0
   -0.9284   -0.2627   -2.5885 C   0  0  0  0  0  0  0  0  0  0  0  0
   -2.2869   -0.1366   -2.9233 C   0  0  0  0  0  0  0  0  0  0  0  0
   -2.9858    0.2919   -2.2103 H   0  0  0  0  0  0  0  0  0  0  0  0
   -2.7484   -0.5459   -4.1798 C   0  0  0  0  0  0  0  0  0  0  0  0
   -3.7988   -0.4350   -4.4272 H   0  0  0  0  0  0  0  0  0  0  0  0
   -1.8599   -1.0890   -5.1105 C   0  0  0  0  0  0  0  0  0  0  0  0
   -2.2972   -1.4898   -6.3398 O   0  0  0  0  0  0  0  0  0  0  0  0
   -3.2371   -1.2781   -6.4489 H   0  0  0  0  0  0  0  0  0  0  0  0
   -0.5122   -1.2221   -4.7810 C   0  0  0  0  0  0  0  0  0  0  0  0
    0.1710   -1.6469   -5.5095 H   0  0  0  0  0  0  0  0  0  0  0  0
   -0.0444   -0.8130   -3.5274 C   0  0  0  0  0  0  0  0  0  0  0  0
    1.0086   -0.9295   -3.2847 H   0  0  0  0  0  0  0  0  0  0  0  0
   -0.1157   -0.4895    1.1919 C   0  0  0  0  0  0  0  0  0  0  0  0
    1.0595   -0.3867    1.5189 O   0  0  0  0  0  0  0  0  0  0  0  0
   -1.0826    0.1513    1.9458 N   0  0  0  0  0  0  0  0  0  0  0  0
   -2.0439   -0.0623    1.7001 H   0  0  0  0  0  0  0  0  0  0  0  0
   -0.8089    0.7065    3.2653 C   0  0  0  0  0  0  0  0  0  0  0  0
   -0.0187    1.4625    3.2075 H   0  0  0  0  0  0  0  0  0  0  0  0
   -1.7080    1.1801    3.6705 H   0  0  0  0  0  0  0  0  0  0  0  0
   -0.4910   -0.0839    3.9533 H   0  0  0  0  0  0  0  0  0  0  0  0
  1  2  1  0  0  0  0
  2  3  1  0  0  0  0
  2  4  1  0  0  0  0
  2  5  1  0  0  0  0
  5  6  2  0  0  0  0
  5  7  1  0  0  0  0
  7  8  1  0  0  0  0
  7  9  1  0  0  0  0
  9 10  1  0  0  0  0
  9 11  1  0  0  0  0
  9 26  1  0  0  0  0
 11 12  1  0  0  0  0
 11 13  1  0  0  0  0
 11 14  1  0  0  0  0
 14 15  2  0  0  0  0
 14 24  1  0  0  0  0
 15 16  1  0  0  0  0
 15 17  1  0  0  0  0
 17 18  1  0  0  0  0
 17 19  2  0  0  0  0
 19 20  1  0  0  0  0
 19 22  1  0  0  0  0
 20 21  1  0  0  0  0
 22 23  1  0  0  0  0
 22 24  2  0  0  0  0
 24 25  1  0  0  0  0
 26 27  2  0  0  0  0
 26 28  1  0  0  0  0
 28 29  1  0  0  0  0
 28 30  1  0  0  0  0
 30 31  1  0  0  0  0
 30 32  1  0  0  0  0
 30 33  1  0  0  0  0
M  END
$$$$

  -OEChem-03222214083D

 33 33  0     1  0  0  0  0  0999 V2000
   -3.2922   -4.6265    0.6315 H   0  0  0  0  0  0  0  0  0  0  0  0
   -3.2357   -3.7283    0.0099 C   0  0  0  0  0  0  0  0  0  0  0  0
   -4.1492   -3.1452    0.1494 H   0  0  0  0  0  0  0  0  0  0  0  0
   -3.1599   -4.0308   -1.0376 H   0  0  0  0  0  0  0  0  0  0  0  0
   -2.0261   -2.8995    0.3996 C   0  0  0  0  0  0  0  0  0  0  0  0
   -1.3340   -3.2420    1.3414 O   0  0  0  0  0  0  0  0  0  0  0  0
   -1.7254   -1.7571   -0.3146 N   0  0  0  0  0  0  0  0  0  0  0  0
   -2.2492   -1.6266   -1.1771 H   0  0  0  0  0  0  0  0  0  0  0  0
   -0.4449   -1.0300   -0.2081 C   0  0  1  0  0  0  0  0  0  0  0  0
    0.3538   -1.7310   -0.4732 H   0  0  0  0  0  0  0  0  0  0  0  0
   -0.4150    0.1358   -1.2150 C   0  0  0  0  0  0  0  0  0  0  0  0
   -1.0305    0.9592   -0.8376 H   0  0  0  0  0  0  0  0  0  0  0  0
    0.6100    0.5129   -1.2990 H   0  0  0  0  0  0  0  0  0  0  0  0
   -0.9141   -0.2804   -2.5813 C   0  0  0  0  0  0  0  0  0  0  0  0
   -2.1879    0.1068   -3.0260 C   0  0  0  0  0  0  0  0  0  0  0  0
   -2.8169    0.7346   -2.4013 H   0  0  0  0  0  0  0  0  0  0  0  0
   -2.6567   -0.3065   -4.2785 C   0  0  0  0  0  0  0  0  0  0  0  0
   -3.6420    0.0035   -4.6097 H   0  0  0  0  0  0  0  0  0  0  0  0
   -1.8588   -1.1092   -5.0967 C   0  0  0  0  0  0  0  0  0  0  0  0
   -2.3051   -1.5169   -6.3205 O   0  0  0  0  0  0  0  0  0  0  0  0
   -3.1651   -1.1139   -6.5159 H   0  0  0  0  0  0  0  0  0  0  0  0
   -0.5931   -1.4961   -4.6596 C   0  0  0  0  0  0  0  0  0  0  0  0
    0.0213   -2.1185   -5.3024 H   0  0  0  0  0  0  0  0  0  0  0  0
   -0.1181   -1.0847   -3.4095 C   0  0  0  0  0  0  0  0  0  0  0  0
    0.8708   -1.3955   -3.0830 H   0  0  0  0  0  0  0  0  0  0  0  0
   -0.1071   -0.4923    1.1984 C   0  0  0  0  0  0  0  0  0  0  0  0
    1.0646   -0.3955    1.5391 O   0  0  0  0  0  0  0  0  0  0  0  0
   -1.0802    0.1489    1.9444 N   0  0  0  0  0  0  0  0  0  0  0  0
   -2.0398   -0.0555    1.6844 H   0  0  0  0  0  0  0  0  0  0  0  0
   -0.8196    0.7014    3.2680 C   0  0  0  0  0  0  0  0  0  0  0  0
   -0.0290    1.4578    3.2195 H   0  0  0  0  0  0  0  0  0  0  0  0
   -1.7231    1.1739    3.6651 H   0  0  0  0  0  0  0  0  0  0  0  0
   -0.5083   -0.0902    3.9579 H   0  0  0  0  0  0  0  0  0  0  0  0
  1  2  1  0  0  0  0
  2  3  1  0  0  0  0
  2  4  1  0  0  0  0
  2  5  1  0  0  0  0
  5  6  2  0  0  0  0
  5  7  1  0  0  0  0
  7  8  1  0  0  0  0
  7  9  1  0  0  0  0
  9 10  1  0  0  0  0
  9 11  1  0  0  0  0
  9 26  1  0  0  0  0
 11 12  1  0  0  0  0
 11 13  1  0  0  0  0
 11 14  1  0  0  0  0
 14 15  2  0  0  0  0
 14 24  1  0  0  0  0
 15 16  1  0  0  0  0
 15 17  1  0  0  0  0
 17 18  1  0  0  0  0
 17 19  2  0  0  0  0
 19 20  1  0  0  0  0
 19 22  1  0  0  0  0
 20 21  1  0  0  0  0
 22 23  1  0  0  0  0
 22 24  2  0  0  0  0
 24 25  1  0  0  0  0
 26 27  2  0  0  0  0
 26 28  1  0  0  0  0
 28 29  1  0  0  0  0
 28 30  1  0  0  0  0
 30 31  1  0  0  0  0
 30 32  1  0  0  0  0
 30 33  1  0  0  0  0
M  END
$$$$

  -OEChem-03222214083D

 33 33  0     1  0  0  0  0  0999 V2000
   -3.2950   -4.6293    0.6598 H   0  0  0  0  0  0  0  0  0  0  0  0
   -3.2449   -3.7270    0.0436 C   0  0  0  0  0  0  0  0  0  0  0  0
   -4.1533   -3.1409    0.2015 H   0  0  0  0  0  0  0  0  0  0  0  0
   -3.1867   -4.0224   -1.0070 H   0  0  0  0  0  0  0  0  0  0  0  0
   -2.0265   -2.9056    0.4204 C   0  0  0  0  0  0  0  0  0  0  0  0
   -1.3282   -3.2504    1.3567 O   0  0  0  0  0  0  0  0  0  0  0  0
   -1.7213   -1.7697   -0.3017 N   0  0  0  0  0  0  0  0  0  0  0  0
   -2.2573   -1.6288   -1.1551 H   0  0  0  0  0  0  0  0  0  0  0  0
   -0.4408   -1.0425   -0.1987 C   0  0  1  0  0  0  0  0  0  0  0  0
    0.3599   -1.7450   -0.4532 H   0  0  0  0  0  0  0  0  0  0  0  0
   -0.4166    0.1125   -1.2181 C   0  0  0  0  0  0  0  0  0  0  0  0
   -1.0317    0.9371   -0.8425 H   0  0  0  0  0  0  0  0  0  0  0  0
    0.6076    0.4901   -1.3088 H   0  0  0  0  0  0  0  0  0  0  0  0
   -0.9149   -0.3105   -2.5845 C   0  0  0  0  0  0  0  0  0  0  0  0
   -2.0328    0.3130   -3.1598 C   0  0  0  0  0  0  0  0  0  0  0  0
   -2.5469    1.1103   -2.6307 H   0  0  0  0  0  0  0  0  0  0  0  0
   -2.4954   -0.0829   -4.4204 C   0  0  0  0  0  0  0  0  0  0  0  0
   -3.3609    0.4089   -4.8512 H   0  0  0  0  0  0  0  0  0  0  0  0
   -1.8435   -1.1006   -5.1198 C   0  0  0  0  0  0  0  0  0  0  0  0
   -2.2849   -1.4946   -6.3496 O   0  0  0  0  0  0  0  0  0  0  0  0
   -3.0133   -0.9255   -6.6423 H   0  0  0  0  0  0  0  0  0  0  0  0
   -0.7276   -1.7174   -4.5578 C   0  0  0  0  0  0  0  0  0  0  0  0
   -0.2221   -2.5024   -5.1114 H   0  0  0  0  0  0  0  0  0  0  0  0
   -0.2590   -1.3244   -3.2998 C   0  0  0  0  0  0  0  0  0  0  0  0
    0.6174   -1.8125   -2.8823 H   0  0  0  0  0  0  0  0  0  0  0  0
   -0.1064   -0.4932    1.2035 C   0  0  0  0  0  0  0  0  0  0  0  0
    1.0642   -0.3972    1.5477 O   0  0  0  0  0  0  0  0  0  0  0  0
   -1.0809    0.1547    1.9414 N   0  0  0  0  0  0  0  0  0  0  0  0
   -2.0398   -0.0469    1.6767 H   0  0  0  0  0  0  0  0  0  0  0  0
   -0.8252    0.7082    3.2653 C   0  0  0  0  0  0  0  0  0  0  0  0
   -0.0277    1.4574    3.2209 H   0  0  0  0  0  0  0  0  0  0  0  0
   -1.7272    1.1898    3.6549 H   0  0  0  0  0  0  0  0  0  0  0  0
   -0.5255   -0.0843    3.9592 H   0  0  0  0  0  0  0  0  0  0  0  0
  1  2  1  0  0  0  0
  2  3  1  0  0  0  0
  2  4  1  0  0  0  0
  2  5  1  0  0  0  0
  5  6  2  0  0  0  0
  5  7  1  0  0  0  0
  7  8  1  0  0  0  0
  7  9  1  0  0  0  0
  9 10  1  0  0  0  0
  9 11  1  0  0  0  0
  9 26  1  0  0  0  0
 11 12  1  0  0  0  0
 11 13  1  0  0  0  0
 11 14  1  0  0  0  0
 14 15  2  0  0  0  0
 14 24  1  0  0  0  0
 15 16  1  0  0  0  0
 15 17  1  0  0  0  0
 17 18  1  0  0  0  0
 17 19  2  0  0  0  0
 19 20  1  0  0  0  0
 19 22  1  0  0  0  0
 20 21  1  0  0  0  0
 22 23  1  0  0  0  0
 22 24  2  0  0  0  0
 24 25  1  0  0  0  0
 26 27  2  0  0  0  0
 26 28  1  0  0  0  0
 28 29  1  0  0  0  0
 28 30  1  0  0  0  0
 30 31  1  0  0  0  0
 30 32  1  0  0  0  0
 30 33  1  0  0  0  0
M  END
$$$$

  -OEChem-03222214083D

 33 33  0     1  0  0  0  0  0999 V2000
   -3.3085   -4.6287    0.7447 H   0  0  0  0  0  0  0  0  0  0  0  0
   -3.2550   -3.7360    0.1151 C   0  0  0  0  0  0  0  0  0  0  0  0
   -4.1516   -3.1336    0.2797 H   0  0  0  0  0  0  0  0  0  0  0  0
   -3.2202   -4.0470   -0.9319 H   0  0  0  0  0  0  0  0  0  0  0  0
   -2.0176   -2.9283    0.4589 C   0  0  0  0  0  0  0  0  0  0  0  0
   -1.3028   -3.2745    1.3823 O   0  0  0  0  0  0  0  0  0  0  0  0
   -1.7130   -1.8022   -0.2788 N   0  0  0  0  0  0  0  0  0  0  0  0
   -2.2686   -1.6528   -1.1182 H   0  0  0  0  0  0  0  0  0  0  0  0
   -0.4359   -1.0677   -0.1868 C   0  0  1  0  0  0  0  0  0  0  0  0
    0.3706   -1.7685   -0.4271 H   0  0  0  0  0  0  0  0  0  0  0  0
   -0.4206    0.0739   -1.2230 C   0  0  0  0  0  0  0  0  0  0  0  0
   -1.0413    0.8958   -0.8514 H   0  0  0  0  0  0  0  0  0  0  0  0
    0.6017    0.4567   -1.3154 H   0  0  0  0  0  0  0  0  0  0  0  0
   -0.9155   -0.3447   -2.5950 C   0  0  0  0  0  0  0  0  0  0  0  0
   -1.8158    0.4735   -3.2952 C   0  0  0  0  0  0  0  0  0  0  0  0
   -2.1674    1.4017   -2.8533 H   0  0  0  0  0  0  0  0  0  0  0  0
   -2.2723    0.1056   -4.5665 C   0  0  0  0  0  0  0  0  0  0  0  0
   -2.9727    0.7484   -5.0888 H   0  0  0  0  0  0  0  0  0  0  0  0
   -1.8244   -1.0764   -5.1587 C   0  0  0  0  0  0  0  0  0  0  0  0
   -2.2613   -1.4449   -6.3981 O   0  0  0  0  0  0  0  0  0  0  0  0
   -2.8284   -0.7533   -6.7731 H   0  0  0  0  0  0  0  0  0  0  0  0
   -0.9139   -1.8833   -4.4805 C   0  0  0  0  0  0  0  0  0  0  0  0
   -0.5595   -2.7934   -4.9540 H   0  0  0  0  0  0  0  0  0  0  0  0
   -0.4523   -1.5197   -3.2112 C   0  0  0  0  0  0  0  0  0  0  0  0
    0.2711   -2.1578   -2.7119 H   0  0  0  0  0  0  0  0  0  0  0  0
   -0.1092   -0.4967    1.2088 C   0  0  0  0  0  0  0  0  0  0  0  0
    1.0591   -0.3933    1.5586 O   0  0  0  0  0  0  0  0  0  0  0  0
   -1.0901    0.1564    1.9334 N   0  0  0  0  0  0  0  0  0  0  0  0
   -2.0468   -0.0479    1.6633 H   0  0  0  0  0  0  0  0  0  0  0  0
   -0.8445    0.7291    3.2511 C   0  0  0  0  0  0  0  0  0  0  0  0
   -0.0477    1.4787    3.2026 H   0  0  0  0  0  0  0  0  0  0  0  0
   -1.7496    1.2148    3.6271 H   0  0  0  0  0  0  0  0  0  0  0  0
   -0.5495   -0.0532    3.9583 H   0  0  0  0  0  0  0  0  0  0  0  0
  1  2  1  0  0  0  0
  2  3  1  0  0  0  0
  2  4  1  0  0  0  0
  2  5  1  0  0  0  0
  5  6  2  0  0  0  0
  5  7  1  0  0  0  0
  7  8  1  0  0  0  0
  7  9  1  0  0  0  0
  9 10  1  0  0  0  0
  9 11  1  0  0  0  0
  9 26  1  0  0  0  0
 11 12  1  0  0  0  0
 11 13  1  0  0  0  0
 11 14  1  0  0  0  0
 14 15  2  0  0  0  0
 14 24  1  0  0  0  0
 15 16  1  0  0  0  0
 15 17  1  0  0  0  0
 17 18  1  0  0  0  0
 17 19  2  0  0  0  0
 19 20  1  0  0  0  0
 19 22  1  0  0  0  0
 20 21  1  0  0  0  0
 22 23  1  0  0  0  0
 22 24  2  0  0  0  0
 24 25  1  0  0  0  0
 26 27  2  0  0  0  0
 26 28  1  0  0  0  0
 28 29  1  0  0  0  0
 28 30  1  0  0  0  0
 30 31  1  0  0  0  0
 30 32  1  0  0  0  0
 30 33  1  0  0  0  0
M  END
$$$$

  -OEChem-03222214083D

 33 33  0     1  0  0  0  0  0999 V2000
   -3.3154   -4.6396    0.8573 H   0  0  0  0  0  0  0  0  0  0  0  0
   -3.2661   -3.7595    0.2096 C   0  0  0  0  0  0  0  0  0  0  0  0
   -4.1545   -3.1465    0.3794 H   0  0  0  0  0  0  0  0  0  0  0  0
   -3.2531   -4.0904   -0.8318 H   0  0  0  0  0  0  0  0  0  0  0  0
   -2.0157   -2.9561    0.5140 C   0  0  0  0  0  0  0  0  0  0  0  0
   -1.2777   -3.2985    1.4203 O   0  0  0  0  0  0  0  0  0  0  0  0
   -1.7220   -1.8402   -0.2432 N   0  0  0  0  0  0  0  0  0  0  0  0
   -2.3055   -1.6832   -1.0621 H   0  0  0  0  0  0  0  0  0  0  0  0
   -0.4492   -1.0955   -0.1733 C   0  0  1  0  0  0  0  0  0  0  0  0
    0.3613   -1.7947   -0.4062 H   0  0  0  0  0  0  0  0  0  0  0  0
   -0.4428    0.0274   -1.2305 C   0  0  0  0  0  0  0  0  0  0  0  0
   -1.0695    0.8483   -0.8661 H   0  0  0  0  0  0  0  0  0  0  0  0
    0.5773    0.4153   -1.3234 H   0  0  0  0  0  0  0  0  0  0  0  0
   -0.9344   -0.3832   -2.6086 C   0  0  0  0  0  0  0  0  0  0  0  0
   -1.5645    0.5721   -3.4215 C   0  0  0  0  0  0  0  0  0  0  0  0
   -1.7221    1.5816   -3.0520 H   0  0  0  0  0  0  0  0  0  0  0  0
   -2.0004    0.2406   -4.7099 C   0  0  0  0  0  0  0  0  0  0  0  0
   -2.4950    0.9920   -5.3160 H   0  0  0  0  0  0  0  0  0  0  0  0
   -1.7934   -1.0452   -5.2116 C   0  0  0  0  0  0  0  0  0  0  0  0
   -2.2138   -1.3799   -6.4660 O   0  0  0  0  0  0  0  0  0  0  0  0
   -2.5791   -0.6015   -6.9145 H   0  0  0  0  0  0  0  0  0  0  0  0
   -1.1393   -1.9920   -4.4273 C   0  0  0  0  0  0  0  0  0  0  0  0
   -0.9635   -2.9833   -4.8330 H   0  0  0  0  0  0  0  0  0  0  0  0
   -0.6990   -1.6651   -3.1406 C   0  0  0  0  0  0  0  0  0  0  0  0
   -0.1683   -2.4184   -2.5657 H   0  0  0  0  0  0  0  0  0  0  0  0
   -0.1181   -0.4998    1.2110 C   0  0  0  0  0  0  0  0  0  0  0  0
    1.0516   -0.3811    1.5511 O   0  0  0  0  0  0  0  0  0  0  0  0
   -1.0987    0.1577    1.9319 N   0  0  0  0  0  0  0  0  0  0  0  0
   -2.0564   -0.0539    1.6711 H   0  0  0  0  0  0  0  0  0  0  0  0
   -0.8463    0.7656    3.2323 C   0  0  0  0  0  0  0  0  0  0  0  0
   -0.0575    1.5216    3.1569 H   0  0  0  0  0  0  0  0  0  0  0  0
   -1.7528    1.2520    3.6046 H   0  0  0  0  0  0  0  0  0  0  0  0
   -0.5364    0.0046    3.9563 H   0  0  0  0  0  0  0  0  0  0  0  0
  1  2  1  0  0  0  0
  2  3  1  0  0  0  0
  2  4  1  0  0  0  0
  2  5  1  0  0  0  0
  5  6  2  0  0  0  0
  5  7  1  0  0  0  0
  7  8  1  0  0  0  0
  7  9  1  0  0  0  0
  9 10  1  0  0  0  0
  9 11  1  0  0  0  0
  9 26  1  0  0  0  0
 11 12  1  0  0  0  0
 11 13  1  0  0  0  0
 11 14  1  0  0  0  0
 14 15  2  0  0  0  0
 14 24  1  0  0  0  0
 15 16  1  0  0  0  0
 15 17  1  0  0  0  0
 17 18  1  0  0  0  0
 17 19  2  0  0  0  0
 19 20  1  0  0  0  0
 19 22  1  0  0  0  0
 20 21  1  0  0  0  0
 22 23  1  0  0  0  0
 22 24  2  0  0  0  0
 24 25  1  0  0  0  0
 26 27  2  0  0  0  0
 26 28  1  0  0  0  0
 28 29  1  0  0  0  0
 28 30  1  0  0  0  0
 30 31  1  0  0  0  0
 30 32  1  0  0  0  0
 30 33  1  0  0  0  0
M  END
$$$$

  -OEChem-03222214083D

 33 33  0     1  0  0  0  0  0999 V2000
   -3.3147   -4.6525    1.0138 H   0  0  0  0  0  0  0  0  0  0  0  0
   -3.2856   -3.7855    0.3475 C   0  0  0  0  0  0  0  0  0  0  0  0
   -4.1636   -3.1642    0.5396 H   0  0  0  0  0  0  0  0  0  0  0  0
   -3.3147   -4.1371   -0.6867 H   0  0  0  0  0  0  0  0  0  0  0  0
   -2.0198   -2.9846    0.5877 C   0  0  0  0  0  0  0  0  0  0  0  0
   -1.2465   -3.3189    1.4669 O   0  0  0  0  0  0  0  0  0  0  0  0
   -1.7505   -1.8803   -0.1956 N   0  0  0  0  0  0  0  0  0  0  0  0
   -2.3775   -1.7119   -0.9792 H   0  0  0  0  0  0  0  0  0  0  0  0
   -0.4831   -1.1220   -0.1658 C   0  0  1  0  0  0  0  0  0  0  0  0
    0.3257   -1.8227   -0.3999 H   0  0  0  0  0  0  0  0  0  0  0  0
   -0.4846   -0.0201   -1.2462 C   0  0  0  0  0  0  0  0  0  0  0  0
   -1.1115    0.8044   -0.8900 H   0  0  0  0  0  0  0  0  0  0  0  0
    0.5357    0.3676   -1.3411 H   0  0  0  0  0  0  0  0  0  0  0  0
   -0.9764   -0.4159   -2.6304 C   0  0  0  0  0  0  0  0  0  0  0  0
   -1.2990    0.6078   -3.5354 C   0  0  0  0  0  0  0  0  0  0  0  0
   -1.2490    1.6456   -3.2178 H   0  0  0  0  0  0  0  0  0  0  0  0
   -1.6967    0.3134   -4.8448 C   0  0  0  0  0  0  0  0  0  0  0  0
   -1.9581    1.1227   -5.5180 H   0  0  0  0  0  0  0  0  0  0  0  0
   -1.7455   -1.0105   -5.2816 C   0  0  0  0  0  0  0  0  0  0  0  0
   -2.1276   -1.3111   -6.5569 O   0  0  0  0  0  0  0  0  0  0  0  0
   -2.2855   -0.4966   -7.0592 H   0  0  0  0  0  0  0  0  0  0  0  0
   -1.3796   -2.0337   -4.4114 C   0  0  0  0  0  0  0  0  0  0  0  0
   -1.3908   -3.0583   -4.7695 H   0  0  0  0  0  0  0  0  0  0  0  0
   -0.9812   -1.7439   -3.1021 C   0  0  0  0  0  0  0  0  0  0  0  0
   -0.6585   -2.5672   -2.4722 H   0  0  0  0  0  0  0  0  0  0  0  0
   -0.1303   -0.4974    1.2001 C   0  0  0  0  0  0  0  0  0  0  0  0
    1.0445   -0.3614    1.5152 O   0  0  0  0  0  0  0  0  0  0  0  0
   -1.1027    0.1642    1.9282 N   0  0  0  0  0  0  0  0  0  0  0  0
   -2.0638   -0.0558    1.6878 H   0  0  0  0  0  0  0  0  0  0  0  0
   -0.8303    0.7950    3.2134 C   0  0  0  0  0  0  0  0  0  0  0  0
   -0.0455    1.5521    3.1112 H   0  0  0  0  0  0  0  0  0  0  0  0
   -1.7319    1.2849    3.5931 H   0  0  0  0  0  0  0  0  0  0  0  0
   -0.5053    0.0468    3.9441 H   0  0  0  0  0  0  0  0  0  0  0  0
  1  2  1  0  0  0  0
  2  3  1  0  0  0  0
  2  4  1  0  0  0  0
  2  5  1  0  0  0  0
  5  6  2  0  0  0  0
  5  7  1  0  0  0  0
  7  8  1  0  0  0  0
  7  9  1  0  0  0  0
  9 10  1  0  0  0  0
  9 11  1  0  0  0  0
  9 26  1  0  0  0  0
 11 12  1  0  0  0  0
 11 13  1  0  0  0  0
 11 14  1  0  0  0  0
 14 15  2  0  0  0  0
 14 24  1  0  0  0  0
 15 16  1  0  0  0  0
 15 17  1  0  0  0  0
 17 18  1  0  0  0  0
 17 19  2  0  0  0  0
 19 20  1  0  0  0  0
 19 22  1  0  0  0  0
 20 21  1  0  0  0  0
 22 23  1  0  0  0  0
 22 24  2  0  0  0  0
 24 25  1  0  0  0  0
 26 27  2  0  0  0  0
 26 28  1  0  0  0  0
 28 29  1  0  0  0  0
 28 30  1  0  0  0  0
 30 31  1  0  0  0  0
 30 32  1  0  0  0  0
 30 33  1  0  0  0  0
M  END
$$$$

  -OEChem-03222214083D

 33 33  0     1  0  0  0  0  0999 V2000
   -3.1546   -4.7208    1.4391 H   0  0  0  0  0  0  0  0  0  0  0  0
   -3.2154   -3.8887    0.7316 C   0  0  0  0  0  0  0  0  0  0  0  0
   -4.0594   -3.2528    1.0090 H   0  0  0  0  0  0  0  0  0  0  0  0
   -3.3840   -4.2914   -0.2701 H   0  0  0  0  0  0  0  0  0  0  0  0
   -1.9280   -3.0867    0.7581 C   0  0  0  0  0  0  0  0  0  0  0  0
   -1.0234   -3.4142    1.5043 O   0  0  0  0  0  0  0  0  0  0  0  0
   -1.7903   -1.9843   -0.0619 N   0  0  0  0  0  0  0  0  0  0  0  0
   -2.5711   -1.7554   -0.6716 H   0  0  0  0  0  0  0  0  0  0  0  0
   -0.5781   -1.1499   -0.1518 C   0  0  1  0  0  0  0  0  0  0  0  0
    0.2382   -1.8339   -0.4104 H   0  0  0  0  0  0  0  0  0  0  0  0
   -0.6275   -0.0841   -1.2770 C   0  0  0  0  0  0  0  0  0  0  0  0
   -1.0430    0.8285   -0.8364 H   0  0  0  0  0  0  0  0  0  0  0  0
    0.4091    0.1418   -1.5503 H   0  0  0  0  0  0  0  0  0  0  0  0
   -1.4108   -0.3178   -2.5675 C   0  0  0  0  0  0  0  0  0  0  0  0
   -1.3829    0.7300   -3.5049 C   0  0  0  0  0  0  0  0  0  0  0  0
   -0.8980    1.6680   -3.2477 H   0  0  0  0  0  0  0  0  0  0  0  0
   -1.9884    0.6065   -4.7604 C   0  0  0  0  0  0  0  0  0  0  0  0
   -1.9731    1.4472   -5.4455 H   0  0  0  0  0  0  0  0  0  0  0  0
   -2.5944   -0.5924   -5.1287 C   0  0  0  0  0  0  0  0  0  0  0  0
   -3.1880   -0.7302   -6.3498 O   0  0  0  0  0  0  0  0  0  0  0  0
   -3.0973    0.0901   -6.8591 H   0  0  0  0  0  0  0  0  0  0  0  0
   -2.5617   -1.6702   -4.2505 C   0  0  0  0  0  0  0  0  0  0  0  0
   -2.9909   -2.6158   -4.5660 H   0  0  0  0  0  0  0  0  0  0  0  0
   -1.9537   -1.5495   -2.9959 C   0  0  0  0  0  0  0  0  0  0  0  0
   -1.8835   -2.4557   -2.4086 H   0  0  0  0  0  0  0  0  0  0  0  0
   -0.1635   -0.4794    1.1752 C   0  0  0  0  0  0  0  0  0  0  0  0
    1.0199   -0.2626    1.3992 O   0  0  0  0  0  0  0  0  0  0  0  0
   -1.1187    0.1315    1.9681 N   0  0  0  0  0  0  0  0  0  0  0  0
   -2.0832   -0.1290    1.7914 H   0  0  0  0  0  0  0  0  0  0  0  0
   -0.7934    0.8164    3.2130 C   0  0  0  0  0  0  0  0  0  0  0  0
   -0.0863    1.6321    3.0291 H   0  0  0  0  0  0  0  0  0  0  0  0
   -1.6980    1.2401    3.6591 H   0  0  0  0  0  0  0  0  0  0  0  0
   -0.3470    0.1175    3.9283 H   0  0  0  0  0  0  0  0  0  0  0  0
  1  2  1  0  0  0  0
  2  3  1  0  0  0  0
  2  4  1  0  0  0  0
  2  5  1  0  0  0  0
  5  6  2  0  0  0  0
  5  7  1  0  0  0  0
  7  8  1  0  0  0  0
  7  9  1  0  0  0  0
  9 10  1  0  0  0  0
  9 11  1  0  0  0  0
  9 26  1  0  0  0  0
 11 12  1  0  0  0  0
 11 13  1  0  0  0  0
 11 14  1  0  0  0  0
 14 15  2  0  0  0  0
 14 24  1  0  0  0  0
 15 16  1  0  0  0  0
 15 17  1  0  0  0  0
 17 18  1  0  0  0  0
 17 19  2  0  0  0  0
 19 20  1  0  0  0  0
 19 22  1  0  0  0  0
 20 21  1  0  0  0  0
 22 23  1  0  0  0  0
 22 24  2  0  0  0  0
 24 25  1  0  0  0  0
 26 27  2  0  0  0  0
 26 28  1  0  0  0  0
 28 29  1  0  0  0  0
 28 30  1  0  0  0  0
 30 31  1  0  0  0  0
 30 32  1  0  0  0  0
 30 33  1  0  0  0  0
M  END
$$$$

  -OEChem-03222214083D

 33 33  0     1  0  0  0  0  0999 V2000
   -3.0396   -4.7454    1.6087 H   0  0  0  0  0  0  0  0  0  0  0  0
   -3.1417   -3.9330    0.8834 C   0  0  0  0  0  0  0  0  0  0  0  0
   -3.9659   -3.2864    1.1938 H   0  0  0  0  0  0  0  0  0  0  0  0
   -3.3717   -4.3629   -0.0946 H   0  0  0  0  0  0  0  0  0  0  0  0
   -1.8528   -3.1360    0.8087 C   0  0  0  0  0  0  0  0  0  0  0  0
   -0.8985   -3.4578    1.4929 O   0  0  0  0  0  0  0  0  0  0  0  0
   -1.7736   -2.0407   -0.0289 N   0  0  0  0  0  0  0  0  0  0  0  0
   -2.6177   -1.7756   -0.5266 H   0  0  0  0  0  0  0  0  0  0  0  0
   -0.5941   -1.1703   -0.1599 C   0  0  1  0  0  0  0  0  0  0  0  0
    0.2342   -1.8416   -0.4143 H   0  0  0  0  0  0  0  0  0  0  0  0
   -0.6525   -0.1229   -1.3049 C   0  0  0  0  0  0  0  0  0  0  0  0
   -1.0809    0.7897   -0.8763 H   0  0  0  0  0  0  0  0  0  0  0  0
    0.3881    0.1097   -1.5579 H   0  0  0  0  0  0  0  0  0  0  0  0
   -1.4130   -0.3428   -2.6170 C   0  0  0  0  0  0  0  0  0  0  0  0
   -1.0915    0.5565   -3.6511 C   0  0  0  0  0  0  0  0  0  0  0  0
   -0.3737    1.3517   -3.4686 H   0  0  0  0  0  0  0  0  0  0  0  0
   -1.6833    0.4685   -4.9158 C   0  0  0  0  0  0  0  0  0  0  0  0
   -1.4182    1.1902   -5.6810 H   0  0  0  0  0  0  0  0  0  0  0  0
   -2.6025   -0.5415   -5.1868 C   0  0  0  0  0  0  0  0  0  0  0  0
   -3.1914   -0.6429   -6.4137 O   0  0  0  0  0  0  0  0  0  0  0  0
   -2.8634    0.0569   -6.9996 H   0  0  0  0  0  0  0  0  0  0  0  0
   -2.9100   -1.4654   -4.1950 C   0  0  0  0  0  0  0  0  0  0  0  0
   -3.6081   -2.2640   -4.4248 H   0  0  0  0  0  0  0  0  0  0  0  0
   -2.3188   -1.3820   -2.9290 C   0  0  0  0  0  0  0  0  0  0  0  0
   -2.5860   -2.1725   -2.2458 H   0  0  0  0  0  0  0  0  0  0  0  0
   -0.1759   -0.4729    1.1523 C   0  0  0  0  0  0  0  0  0  0  0  0
    1.0034   -0.2149    1.3525 O   0  0  0  0  0  0  0  0  0  0  0  0
   -1.1350    0.1133    1.9591 N   0  0  0  0  0  0  0  0  0  0  0  0
   -2.0960   -0.1669    1.7965 H   0  0  0  0  0  0  0  0  0  0  0  0
   -0.8092    0.8241    3.1892 C   0  0  0  0  0  0  0  0  0  0  0  0
   -0.1431    1.6678    2.9801 H   0  0  0  0  0  0  0  0  0  0  0  0
   -1.7203    1.2126    3.6543 H   0  0  0  0  0  0  0  0  0  0  0  0
   -0.3152    0.1524    3.8992 H   0  0  0  0  0  0  0  0  0  0  0  0
  1  2  1  0  0  0  0
  2  3  1  0  0  0  0
  2  4  1  0  0  0  0
  2  5  1  0  0  0  0
  5  6  2  0  0  0  0
  5  7  1  0  0  0  0
  7  8  1  0  0  0  0
  7  9  1  0  0  0  0
  9 10  1  0  0  0  0
  9 11  1  0  0  0  0
  9 26  1  0  0  0  0
 11 12  1  0  0  0  0
 11 13  1  0  0  0  0
 11 14  1  0  0  0  0
 14 15  2  0  0  0  0
 14 24  1  0  0  0  0
 15 16  1  0  0  0  0
 15 17  1  0  0  0  0
 17 18  1  0  0  0  0
 17 19  2  0  0  0  0
 19 20  1  0  0  0  0
 19 22  1  0  0  0  0
 20 21  1  0  0  0  0
 22 23  1  0  0  0  0
 22 24  2  0  0  0  0
 24 25  1  0  0  0  0
 26 27  2  0  0  0  0
 26 28  1  0  0  0  0
 28 29  1  0  0  0  0
 28 30  1  0  0  0  0
 30 31  1  0  0  0  0
 30 32  1  0  0  0  0
 30 33  1  0  0  0  0
M  END
$$$$

  -OEChem-03222214083D

 33 33  0     1  0  0  0  0  0999 V2000
   -2.9150   -4.8824    1.4676 H   0  0  0  0  0  0  0  0  0  0  0  0
   -3.0007   -4.0932    0.7151 C   0  0  0  0  0  0  0  0  0  0  0  0
   -3.9612   -3.5884    0.8430 H   0  0  0  0  0  0  0  0  0  0  0  0
   -2.9643   -4.5498   -0.2771 H   0  0  0  0  0  0  0  0  0  0  0  0
   -1.8663   -3.0977    0.8706 C   0  0  0  0  0  0  0  0  0  0  0  0
   -1.0647   -3.2344    1.7769 O   0  0  0  0  0  0  0  0  0  0  0  0
   -1.7600   -2.0461   -0.0202 N   0  0  0  0  0  0  0  0  0  0  0  0
   -2.3336   -2.1487   -0.8492 H   0  0  0  0  0  0  0  0  0  0  0  0
   -0.5388   -1.2364   -0.1787 C   0  0  1  0  0  0  0  0  0  0  0  0
    0.2602   -1.9457   -0.4210 H   0  0  0  0  0  0  0  0  0  0  0  0
   -0.5588   -0.1840   -1.3259 C   0  0  0  0  0  0  0  0  0  0  0  0
   -0.9294    0.7575   -0.9061 H   0  0  0  0  0  0  0  0  0  0  0  0
    0.4858   -0.0088   -1.6061 H   0  0  0  0  0  0  0  0  0  0  0  0
   -1.3772   -0.4068   -2.5969 C   0  0  0  0  0  0  0  0  0  0  0  0
   -0.8787    0.1685   -3.7810 C   0  0  0  0  0  0  0  0  0  0  0  0
    0.0993    0.6423   -3.7823 H   0  0  0  0  0  0  0  0  0  0  0  0
   -1.5980    0.1194   -4.9804 C   0  0  0  0  0  0  0  0  0  0  0  0
   -1.1638    0.5392   -5.8812 H   0  0  0  0  0  0  0  0  0  0  0  0
   -2.8670   -0.4537   -5.0113 C   0  0  0  0  0  0  0  0  0  0  0  0
   -3.5823   -0.5097   -6.1723 O   0  0  0  0  0  0  0  0  0  0  0  0
   -3.0626   -0.1383   -6.9022 H   0  0  0  0  0  0  0  0  0  0  0  0
   -3.4234   -0.9372   -3.8327 C   0  0  0  0  0  0  0  0  0  0  0  0
   -4.4364   -1.3263   -3.8547 H   0  0  0  0  0  0  0  0  0  0  0  0
   -2.7059   -0.8846   -2.6325 C   0  0  0  0  0  0  0  0  0  0  0  0
   -3.2488   -1.1692   -1.7421 H   0  0  0  0  0  0  0  0  0  0  0  0
   -0.0904   -0.5057    1.1070 C   0  0  0  0  0  0  0  0  0  0  0  0
    1.1010   -0.2939    1.2932 O   0  0  0  0  0  0  0  0  0  0  0  0
   -1.0220    0.1573    1.8851 N   0  0  0  0  0  0  0  0  0  0  0  0
   -1.9872   -0.1297    1.7573 H   0  0  0  0  0  0  0  0  0  0  0  0
   -0.6629    0.8814    3.0977 C   0  0  0  0  0  0  0  0  0  0  0  0
    0.0474    1.6833    2.8699 H   0  0  0  0  0  0  0  0  0  0  0  0
   -1.5535    1.3292    3.5482 H   0  0  0  0  0  0  0  0  0  0  0  0
   -0.2072    0.2034    3.8269 H   0  0  0  0  0  0  0  0  0  0  0  0
  1  2  1  0  0  0  0
  2  3  1  0  0  0  0
  2  4  1  0  0  0  0
  2  5  1  0  0  0  0
  5  6  2  0  0  0  0
  5  7  1  0  0  0  0
  7  8  1  0  0  0  0
  7  9  1  0  0  0  0
  9 10  1  0  0  0  0
  9 11  1  0  0  0  0
  9 26  1  0  0  0  0
 11 12  1  0  0  0  0
 11 13  1  0  0  0  0
 11 14  1  0  0  0  0
 14 15  2  0  0  0  0
 14 24  1  0  0  0  0
 15 16  1  0  0  0  0
 15 17  1  0  0  0  0
 17 18  1  0  0  0  0
 17 19  2  0  0  0  0
 19 20  1  0  0  0  0
 19 22  1  0  0  0  0
 20 21  1  0  0  0  0
 22 23  1  0  0  0  0
 22 24  2  0  0  0  0
 24 25  1  0  0  0  0
 26 27  2  0  0  0  0
 26 28  1  0  0  0  0
 28 29  1  0  0  0  0
 28 30  1  0  0  0  0
 30 31  1  0  0  0  0
 30 32  1  0  0  0  0
 30 33  1  0  0  0  0
M  END
$$$$

  -OEChem-03222214083D

 33 33  0     1  0  0  0  0  0999 V2000
   -3.0030   -4.8689    1.2362 H   0  0  0  0  0  0  0  0  0  0  0  0
   -3.0517   -4.0480    0.5149 C   0  0  0  0  0  0  0  0  0  0  0  0
   -4.0130   -3.5404    0.6240 H   0  0  0  0  0  0  0  0  0  0  0  0
   -2.9781   -4.4624   -0.4935 H   0  0  0  0  0  0  0  0  0  0  0  0
   -1.9175   -3.0699    0.7585 C   0  0  0  0  0  0  0  0  0  0  0  0
   -1.1592   -3.2439    1.6953 O   0  0  0  0  0  0  0  0  0  0  0  0
   -1.7614   -1.9881   -0.0863 N   0  0  0  0  0  0  0  0  0  0  0  0
   -2.3078   -2.0353   -0.9411 H   0  0  0  0  0  0  0  0  0  0  0  0
   -0.5418   -1.1601   -0.1404 C   0  0  1  0  0  0  0  0  0  0  0  0
    0.2815   -1.8493   -0.3593 H   0  0  0  0  0  0  0  0  0  0  0  0
   -0.5329   -0.0852   -1.2619 C   0  0  0  0  0  0  0  0  0  0  0  0
   -0.9544    0.8402   -0.8545 H   0  0  0  0  0  0  0  0  0  0  0  0
    0.5139    0.1298   -1.5021 H   0  0  0  0  0  0  0  0  0  0  0  0
   -1.3030   -0.3733   -2.5433 C   0  0  0  0  0  0  0  0  0  0  0  0
   -0.6824   -0.1006   -3.7747 C   0  0  0  0  0  0  0  0  0  0  0  0
    0.3617    0.1992   -3.8019 H   0  0  0  0  0  0  0  0  0  0  0  0
   -1.3764   -0.2379   -4.9824 C   0  0  0  0  0  0  0  0  0  0  0  0
   -0.8587   -0.0559   -5.9180 H   0  0  0  0  0  0  0  0  0  0  0  0
   -2.7244   -0.5935   -4.9792 C   0  0  0  0  0  0  0  0  0  0  0  0
   -3.4145   -0.7299   -6.1484 O   0  0  0  0  0  0  0  0  0  0  0  0
   -2.8308   -0.5529   -6.9026 H   0  0  0  0  0  0  0  0  0  0  0  0
   -3.3798   -0.7763   -3.7655 C   0  0  0  0  0  0  0  0  0  0  0  0
   -4.4414   -1.0012   -3.7715 H   0  0  0  0  0  0  0  0  0  0  0  0
   -2.6876   -0.6375   -2.5582 C   0  0  0  0  0  0  0  0  0  0  0  0
   -3.2596   -0.6961   -1.6386 H   0  0  0  0  0  0  0  0  0  0  0  0
   -0.1769   -0.4631    1.1883 C   0  0  0  0  0  0  0  0  0  0  0  0
    0.9989   -0.2380    1.4447 O   0  0  0  0  0  0  0  0  0  0  0  0
   -1.1598    0.1688    1.9284 N   0  0  0  0  0  0  0  0  0  0  0  0
   -2.1124   -0.1287    1.7432 H   0  0  0  0  0  0  0  0  0  0  0  0
   -0.8778    0.8766    3.1706 C   0  0  0  0  0  0  0  0  0  0  0  0
   -0.1661    1.6905    2.9958 H   0  0  0  0  0  0  0  0  0  0  0  0
   -1.7976    1.3065    3.5782 H   0  0  0  0  0  0  0  0  0  0  0  0
   -0.4548    0.1915    3.9129 H   0  0  0  0  0  0  0  0  0  0  0  0
  1  2  1  0  0  0  0
  2  3  1  0  0  0  0
  2  4  1  0  0  0  0
  2  5  1  0  0  0  0
  5  6  2  0  0  0  0
  5  7  1  0  0  0  0
  7  8  1  0  0  0  0
  7  9  1  0  0  0  0
  9 10  1  0  0  0  0
  9 11  1  0  0  0  0
  9 26  1  0  0  0  0
 11 12  1  0  0  0  0
 11 13  1  0  0  0  0
 11 14  1  0  0  0  0
 14 15  2  0  0  0  0
 14 24  1  0  0  0  0
 15 16  1  0  0  0  0
 15 17  1  0  0  0  0
 17 18  1  0  0  0  0
 17 19  2  0  0  0  0
 19 20  1  0  0  0  0
 19 22  1  0  0  0  0
 20 21  1  0  0  0  0
 22 23  1  0  0  0  0
 22 24  2  0  0  0  0
 24 25  1  0  0  0  0
 26 27  2  0  0  0  0
 26 28  1  0  0  0  0
 28 29  1  0  0  0  0
 28 30  1  0  0  0  0
 30 31  1  0  0  0  0
 30 32  1  0  0  0  0
 30 33  1  0  0  0  0
M  END
$$$$

  -OEChem-03222214083D

 33 33  0     1  0  0  0  0  0999 V2000
   -3.1072   -4.8088    1.0496 H   0  0  0  0  0  0  0  0  0  0  0  0
   -3.1374   -3.9480    0.3754 C   0  0  0  0  0  0  0  0  0  0  0  0
   -4.0748   -3.4097    0.5329 H   0  0  0  0  0  0  0  0  0  0  0  0
   -3.1001   -4.3088   -0.6554 H   0  0  0  0  0  0  0  0  0  0  0  0
   -1.9598   -3.0308    0.6470 C   0  0  0  0  0  0  0  0  0  0  0  0
   -1.2022   -3.2747    1.5688 O   0  0  0  0  0  0  0  0  0  0  0  0
   -1.7637   -1.9211   -0.1513 N   0  0  0  0  0  0  0  0  0  0  0  0
   -2.3263   -1.8916   -0.9977 H   0  0  0  0  0  0  0  0  0  0  0  0
   -0.5204   -1.1256   -0.1630 C   0  0  1  0  0  0  0  0  0  0  0  0
    0.2871   -1.8244   -0.4077 H   0  0  0  0  0  0  0  0  0  0  0  0
   -0.5039   -0.0197   -1.2490 C   0  0  0  0  0  0  0  0  0  0  0  0
   -0.9145    0.9007   -0.8196 H   0  0  0  0  0  0  0  0  0  0  0  0
    0.5398    0.1934   -1.5046 H   0  0  0  0  0  0  0  0  0  0  0  0
   -1.2999   -0.3130   -2.5086 C   0  0  0  0  0  0  0  0  0  0  0  0
   -0.6452   -0.3540   -3.7497 C   0  0  0  0  0  0  0  0  0  0  0  0
    0.4360   -0.2576   -3.7981 H   0  0  0  0  0  0  0  0  0  0  0  0
   -1.3671   -0.5411   -4.9346 C   0  0  0  0  0  0  0  0  0  0  0  0
   -0.8363   -0.5954   -5.8790 H   0  0  0  0  0  0  0  0  0  0  0  0
   -2.7580   -0.6485   -4.8995 C   0  0  0  0  0  0  0  0  0  0  0  0
   -3.4733   -0.8336   -6.0468 O   0  0  0  0  0  0  0  0  0  0  0  0
   -2.8763   -0.8692   -6.8105 H   0  0  0  0  0  0  0  0  0  0  0  0
   -3.4247   -0.5431   -3.6814 C   0  0  0  0  0  0  0  0  0  0  0  0
   -4.5089   -0.5904   -3.6693 H   0  0  0  0  0  0  0  0  0  0  0  0
   -2.7064   -0.3542   -2.4964 C   0  0  0  0  0  0  0  0  0  0  0  0
   -3.2527   -0.2190   -1.5676 H   0  0  0  0  0  0  0  0  0  0  0  0
   -0.1429   -0.4900    1.1920 C   0  0  0  0  0  0  0  0  0  0  0  0
    1.0374   -0.3142    1.4648 O   0  0  0  0  0  0  0  0  0  0  0  0
   -1.1109    0.1420    1.9514 N   0  0  0  0  0  0  0  0  0  0  0  0
   -2.0700   -0.1208    1.7491 H   0  0  0  0  0  0  0  0  0  0  0  0
   -0.8167    0.7775    3.2296 C   0  0  0  0  0  0  0  0  0  0  0  0
   -0.0598    1.5592    3.1054 H   0  0  0  0  0  0  0  0  0  0  0  0
   -1.7208    1.2373    3.6399 H   0  0  0  0  0  0  0  0  0  0  0  0
   -0.4450    0.0385    3.9472 H   0  0  0  0  0  0  0  0  0  0  0  0
  1  2  1  0  0  0  0
  2  3  1  0  0  0  0
  2  4  1  0  0  0  0
  2  5  1  0  0  0  0
  5  6  2  0  0  0  0
  5  7  1  0  0  0  0
  7  8  1  0  0  0  0
  7  9  1  0  0  0  0
  9 10  1  0  0  0  0
  9 11  1  0  0  0  0
  9 26  1  0  0  0  0
 11 12  1  0  0  0  0
 11 13  1  0  0  0  0
 11 14  1  0  0  0  0
 14 15  2  0  0  0  0
 14 24  1  0  0  0  0
 15 16  1  0  0  0  0
 15 17  1  0  0  0  0
 17 18  1  0  0  0  0
 17 19  2  0  0  0  0
 19 20  1  0  0  0  0
 19 22  1  0  0  0  0
 20 21  1  0  0  0  0
 22 23  1  0  0  0  0
 22 24  2  0  0  0  0
 24 25  1  0  0  0  0
 26 27  2  0  0  0  0
 26 28  1  0  0  0  0
 28 29  1  0  0  0  0
 28 30  1  0  0  0  0
 30 31  1  0  0  0  0
 30 32  1  0  0  0  0
 30 33  1  0  0  0  0
M  END
$$$$

  -OEChem-03222214083D

 33 33  0     1  0  0  0  0  0999 V2000
   -3.1975   -4.7442    0.9084 H   0  0  0  0  0  0  0  0  0  0  0  0
   -3.1991   -3.8641    0.2590 C   0  0  0  0  0  0  0  0  0  0  0  0
   -4.1228   -3.3048    0.4255 H   0  0  0  0  0  0  0  0  0  0  0  0
   -3.1641   -4.1963   -0.7815 H   0  0  0  0  0  0  0  0  0  0  0  0
   -1.9992   -2.9874    0.5647 C   0  0  0  0  0  0  0  0  0  0  0  0
   -1.2533   -3.2783    1.4827 O   0  0  0  0  0  0  0  0  0  0  0  0
   -1.7679   -1.8603   -0.1984 N   0  0  0  0  0  0  0  0  0  0  0  0
   -2.3357   -1.7742   -1.0384 H   0  0  0  0  0  0  0  0  0  0  0  0
   -0.5097   -1.0880   -0.1721 C   0  0  1  0  0  0  0  0  0  0  0  0
    0.2895   -1.7912   -0.4305 H   0  0  0  0  0  0  0  0  0  0  0  0
   -0.4869    0.0371   -1.2340 C   0  0  0  0  0  0  0  0  0  0  0  0
   -0.8908    0.9542   -0.7921 H   0  0  0  0  0  0  0  0  0  0  0  0
    0.5544    0.2494   -1.4989 H   0  0  0  0  0  0  0  0  0  0  0  0
   -1.2933   -0.2654   -2.4813 C   0  0  0  0  0  0  0  0  0  0  0  0
   -0.6408   -0.6157   -3.6725 C   0  0  0  0  0  0  0  0  0  0  0  0
    0.4415   -0.7098   -3.6923 H   0  0  0  0  0  0  0  0  0  0  0  0
   -1.3743   -0.8614   -4.8393 C   0  0  0  0  0  0  0  0  0  0  0  0
   -0.8522   -1.1466   -5.7464 H   0  0  0  0  0  0  0  0  0  0  0  0
   -2.7649   -0.7366   -4.8340 C   0  0  0  0  0  0  0  0  0  0  0  0
   -3.4908   -0.9741   -5.9650 O   0  0  0  0  0  0  0  0  0  0  0  0
   -2.8985   -1.1817   -6.7047 H   0  0  0  0  0  0  0  0  0  0  0  0
   -3.4179   -0.3533   -3.6641 C   0  0  0  0  0  0  0  0  0  0  0  0
   -4.4972   -0.2382   -3.6773 H   0  0  0  0  0  0  0  0  0  0  0  0
   -2.6894   -0.1048   -2.4962 C   0  0  0  0  0  0  0  0  0  0  0  0
   -3.2121    0.2211   -1.6012 H   0  0  0  0  0  0  0  0  0  0  0  0
   -0.1312   -0.4924    1.2003 C   0  0  0  0  0  0  0  0  0  0  0  0
    1.0505   -0.3478    1.4857 O   0  0  0  0  0  0  0  0  0  0  0  0
   -1.0913    0.1414    1.9684 N   0  0  0  0  0  0  0  0  0  0  0  0
   -2.0548   -0.0948    1.7544 H   0  0  0  0  0  0  0  0  0  0  0  0
   -0.7908    0.7450    3.2605 C   0  0  0  0  0  0  0  0  0  0  0  0
   -0.0216    1.5174    3.1543 H   0  0  0  0  0  0  0  0  0  0  0  0
   -1.6883    1.2098    3.6794 H   0  0  0  0  0  0  0  0  0  0  0  0
   -0.4315   -0.0149    3.9625 H   0  0  0  0  0  0  0  0  0  0  0  0
  1  2  1  0  0  0  0
  2  3  1  0  0  0  0
  2  4  1  0  0  0  0
  2  5  1  0  0  0  0
  5  6  2  0  0  0  0
  5  7  1  0  0  0  0
  7  8  1  0  0  0  0
  7  9  1  0  0  0  0
  9 10  1  0  0  0  0
  9 11  1  0  0  0  0
  9 26  1  0  0  0  0
 11 12  1  0  0  0  0
 11 13  1  0  0  0  0
 11 14  1  0  0  0  0
 14 15  2  0  0  0  0
 14 24  1  0  0  0  0
 15 16  1  0  0  0  0
 15 17  1  0  0  0  0
 17 18  1  0  0  0  0
 17 19  2  0  0  0  0
 19 20  1  0  0  0  0
 19 22  1  0  0  0  0
 20 21  1  0  0  0  0
 22 23  1  0  0  0  0
 22 24  2  0  0  0  0
 24 25  1  0  0  0  0
 26 27  2  0  0  0  0
 26 28  1  0  0  0  0
 28 29  1  0  0  0  0
 28 30  1  0  0  0  0
 30 31  1  0  0  0  0
 30 32  1  0  0  0  0
 30 33  1  0  0  0  0
M  END
$$$$

  -OEChem-03222214083D

 33 33  0     1  0  0  0  0  0999 V2000
   -3.2756   -4.6737    0.8121 H   0  0  0  0  0  0  0  0  0  0  0  0
   -3.2492   -3.7841    0.1764 C   0  0  0  0  0  0  0  0  0  0  0  0
   -4.1545   -3.1982    0.3516 H   0  0  0  0  0  0  0  0  0  0  0  0
   -3.2247   -4.1004   -0.8693 H   0  0  0  0  0  0  0  0  0  0  0  0
   -2.0219   -2.9515    0.4957 C   0  0  0  0  0  0  0  0  0  0  0  0
   -1.2779   -3.2869    1.3999 O   0  0  0  0  0  0  0  0  0  0  0  0
   -1.7609   -1.8138   -0.2405 N   0  0  0  0  0  0  0  0  0  0  0  0
   -2.3399   -1.6745   -1.0662 H   0  0  0  0  0  0  0  0  0  0  0  0
   -0.4917   -1.0605   -0.1854 C   0  0  1  0  0  0  0  0  0  0  0  0
    0.3017   -1.7671   -0.4525 H   0  0  0  0  0  0  0  0  0  0  0  0
   -0.4631    0.0802   -1.2275 C   0  0  0  0  0  0  0  0  0  0  0  0
   -0.8589    0.9948   -0.7733 H   0  0  0  0  0  0  0  0  0  0  0  0
    0.5770    0.2886   -1.5009 H   0  0  0  0  0  0  0  0  0  0  0  0
   -1.2761   -0.2240   -2.4676 C   0  0  0  0  0  0  0  0  0  0  0  0
   -0.6785   -0.8647   -3.5620 C   0  0  0  0  0  0  0  0  0  0  0  0
    0.3708   -1.1449   -3.5209 H   0  0  0  0  0  0  0  0  0  0  0  0
   -1.4282   -1.1555   -4.7079 C   0  0  0  0  0  0  0  0  0  0  0  0
   -0.9506   -1.6555   -5.5437 H   0  0  0  0  0  0  0  0  0  0  0  0
   -2.7780   -0.8031   -4.7722 C   0  0  0  0  0  0  0  0  0  0  0  0
   -3.5191   -1.0840   -5.8830 O   0  0  0  0  0  0  0  0  0  0  0  0
   -2.9585   -1.4827   -6.5670 H   0  0  0  0  0  0  0  0  0  0  0  0
   -3.3735   -0.1538   -3.6925 C   0  0  0  0  0  0  0  0  0  0  0  0
   -4.4202    0.1258   -3.7577 H   0  0  0  0  0  0  0  0  0  0  0  0
   -2.6291    0.1425   -2.5462 C   0  0  0  0  0  0  0  0  0  0  0  0
   -3.1060    0.6591   -1.7179 H   0  0  0  0  0  0  0  0  0  0  0  0
   -0.1188   -0.4960    1.2011 C   0  0  0  0  0  0  0  0  0  0  0  0
    1.0614   -0.3723    1.5015 O   0  0  0  0  0  0  0  0  0  0  0  0
   -1.0786    0.1374    1.9697 N   0  0  0  0  0  0  0  0  0  0  0  0
   -2.0429   -0.0793    1.7390 H   0  0  0  0  0  0  0  0  0  0  0  0
   -0.7850    0.7118    3.2767 C   0  0  0  0  0  0  0  0  0  0  0  0
   -0.0108    1.4819    3.1929 H   0  0  0  0  0  0  0  0  0  0  0  0
   -1.6834    1.1728    3.6975 H   0  0  0  0  0  0  0  0  0  0  0  0
   -0.4363   -0.0650    3.9653 H   0  0  0  0  0  0  0  0  0  0  0  0
  1  2  1  0  0  0  0
  2  3  1  0  0  0  0
  2  4  1  0  0  0  0
  2  5  1  0  0  0  0
  5  6  2  0  0  0  0
  5  7  1  0  0  0  0
  7  8  1  0  0  0  0
  7  9  1  0  0  0  0
  9 10  1  0  0  0  0
  9 11  1  0  0  0  0
  9 26  1  0  0  0  0
 11 12  1  0  0  0  0
 11 13  1  0  0  0  0
 11 14  1  0  0  0  0
 14 15  2  0  0  0  0
 14 24  1  0  0  0  0
 15 16  1  0  0  0  0
 15 17  1  0  0  0  0
 17 18  1  0  0  0  0
 17 19  2  0  0  0  0
 19 20  1  0  0  0  0
 19 22  1  0  0  0  0
 20 21  1  0  0  0  0
 22 23  1  0  0  0  0
 22 24  2  0  0  0  0
 24 25  1  0  0  0  0
 26 27  2  0  0  0  0
 26 28  1  0  0  0  0
 28 29  1  0  0  0  0
 28 30  1  0  0  0  0
 30 31  1  0  0  0  0
 30 32  1  0  0  0  0
 30 33  1  0  0  0  0
M  END
$$$$

  -OEChem-03222214083D

 33 33  0     1  0  0  0  0  0999 V2000
   -3.3183   -4.6313    0.7682 H   0  0  0  0  0  0  0  0  0  0  0  0
   -3.2759   -3.7354    0.1424 C   0  0  0  0  0  0  0  0  0  0  0  0
   -4.1655   -3.1301    0.3322 H   0  0  0  0  0  0  0  0  0  0  0  0
   -3.2678   -4.0400   -0.9070 H   0  0  0  0  0  0  0  0  0  0  0  0
   -2.0267   -2.9350    0.4596 C   0  0  0  0  0  0  0  0  0  0  0  0
   -1.2788   -3.3003    1.3489 O   0  0  0  0  0  0  0  0  0  0  0  0
   -1.7492   -1.7925   -0.2626 N   0  0  0  0  0  0  0  0  0  0  0  0
   -2.3414   -1.6164   -1.0719 H   0  0  0  0  0  0  0  0  0  0  0  0
   -0.4759   -1.0471   -0.1933 C   0  0  1  0  0  0  0  0  0  0  0  0
    0.3170   -1.7532   -0.4626 H   0  0  0  0  0  0  0  0  0  0  0  0
   -0.4470    0.1005   -1.2274 C   0  0  0  0  0  0  0  0  0  0  0  0
   -0.8364    1.0141   -0.7657 H   0  0  0  0  0  0  0  0  0  0  0  0
    0.5919    0.3051   -1.5075 H   0  0  0  0  0  0  0  0  0  0  0  0
   -1.2617   -0.2036   -2.4663 C   0  0  0  0  0  0  0  0  0  0  0  0
   -0.7737   -1.1021   -3.4262 C   0  0  0  0  0  0  0  0  0  0  0  0
    0.2010   -1.5636   -3.2908 H   0  0  0  0  0  0  0  0  0  0  0  0
   -1.5367   -1.4123   -4.5579 C   0  0  0  0  0  0  0  0  0  0  0  0
   -1.1435   -2.1086   -5.2909 H   0  0  0  0  0  0  0  0  0  0  0  0
   -2.7928   -0.8295   -4.7386 C   0  0  0  0  0  0  0  0  0  0  0  0
   -3.5463   -1.1255   -5.8371 O   0  0  0  0  0  0  0  0  0  0  0  0
   -3.0500   -1.7026   -6.4385 H   0  0  0  0  0  0  0  0  0  0  0  0
   -3.2826    0.0638   -3.7873 C   0  0  0  0  0  0  0  0  0  0  0  0
   -4.2585    0.5143   -3.9398 H   0  0  0  0  0  0  0  0  0  0  0  0
   -2.5234    0.3809   -2.6560 C   0  0  0  0  0  0  0  0  0  0  0  0
   -2.9202    1.0820   -1.9268 H   0  0  0  0  0  0  0  0  0  0  0  0
   -0.1106   -0.4975    1.2010 C   0  0  0  0  0  0  0  0  0  0  0  0
    1.0675   -0.3880    1.5149 O   0  0  0  0  0  0  0  0  0  0  0  0
   -1.0735    0.1341    1.9673 N   0  0  0  0  0  0  0  0  0  0  0  0
   -2.0374   -0.0651    1.7197 H   0  0  0  0  0  0  0  0  0  0  0  0
   -0.7907    0.6898    3.2847 C   0  0  0  0  0  0  0  0  0  0  0  0
   -0.0117    1.4568    3.2196 H   0  0  0  0  0  0  0  0  0  0  0  0
   -1.6910    1.1498    3.7024 H   0  0  0  0  0  0  0  0  0  0  0  0
   -0.4534   -0.0978    3.9669 H   0  0  0  0  0  0  0  0  0  0  0  0
  1  2  1  0  0  0  0
  2  3  1  0  0  0  0
  2  4  1  0  0  0  0
  2  5  1  0  0  0  0
  5  6  2  0  0  0  0
  5  7  1  0  0  0  0
  7  8  1  0  0  0  0
  7  9  1  0  0  0  0
  9 10  1  0  0  0  0
  9 11  1  0  0  0  0
  9 26  1  0  0  0  0
 11 12  1  0  0  0  0
 11 13  1  0  0  0  0
 11 14  1  0  0  0  0
 14 15  2  0  0  0  0
 14 24  1  0  0  0  0
 15 16  1  0  0  0  0
 15 17  1  0  0  0  0
 17 18  1  0  0  0  0
 17 19  2  0  0  0  0
 19 20  1  0  0  0  0
 19 22  1  0  0  0  0
 20 21  1  0  0  0  0
 22 23  1  0  0  0  0
 22 24  2  0  0  0  0
 24 25  1  0  0  0  0
 26 27  2  0  0  0  0
 26 28  1  0  0  0  0
 28 29  1  0  0  0  0
 28 30  1  0  0  0  0
 30 31  1  0  0  0  0
 30 32  1  0  0  0  0
 30 33  1  0  0  0  0
M  END
$$$$

  -OEChem-03222214083D

 33 33  0     1  0  0  0  0  0999 V2000
   -3.3076   -4.6293    0.7861 H   0  0  0  0  0  0  0  0  0  0  0  0
   -3.2788   -3.7252    0.1711 C   0  0  0  0  0  0  0  0  0  0  0  0
   -4.1575   -3.1168    0.3978 H   0  0  0  0  0  0  0  0  0  0  0  0
   -3.3067   -4.0154   -0.8820 H   0  0  0  0  0  0  0  0  0  0  0  0
   -2.0144   -2.9380    0.4596 C   0  0  0  0  0  0  0  0  0  0  0  0
   -1.2481   -3.3162    1.3275 O   0  0  0  0  0  0  0  0  0  0  0  0
   -1.7431   -1.7933   -0.2615 N   0  0  0  0  0  0  0  0  0  0  0  0
   -2.3574   -1.5952   -1.0491 H   0  0  0  0  0  0  0  0  0  0  0  0
   -0.4737   -1.0410   -0.1935 C   0  0  1  0  0  0  0  0  0  0  0  0
    0.3233   -1.7435   -0.4603 H   0  0  0  0  0  0  0  0  0  0  0  0
   -0.4489    0.1034   -1.2324 C   0  0  0  0  0  0  0  0  0  0  0  0
   -0.8400    1.0153   -0.7687 H   0  0  0  0  0  0  0  0  0  0  0  0
    0.5898    0.3099   -1.5116 H   0  0  0  0  0  0  0  0  0  0  0  0
   -1.2570   -0.1969   -2.4792 C   0  0  0  0  0  0  0  0  0  0  0  0
   -0.9343   -1.3027   -3.2823 C   0  0  0  0  0  0  0  0  0  0  0  0
   -0.0823   -1.9277   -3.0279 H   0  0  0  0  0  0  0  0  0  0  0  0
   -1.7025   -1.6094   -4.4111 C   0  0  0  0  0  0  0  0  0  0  0  0
   -1.4366   -2.4669   -5.0203 H   0  0  0  0  0  0  0  0  0  0  0  0
   -2.8007   -0.8161   -4.7483 C   0  0  0  0  0  0  0  0  0  0  0  0
   -3.5591   -1.1065   -5.8451 O   0  0  0  0  0  0  0  0  0  0  0  0
   -3.1684   -1.8461   -6.3365 H   0  0  0  0  0  0  0  0  0  0  0  0
   -3.1253    0.2842   -3.9567 C   0  0  0  0  0  0  0  0  0  0  0  0
   -3.9785    0.8972   -4.2302 H   0  0  0  0  0  0  0  0  0  0  0  0
   -2.3595    0.5978   -2.8284 C   0  0  0  0  0  0  0  0  0  0  0  0
   -2.6298    1.4611   -2.2268 H   0  0  0  0  0  0  0  0  0  0  0  0
   -0.1127   -0.4926    1.2021 C   0  0  0  0  0  0  0  0  0  0  0  0
    1.0643   -0.3840    1.5197 O   0  0  0  0  0  0  0  0  0  0  0  0
   -1.0794    0.1316    1.9699 N   0  0  0  0  0  0  0  0  0  0  0  0
   -2.0419   -0.0721    1.7199 H   0  0  0  0  0  0  0  0  0  0  0  0
   -0.8027    0.6729    3.2946 C   0  0  0  0  0  0  0  0  0  0  0  0
    0.0105    1.4047    3.2493 H   0  0  0  0  0  0  0  0  0  0  0  0
   -1.6910    1.1725    3.6924 H   0  0  0  0  0  0  0  0  0  0  0  0
   -0.5160   -0.1295    3.9824 H   0  0  0  0  0  0  0  0  0  0  0  0
  1  2  1  0  0  0  0
  2  3  1  0  0  0  0
  2  4  1  0  0  0  0
  2  5  1  0  0  0  0
  5  6  2  0  0  0  0
  5  7  1  0  0  0  0
  7  8  1  0  0  0  0
  7  9  1  0  0  0  0
  9 10  1  0  0  0  0
  9 11  1  0  0  0  0
  9 26  1  0  0  0  0
 11 12  1  0  0  0  0
 11 13  1  0  0  0  0
 11 14  1  0  0  0  0
 14 15  2  0  0  0  0
 14 24  1  0  0  0  0
 15 16  1  0  0  0  0
 15 17  1  0  0  0  0
 17 18  1  0  0  0  0
 17 19  2  0  0  0  0
 19 20  1  0  0  0  0
 19 22  1  0  0  0  0
 20 21  1  0  0  0  0
 22 23  1  0  0  0  0
 22 24  2  0  0  0  0
 24 25  1  0  0  0  0
 26 27  2  0  0  0  0
 26 28  1  0  0  0  0
 28 29  1  0  0  0  0
 28 30  1  0  0  0  0
 30 31  1  0  0  0  0
 30 32  1  0  0  0  0
 30 33  1  0  0  0  0
M  END
$$$$

  -OEChem-03222214083D

 33 33  0     1  0  0  0  0  0999 V2000
   -3.2879   -4.6534    0.8856 H   0  0  0  0  0  0  0  0  0  0  0  0
   -3.2637   -3.7613    0.2533 C   0  0  0  0  0  0  0  0  0  0  0  0
   -4.1390   -3.1471    0.4773 H   0  0  0  0  0  0  0  0  0  0  0  0
   -3.3028   -4.0717   -0.7935 H   0  0  0  0  0  0  0  0  0  0  0  0
   -1.9949   -2.9707    0.5122 C   0  0  0  0  0  0  0  0  0  0  0  0
   -1.2097   -3.3417    1.3661 O   0  0  0  0  0  0  0  0  0  0  0  0
   -1.7368   -1.8347   -0.2275 N   0  0  0  0  0  0  0  0  0  0  0  0
   -2.3771   -1.6294   -0.9920 H   0  0  0  0  0  0  0  0  0  0  0  0
   -0.4767   -1.0662   -0.1767 C   0  0  1  0  0  0  0  0  0  0  0  0
    0.3283   -1.7635   -0.4338 H   0  0  0  0  0  0  0  0  0  0  0  0
   -0.4655    0.0636   -1.2333 C   0  0  0  0  0  0  0  0  0  0  0  0
   -0.8648    0.9732   -0.7721 H   0  0  0  0  0  0  0  0  0  0  0  0
    0.5731    0.2762   -1.5080 H   0  0  0  0  0  0  0  0  0  0  0  0
   -1.2618   -0.2229   -2.4955 C   0  0  0  0  0  0  0  0  0  0  0  0
   -1.1678   -1.4623   -3.1542 C   0  0  0  0  0  0  0  0  0  0  0  0
   -0.4898   -2.2266   -2.7835 H   0  0  0  0  0  0  0  0  0  0  0  0
   -1.9314   -1.7225   -4.2975 C   0  0  0  0  0  0  0  0  0  0  0  0
   -1.8395   -2.6827   -4.7937 H   0  0  0  0  0  0  0  0  0  0  0  0
   -2.7995   -0.7503   -4.7967 C   0  0  0  0  0  0  0  0  0  0  0  0
   -3.5466   -0.9910   -5.9129 O   0  0  0  0  0  0  0  0  0  0  0  0
   -3.2930   -1.8391   -6.3093 H   0  0  0  0  0  0  0  0  0  0  0  0
   -2.9005    0.4800   -4.1506 C   0  0  0  0  0  0  0  0  0  0  0  0
   -3.5757    1.2315   -4.5478 H   0  0  0  0  0  0  0  0  0  0  0  0
   -2.1372    0.7469   -3.0087 C   0  0  0  0  0  0  0  0  0  0  0  0
   -2.2318    1.7146   -2.5240 H   0  0  0  0  0  0  0  0  0  0  0  0
   -0.1192   -0.4907    1.2088 C   0  0  0  0  0  0  0  0  0  0  0  0
    1.0565   -0.3641    1.5241 O   0  0  0  0  0  0  0  0  0  0  0  0
   -1.0922    0.1338    1.9681 N   0  0  0  0  0  0  0  0  0  0  0  0
   -2.0533   -0.0741    1.7168 H   0  0  0  0  0  0  0  0  0  0  0  0
   -0.8203    0.7047    3.2810 C   0  0  0  0  0  0  0  0  0  0  0  0
   -0.0364    1.4665    3.2146 H   0  0  0  0  0  0  0  0  0  0  0  0
   -1.7227    1.1750    3.6827 H   0  0  0  0  0  0  0  0  0  0  0  0
   -0.4948   -0.0764    3.9762 H   0  0  0  0  0  0  0  0  0  0  0  0
  1  2  1  0  0  0  0
  2  3  1  0  0  0  0
  2  4  1  0  0  0  0
  2  5  1  0  0  0  0
  5  6  2  0  0  0  0
  5  7  1  0  0  0  0
  7  8  1  0  0  0  0
  7  9  1  0  0  0  0
  9 10  1  0  0  0  0
  9 11  1  0  0  0  0
  9 26  1  0  0  0  0
 11 12  1  0  0  0  0
 11 13  1  0  0  0  0
 11 14  1  0  0  0  0
 14 15  2  0  0  0  0
 14 24  1  0  0  0  0
 15 16  1  0  0  0  0
 15 17  1  0  0  0  0
 17 18  1  0  0  0  0
 17 19  2  0  0  0  0
 19 20  1  0  0  0  0
 19 22  1  0  0  0  0
 20 21  1  0  0  0  0
 22 23  1  0  0  0  0
 22 24  2  0  0  0  0
 24 25  1  0  0  0  0
 26 27  2  0  0  0  0
 26 28  1  0  0  0  0
 28 29  1  0  0  0  0
 28 30  1  0  0  0  0
 30 31  1  0  0  0  0
 30 32  1  0  0  0  0
 30 33  1  0  0  0  0
M  END
$$$$

  -OEChem-03222214083D

 33 33  0     1  0  0  0  0  0999 V2000
   -3.2367   -4.6867    1.0615 H   0  0  0  0  0  0  0  0  0  0  0  0
   -3.2351   -3.8135    0.4026 C   0  0  0  0  0  0  0  0  0  0  0  0
   -4.0984   -3.1888    0.6439 H   0  0  0  0  0  0  0  0  0  0  0  0
   -3.3182   -4.1542   -0.6322 H   0  0  0  0  0  0  0  0  0  0  0  0
   -1.9535   -3.0225    0.5872 C   0  0  0  0  0  0  0  0  0  0  0  0
   -1.1287   -3.3819    1.4077 O   0  0  0  0  0  0  0  0  0  0  0  0
   -1.7293   -1.8976   -0.1801 N   0  0  0  0  0  0  0  0  0  0  0  0
   -2.4172   -1.6816   -0.8984 H   0  0  0  0  0  0  0  0  0  0  0  0
   -0.4889   -1.0972   -0.1613 C   0  0  1  0  0  0  0  0  0  0  0  0
    0.3288   -1.7841   -0.4061 H   0  0  0  0  0  0  0  0  0  0  0  0
   -0.4926    0.0095   -1.2446 C   0  0  0  0  0  0  0  0  0  0  0  0
   -0.9094    0.9163   -0.7930 H   0  0  0  0  0  0  0  0  0  0  0  0
    0.5468    0.2355   -1.5052 H   0  0  0  0  0  0  0  0  0  0  0  0
   -1.2639   -0.2583   -2.5307 C   0  0  0  0  0  0  0  0  0  0  0  0
   -1.4329   -1.5479   -3.0714 C   0  0  0  0  0  0  0  0  0  0  0  0
   -0.9515   -2.4052   -2.6095 H   0  0  0  0  0  0  0  0  0  0  0  0
   -2.1868   -1.7452   -4.2340 C   0  0  0  0  0  0  0  0  0  0  0  0
   -2.2938   -2.7461   -4.6383 H   0  0  0  0  0  0  0  0  0  0  0  0
   -2.7868   -0.6601   -4.8738 C   0  0  0  0  0  0  0  0  0  0  0  0
   -3.5213   -0.8381   -6.0103 O   0  0  0  0  0  0  0  0  0  0  0  0
   -3.4669   -1.7606   -6.3042 H   0  0  0  0  0  0  0  0  0  0  0  0
   -2.6271    0.6198   -4.3496 C   0  0  0  0  0  0  0  0  0  0  0  0
   -3.0936    1.4593   -4.8552 H   0  0  0  0  0  0  0  0  0  0  0  0
   -1.8705    0.8224   -3.1906 C   0  0  0  0  0  0  0  0  0  0  0  0
   -1.7599    1.8315   -2.8035 H   0  0  0  0  0  0  0  0  0  0  0  0
   -0.1355   -0.4832    1.2088 C   0  0  0  0  0  0  0  0  0  0  0  0
    1.0386   -0.3229    1.5141 O   0  0  0  0  0  0  0  0  0  0  0  0
   -1.1176    0.1326    1.9637 N   0  0  0  0  0  0  0  0  0  0  0  0
   -2.0767   -0.0882    1.7165 H   0  0  0  0  0  0  0  0  0  0  0  0
   -0.8502    0.7440    3.2594 C   0  0  0  0  0  0  0  0  0  0  0  0
   -0.0807    1.5180    3.1687 H   0  0  0  0  0  0  0  0  0  0  0  0
   -1.7589    1.2086    3.6536 H   0  0  0  0  0  0  0  0  0  0  0  0
   -0.5074   -0.0116    3.9739 H   0  0  0  0  0  0  0  0  0  0  0  0
  1  2  1  0  0  0  0
  2  3  1  0  0  0  0
  2  4  1  0  0  0  0
  2  5  1  0  0  0  0
  5  6  2  0  0  0  0
  5  7  1  0  0  0  0
  7  8  1  0  0  0  0
  7  9  1  0  0  0  0
  9 10  1  0  0  0  0
  9 11  1  0  0  0  0
  9 26  1  0  0  0  0
 11 12  1  0  0  0  0
 11 13  1  0  0  0  0
 11 14  1  0  0  0  0
 14 15  2  0  0  0  0
 14 24  1  0  0  0  0
 15 16  1  0  0  0  0
 15 17  1  0  0  0  0
 17 18  1  0  0  0  0
 17 19  2  0  0  0  0
 19 20  1  0  0  0  0
 19 22  1  0  0  0  0
 20 21  1  0  0  0  0
 22 23  1  0  0  0  0
 22 24  2  0  0  0  0
 24 25  1  0  0  0  0
 26 27  2  0  0  0  0
 26 28  1  0  0  0  0
 28 29  1  0  0  0  0
 28 30  1  0  0  0  0
 30 31  1  0  0  0  0
 30 32  1  0  0  0  0
 30 33  1  0  0  0  0
M  END
$$$$

  -OEChem-03222214083D

 33 33  0     1  0  0  0  0  0999 V2000
   -3.1576   -4.7264    1.2821 H   0  0  0  0  0  0  0  0  0  0  0  0
   -3.1924   -3.8795    0.5907 C   0  0  0  0  0  0  0  0  0  0  0  0
   -4.0443   -3.2474    0.8521 H   0  0  0  0  0  0  0  0  0  0  0  0
   -3.3268   -4.2603   -0.4246 H   0  0  0  0  0  0  0  0  0  0  0  0
   -1.9053   -3.0810    0.6804 C   0  0  0  0  0  0  0  0  0  0  0  0
   -1.0311   -3.4224    1.4561 O   0  0  0  0  0  0  0  0  0  0  0  0
   -1.7308   -1.9701   -0.1206 N   0  0  0  0  0  0  0  0  0  0  0  0
   -2.4791   -1.7397   -0.7699 H   0  0  0  0  0  0  0  0  0  0  0  0
   -0.5152   -1.1342   -0.1478 C   0  0  1  0  0  0  0  0  0  0  0  0
    0.3136   -1.8116   -0.3819 H   0  0  0  0  0  0  0  0  0  0  0  0
   -0.5334   -0.0569   -1.2624 C   0  0  0  0  0  0  0  0  0  0  0  0
   -0.9660    0.8498   -0.8259 H   0  0  0  0  0  0  0  0  0  0  0  0
    0.5075    0.1784   -1.5096 H   0  0  0  0  0  0  0  0  0  0  0  0
   -1.2787   -0.3083   -2.5712 C   0  0  0  0  0  0  0  0  0  0  0  0
   -1.7274   -1.5667   -3.0245 C   0  0  0  0  0  0  0  0  0  0  0  0
   -1.4676   -2.4806   -2.5013 H   0  0  0  0  0  0  0  0  0  0  0  0
   -2.4599   -1.6854   -4.2120 C   0  0  0  0  0  0  0  0  0  0  0  0
   -2.7783   -2.6664   -4.5480 H   0  0  0  0  0  0  0  0  0  0  0  0
   -2.7649   -0.5528   -4.9666 C   0  0  0  0  0  0  0  0  0  0  0  0
   -3.4765   -0.6553   -6.1269 O   0  0  0  0  0  0  0  0  0  0  0  0
   -3.6301   -1.5875   -6.3453 H   0  0  0  0  0  0  0  0  0  0  0  0
   -2.3288    0.6952   -4.5336 C   0  0  0  0  0  0  0  0  0  0  0  0
   -2.5655    1.5728   -5.1265 H   0  0  0  0  0  0  0  0  0  0  0  0
   -1.5925    0.8175   -3.3509 C   0  0  0  0  0  0  0  0  0  0  0  0
   -1.2682    1.8054   -3.0354 H   0  0  0  0  0  0  0  0  0  0  0  0
   -0.1574   -0.4760    1.2018 C   0  0  0  0  0  0  0  0  0  0  0  0
    1.0162   -0.2720    1.4816 O   0  0  0  0  0  0  0  0  0  0  0  0
   -1.1433    0.1293    1.9609 N   0  0  0  0  0  0  0  0  0  0  0  0
   -2.1016   -0.1136    1.7330 H   0  0  0  0  0  0  0  0  0  0  0  0
   -0.8698    0.7982    3.2269 C   0  0  0  0  0  0  0  0  0  0  0  0
   -0.1206    1.5858    3.0920 H   0  0  0  0  0  0  0  0  0  0  0  0
   -1.7828    1.2574    3.6176 H   0  0  0  0  0  0  0  0  0  0  0  0
   -0.4970    0.0802    3.9649 H   0  0  0  0  0  0  0  0  0  0  0  0
  1  2  1  0  0  0  0
  2  3  1  0  0  0  0
  2  4  1  0  0  0  0
  2  5  1  0  0  0  0
  5  6  2  0  0  0  0
  5  7  1  0  0  0  0
  7  8  1  0  0  0  0
  7  9  1  0  0  0  0
  9 10  1  0  0  0  0
  9 11  1  0  0  0  0
  9 26  1  0  0  0  0
 11 12  1  0  0  0  0
 11 13  1  0  0  0  0
 11 14  1  0  0  0  0
 14 15  2  0  0  0  0
 14 24  1  0  0  0  0
 15 16  1  0  0  0  0
 15 17  1  0  0  0  0
 17 18  1  0  0  0  0
 17 19  2  0  0  0  0
 19 20  1  0  0  0  0
 19 22  1  0  0  0  0
 20 21  1  0  0  0  0
 22 23  1  0  0  0  0
 22 24  2  0  0  0  0
 24 25  1  0  0  0  0
 26 27  2  0  0  0  0
 26 28  1  0  0  0  0
 28 29  1  0  0  0  0
 28 30  1  0  0  0  0
 30 31  1  0  0  0  0
 30 32  1  0  0  0  0
 30 33  1  0  0  0  0
M  END
$$$$

  -OEChem-03222214083D

 33 33  0     1  0  0  0  0  0999 V2000
   -3.0812   -4.7434    1.4929 H   0  0  0  0  0  0  0  0  0  0  0  0
   -3.1504   -3.9224    0.7733 C   0  0  0  0  0  0  0  0  0  0  0  0
   -3.9840   -3.2757    1.0571 H   0  0  0  0  0  0  0  0  0  0  0  0
   -3.3415   -4.3392   -0.2183 H   0  0  0  0  0  0  0  0  0  0  0  0
   -1.8573   -3.1292    0.7616 C   0  0  0  0  0  0  0  0  0  0  0  0
   -0.9355   -3.4581    1.4855 O   0  0  0  0  0  0  0  0  0  0  0  0
   -1.7364   -2.0305   -0.0659 N   0  0  0  0  0  0  0  0  0  0  0  0
   -2.5419   -1.7831   -0.6340 H   0  0  0  0  0  0  0  0  0  0  0  0
   -0.5463   -1.1660   -0.1446 C   0  0  1  0  0  0  0  0  0  0  0  0
    0.2897   -1.8344   -0.3798 H   0  0  0  0  0  0  0  0  0  0  0  0
   -0.5866   -0.1113   -1.2819 C   0  0  0  0  0  0  0  0  0  0  0  0
   -1.0299    0.7951   -0.8551 H   0  0  0  0  0  0  0  0  0  0  0  0
    0.4536    0.1324   -1.5250 H   0  0  0  0  0  0  0  0  0  0  0  0
   -1.3234   -0.3475   -2.6010 C   0  0  0  0  0  0  0  0  0  0  0  0
   -2.0413   -1.5029   -2.9806 C   0  0  0  0  0  0  0  0  0  0  0  0
   -2.0371   -2.4110   -2.3934 H   0  0  0  0  0  0  0  0  0  0  0  0
   -2.7303   -1.5562   -4.1987 C   0  0  0  0  0  0  0  0  0  0  0  0
   -3.2555   -2.4639   -4.4750 H   0  0  0  0  0  0  0  0  0  0  0  0
   -2.7288   -0.4602   -5.0600 C   0  0  0  0  0  0  0  0  0  0  0  0
   -3.3943   -0.5049   -6.2509 O   0  0  0  0  0  0  0  0  0  0  0  0
   -3.7795   -1.3841   -6.3869 H   0  0  0  0  0  0  0  0  0  0  0  0
   -2.0309    0.6873   -4.7015 C   0  0  0  0  0  0  0  0  0  0  0  0
   -2.0304    1.5387   -5.3744 H   0  0  0  0  0  0  0  0  0  0  0  0
   -1.3373    0.7428   -3.4888 C   0  0  0  0  0  0  0  0  0  0  0  0
   -0.8069    1.6560   -3.2330 H   0  0  0  0  0  0  0  0  0  0  0  0
   -0.1711   -0.4743    1.1833 C   0  0  0  0  0  0  0  0  0  0  0  0
    1.0031   -0.2329    1.4289 O   0  0  0  0  0  0  0  0  0  0  0  0
   -1.1528    0.1184    1.9577 N   0  0  0  0  0  0  0  0  0  0  0  0
   -2.1114   -0.1463    1.7575 H   0  0  0  0  0  0  0  0  0  0  0  0
   -0.8622    0.8299    3.1963 C   0  0  0  0  0  0  0  0  0  0  0  0
   -0.1771    1.6635    3.0085 H   0  0  0  0  0  0  0  0  0  0  0  0
   -1.7839    1.2330    3.6262 H   0  0  0  0  0  0  0  0  0  0  0  0
   -0.4027    0.1547    3.9259 H   0  0  0  0  0  0  0  0  0  0  0  0
  1  2  1  0  0  0  0
  2  3  1  0  0  0  0
  2  4  1  0  0  0  0
  2  5  1  0  0  0  0
  5  6  2  0  0  0  0
  5  7  1  0  0  0  0
  7  8  1  0  0  0  0
  7  9  1  0  0  0  0
  9 10  1  0  0  0  0
  9 11  1  0  0  0  0
  9 26  1  0  0  0  0
 11 12  1  0  0  0  0
 11 13  1  0  0  0  0
 11 14  1  0  0  0  0
 14 15  2  0  0  0  0
 14 24  1  0  0  0  0
 15 16  1  0  0  0  0
 15 17  1  0  0  0  0
 17 18  1  0  0  0  0
 17 19  2  0  0  0  0
 19 20  1  0  0  0  0
 19 22  1  0  0  0  0
 20 21  1  0  0  0  0
 22 23  1  0  0  0  0
 22 24  2  0  0  0  0
 24 25  1  0  0  0  0
 26 27  2  0  0  0  0
 26 28  1  0  0  0  0
 28 29  1  0  0  0  0
 28 30  1  0  0  0  0
 30 31  1  0  0  0  0
 30 32  1  0  0  0  0
 30 33  1  0  0  0  0
M  END
$$$$

  -OEChem-03222214083D

 33 33  0     1  0  0  0  0  0999 V2000
   -3.0167   -4.7448    1.6286 H   0  0  0  0  0  0  0  0  0  0  0  0
   -3.1223   -3.9377    0.8978 C   0  0  0  0  0  0  0  0  0  0  0  0
   -3.9377   -3.2827    1.2136 H   0  0  0  0  0  0  0  0  0  0  0  0
   -3.3680   -4.3737   -0.0737 H   0  0  0  0  0  0  0  0  0  0  0  0
   -1.8289   -3.1507    0.8006 C   0  0  0  0  0  0  0  0  0  0  0  0
   -0.8637   -3.4849    1.4631 O   0  0  0  0  0  0  0  0  0  0  0  0
   -1.7579   -2.0522   -0.0336 N   0  0  0  0  0  0  0  0  0  0  0  0
   -2.6127   -1.7726   -0.5034 H   0  0  0  0  0  0  0  0  0  0  0  0
   -0.5848   -1.1718   -0.1553 C   0  0  1  0  0  0  0  0  0  0  0  0
    0.2494   -1.8364   -0.4075 H   0  0  0  0  0  0  0  0  0  0  0  0
   -0.6411   -0.1217   -1.2977 C   0  0  0  0  0  0  0  0  0  0  0  0
   -1.0791    0.7865   -0.8700 H   0  0  0  0  0  0  0  0  0  0  0  0
    0.3995    0.1191   -1.5426 H   0  0  0  0  0  0  0  0  0  0  0  0
   -1.3885   -0.3419   -2.6162 C   0  0  0  0  0  0  0  0  0  0  0  0
   -2.3511   -1.3326   -2.9150 C   0  0  0  0  0  0  0  0  0  0  0  0
   -2.6221   -2.1243   -2.2346 H   0  0  0  0  0  0  0  0  0  0  0  0
   -2.9851   -1.3711   -4.1638 C   0  0  0  0  0  0  0  0  0  0  0  0
   -3.7083   -2.1522   -4.3712 H   0  0  0  0  0  0  0  0  0  0  0  0
   -2.6874   -0.4212   -5.1387 C   0  0  0  0  0  0  0  0  0  0  0  0
   -3.3012   -0.4513   -6.3576 O   0  0  0  0  0  0  0  0  0  0  0  0
   -3.8885   -1.2201   -6.4186 H   0  0  0  0  0  0  0  0  0  0  0  0
   -1.7498    0.5659   -4.8621 C   0  0  0  0  0  0  0  0  0  0  0  0
   -1.5197    1.3053   -5.6225 H   0  0  0  0  0  0  0  0  0  0  0  0
   -1.1112    0.6051   -3.6192 C   0  0  0  0  0  0  0  0  0  0  0  0
   -0.3885    1.3953   -3.4339 H   0  0  0  0  0  0  0  0  0  0  0  0
   -0.1762   -0.4747    1.1602 C   0  0  0  0  0  0  0  0  0  0  0  0
    1.0023   -0.2225    1.3716 O   0  0  0  0  0  0  0  0  0  0  0  0
   -1.1393    0.1039    1.9682 N   0  0  0  0  0  0  0  0  0  0  0  0
   -2.1026   -0.1589    1.7906 H   0  0  0  0  0  0  0  0  0  0  0  0
   -0.8175    0.8154    3.1989 C   0  0  0  0  0  0  0  0  0  0  0  0
   -0.1556    1.6628    2.9906 H   0  0  0  0  0  0  0  0  0  0  0  0
   -1.7302    1.1985    3.6648 H   0  0  0  0  0  0  0  0  0  0  0  0
   -0.3194    0.1455    3.9078 H   0  0  0  0  0  0  0  0  0  0  0  0
  1  2  1  0  0  0  0
  2  3  1  0  0  0  0
  2  4  1  0  0  0  0
  2  5  1  0  0  0  0
  5  6  2  0  0  0  0
  5  7  1  0  0  0  0
  7  8  1  0  0  0  0
  7  9  1  0  0  0  0
  9 10  1  0  0  0  0
  9 11  1  0  0  0  0
  9 26  1  0  0  0  0
 11 12  1  0  0  0  0
 11 13  1  0  0  0  0
 11 14  1  0  0  0  0
 14 15  2  0  0  0  0
 14 24  1  0  0  0  0
 15 16  1  0  0  0  0
 15 17  1  0  0  0  0
 17 18  1  0  0  0  0
 17 19  2  0  0  0  0
 19 20  1  0  0  0  0
 19 22  1  0  0  0  0
 20 21  1  0  0  0  0
 22 23  1  0  0  0  0
 22 24  2  0  0  0  0
 24 25  1  0  0  0  0
 26 27  2  0  0  0  0
 26 28  1  0  0  0  0
 28 29  1  0  0  0  0
 28 30  1  0  0  0  0
 30 31  1  0  0  0  0
 30 32  1  0  0  0  0
 30 33  1  0  0  0  0
M  END
$$$$

  -OEChem-03222214083D

 33 33  0     1  0  0  0  0  0999 V2000
   -2.9696   -4.7622    1.5955 H   0  0  0  0  0  0  0  0  0  0  0  0
   -3.1032   -3.9348    0.8926 C   0  0  0  0  0  0  0  0  0  0  0  0
   -3.8898   -3.2772    1.2700 H   0  0  0  0  0  0  0  0  0  0  0  0
   -3.4087   -4.3419   -0.0744 H   0  0  0  0  0  0  0  0  0  0  0  0
   -1.8058   -3.1627    0.7426 C   0  0  0  0  0  0  0  0  0  0  0  0
   -0.8089   -3.5284    1.3382 O   0  0  0  0  0  0  0  0  0  0  0  0
   -1.7715   -2.0360   -0.0555 N   0  0  0  0  0  0  0  0  0  0  0  0
   -2.6549   -1.7196   -0.4357 H   0  0  0  0  0  0  0  0  0  0  0  0
   -0.5999   -1.1567   -0.2005 C   0  0  1  0  0  0  0  0  0  0  0  0
    0.2158   -1.8219   -0.5065 H   0  0  0  0  0  0  0  0  0  0  0  0
   -0.6733   -0.0668   -1.3057 C   0  0  0  0  0  0  0  0  0  0  0  0
   -1.0891    0.8324   -0.8393 H   0  0  0  0  0  0  0  0  0  0  0  0
    0.3643    0.1699   -1.5665 H   0  0  0  0  0  0  0  0  0  0  0  0
   -1.4697   -0.2465   -2.6022 C   0  0  0  0  0  0  0  0  0  0  0  0
   -2.6422   -1.0126   -2.7860 C   0  0  0  0  0  0  0  0  0  0  0  0
   -3.1269   -1.5527   -1.9893 H   0  0  0  0  0  0  0  0  0  0  0  0
   -3.2621   -1.0981   -4.0394 C   0  0  0  0  0  0  0  0  0  0  0  0
   -4.1604   -1.6954   -4.1517 H   0  0  0  0  0  0  0  0  0  0  0  0
   -2.7352   -0.4201   -5.1367 C   0  0  0  0  0  0  0  0  0  0  0  0
   -3.3300   -0.5017   -6.3626 O   0  0  0  0  0  0  0  0  0  0  0  0
   -4.0874   -1.1058   -6.3290 H   0  0  0  0  0  0  0  0  0  0  0  0
   -1.5900    0.3497   -4.9749 C   0  0  0  0  0  0  0  0  0  0  0  0
   -1.1835    0.8804   -5.8298 H   0  0  0  0  0  0  0  0  0  0  0  0
   -0.9671    0.4361   -3.7262 C   0  0  0  0  0  0  0  0  0  0  0  0
   -0.0727    1.0470   -3.6386 H   0  0  0  0  0  0  0  0  0  0  0  0
   -0.1282   -0.5098    1.1197 C   0  0  0  0  0  0  0  0  0  0  0  0
    1.0584   -0.2588    1.2810 O   0  0  0  0  0  0  0  0  0  0  0  0
   -1.0515    0.0421    1.9904 N   0  0  0  0  0  0  0  0  0  0  0  0
   -2.0212   -0.2220    1.8561 H   0  0  0  0  0  0  0  0  0  0  0  0
   -0.6710    0.7216    3.2226 C   0  0  0  0  0  0  0  0  0  0  0  0
   -0.0116    1.5686    3.0057 H   0  0  0  0  0  0  0  0  0  0  0  0
   -1.5597    1.1007    3.7360 H   0  0  0  0  0  0  0  0  0  0  0  0
   -0.1486    0.0313    3.8932 H   0  0  0  0  0  0  0  0  0  0  0  0
  1  2  1  0  0  0  0
  2  3  1  0  0  0  0
  2  4  1  0  0  0  0
  2  5  1  0  0  0  0
  5  6  2  0  0  0  0
  5  7  1  0  0  0  0
  7  8  1  0  0  0  0
  7  9  1  0  0  0  0
  9 10  1  0  0  0  0
  9 11  1  0  0  0  0
  9 26  1  0  0  0  0
 11 12  1  0  0  0  0
 11 13  1  0  0  0  0
 11 14  1  0  0  0  0
 14 15  2  0  0  0  0
 14 24  1  0  0  0  0
 15 16  1  0  0  0  0
 15 17  1  0  0  0  0
 17 18  1  0  0  0  0
 17 19  2  0  0  0  0
 19 20  1  0  0  0  0
 19 22  1  0  0  0  0
 20 21  1  0  0  0  0
 22 23  1  0  0  0  0
 22 24  2  0  0  0  0
 24 25  1  0  0  0  0
 26 27  2  0  0  0  0
 26 28  1  0  0  0  0
 28 29  1  0  0  0  0
 28 30  1  0  0  0  0
 30 31  1  0  0  0  0
 30 32  1  0  0  0  0
 30 33  1  0  0  0  0
M  END
$$$$

  -OEChem-03222214083D

 33 33  0     1  0  0  0  0  0999 V2000
   -3.0490   -4.8208    1.2048 H   0  0  0  0  0  0  0  0  0  0  0  0
   -3.1142   -3.9812    0.5067 C   0  0  0  0  0  0  0  0  0  0  0  0
   -4.0680   -3.4706    0.6588 H   0  0  0  0  0  0  0  0  0  0  0  0
   -3.0744   -4.3706   -0.5136 H   0  0  0  0  0  0  0  0  0  0  0  0
   -1.9658   -3.0171    0.7405 C   0  0  0  0  0  0  0  0  0  0  0  0
   -1.1799   -3.2236    1.6471 O   0  0  0  0  0  0  0  0  0  0  0  0
   -1.8303   -1.9120   -0.0781 N   0  0  0  0  0  0  0  0  0  0  0  0
   -2.3929   -1.9466   -0.9212 H   0  0  0  0  0  0  0  0  0  0  0  0
   -0.5987   -1.1050   -0.1577 C   0  0  1  0  0  0  0  0  0  0  0  0
    0.2002   -1.8042   -0.4289 H   0  0  0  0  0  0  0  0  0  0  0  0
   -0.5936    0.0121   -1.2404 C   0  0  0  0  0  0  0  0  0  0  0  0
   -0.9791    0.9266   -0.7768 H   0  0  0  0  0  0  0  0  0  0  0  0
    0.4547    0.2116   -1.4883 H   0  0  0  0  0  0  0  0  0  0  0  0
   -1.3964   -0.1565   -2.5284 C   0  0  0  0  0  0  0  0  0  0  0  0
   -2.7259   -0.6215   -2.5895 C   0  0  0  0  0  0  0  0  0  0  0  0
   -3.3155   -0.7570   -1.6904 H   0  0  0  0  0  0  0  0  0  0  0  0
   -3.3619   -0.8331   -3.8189 C   0  0  0  0  0  0  0  0  0  0  0  0
   -4.3922   -1.1718   -3.8387 H   0  0  0  0  0  0  0  0  0  0  0  0
   -2.6823   -0.5923   -5.0124 C   0  0  0  0  0  0  0  0  0  0  0  0
   -3.2908   -0.7938   -6.2175 O   0  0  0  0  0  0  0  0  0  0  0  0
   -4.2078   -1.0804   -6.0880 H   0  0  0  0  0  0  0  0  0  0  0  0
   -1.3704   -0.1319   -4.9708 C   0  0  0  0  0  0  0  0  0  0  0  0
   -0.8457    0.0552   -5.9022 H   0  0  0  0  0  0  0  0  0  0  0  0
   -0.7329    0.0831   -3.7446 C   0  0  0  0  0  0  0  0  0  0  0  0
    0.2966    0.4304   -3.7490 H   0  0  0  0  0  0  0  0  0  0  0  0
   -0.1691   -0.4600    1.1789 C   0  0  0  0  0  0  0  0  0  0  0  0
    1.0203   -0.2730    1.4005 O   0  0  0  0  0  0  0  0  0  0  0  0
   -1.1096    0.1633    1.9792 N   0  0  0  0  0  0  0  0  0  0  0  0
   -2.0753   -0.1014    1.8143 H   0  0  0  0  0  0  0  0  0  0  0  0
   -0.7664    0.8064    3.2410 C   0  0  0  0  0  0  0  0  0  0  0  0
   -0.0332    1.6036    3.0793 H   0  0  0  0  0  0  0  0  0  0  0  0
   -1.6586    1.2478    3.6949 H   0  0  0  0  0  0  0  0  0  0  0  0
   -0.3447    0.0761    3.9395 H   0  0  0  0  0  0  0  0  0  0  0  0
  1  2  1  0  0  0  0
  2  3  1  0  0  0  0
  2  4  1  0  0  0  0
  2  5  1  0  0  0  0
  5  6  2  0  0  0  0
  5  7  1  0  0  0  0
  7  8  1  0  0  0  0
  7  9  1  0  0  0  0
  9 10  1  0  0  0  0
  9 11  1  0  0  0  0
  9 26  1  0  0  0  0
 11 12  1  0  0  0  0
 11 13  1  0  0  0  0
 11 14  1  0  0  0  0
 14 15  2  0  0  0  0
 14 24  1  0  0  0  0
 15 16  1  0  0  0  0
 15 17  1  0  0  0  0
 17 18  1  0  0  0  0
 17 19  2  0  0  0  0
 19 20  1  0  0  0  0
 19 22  1  0  0  0  0
 20 21  1  0  0  0  0
 22 23  1  0  0  0  0
 22 24  2  0  0  0  0
 24 25  1  0  0  0  0
 26 27  2  0  0  0  0
 26 28  1  0  0  0  0
 28 29  1  0  0  0  0
 28 30  1  0  0  0  0
 30 31  1  0  0  0  0
 30 32  1  0  0  0  0
 30 33  1  0  0  0  0
M  END
$$$$

  -OEChem-03222214083D

 33 33  0     1  0  0  0  0  0999 V2000
   -3.1606   -4.7671    0.9707 H   0  0  0  0  0  0  0  0  0  0  0  0
   -3.1820   -3.8973    0.3077 C   0  0  0  0  0  0  0  0  0  0  0  0
   -4.1207   -3.3603    0.4619 H   0  0  0  0  0  0  0  0  0  0  0  0
   -3.1332   -4.2442   -0.7273 H   0  0  0  0  0  0  0  0  0  0  0  0
   -2.0067   -2.9851    0.6057 C   0  0  0  0  0  0  0  0  0  0  0  0
   -1.2516   -3.2519    1.5231 O   0  0  0  0  0  0  0  0  0  0  0  0
   -1.8097   -1.8564   -0.1661 N   0  0  0  0  0  0  0  0  0  0  0  0
   -2.3652   -1.8192   -1.0161 H   0  0  0  0  0  0  0  0  0  0  0  0
   -0.5527   -1.0834   -0.1797 C   0  0  1  0  0  0  0  0  0  0  0  0
    0.2358   -1.7915   -0.4580 H   0  0  0  0  0  0  0  0  0  0  0  0
   -0.5183    0.0595   -1.2296 C   0  0  0  0  0  0  0  0  0  0  0  0
   -0.9005    0.9717   -0.7587 H   0  0  0  0  0  0  0  0  0  0  0  0
    0.5300    0.2565   -1.4786 H   0  0  0  0  0  0  0  0  0  0  0  0
   -1.3250   -0.1321   -2.5048 C   0  0  0  0  0  0  0  0  0  0  0  0
   -2.7207   -0.3141   -2.5002 C   0  0  0  0  0  0  0  0  0  0  0  0
   -3.2804   -0.2260   -1.5737 H   0  0  0  0  0  0  0  0  0  0  0  0
   -3.4167   -0.5559   -3.6904 C   0  0  0  0  0  0  0  0  0  0  0  0
   -4.4945   -0.6770   -3.6670 H   0  0  0  0  0  0  0  0  0  0  0  0
   -2.7285   -0.6283   -4.9024 C   0  0  0  0  0  0  0  0  0  0  0  0
   -3.3940   -0.8639   -6.0706 O   0  0  0  0  0  0  0  0  0  0  0  0
   -4.3478   -0.9269   -5.9086 H   0  0  0  0  0  0  0  0  0  0  0  0
   -1.3470   -0.4540   -4.9191 C   0  0  0  0  0  0  0  0  0  0  0  0
   -0.8174   -0.5126   -5.8647 H   0  0  0  0  0  0  0  0  0  0  0  0
   -0.6481   -0.2092   -3.7322 C   0  0  0  0  0  0  0  0  0  0  0  0
    0.4309   -0.0878   -3.7718 H   0  0  0  0  0  0  0  0  0  0  0  0
   -0.1388   -0.4948    1.1863 C   0  0  0  0  0  0  0  0  0  0  0  0
    1.0493   -0.3474    1.4415 O   0  0  0  0  0  0  0  0  0  0  0  0
   -1.0815    0.1313    1.9817 N   0  0  0  0  0  0  0  0  0  0  0  0
   -2.0488   -0.1092    1.7915 H   0  0  0  0  0  0  0  0  0  0  0  0
   -0.7513    0.7300    3.2686 C   0  0  0  0  0  0  0  0  0  0  0  0
    0.0089    1.5086    3.1461 H   0  0  0  0  0  0  0  0  0  0  0  0
   -1.6411    1.1861    3.7128 H   0  0  0  0  0  0  0  0  0  0  0  0
   -0.3684   -0.0311    3.9565 H   0  0  0  0  0  0  0  0  0  0  0  0
  1  2  1  0  0  0  0
  2  3  1  0  0  0  0
  2  4  1  0  0  0  0
  2  5  1  0  0  0  0
  5  6  2  0  0  0  0
  5  7  1  0  0  0  0
  7  8  1  0  0  0  0
  7  9  1  0  0  0  0
  9 10  1  0  0  0  0
  9 11  1  0  0  0  0
  9 26  1  0  0  0  0
 11 12  1  0  0  0  0
 11 13  1  0  0  0  0
 11 14  1  0  0  0  0
 14 15  2  0  0  0  0
 14 24  1  0  0  0  0
 15 16  1  0  0  0  0
 15 17  1  0  0  0  0
 17 18  1  0  0  0  0
 17 19  2  0  0  0  0
 19 20  1  0  0  0  0
 19 22  1  0  0  0  0
 20 21  1  0  0  0  0
 22 23  1  0  0  0  0
 22 24  2  0  0  0  0
 24 25  1  0  0  0  0
 26 27  2  0  0  0  0
 26 28  1  0  0  0  0
 28 29  1  0  0  0  0
 28 30  1  0  0  0  0
 30 31  1  0  0  0  0
 30 32  1  0  0  0  0
 30 33  1  0  0  0  0
M  END
$$$$

  -OEChem-03222214083D

 33 33  0     1  0  0  0  0  0999 V2000
   -3.2224   -4.7033    0.8091 H   0  0  0  0  0  0  0  0  0  0  0  0
   -3.2156   -3.8136    0.1730 C   0  0  0  0  0  0  0  0  0  0  0  0
   -4.1402   -3.2555    0.3374 H   0  0  0  0  0  0  0  0  0  0  0  0
   -3.1687   -4.1302   -0.8718 H   0  0  0  0  0  0  0  0  0  0  0  0
   -2.0182   -2.9439    0.5059 C   0  0  0  0  0  0  0  0  0  0  0  0
   -1.2856   -3.2508    1.4291 O   0  0  0  0  0  0  0  0  0  0  0  0
   -1.7774   -1.8038   -0.2349 N   0  0  0  0  0  0  0  0  0  0  0  0
   -2.3293   -1.7105   -1.0843 H   0  0  0  0  0  0  0  0  0  0  0  0
   -0.5098   -1.0482   -0.1927 C   0  0  1  0  0  0  0  0  0  0  0  0
    0.2805   -1.7563   -0.4658 H   0  0  0  0  0  0  0  0  0  0  0  0
   -0.4645    0.1037   -1.2261 C   0  0  0  0  0  0  0  0  0  0  0  0
   -0.8540    1.0148   -0.7592 H   0  0  0  0  0  0  0  0  0  0  0  0
    0.5820    0.3052   -1.4793 H   0  0  0  0  0  0  0  0  0  0  0  0
   -1.2680   -0.1374   -2.4895 C   0  0  0  0  0  0  0  0  0  0  0  0
   -2.6708   -0.0428   -2.4919 C   0  0  0  0  0  0  0  0  0  0  0  0
   -3.1949    0.2651   -1.5912 H   0  0  0  0  0  0  0  0  0  0  0  0
   -3.4018   -0.3224   -3.6525 C   0  0  0  0  0  0  0  0  0  0  0  0
   -4.4831   -0.2351   -3.6397 H   0  0  0  0  0  0  0  0  0  0  0  0
   -2.7409   -0.7059   -4.8212 C   0  0  0  0  0  0  0  0  0  0  0  0
   -3.4407   -0.9829   -5.9600 O   0  0  0  0  0  0  0  0  0  0  0  0
   -4.3849   -0.8068   -5.8270 H   0  0  0  0  0  0  0  0  0  0  0  0
   -1.3513   -0.8080   -4.8245 C   0  0  0  0  0  0  0  0  0  0  0  0
   -0.8455   -1.1088   -5.7366 H   0  0  0  0  0  0  0  0  0  0  0  0
   -0.6157   -0.5279   -3.6678 C   0  0  0  0  0  0  0  0  0  0  0  0
    0.4667   -0.6234   -3.6891 H   0  0  0  0  0  0  0  0  0  0  0  0
   -0.1286   -0.4898    1.1948 C   0  0  0  0  0  0  0  0  0  0  0  0
    1.0533   -0.3645    1.4882 O   0  0  0  0  0  0  0  0  0  0  0  0
   -1.0866    0.1360    1.9722 N   0  0  0  0  0  0  0  0  0  0  0  0
   -2.0499   -0.0945    1.7518 H   0  0  0  0  0  0  0  0  0  0  0  0
   -0.7881    0.7009    3.2819 C   0  0  0  0  0  0  0  0  0  0  0  0
   -0.0057    1.4632    3.2027 H   0  0  0  0  0  0  0  0  0  0  0  0
   -1.6822    1.1694    3.7040 H   0  0  0  0  0  0  0  0  0  0  0  0
   -0.4482   -0.0827    3.9673 H   0  0  0  0  0  0  0  0  0  0  0  0
  1  2  1  0  0  0  0
  2  3  1  0  0  0  0
  2  4  1  0  0  0  0
  2  5  1  0  0  0  0
  5  6  2  0  0  0  0
  5  7  1  0  0  0  0
  7  8  1  0  0  0  0
  7  9  1  0  0  0  0
  9 10  1  0  0  0  0
  9 11  1  0  0  0  0
  9 26  1  0  0  0  0
 11 12  1  0  0  0  0
 11 13  1  0  0  0  0
 11 14  1  0  0  0  0
 14 15  2  0  0  0  0
 14 24  1  0  0  0  0
 15 16  1  0  0  0  0
 15 17  1  0  0  0  0
 17 18  1  0  0  0  0
 17 19  2  0  0  0  0
 19 20  1  0  0  0  0
 19 22  1  0  0  0  0
 20 21  1  0  0  0  0
 22 23  1  0  0  0  0
 22 24  2  0  0  0  0
 24 25  1  0  0  0  0
 26 27  2  0  0  0  0
 26 28  1  0  0  0  0
 28 29  1  0  0  0  0
 28 30  1  0  0  0  0
 30 31  1  0  0  0  0
 30 32  1  0  0  0  0
 30 33  1  0  0  0  0
M  END
$$$$

  -OEChem-03222214083D

 33 33  0     1  0  0  0  0  0999 V2000
   -3.2621   -4.6622    0.7111 H   0  0  0  0  0  0  0  0  0  0  0  0
   -3.2367   -3.7596    0.0940 C   0  0  0  0  0  0  0  0  0  0  0  0
   -4.1502   -3.1863    0.2694 H   0  0  0  0  0  0  0  0  0  0  0  0
   -3.1946   -4.0545   -0.9574 H   0  0  0  0  0  0  0  0  0  0  0  0
   -2.0225   -2.9213    0.4469 C   0  0  0  0  0  0  0  0  0  0  0  0
   -1.2998   -3.2578    1.3678 O   0  0  0  0  0  0  0  0  0  0  0  0
   -1.7537   -1.7752   -0.2738 N   0  0  0  0  0  0  0  0  0  0  0  0
   -2.3086   -1.6420   -1.1166 H   0  0  0  0  0  0  0  0  0  0  0  0
   -0.4817   -1.0284   -0.1985 C   0  0  1  0  0  0  0  0  0  0  0  0
    0.3112   -1.7349   -0.4672 H   0  0  0  0  0  0  0  0  0  0  0  0
   -0.4363    0.1261   -1.2251 C   0  0  0  0  0  0  0  0  0  0  0  0
   -0.8288    1.0375   -0.7617 H   0  0  0  0  0  0  0  0  0  0  0  0
    0.6075    0.3300   -1.4869 H   0  0  0  0  0  0  0  0  0  0  0  0
   -1.2385   -0.1526   -2.4783 C   0  0  0  0  0  0  0  0  0  0  0  0
   -2.5922    0.2124   -2.5591 C   0  0  0  0  0  0  0  0  0  0  0  0
   -3.0643    0.7360   -1.7320 H   0  0  0  0  0  0  0  0  0  0  0  0
   -3.3394   -0.0872   -3.7041 C   0  0  0  0  0  0  0  0  0  0  0  0
   -4.3821    0.2073   -3.7555 H   0  0  0  0  0  0  0  0  0  0  0  0
   -2.7438   -0.7577   -4.7746 C   0  0  0  0  0  0  0  0  0  0  0  0
   -3.4616   -1.0550   -5.8965 O   0  0  0  0  0  0  0  0  0  0  0  0
   -4.3486   -0.6670   -5.8410 H   0  0  0  0  0  0  0  0  0  0  0  0
   -1.4028   -1.1287   -4.6961 C   0  0  0  0  0  0  0  0  0  0  0  0
   -0.9491   -1.6518   -5.5320 H   0  0  0  0  0  0  0  0  0  0  0  0
   -0.6499   -0.8301   -3.5554 C   0  0  0  0  0  0  0  0  0  0  0  0
    0.3932   -1.1316   -3.5082 H   0  0  0  0  0  0  0  0  0  0  0  0
   -0.1201   -0.4851    1.1998 C   0  0  0  0  0  0  0  0  0  0  0  0
    1.0574   -0.3698    1.5134 O   0  0  0  0  0  0  0  0  0  0  0  0
   -1.0860    0.1410    1.9673 N   0  0  0  0  0  0  0  0  0  0  0  0
   -2.0475   -0.0774    1.7268 H   0  0  0  0  0  0  0  0  0  0  0  0
   -0.8057    0.6872    3.2894 C   0  0  0  0  0  0  0  0  0  0  0  0
   -0.0143    1.4422    3.2338 H   0  0  0  0  0  0  0  0  0  0  0  0
   -1.7023    1.1598    3.7013 H   0  0  0  0  0  0  0  0  0  0  0  0
   -0.4867   -0.1082    3.9713 H   0  0  0  0  0  0  0  0  0  0  0  0
  1  2  1  0  0  0  0
  2  3  1  0  0  0  0
  2  4  1  0  0  0  0
  2  5  1  0  0  0  0
  5  6  2  0  0  0  0
  5  7  1  0  0  0  0
  7  8  1  0  0  0  0
  7  9  1  0  0  0  0
  9 10  1  0  0  0  0
  9 11  1  0  0  0  0
  9 26  1  0  0  0  0
 11 12  1  0  0  0  0
 11 13  1  0  0  0  0
 11 14  1  0  0  0  0
 14 15  2  0  0  0  0
 14 24  1  0  0  0  0
 15 16  1  0  0  0  0
 15 17  1  0  0  0  0
 17 18  1  0  0  0  0
 17 19  2  0  0  0  0
 19 20  1  0  0  0  0
 19 22  1  0  0  0  0
 20 21  1  0  0  0  0
 22 23  1  0  0  0  0
 22 24  2  0  0  0  0
 24 25  1  0  0  0  0
 26 27  2  0  0  0  0
 26 28  1  0  0  0  0
 28 29  1  0  0  0  0
 28 30  1  0  0  0  0
 30 31  1  0  0  0  0
 30 32  1  0  0  0  0
 30 33  1  0  0  0  0
M  END
$$$$

  -OEChem-03222214083D

 33 33  0     1  0  0  0  0  0999 V2000
   -3.2862   -4.6436    0.6970 H   0  0  0  0  0  0  0  0  0  0  0  0
   -3.2505   -3.7371    0.0859 C   0  0  0  0  0  0  0  0  0  0  0  0
   -4.1543   -3.1517    0.2712 H   0  0  0  0  0  0  0  0  0  0  0  0
   -3.2204   -4.0253   -0.9679 H   0  0  0  0  0  0  0  0  0  0  0  0
   -2.0214   -2.9188    0.4350 C   0  0  0  0  0  0  0  0  0  0  0  0
   -1.2966   -3.2693    1.3489 O   0  0  0  0  0  0  0  0  0  0  0  0
   -1.7396   -1.7737   -0.2817 N   0  0  0  0  0  0  0  0  0  0  0  0
   -2.3048   -1.6171   -1.1137 H   0  0  0  0  0  0  0  0  0  0  0  0
   -0.4663   -1.0296   -0.1975 C   0  0  1  0  0  0  0  0  0  0  0  0
    0.3293   -1.7345   -0.4632 H   0  0  0  0  0  0  0  0  0  0  0  0
   -0.4270    0.1228   -1.2259 C   0  0  0  0  0  0  0  0  0  0  0  0
   -0.8181    1.0350   -0.7629 H   0  0  0  0  0  0  0  0  0  0  0  0
    0.6145    0.3266   -1.4963 H   0  0  0  0  0  0  0  0  0  0  0  0
   -1.2306   -0.1727   -2.4742 C   0  0  0  0  0  0  0  0  0  0  0  0
   -2.4753    0.4394   -2.6879 C   0  0  0  0  0  0  0  0  0  0  0  0
   -2.8639    1.1521   -1.9658 H   0  0  0  0  0  0  0  0  0  0  0  0
   -3.2247    0.1382   -3.8314 C   0  0  0  0  0  0  0  0  0  0  0  0
   -4.1841    0.6209   -3.9842 H   0  0  0  0  0  0  0  0  0  0  0  0
   -2.7377   -0.7747   -4.7696 C   0  0  0  0  0  0  0  0  0  0  0  0
   -3.4582   -1.0756   -5.8887 O   0  0  0  0  0  0  0  0  0  0  0  0
   -4.2467   -0.5136   -5.9414 H   0  0  0  0  0  0  0  0  0  0  0  0
   -1.5017   -1.3839   -4.5617 C   0  0  0  0  0  0  0  0  0  0  0  0
   -1.1289   -2.0890   -5.2978 H   0  0  0  0  0  0  0  0  0  0  0  0
   -0.7475   -1.0863   -3.4220 C   0  0  0  0  0  0  0  0  0  0  0  0
    0.2144   -1.5701   -3.2741 H   0  0  0  0  0  0  0  0  0  0  0  0
   -0.1133   -0.4863    1.2025 C   0  0  0  0  0  0  0  0  0  0  0  0
    1.0620   -0.3739    1.5256 O   0  0  0  0  0  0  0  0  0  0  0  0
   -1.0838    0.1424    1.9618 N   0  0  0  0  0  0  0  0  0  0  0  0
   -2.0440   -0.0693    1.7101 H   0  0  0  0  0  0  0  0  0  0  0  0
   -0.8146    0.6837    3.2881 C   0  0  0  0  0  0  0  0  0  0  0  0
   -0.0213    1.4372    3.2421 H   0  0  0  0  0  0  0  0  0  0  0  0
   -1.7142    1.1569    3.6930 H   0  0  0  0  0  0  0  0  0  0  0  0
   -0.5026   -0.1141    3.9704 H   0  0  0  0  0  0  0  0  0  0  0  0
  1  2  1  0  0  0  0
  2  3  1  0  0  0  0
  2  4  1  0  0  0  0
  2  5  1  0  0  0  0
  5  6  2  0  0  0  0
  5  7  1  0  0  0  0
  7  8  1  0  0  0  0
  7  9  1  0  0  0  0
  9 10  1  0  0  0  0
  9 11  1  0  0  0  0
  9 26  1  0  0  0  0
 11 12  1  0  0  0  0
 11 13  1  0  0  0  0
 11 14  1  0  0  0  0
 14 15  2  0  0  0  0
 14 24  1  0  0  0  0
 15 16  1  0  0  0  0
 15 17  1  0  0  0  0
 17 18  1  0  0  0  0
 17 19  2  0  0  0  0
 19 20  1  0  0  0  0
 19 22  1  0  0  0  0
 20 21  1  0  0  0  0
 22 23  1  0  0  0  0
 22 24  2  0  0  0  0
 24 25  1  0  0  0  0
 26 27  2  0  0  0  0
 26 28  1  0  0  0  0
 28 29  1  0  0  0  0
 28 30  1  0  0  0  0
 30 31  1  0  0  0  0
 30 32  1  0  0  0  0
 30 33  1  0  0  0  0
M  END
$$$$

  -OEChem-03222214083D

 33 33  0     1  0  0  0  0  0999 V2000
   -3.2982   -4.6408    0.7538 H   0  0  0  0  0  0  0  0  0  0  0  0
   -3.2580   -3.7427    0.1311 C   0  0  0  0  0  0  0  0  0  0  0  0
   -4.1521   -3.1434    0.3183 H   0  0  0  0  0  0  0  0  0  0  0  0
   -3.2428   -4.0440   -0.9192 H   0  0  0  0  0  0  0  0  0  0  0  0
   -2.0152   -2.9363    0.4571 C   0  0  0  0  0  0  0  0  0  0  0  0
   -1.2744   -3.2960    1.3544 O   0  0  0  0  0  0  0  0  0  0  0  0
   -1.7354   -1.7951   -0.2664 N   0  0  0  0  0  0  0  0  0  0  0  0
   -2.3210   -1.6235   -1.0815 H   0  0  0  0  0  0  0  0  0  0  0  0
   -0.4647   -1.0459   -0.1887 C   0  0  1  0  0  0  0  0  0  0  0  0
    0.3341   -1.7492   -0.4482 H   0  0  0  0  0  0  0  0  0  0  0  0
   -0.4342    0.0986   -1.2270 C   0  0  0  0  0  0  0  0  0  0  0  0
   -0.8262    1.0107   -0.7647 H   0  0  0  0  0  0  0  0  0  0  0  0
    0.6061    0.3035   -1.5021 H   0  0  0  0  0  0  0  0  0  0  0  0
   -1.2368   -0.2000   -2.4779 C   0  0  0  0  0  0  0  0  0  0  0  0
   -2.3121    0.6209   -2.8514 C   0  0  0  0  0  0  0  0  0  0  0  0
   -2.5790    1.4824   -2.2453 H   0  0  0  0  0  0  0  0  0  0  0  0
   -3.0526    0.3369   -4.0051 C   0  0  0  0  0  0  0  0  0  0  0  0
   -3.8840    0.9783   -4.2775 H   0  0  0  0  0  0  0  0  0  0  0  0
   -2.7206   -0.7616   -4.8006 C   0  0  0  0  0  0  0  0  0  0  0  0
   -3.4359   -1.0472   -5.9270 O   0  0  0  0  0  0  0  0  0  0  0  0
   -4.0953   -0.3550   -6.0901 H   0  0  0  0  0  0  0  0  0  0  0  0
   -1.6447   -1.5714   -4.4433 C   0  0  0  0  0  0  0  0  0  0  0  0
   -1.3874   -2.4175   -5.0729 H   0  0  0  0  0  0  0  0  0  0  0  0
   -0.8999   -1.2922   -3.2929 C   0  0  0  0  0  0  0  0  0  0  0  0
   -0.0586   -1.9292   -3.0331 H   0  0  0  0  0  0  0  0  0  0  0  0
   -0.1144   -0.4923    1.2082 C   0  0  0  0  0  0  0  0  0  0  0  0
    1.0599   -0.3763    1.5332 O   0  0  0  0  0  0  0  0  0  0  0  0
   -1.0875    0.1375    1.9634 N   0  0  0  0  0  0  0  0  0  0  0  0
   -2.0478   -0.0708    1.7089 H   0  0  0  0  0  0  0  0  0  0  0  0
   -0.8203    0.6976    3.2822 C   0  0  0  0  0  0  0  0  0  0  0  0
   -0.0353    1.4589    3.2241 H   0  0  0  0  0  0  0  0  0  0  0  0
   -1.7235    1.1661    3.6843 H   0  0  0  0  0  0  0  0  0  0  0  0
   -0.4986   -0.0885    3.9734 H   0  0  0  0  0  0  0  0  0  0  0  0
  1  2  1  0  0  0  0
  2  3  1  0  0  0  0
  2  4  1  0  0  0  0
  2  5  1  0  0  0  0
  5  6  2  0  0  0  0
  5  7  1  0  0  0  0
  7  8  1  0  0  0  0
  7  9  1  0  0  0  0
  9 10  1  0  0  0  0
  9 11  1  0  0  0  0
  9 26  1  0  0  0  0
 11 12  1  0  0  0  0
 11 13  1  0  0  0  0
 11 14  1  0  0  0  0
 14 15  2  0  0  0  0
 14 24  1  0  0  0  0
 15 16  1  0  0  0  0
 15 17  1  0  0  0  0
 17 18  1  0  0  0  0
 17 19  2  0  0  0  0
 19 20  1  0  0  0  0
 19 22  1  0  0  0  0
 20 21  1  0  0  0  0
 22 23  1  0  0  0  0
 22 24  2  0  0  0  0
 24 25  1  0  0  0  0
 26 27  2  0  0  0  0
 26 28  1  0  0  0  0
 28 29  1  0  0  0  0
 28 30  1  0  0  0  0
 30 31  1  0  0  0  0
 30 32  1  0  0  0  0
 30 33  1  0  0  0  0
M  END
$$$$

  -OEChem-03222214083D

 33 33  0     1  0  0  0  0  0999 V2000
   -3.2909   -4.6581    0.8697 H   0  0  0  0  0  0  0  0  0  0  0  0
   -3.2610   -3.7711    0.2305 C   0  0  0  0  0  0  0  0  0  0  0  0
   -4.1471   -3.1637    0.4290 H   0  0  0  0  0  0  0  0  0  0  0  0
   -3.2723   -4.0909   -0.8144 H   0  0  0  0  0  0  0  0  0  0  0  0
   -2.0069   -2.9657    0.5126 C   0  0  0  0  0  0  0  0  0  0  0  0
   -1.2400   -3.3206    1.3897 O   0  0  0  0  0  0  0  0  0  0  0  0
   -1.7438   -1.8319   -0.2289 N   0  0  0  0  0  0  0  0  0  0  0  0
   -2.3593   -1.6530   -1.0199 H   0  0  0  0  0  0  0  0  0  0  0  0
   -0.4799   -1.0696   -0.1753 C   0  0  1  0  0  0  0  0  0  0  0  0
    0.3224   -1.7706   -0.4302 H   0  0  0  0  0  0  0  0  0  0  0  0
   -0.4632    0.0601   -1.2318 C   0  0  0  0  0  0  0  0  0  0  0  0
   -0.8610    0.9717   -0.7730 H   0  0  0  0  0  0  0  0  0  0  0  0
    0.5755    0.2694   -1.5082 H   0  0  0  0  0  0  0  0  0  0  0  0
   -1.2631   -0.2342   -2.4884 C   0  0  0  0  0  0  0  0  0  0  0  0
   -2.1147    0.7428   -3.0277 C   0  0  0  0  0  0  0  0  0  0  0  0
   -2.2279    1.7028   -2.5316 H   0  0  0  0  0  0  0  0  0  0  0  0
   -2.8322    0.4918   -4.2034 C   0  0  0  0  0  0  0  0  0  0  0  0
   -3.4946    1.2551   -4.5973 H   0  0  0  0  0  0  0  0  0  0  0  0
   -2.6901   -0.7287   -4.8661 C   0  0  0  0  0  0  0  0  0  0  0  0
   -3.3844   -0.9843   -6.0128 O   0  0  0  0  0  0  0  0  0  0  0  0
   -3.8914   -0.2015   -6.2791 H   0  0  0  0  0  0  0  0  0  0  0  0
   -1.8213   -1.6914   -4.3570 C   0  0  0  0  0  0  0  0  0  0  0  0
   -1.7017   -2.6300   -4.8894 H   0  0  0  0  0  0  0  0  0  0  0  0
   -1.1011   -1.4453   -3.1836 C   0  0  0  0  0  0  0  0  0  0  0  0
   -0.4125   -2.2013   -2.8159 H   0  0  0  0  0  0  0  0  0  0  0  0
   -0.1223   -0.4938    1.2107 C   0  0  0  0  0  0  0  0  0  0  0  0
    1.0537   -0.3640    1.5239 O   0  0  0  0  0  0  0  0  0  0  0  0
   -1.0937    0.1368    1.9674 N   0  0  0  0  0  0  0  0  0  0  0  0
   -2.0549   -0.0765    1.7213 H   0  0  0  0  0  0  0  0  0  0  0  0
   -0.8193    0.7220    3.2739 C   0  0  0  0  0  0  0  0  0  0  0  0
   -0.0423    1.4899    3.1957 H   0  0  0  0  0  0  0  0  0  0  0  0
   -1.7233    1.1884    3.6768 H   0  0  0  0  0  0  0  0  0  0  0  0
   -0.4830   -0.0492    3.9748 H   0  0  0  0  0  0  0  0  0  0  0  0
  1  2  1  0  0  0  0
  2  3  1  0  0  0  0
  2  4  1  0  0  0  0
  2  5  1  0  0  0  0
  5  6  2  0  0  0  0
  5  7  1  0  0  0  0
  7  8  1  0  0  0  0
  7  9  1  0  0  0  0
  9 10  1  0  0  0  0
  9 11  1  0  0  0  0
  9 26  1  0  0  0  0
 11 12  1  0  0  0  0
 11 13  1  0  0  0  0
 11 14  1  0  0  0  0
 14 15  2  0  0  0  0
 14 24  1  0  0  0  0
 15 16  1  0  0  0  0
 15 17  1  0  0  0  0
 17 18  1  0  0  0  0
 17 19  2  0  0  0  0
 19 20  1  0  0  0  0
 19 22  1  0  0  0  0
 20 21  1  0  0  0  0
 22 23  1  0  0  0  0
 22 24  2  0  0  0  0
 24 25  1  0  0  0  0
 26 27  2  0  0  0  0
 26 28  1  0  0  0  0
 28 29  1  0  0  0  0
 28 30  1  0  0  0  0
 30 31  1  0  0  0  0
 30 32  1  0  0  0  0
 30 33  1  0  0  0  0
M  END
$$$$

  -OEChem-03222214083D

 33 33  0     1  0  0  0  0  0999 V2000
   -3.2716   -4.6797    1.0299 H   0  0  0  0  0  0  0  0  0  0  0  0
   -3.2622   -3.8069    0.3709 C   0  0  0  0  0  0  0  0  0  0  0  0
   -4.1384   -3.1918    0.5890 H   0  0  0  0  0  0  0  0  0  0  0  0
   -3.3145   -4.1492   -0.6654 H   0  0  0  0  0  0  0  0  0  0  0  0
   -1.9947   -3.0017    0.5887 C   0  0  0  0  0  0  0  0  0  0  0  0
   -1.1892   -3.3505    1.4328 O   0  0  0  0  0  0  0  0  0  0  0  0
   -1.7600   -1.8776   -0.1769 N   0  0  0  0  0  0  0  0  0  0  0  0
   -2.4219   -1.6860   -0.9261 H   0  0  0  0  0  0  0  0  0  0  0  0
   -0.5065   -1.0964   -0.1624 C   0  0  1  0  0  0  0  0  0  0  0  0
    0.3000   -1.7930   -0.4172 H   0  0  0  0  0  0  0  0  0  0  0  0
   -0.5120    0.0144   -1.2401 C   0  0  0  0  0  0  0  0  0  0  0  0
   -0.9150    0.9258   -0.7860 H   0  0  0  0  0  0  0  0  0  0  0  0
    0.5245    0.2294   -1.5206 H   0  0  0  0  0  0  0  0  0  0  0  0
   -1.3116   -0.2682   -2.5024 C   0  0  0  0  0  0  0  0  0  0  0  0
   -1.8983    0.8028   -3.1956 C   0  0  0  0  0  0  0  0  0  0  0  0
   -1.8353    1.8103   -2.7934 H   0  0  0  0  0  0  0  0  0  0  0  0
   -2.5787    0.5907   -4.4006 C   0  0  0  0  0  0  0  0  0  0  0  0
   -3.0413    1.4310   -4.9068 H   0  0  0  0  0  0  0  0  0  0  0  0
   -2.6516   -0.6902   -4.9494 C   0  0  0  0  0  0  0  0  0  0  0  0
   -3.3107   -0.9096   -6.1242 O   0  0  0  0  0  0  0  0  0  0  0  0
   -3.6343   -0.0708   -6.4880 H   0  0  0  0  0  0  0  0  0  0  0  0
   -2.0255   -1.7515   -4.3010 C   0  0  0  0  0  0  0  0  0  0  0  0
   -2.0584   -2.7384   -4.7513 H   0  0  0  0  0  0  0  0  0  0  0  0
   -1.3436   -1.5434   -3.0980 C   0  0  0  0  0  0  0  0  0  0  0  0
   -0.8271   -2.3819   -2.6390 H   0  0  0  0  0  0  0  0  0  0  0  0
   -0.1320   -0.4912    1.2065 C   0  0  0  0  0  0  0  0  0  0  0  0
    1.0473   -0.3390    1.4966 O   0  0  0  0  0  0  0  0  0  0  0  0
   -1.0992    0.1383    1.9694 N   0  0  0  0  0  0  0  0  0  0  0  0
   -2.0622   -0.0850    1.7402 H   0  0  0  0  0  0  0  0  0  0  0  0
   -0.8107    0.7526    3.2590 C   0  0  0  0  0  0  0  0  0  0  0  0
   -0.0454    1.5288    3.1524 H   0  0  0  0  0  0  0  0  0  0  0  0
   -1.7138    1.2150    3.6683 H   0  0  0  0  0  0  0  0  0  0  0  0
   -0.4524   -0.0006    3.9686 H   0  0  0  0  0  0  0  0  0  0  0  0
  1  2  1  0  0  0  0
  2  3  1  0  0  0  0
  2  4  1  0  0  0  0
  2  5  1  0  0  0  0
  5  6  2  0  0  0  0
  5  7  1  0  0  0  0
  7  8  1  0  0  0  0
  7  9  1  0  0  0  0
  9 10  1  0  0  0  0
  9 11  1  0  0  0  0
  9 26  1  0  0  0  0
 11 12  1  0  0  0  0
 11 13  1  0  0  0  0
 11 14  1  0  0  0  0
 14 15  2  0  0  0  0
 14 24  1  0  0  0  0
 15 16  1  0  0  0  0
 15 17  1  0  0  0  0
 17 18  1  0  0  0  0
 17 19  2  0  0  0  0
 19 20  1  0  0  0  0
 19 22  1  0  0  0  0
 20 21  1  0  0  0  0
 22 23  1  0  0  0  0
 22 24  2  0  0  0  0
 24 25  1  0  0  0  0
 26 27  2  0  0  0  0
 26 28  1  0  0  0  0
 28 29  1  0  0  0  0
 28 30  1  0  0  0  0
 30 31  1  0  0  0  0
 30 32  1  0  0  0  0
 30 33  1  0  0  0  0
M  END
$$$$

  -OEChem-03222214083D

 33 33  0     1  0  0  0  0  0999 V2000
   -3.2380   -4.6963    1.2236 H   0  0  0  0  0  0  0  0  0  0  0  0
   -3.2552   -3.8426    0.5400 C   0  0  0  0  0  0  0  0  0  0  0  0
   -4.1154   -3.2144    0.7835 H   0  0  0  0  0  0  0  0  0  0  0  0
   -3.3604   -4.2133   -0.4825 H   0  0  0  0  0  0  0  0  0  0  0  0
   -1.9736   -3.0415    0.6723 C   0  0  0  0  0  0  0  0  0  0  0  0
   -1.1239   -3.3800    1.4762 O   0  0  0  0  0  0  0  0  0  0  0  0
   -1.7787   -1.9285   -0.1207 N   0  0  0  0  0  0  0  0  0  0  0  0
   -2.4898   -1.7277   -0.8203 H   0  0  0  0  0  0  0  0  0  0  0  0
   -0.5409   -1.1246   -0.1540 C   0  0  1  0  0  0  0  0  0  0  0  0
    0.2694   -1.8160   -0.4109 H   0  0  0  0  0  0  0  0  0  0  0  0
   -0.5693   -0.0340   -1.2536 C   0  0  0  0  0  0  0  0  0  0  0  0
   -0.9771    0.8782   -0.8047 H   0  0  0  0  0  0  0  0  0  0  0  0
    0.4662    0.1860   -1.5348 H   0  0  0  0  0  0  0  0  0  0  0  0
   -1.3653   -0.2956   -2.5261 C   0  0  0  0  0  0  0  0  0  0  0  0
   -1.6545    0.8023   -3.3536 C   0  0  0  0  0  0  0  0  0  0  0  0
   -1.3932    1.8059   -3.0292 H   0  0  0  0  0  0  0  0  0  0  0  0
   -2.2962    0.6323   -4.5859 C   0  0  0  0  0  0  0  0  0  0  0  0
   -2.5342    1.5023   -5.1882 H   0  0  0  0  0  0  0  0  0  0  0  0
   -2.6143   -0.6476   -5.0387 C   0  0  0  0  0  0  0  0  0  0  0  0
   -3.2385   -0.8290   -6.2384 O   0  0  0  0  0  0  0  0  0  0  0  0
   -3.3785    0.0260   -6.6744 H   0  0  0  0  0  0  0  0  0  0  0  0
   -2.2619   -1.7526   -4.2697 C   0  0  0  0  0  0  0  0  0  0  0  0
   -2.4700   -2.7472   -4.6513 H   0  0  0  0  0  0  0  0  0  0  0  0
   -1.6192   -1.5847   -3.0388 C   0  0  0  0  0  0  0  0  0  0  0  0
   -1.2940   -2.4768   -2.5131 H   0  0  0  0  0  0  0  0  0  0  0  0
   -0.1476   -0.4875    1.1951 C   0  0  0  0  0  0  0  0  0  0  0  0
    1.0344   -0.3096    1.4569 O   0  0  0  0  0  0  0  0  0  0  0  0
   -1.1078    0.1375    1.9705 N   0  0  0  0  0  0  0  0  0  0  0  0
   -2.0733   -0.0934    1.7605 H   0  0  0  0  0  0  0  0  0  0  0  0
   -0.8002    0.7858    3.2393 C   0  0  0  0  0  0  0  0  0  0  0  0
   -0.0633    1.5830    3.0944 H   0  0  0  0  0  0  0  0  0  0  0  0
   -1.7047    1.2281    3.6675 H   0  0  0  0  0  0  0  0  0  0  0  0
   -0.3975    0.0583    3.9519 H   0  0  0  0  0  0  0  0  0  0  0  0
  1  2  1  0  0  0  0
  2  3  1  0  0  0  0
  2  4  1  0  0  0  0
  2  5  1  0  0  0  0
  5  6  2  0  0  0  0
  5  7  1  0  0  0  0
  7  8  1  0  0  0  0
  7  9  1  0  0  0  0
  9 10  1  0  0  0  0
  9 11  1  0  0  0  0
  9 26  1  0  0  0  0
 11 12  1  0  0  0  0
 11 13  1  0  0  0  0
 11 14  1  0  0  0  0
 14 15  2  0  0  0  0
 14 24  1  0  0  0  0
 15 16  1  0  0  0  0
 15 17  1  0  0  0  0
 17 18  1  0  0  0  0
 17 19  2  0  0  0  0
 19 20  1  0  0  0  0
 19 22  1  0  0  0  0
 20 21  1  0  0  0  0
 22 23  1  0  0  0  0
 22 24  2  0  0  0  0
 24 25  1  0  0  0  0
 26 27  2  0  0  0  0
 26 28  1  0  0  0  0
 28 29  1  0  0  0  0
 28 30  1  0  0  0  0
 30 31  1  0  0  0  0
 30 32  1  0  0  0  0
 30 33  1  0  0  0  0
M  END
$$$$

  -OEChem-03222214083D

 33 33  0     1  0  0  0  0  0999 V2000
   -2.9044   -4.8200    1.6050 H   0  0  0  0  0  0  0  0  0  0  0  0
   -3.0515   -3.9889    0.9093 C   0  0  0  0  0  0  0  0  0  0  0  0
   -3.8742   -3.3683    1.2721 H   0  0  0  0  0  0  0  0  0  0  0  0
   -3.3133   -4.3940   -0.0712 H   0  0  0  0  0  0  0  0  0  0  0  0
   -1.7829   -3.1635    0.8065 C   0  0  0  0  0  0  0  0  0  0  0  0
   -0.7950   -3.4841    1.4421 O   0  0  0  0  0  0  0  0  0  0  0  0
   -1.7588   -2.0472   -0.0060 N   0  0  0  0  0  0  0  0  0  0  0  0
   -2.6290   -1.7851   -0.4598 H   0  0  0  0  0  0  0  0  0  0  0  0
   -0.6092   -1.1394   -0.1477 C   0  0  1  0  0  0  0  0  0  0  0  0
    0.2311   -1.7833   -0.4324 H   0  0  0  0  0  0  0  0  0  0  0  0
   -0.7179   -0.0693   -1.2732 C   0  0  0  0  0  0  0  0  0  0  0  0
   -0.8927    0.8934   -0.7799 H   0  0  0  0  0  0  0  0  0  0  0  0
    0.2743   -0.0037   -1.7333 H   0  0  0  0  0  0  0  0  0  0  0  0
   -1.7410   -0.1270   -2.4108 C   0  0  0  0  0  0  0  0  0  0  0  0
   -1.6803    0.9423   -3.3237 C   0  0  0  0  0  0  0  0  0  0  0  0
   -0.9911    1.7631   -3.1430 H   0  0  0  0  0  0  0  0  0  0  0  0
   -2.5035    0.9958   -4.4536 C   0  0  0  0  0  0  0  0  0  0  0  0
   -2.4455    1.8527   -5.1162 H   0  0  0  0  0  0  0  0  0  0  0  0
   -3.3826   -0.0489   -4.7261 C   0  0  0  0  0  0  0  0  0  0  0  0
   -4.1917   -0.0151   -5.8245 O   0  0  0  0  0  0  0  0  0  0  0  0
   -4.0286    0.7942   -6.3335 H   0  0  0  0  0  0  0  0  0  0  0  0
   -3.4081   -1.1531   -3.8819 C   0  0  0  0  0  0  0  0  0  0  0  0
   -4.0615   -1.9837   -4.1287 H   0  0  0  0  0  0  0  0  0  0  0  0
   -2.5819   -1.2106   -2.7534 C   0  0  0  0  0  0  0  0  0  0  0  0
   -2.6026   -2.1448   -2.2122 H   0  0  0  0  0  0  0  0  0  0  0  0
   -0.1787   -0.4631    1.1721 C   0  0  0  0  0  0  0  0  0  0  0  0
    0.9976   -0.1778    1.3513 O   0  0  0  0  0  0  0  0  0  0  0  0
   -1.1334    0.0736    2.0177 N   0  0  0  0  0  0  0  0  0  0  0  0
   -2.0935   -0.2131    1.8606 H   0  0  0  0  0  0  0  0  0  0  0  0
   -0.7987    0.7694    3.2539 C   0  0  0  0  0  0  0  0  0  0  0  0
   -0.1935    1.6573    3.0426 H   0  0  0  0  0  0  0  0  0  0  0  0
   -1.7109    1.0882    3.7671 H   0  0  0  0  0  0  0  0  0  0  0  0
   -0.2356    0.1102    3.9231 H   0  0  0  0  0  0  0  0  0  0  0  0
  1  2  1  0  0  0  0
  2  3  1  0  0  0  0
  2  4  1  0  0  0  0
  2  5  1  0  0  0  0
  5  6  2  0  0  0  0
  5  7  1  0  0  0  0
  7  8  1  0  0  0  0
  7  9  1  0  0  0  0
  9 10  1  0  0  0  0
  9 11  1  0  0  0  0
  9 26  1  0  0  0  0
 11 12  1  0  0  0  0
 11 13  1  0  0  0  0
 11 14  1  0  0  0  0
 14 15  2  0  0  0  0
 14 24  1  0  0  0  0
 15 16  1  0  0  0  0
 15 17  1  0  0  0  0
 17 18  1  0  0  0  0
 17 19  2  0  0  0  0
 19 20  1  0  0  0  0
 19 22  1  0  0  0  0
 20 21  1  0  0  0  0
 22 23  1  0  0  0  0
 22 24  2  0  0  0  0
 24 25  1  0  0  0  0
 26 27  2  0  0  0  0
 26 28  1  0  0  0  0
 28 29  1  0  0  0  0
 28 30  1  0  0  0  0
 30 31  1  0  0  0  0
 30 32  1  0  0  0  0
 30 33  1  0  0  0  0
M  END
$$$$

  -OEChem-03222214083D

 33 33  0     1  0  0  0  0  0999 V2000
   -2.6135   -4.8134    1.8269 H   0  0  0  0  0  0  0  0  0  0  0  0
   -2.8461   -4.0090    1.1230 C   0  0  0  0  0  0  0  0  0  0  0  0
   -3.6419   -3.3915    1.5458 H   0  0  0  0  0  0  0  0  0  0  0  0
   -3.1949   -4.4523    0.1870 H   0  0  0  0  0  0  0  0  0  0  0  0
   -1.6110   -3.1655    0.8680 C   0  0  0  0  0  0  0  0  0  0  0  0
   -0.5607   -3.4454    1.4171 O   0  0  0  0  0  0  0  0  0  0  0  0
   -1.6923   -2.0739    0.0252 N   0  0  0  0  0  0  0  0  0  0  0  0
   -2.6179   -1.8175   -0.2940 H   0  0  0  0  0  0  0  0  0  0  0  0
   -0.5948   -1.1210   -0.2031 C   0  0  1  0  0  0  0  0  0  0  0  0
    0.2545   -1.7462   -0.5028 H   0  0  0  0  0  0  0  0  0  0  0  0
   -0.7631   -0.0914   -1.3604 C   0  0  0  0  0  0  0  0  0  0  0  0
   -0.9560    0.8804   -0.8932 H   0  0  0  0  0  0  0  0  0  0  0  0
    0.2216   -0.0130   -1.8343 H   0  0  0  0  0  0  0  0  0  0  0  0
   -1.8051   -0.1934   -2.4801 C   0  0  0  0  0  0  0  0  0  0  0  0
   -1.5689    0.6478   -3.5842 C   0  0  0  0  0  0  0  0  0  0  0  0
   -0.6952    1.2939   -3.5917 H   0  0  0  0  0  0  0  0  0  0  0  0
   -2.4314    0.6821   -4.6848 C   0  0  0  0  0  0  0  0  0  0  0  0
   -2.2108    1.3438   -5.5154 H   0  0  0  0  0  0  0  0  0  0  0  0
   -3.5631   -0.1280   -4.7088 C   0  0  0  0  0  0  0  0  0  0  0  0
   -4.4160   -0.1090   -5.7738 O   0  0  0  0  0  0  0  0  0  0  0  0
   -4.0934    0.5090   -6.4482 H   0  0  0  0  0  0  0  0  0  0  0  0
   -3.8233   -0.9655   -3.6306 C   0  0  0  0  0  0  0  0  0  0  0  0
   -4.7078   -1.5937   -3.6603 H   0  0  0  0  0  0  0  0  0  0  0  0
   -2.9622   -1.0033   -2.5274 C   0  0  0  0  0  0  0  0  0  0  0  0
   -3.2532   -1.6874   -1.7487 H   0  0  0  0  0  0  0  0  0  0  0  0
   -0.1247   -0.3908    1.0743 C   0  0  0  0  0  0  0  0  0  0  0  0
    1.0467   -0.0545    1.1839 O   0  0  0  0  0  0  0  0  0  0  0  0
   -1.0538    0.1272    1.9596 N   0  0  0  0  0  0  0  0  0  0  0  0
   -2.0105   -0.1928    1.8589 H   0  0  0  0  0  0  0  0  0  0  0  0
   -0.6822    0.8747    3.1546 C   0  0  0  0  0  0  0  0  0  0  0  0
   -0.1030    1.7646    2.8863 H   0  0  0  0  0  0  0  0  0  0  0  0
   -1.5782    1.1971    3.6935 H   0  0  0  0  0  0  0  0  0  0  0  0
   -0.0801    0.2507    3.8234 H   0  0  0  0  0  0  0  0  0  0  0  0
  1  2  1  0  0  0  0
  2  3  1  0  0  0  0
  2  4  1  0  0  0  0
  2  5  1  0  0  0  0
  5  6  2  0  0  0  0
  5  7  1  0  0  0  0
  7  8  1  0  0  0  0
  7  9  1  0  0  0  0
  9 10  1  0  0  0  0
  9 11  1  0  0  0  0
  9 26  1  0  0  0  0
 11 12  1  0  0  0  0
 11 13  1  0  0  0  0
 11 14  1  0  0  0  0
 14 15  2  0  0  0  0
 14 24  1  0  0  0  0
 15 16  1  0  0  0  0
 15 17  1  0  0  0  0
 17 18  1  0  0  0  0
 17 19  2  0  0  0  0
 19 20  1  0  0  0  0
 19 22  1  0  0  0  0
 20 21  1  0  0  0  0
 22 23  1  0  0  0  0
 22 24  2  0  0  0  0
 24 25  1  0  0  0  0
 26 27  2  0  0  0  0
 26 28  1  0  0  0  0
 28 29  1  0  0  0  0
 28 30  1  0  0  0  0
 30 31  1  0  0  0  0
 30 32  1  0  0  0  0
 30 33  1  0  0  0  0
M  END
$$$$

  -OEChem-03222214083D

 33 33  0     1  0  0  0  0  0999 V2000
   -2.5344   -5.0483    1.2796 H   0  0  0  0  0  0  0  0  0  0  0  0
   -2.7001   -4.2306    0.5723 C   0  0  0  0  0  0  0  0  0  0  0  0
   -3.6919   -3.8080    0.7491 H   0  0  0  0  0  0  0  0  0  0  0  0
   -2.6574   -4.6320   -0.4431 H   0  0  0  0  0  0  0  0  0  0  0  0
   -1.6401   -3.1603    0.7541 C   0  0  0  0  0  0  0  0  0  0  0  0
   -0.8015   -3.2826    1.6285 O   0  0  0  0  0  0  0  0  0  0  0  0
   -1.6429   -2.0534   -0.0728 N   0  0  0  0  0  0  0  0  0  0  0  0
   -2.2452   -2.1290   -0.8878 H   0  0  0  0  0  0  0  0  0  0  0  0
   -0.5184   -1.1060   -0.1802 C   0  0  1  0  0  0  0  0  0  0  0  0
    0.3547   -1.7104   -0.4504 H   0  0  0  0  0  0  0  0  0  0  0  0
   -0.6620   -0.0173   -1.2867 C   0  0  0  0  0  0  0  0  0  0  0  0
   -0.8789    0.9395   -0.7987 H   0  0  0  0  0  0  0  0  0  0  0  0
    0.3249    0.0916   -1.7490 H   0  0  0  0  0  0  0  0  0  0  0  0
   -1.7093   -0.1565   -2.3887 C   0  0  0  0  0  0  0  0  0  0  0  0
   -1.4077    0.4087   -3.6411 C   0  0  0  0  0  0  0  0  0  0  0  0
   -0.4173    0.8158   -3.8262 H   0  0  0  0  0  0  0  0  0  0  0  0
   -2.3469    0.4318   -4.6785 C   0  0  0  0  0  0  0  0  0  0  0  0
   -2.0649    0.8381   -5.6440 H   0  0  0  0  0  0  0  0  0  0  0  0
   -3.6361   -0.0522   -4.4653 C   0  0  0  0  0  0  0  0  0  0  0  0
   -4.5635   -0.0395   -5.4665 O   0  0  0  0  0  0  0  0  0  0  0  0
   -4.1740    0.3241   -6.2770 H   0  0  0  0  0  0  0  0  0  0  0  0
   -3.9890   -0.5160   -3.2026 C   0  0  0  0  0  0  0  0  0  0  0  0
   -5.0121   -0.8334   -3.0282 H   0  0  0  0  0  0  0  0  0  0  0  0
   -3.0506   -0.5358   -2.1653 C   0  0  0  0  0  0  0  0  0  0  0  0
   -3.4150   -0.8034   -1.1809 H   0  0  0  0  0  0  0  0  0  0  0  0
   -0.1507   -0.4026    1.1453 C   0  0  0  0  0  0  0  0  0  0  0  0
    1.0109   -0.0740    1.3492 O   0  0  0  0  0  0  0  0  0  0  0  0
   -1.1485    0.1100    1.9546 N   0  0  0  0  0  0  0  0  0  0  0  0
   -2.0800   -0.2617    1.7998 H   0  0  0  0  0  0  0  0  0  0  0  0
   -0.8707    0.8025    3.2062 C   0  0  0  0  0  0  0  0  0  0  0  0
   -0.2310    1.6738    3.0298 H   0  0  0  0  0  0  0  0  0  0  0  0
   -1.8034    1.1483    3.6618 H   0  0  0  0  0  0  0  0  0  0  0  0
   -0.3665    0.1315    3.9097 H   0  0  0  0  0  0  0  0  0  0  0  0
  1  2  1  0  0  0  0
  2  3  1  0  0  0  0
  2  4  1  0  0  0  0
  2  5  1  0  0  0  0
  5  6  2  0  0  0  0
  5  7  1  0  0  0  0
  7  8  1  0  0  0  0
  7  9  1  0  0  0  0
  9 10  1  0  0  0  0
  9 11  1  0  0  0  0
  9 26  1  0  0  0  0
 11 12  1  0  0  0  0
 11 13  1  0  0  0  0
 11 14  1  0  0  0  0
 14 15  2  0  0  0  0
 14 24  1  0  0  0  0
 15 16  1  0  0  0  0
 15 17  1  0  0  0  0
 17 18  1  0  0  0  0
 17 19  2  0  0  0  0
 19 20  1  0  0  0  0
 19 22  1  0  0  0  0
 20 21  1  0  0  0  0
 22 23  1  0  0  0  0
 22 24  2  0  0  0  0
 24 25  1  0  0  0  0
 26 27  2  0  0  0  0
 26 28  1  0  0  0  0
 28 29  1  0  0  0  0
 28 30  1  0  0  0  0
 30 31  1  0  0  0  0
 30 32  1  0  0  0  0
 30 33  1  0  0  0  0
M  END
$$$$

  -OEChem-03222214083D

 33 33  0     1  0  0  0  0  0999 V2000
   -2.9679   -4.9036    1.1574 H   0  0  0  0  0  0  0  0  0  0  0  0
   -3.0368   -4.0552    0.4705 C   0  0  0  0  0  0  0  0  0  0  0  0
   -3.9823   -3.5363    0.6456 H   0  0  0  0  0  0  0  0  0  0  0  0
   -3.0202   -4.4323   -0.5550 H   0  0  0  0  0  0  0  0  0  0  0  0
   -1.8742   -3.1063    0.6953 C   0  0  0  0  0  0  0  0  0  0  0  0
   -1.0722   -3.3297    1.5841 O   0  0  0  0  0  0  0  0  0  0  0  0
   -1.7410   -1.9901   -0.1069 N   0  0  0  0  0  0  0  0  0  0  0  0
   -2.3441   -1.9648   -0.9257 H   0  0  0  0  0  0  0  0  0  0  0  0
   -0.5334   -1.1430   -0.1541 C   0  0  1  0  0  0  0  0  0  0  0  0
    0.2939   -1.8156   -0.4068 H   0  0  0  0  0  0  0  0  0  0  0  0
   -0.5644   -0.0427   -1.2533 C   0  0  0  0  0  0  0  0  0  0  0  0
   -0.7321    0.9279   -0.7738 H   0  0  0  0  0  0  0  0  0  0  0  0
    0.4349    0.0042   -1.6982 H   0  0  0  0  0  0  0  0  0  0  0  0
   -1.6099   -0.1578   -2.3536 C   0  0  0  0  0  0  0  0  0  0  0  0
   -1.2196    0.0511   -3.6870 C   0  0  0  0  0  0  0  0  0  0  0  0
   -0.1697    0.1894   -3.9305 H   0  0  0  0  0  0  0  0  0  0  0  0
   -2.1621    0.0606   -4.7220 C   0  0  0  0  0  0  0  0  0  0  0  0
   -1.8277    0.1926   -5.7454 H   0  0  0  0  0  0  0  0  0  0  0  0
   -3.5192   -0.0874   -4.4360 C   0  0  0  0  0  0  0  0  0  0  0  0
   -4.4492   -0.0802   -5.4346 O   0  0  0  0  0  0  0  0  0  0  0  0
   -4.0170    0.0524   -6.2928 H   0  0  0  0  0  0  0  0  0  0  0  0
   -3.9302   -0.2120   -3.1121 C   0  0  0  0  0  0  0  0  0  0  0  0
   -4.9918   -0.2794   -2.8963 H   0  0  0  0  0  0  0  0  0  0  0  0
   -2.9899   -0.2178   -2.0767 C   0  0  0  0  0  0  0  0  0  0  0  0
   -3.3497   -0.2404   -1.0527 H   0  0  0  0  0  0  0  0  0  0  0  0
   -0.1493   -0.4908    1.1916 C   0  0  0  0  0  0  0  0  0  0  0  0
    1.0289   -0.2604    1.4313 O   0  0  0  0  0  0  0  0  0  0  0  0
   -1.1233    0.0999    1.9763 N   0  0  0  0  0  0  0  0  0  0  0  0
   -2.0771   -0.1975    1.7982 H   0  0  0  0  0  0  0  0  0  0  0  0
   -0.8217    0.7654    3.2373 C   0  0  0  0  0  0  0  0  0  0  0  0
   -0.1067    1.5799    3.0803 H   0  0  0  0  0  0  0  0  0  0  0  0
   -1.7334    1.1882    3.6697 H   0  0  0  0  0  0  0  0  0  0  0  0
   -0.3935    0.0541    3.9513 H   0  0  0  0  0  0  0  0  0  0  0  0
  1  2  1  0  0  0  0
  2  3  1  0  0  0  0
  2  4  1  0  0  0  0
  2  5  1  0  0  0  0
  5  6  2  0  0  0  0
  5  7  1  0  0  0  0
  7  8  1  0  0  0  0
  7  9  1  0  0  0  0
  9 10  1  0  0  0  0
  9 11  1  0  0  0  0
  9 26  1  0  0  0  0
 11 12  1  0  0  0  0
 11 13  1  0  0  0  0
 11 14  1  0  0  0  0
 14 15  2  0  0  0  0
 14 24  1  0  0  0  0
 15 16  1  0  0  0  0
 15 17  1  0  0  0  0
 17 18  1  0  0  0  0
 17 19  2  0  0  0  0
 19 20  1  0  0  0  0
 19 22  1  0  0  0  0
 20 21  1  0  0  0  0
 22 23  1  0  0  0  0
 22 24  2  0  0  0  0
 24 25  1  0  0  0  0
 26 27  2  0  0  0  0
 26 28  1  0  0  0  0
 28 29  1  0  0  0  0
 28 30  1  0  0  0  0
 30 31  1  0  0  0  0
 30 32  1  0  0  0  0
 30 33  1  0  0  0  0
M  END
$$$$

  -OEChem-03222214083D

 33 33  0     1  0  0  0  0  0999 V2000
   -3.0948   -4.8073    1.0363 H   0  0  0  0  0  0  0  0  0  0  0  0
   -3.1260   -3.9401    0.3704 C   0  0  0  0  0  0  0  0  0  0  0  0
   -4.0469   -3.3835    0.5593 H   0  0  0  0  0  0  0  0  0  0  0  0
   -3.1264   -4.2912   -0.6646 H   0  0  0  0  0  0  0  0  0  0  0  0
   -1.9228   -3.0499    0.6168 C   0  0  0  0  0  0  0  0  0  0  0  0
   -1.1310   -3.3288    1.4991 O   0  0  0  0  0  0  0  0  0  0  0  0
   -1.7424   -1.9207   -0.1562 N   0  0  0  0  0  0  0  0  0  0  0  0
   -2.3588   -1.8291   -0.9610 H   0  0  0  0  0  0  0  0  0  0  0  0
   -0.5118   -1.1046   -0.1651 C   0  0  1  0  0  0  0  0  0  0  0  0
    0.3043   -1.7881   -0.4242 H   0  0  0  0  0  0  0  0  0  0  0  0
   -0.5218    0.0124   -1.2434 C   0  0  0  0  0  0  0  0  0  0  0  0
   -0.6818    0.9795   -0.7544 H   0  0  0  0  0  0  0  0  0  0  0  0
    0.4740    0.0580   -1.6964 H   0  0  0  0  0  0  0  0  0  0  0  0
   -1.5799   -0.1155   -2.3246 C   0  0  0  0  0  0  0  0  0  0  0  0
   -1.1978   -0.2301   -3.6702 C   0  0  0  0  0  0  0  0  0  0  0  0
   -0.1457   -0.2941   -3.9345 H   0  0  0  0  0  0  0  0  0  0  0  0
   -2.1622   -0.2807   -4.6840 C   0  0  0  0  0  0  0  0  0  0  0  0
   -1.8453   -0.3907   -5.7157 H   0  0  0  0  0  0  0  0  0  0  0  0
   -3.5185   -0.1829   -4.3685 C   0  0  0  0  0  0  0  0  0  0  0  0
   -4.4677   -0.2332   -5.3475 O   0  0  0  0  0  0  0  0  0  0  0  0
   -4.0464   -0.3201   -6.2169 H   0  0  0  0  0  0  0  0  0  0  0  0
   -3.9058   -0.0142   -3.0411 C   0  0  0  0  0  0  0  0  0  0  0  0
   -4.9610    0.0908   -2.8094 H   0  0  0  0  0  0  0  0  0  0  0  0
   -2.9454    0.0396   -2.0260 C   0  0  0  0  0  0  0  0  0  0  0  0
   -3.2646    0.2128   -1.0020 H   0  0  0  0  0  0  0  0  0  0  0  0
   -0.1344   -0.4917    1.2002 C   0  0  0  0  0  0  0  0  0  0  0  0
    1.0445   -0.2987    1.4674 O   0  0  0  0  0  0  0  0  0  0  0  0
   -1.1081    0.1069    1.9793 N   0  0  0  0  0  0  0  0  0  0  0  0
   -2.0637   -0.1700    1.7799 H   0  0  0  0  0  0  0  0  0  0  0  0
   -0.8154    0.7221    3.2678 C   0  0  0  0  0  0  0  0  0  0  0  0
   -0.0755    1.5213    3.1535 H   0  0  0  0  0  0  0  0  0  0  0  0
   -1.7247    1.1556    3.6946 H   0  0  0  0  0  0  0  0  0  0  0  0
   -0.4229   -0.0244    3.9666 H   0  0  0  0  0  0  0  0  0  0  0  0
  1  2  1  0  0  0  0
  2  3  1  0  0  0  0
  2  4  1  0  0  0  0
  2  5  1  0  0  0  0
  5  6  2  0  0  0  0
  5  7  1  0  0  0  0
  7  8  1  0  0  0  0
  7  9  1  0  0  0  0
  9 10  1  0  0  0  0
  9 11  1  0  0  0  0
  9 26  1  0  0  0  0
 11 12  1  0  0  0  0
 11 13  1  0  0  0  0
 11 14  1  0  0  0  0
 14 15  2  0  0  0  0
 14 24  1  0  0  0  0
 15 16  1  0  0  0  0
 15 17  1  0  0  0  0
 17 18  1  0  0  0  0
 17 19  2  0  0  0  0
 19 20  1  0  0  0  0
 19 22  1  0  0  0  0
 20 21  1  0  0  0  0
 22 23  1  0  0  0  0
 22 24  2  0  0  0  0
 24 25  1  0  0  0  0
 26 27  2  0  0  0  0
 26 28  1  0  0  0  0
 28 29  1  0  0  0  0
 28 30  1  0  0  0  0
 30 31  1  0  0  0  0
 30 32  1  0  0  0  0
 30 33  1  0  0  0  0
M  END
$$$$

  -OEChem-03222214083D

 33 33  0     1  0  0  0  0  0999 V2000
   -3.2065   -4.7244    0.9342 H   0  0  0  0  0  0  0  0  0  0  0  0
   -3.2029   -3.8447    0.2844 C   0  0  0  0  0  0  0  0  0  0  0  0
   -4.1018   -3.2564    0.4828 H   0  0  0  0  0  0  0  0  0  0  0  0
   -3.2156   -4.1771   -0.7564 H   0  0  0  0  0  0  0  0  0  0  0  0
   -1.9657   -3.0066    0.5465 C   0  0  0  0  0  0  0  0  0  0  0  0
   -1.1810   -3.3367    1.4176 O   0  0  0  0  0  0  0  0  0  0  0  0
   -1.7444   -1.8666   -0.1992 N   0  0  0  0  0  0  0  0  0  0  0  0
   -2.3706   -1.7140   -0.9874 H   0  0  0  0  0  0  0  0  0  0  0  0
   -0.4961   -1.0774   -0.1742 C   0  0  1  0  0  0  0  0  0  0  0  0
    0.3103   -1.7700   -0.4393 H   0  0  0  0  0  0  0  0  0  0  0  0
   -0.4884    0.0560   -1.2323 C   0  0  0  0  0  0  0  0  0  0  0  0
   -0.6381    1.0199   -0.7330 H   0  0  0  0  0  0  0  0  0  0  0  0
    0.5043    0.0970   -1.6928 H   0  0  0  0  0  0  0  0  0  0  0  0
   -1.5542   -0.0737   -2.3023 C   0  0  0  0  0  0  0  0  0  0  0  0
   -1.2124   -0.4943   -3.5959 C   0  0  0  0  0  0  0  0  0  0  0  0
   -0.1829   -0.7500   -3.8308 H   0  0  0  0  0  0  0  0  0  0  0  0
   -2.1928   -0.5999   -4.5898 C   0  0  0  0  0  0  0  0  0  0  0  0
   -1.9116   -0.9373   -5.5817 H   0  0  0  0  0  0  0  0  0  0  0  0
   -3.5199   -0.2715   -4.3053 C   0  0  0  0  0  0  0  0  0  0  0  0
   -4.4846   -0.3727   -5.2650 O   0  0  0  0  0  0  0  0  0  0  0  0
   -4.0878   -0.6243   -6.1136 H   0  0  0  0  0  0  0  0  0  0  0  0
   -3.8620    0.1722   -3.0294 C   0  0  0  0  0  0  0  0  0  0  0  0
   -4.8934    0.4402   -2.8234 H   0  0  0  0  0  0  0  0  0  0  0  0
   -2.8861    0.2833   -2.0337 C   0  0  0  0  0  0  0  0  0  0  0  0
   -3.1649    0.6489   -1.0493 H   0  0  0  0  0  0  0  0  0  0  0  0
   -0.1225   -0.4977    1.2062 C   0  0  0  0  0  0  0  0  0  0  0  0
    1.0569   -0.3372    1.4918 O   0  0  0  0  0  0  0  0  0  0  0  0
   -1.0920    0.1088    1.9844 N   0  0  0  0  0  0  0  0  0  0  0  0
   -2.0522   -0.1351    1.7647 H   0  0  0  0  0  0  0  0  0  0  0  0
   -0.8009    0.7023    3.2832 C   0  0  0  0  0  0  0  0  0  0  0  0
   -0.0509    1.4944    3.1846 H   0  0  0  0  0  0  0  0  0  0  0  0
   -1.7078    1.1399    3.7111 H   0  0  0  0  0  0  0  0  0  0  0  0
   -0.4210   -0.0578    3.9739 H   0  0  0  0  0  0  0  0  0  0  0  0
  1  2  1  0  0  0  0
  2  3  1  0  0  0  0
  2  4  1  0  0  0  0
  2  5  1  0  0  0  0
  5  6  2  0  0  0  0
  5  7  1  0  0  0  0
  7  8  1  0  0  0  0
  7  9  1  0  0  0  0
  9 10  1  0  0  0  0
  9 11  1  0  0  0  0
  9 26  1  0  0  0  0
 11 12  1  0  0  0  0
 11 13  1  0  0  0  0
 11 14  1  0  0  0  0
 14 15  2  0  0  0  0
 14 24  1  0  0  0  0
 15 16  1  0  0  0  0
 15 17  1  0  0  0  0
 17 18  1  0  0  0  0
 17 19  2  0  0  0  0
 19 20  1  0  0  0  0
 19 22  1  0  0  0  0
 20 21  1  0  0  0  0
 22 23  1  0  0  0  0
 22 24  2  0  0  0  0
 24 25  1  0  0  0  0
 26 27  2  0  0  0  0
 26 28  1  0  0  0  0
 28 29  1  0  0  0  0
 28 30  1  0  0  0  0
 30 31  1  0  0  0  0
 30 32  1  0  0  0  0
 30 33  1  0  0  0  0
M  END
$$$$

  -OEChem-03222214083D

 33 33  0     1  0  0  0  0  0999 V2000
   -3.2699   -4.6623    0.8703 H   0  0  0  0  0  0  0  0  0  0  0  0
   -3.2497   -3.7716    0.2359 C   0  0  0  0  0  0  0  0  0  0  0  0
   -4.1315   -3.1640    0.4533 H   0  0  0  0  0  0  0  0  0  0  0  0
   -3.2799   -4.0847   -0.8107 H   0  0  0  0  0  0  0  0  0  0  0  0
   -1.9893   -2.9704    0.5015 C   0  0  0  0  0  0  0  0  0  0  0  0
   -1.2060   -3.3337    1.3608 O   0  0  0  0  0  0  0  0  0  0  0  0
   -1.7437   -1.8263   -0.2297 N   0  0  0  0  0  0  0  0  0  0  0  0
   -2.3793   -1.6334   -1.0019 H   0  0  0  0  0  0  0  0  0  0  0  0
   -0.4843   -1.0550   -0.1862 C   0  0  1  0  0  0  0  0  0  0  0  0
    0.3159   -1.7539   -0.4538 H   0  0  0  0  0  0  0  0  0  0  0  0
   -0.4625    0.0865   -1.2334 C   0  0  0  0  0  0  0  0  0  0  0  0
   -0.5992    1.0493   -0.7287 H   0  0  0  0  0  0  0  0  0  0  0  0
    0.5273    0.1189   -1.7012 H   0  0  0  0  0  0  0  0  0  0  0  0
   -1.5312   -0.0428   -2.2976 C   0  0  0  0  0  0  0  0  0  0  0  0
   -1.2688   -0.7481   -3.4807 C   0  0  0  0  0  0  0  0  0  0  0  0
   -0.2907   -1.1932   -3.6430 H   0  0  0  0  0  0  0  0  0  0  0  0
   -2.2639   -0.8892   -4.4548 C   0  0  0  0  0  0  0  0  0  0  0  0
   -2.0458   -1.4396   -5.3639 H   0  0  0  0  0  0  0  0  0  0  0  0
   -3.5261   -0.3257   -4.2554 C   0  0  0  0  0  0  0  0  0  0  0  0
   -4.5039   -0.4577   -5.1977 O   0  0  0  0  0  0  0  0  0  0  0  0
   -4.1514   -0.9002   -5.9857 H   0  0  0  0  0  0  0  0  0  0  0  0
   -3.7901    0.3804   -3.0829 C   0  0  0  0  0  0  0  0  0  0  0  0
   -4.7726    0.8195   -2.9408 H   0  0  0  0  0  0  0  0  0  0  0  0
   -2.7988    0.5282   -2.1074 C   0  0  0  0  0  0  0  0  0  0  0  0
   -3.0166    1.0856   -1.2004 H   0  0  0  0  0  0  0  0  0  0  0  0
   -0.1159   -0.4955    1.2033 C   0  0  0  0  0  0  0  0  0  0  0  0
    1.0628   -0.3579    1.5032 O   0  0  0  0  0  0  0  0  0  0  0  0
   -1.0848    0.1161    1.9783 N   0  0  0  0  0  0  0  0  0  0  0  0
   -2.0461   -0.1084    1.7426 H   0  0  0  0  0  0  0  0  0  0  0  0
   -0.8009    0.6763    3.2934 C   0  0  0  0  0  0  0  0  0  0  0  0
   -0.0289    1.4499    3.2238 H   0  0  0  0  0  0  0  0  0  0  0  0
   -1.7033    1.1291    3.7150 H   0  0  0  0  0  0  0  0  0  0  0  0
   -0.4530   -0.1073    3.9748 H   0  0  0  0  0  0  0  0  0  0  0  0
  1  2  1  0  0  0  0
  2  3  1  0  0  0  0
  2  4  1  0  0  0  0
  2  5  1  0  0  0  0
  5  6  2  0  0  0  0
  5  7  1  0  0  0  0
  7  8  1  0  0  0  0
  7  9  1  0  0  0  0
  9 10  1  0  0  0  0
  9 11  1  0  0  0  0
  9 26  1  0  0  0  0
 11 12  1  0  0  0  0
 11 13  1  0  0  0  0
 11 14  1  0  0  0  0
 14 15  2  0  0  0  0
 14 24  1  0  0  0  0
 15 16  1  0  0  0  0
 15 17  1  0  0  0  0
 17 18  1  0  0  0  0
 17 19  2  0  0  0  0
 19 20  1  0  0  0  0
 19 22  1  0  0  0  0
 20 21  1  0  0  0  0
 22 23  1  0  0  0  0
 22 24  2  0  0  0  0
 24 25  1  0  0  0  0
 26 27  2  0  0  0  0
 26 28  1  0  0  0  0
 28 29  1  0  0  0  0
 28 30  1  0  0  0  0
 30 31  1  0  0  0  0
 30 32  1  0  0  0  0
 30 33  1  0  0  0  0
M  END
$$$$

  -OEChem-03222214083D

 33 33  0     1  0  0  0  0  0999 V2000
   -3.3000   -4.6356    0.8531 H   0  0  0  0  0  0  0  0  0  0  0  0
   -3.2711   -3.7405    0.2255 C   0  0  0  0  0  0  0  0  0  0  0  0
   -4.1404   -3.1204    0.4564 H   0  0  0  0  0  0  0  0  0  0  0  0
   -3.3168   -4.0450   -0.8229 H   0  0  0  0  0  0  0  0  0  0  0  0
   -1.9948   -2.9621    0.4832 C   0  0  0  0  0  0  0  0  0  0  0  0
   -1.2045   -3.3486    1.3256 O   0  0  0  0  0  0  0  0  0  0  0  0
   -1.7391   -1.8157   -0.2405 N   0  0  0  0  0  0  0  0  0  0  0  0
   -2.3903   -1.5916   -0.9908 H   0  0  0  0  0  0  0  0  0  0  0  0
   -0.4771   -1.0491   -0.1894 C   0  0  1  0  0  0  0  0  0  0  0  0
    0.3225   -1.7485   -0.4580 H   0  0  0  0  0  0  0  0  0  0  0  0
   -0.4521    0.0961   -1.2328 C   0  0  0  0  0  0  0  0  0  0  0  0
   -0.5810    1.0574   -0.7231 H   0  0  0  0  0  0  0  0  0  0  0  0
    0.5358    0.1240   -1.7041 H   0  0  0  0  0  0  0  0  0  0  0  0
   -1.5191   -0.0280   -2.2999 C   0  0  0  0  0  0  0  0  0  0  0  0
   -1.3792   -0.9724   -3.3282 C   0  0  0  0  0  0  0  0  0  0  0  0
   -0.4880   -1.5924   -3.3764 H   0  0  0  0  0  0  0  0  0  0  0  0
   -2.3819   -1.1232   -4.2929 C   0  0  0  0  0  0  0  0  0  0  0  0
   -2.2556   -1.8557   -5.0833 H   0  0  0  0  0  0  0  0  0  0  0  0
   -3.5334   -0.3352   -4.2359 C   0  0  0  0  0  0  0  0  0  0  0  0
   -4.5184   -0.4735   -5.1698 O   0  0  0  0  0  0  0  0  0  0  0  0
   -4.2419   -1.0982   -5.8581 H   0  0  0  0  0  0  0  0  0  0  0  0
   -3.6786    0.6019   -3.2142 C   0  0  0  0  0  0  0  0  0  0  0  0
   -4.5765    1.2108   -3.1805 H   0  0  0  0  0  0  0  0  0  0  0  0
   -2.6785    0.7597   -2.2489 C   0  0  0  0  0  0  0  0  0  0  0  0
   -2.8089    1.4948   -1.4595 H   0  0  0  0  0  0  0  0  0  0  0  0
   -0.1122   -0.4974    1.2039 C   0  0  0  0  0  0  0  0  0  0  0  0
    1.0653   -0.3705    1.5125 O   0  0  0  0  0  0  0  0  0  0  0  0
   -1.0823    0.1141    1.9775 N   0  0  0  0  0  0  0  0  0  0  0  0
   -2.0441   -0.0950    1.7298 H   0  0  0  0  0  0  0  0  0  0  0  0
   -0.8038    0.6660    3.2973 C   0  0  0  0  0  0  0  0  0  0  0  0
   -0.0227    1.4313    3.2368 H   0  0  0  0  0  0  0  0  0  0  0  0
   -1.7053    1.1270    3.7120 H   0  0  0  0  0  0  0  0  0  0  0  0
   -0.4708   -0.1239    3.9786 H   0  0  0  0  0  0  0  0  0  0  0  0
  1  2  1  0  0  0  0
  2  3  1  0  0  0  0
  2  4  1  0  0  0  0
  2  5  1  0  0  0  0
  5  6  2  0  0  0  0
  5  7  1  0  0  0  0
  7  8  1  0  0  0  0
  7  9  1  0  0  0  0
  9 10  1  0  0  0  0
  9 11  1  0  0  0  0
  9 26  1  0  0  0  0
 11 12  1  0  0  0  0
 11 13  1  0  0  0  0
 11 14  1  0  0  0  0
 14 15  2  0  0  0  0
 14 24  1  0  0  0  0
 15 16  1  0  0  0  0
 15 17  1  0  0  0  0
 17 18  1  0  0  0  0
 17 19  2  0  0  0  0
 19 20  1  0  0  0  0
 19 22  1  0  0  0  0
 20 21  1  0  0  0  0
 22 23  1  0  0  0  0
 22 24  2  0  0  0  0
 24 25  1  0  0  0  0
 26 27  2  0  0  0  0
 26 28  1  0  0  0  0
 28 29  1  0  0  0  0
 28 30  1  0  0  0  0
 30 31  1  0  0  0  0
 30 32  1  0  0  0  0
 30 33  1  0  0  0  0
M  END
$$$$

  -OEChem-03222214083D

 33 33  0     1  0  0  0  0  0999 V2000
   -3.2799   -4.6480    0.9195 H   0  0  0  0  0  0  0  0  0  0  0  0
   -3.2603   -3.7588    0.2829 C   0  0  0  0  0  0  0  0  0  0  0  0
   -4.1202   -3.1309    0.5283 H   0  0  0  0  0  0  0  0  0  0  0  0
   -3.3324   -4.0722   -0.7614 H   0  0  0  0  0  0  0  0  0  0  0  0
   -1.9734   -2.9865    0.5046 C   0  0  0  0  0  0  0  0  0  0  0  0
   -1.1611   -3.3779    1.3233 O   0  0  0  0  0  0  0  0  0  0  0  0
   -1.7314   -1.8411   -0.2257 N   0  0  0  0  0  0  0  0  0  0  0  0
   -2.4083   -1.6011   -0.9474 H   0  0  0  0  0  0  0  0  0  0  0  0
   -0.4782   -1.0605   -0.1834 C   0  0  1  0  0  0  0  0  0  0  0  0
    0.3277   -1.7540   -0.4479 H   0  0  0  0  0  0  0  0  0  0  0  0
   -0.4630    0.0804   -1.2334 C   0  0  0  0  0  0  0  0  0  0  0  0
   -0.5908    1.0400   -0.7209 H   0  0  0  0  0  0  0  0  0  0  0  0
    0.5256    0.1091   -1.7036 H   0  0  0  0  0  0  0  0  0  0  0  0
   -1.5201   -0.0327   -2.3158 C   0  0  0  0  0  0  0  0  0  0  0  0
   -1.5527   -1.1494   -3.1675 C   0  0  0  0  0  0  0  0  0  0  0  0
   -0.7914   -1.9201   -3.0778 H   0  0  0  0  0  0  0  0  0  0  0  0
   -2.5544   -1.2759   -4.1364 C   0  0  0  0  0  0  0  0  0  0  0  0
   -2.5604   -2.1432   -4.7880 H   0  0  0  0  0  0  0  0  0  0  0  0
   -3.5359   -0.2910   -4.2625 C   0  0  0  0  0  0  0  0  0  0  0  0
   -4.5178   -0.4023   -5.2036 O   0  0  0  0  0  0  0  0  0  0  0  0
   -4.3514   -1.1695   -5.7730 H   0  0  0  0  0  0  0  0  0  0  0  0
   -3.5124    0.8177   -3.4185 C   0  0  0  0  0  0  0  0  0  0  0  0
   -4.2793    1.5787   -3.5250 H   0  0  0  0  0  0  0  0  0  0  0  0
   -2.5113    0.9512   -2.4503 C   0  0  0  0  0  0  0  0  0  0  0  0
   -2.5124    1.8232   -1.8023 H   0  0  0  0  0  0  0  0  0  0  0  0
   -0.1177   -0.4981    1.2075 C   0  0  0  0  0  0  0  0  0  0  0  0
    1.0585   -0.3595    1.5160 O   0  0  0  0  0  0  0  0  0  0  0  0
   -1.0924    0.1060    1.9813 N   0  0  0  0  0  0  0  0  0  0  0  0
   -2.0537   -0.0981    1.7279 H   0  0  0  0  0  0  0  0  0  0  0  0
   -0.8186    0.6714    3.2966 C   0  0  0  0  0  0  0  0  0  0  0  0
   -0.0501    1.4486    3.2291 H   0  0  0  0  0  0  0  0  0  0  0  0
   -1.7256    1.1213    3.7113 H   0  0  0  0  0  0  0  0  0  0  0  0
   -0.4716   -0.1089    3.9822 H   0  0  0  0  0  0  0  0  0  0  0  0
  1  2  1  0  0  0  0
  2  3  1  0  0  0  0
  2  4  1  0  0  0  0
  2  5  1  0  0  0  0
  5  6  2  0  0  0  0
  5  7  1  0  0  0  0
  7  8  1  0  0  0  0
  7  9  1  0  0  0  0
  9 10  1  0  0  0  0
  9 11  1  0  0  0  0
  9 26  1  0  0  0  0
 11 12  1  0  0  0  0
 11 13  1  0  0  0  0
 11 14  1  0  0  0  0
 14 15  2  0  0  0  0
 14 24  1  0  0  0  0
 15 16  1  0  0  0  0
 15 17  1  0  0  0  0
 17 18  1  0  0  0  0
 17 19  2  0  0  0  0
 19 20  1  0  0  0  0
 19 22  1  0  0  0  0
 20 21  1  0  0  0  0
 22 23  1  0  0  0  0
 22 24  2  0  0  0  0
 24 25  1  0  0  0  0
 26 27  2  0  0  0  0
 26 28  1  0  0  0  0
 28 29  1  0  0  0  0
 28 30  1  0  0  0  0
 30 31  1  0  0  0  0
 30 32  1  0  0  0  0
 30 33  1  0  0  0  0
M  END
$$$$

  -OEChem-03222214083D

 33 33  0     1  0  0  0  0  0999 V2000
   -3.2031   -4.6960    1.0682 H   0  0  0  0  0  0  0  0  0  0  0  0
   -3.2142   -3.8197    0.4138 C   0  0  0  0  0  0  0  0  0  0  0  0
   -4.0660   -3.1908    0.6829 H   0  0  0  0  0  0  0  0  0  0  0  0
   -3.3283   -4.1543   -0.6201 H   0  0  0  0  0  0  0  0  0  0  0  0
   -1.9232   -3.0382    0.5673 C   0  0  0  0  0  0  0  0  0  0  0  0
   -1.0698   -3.4200    1.3476 O   0  0  0  0  0  0  0  0  0  0  0  0
   -1.7226   -1.8969   -0.1820 N   0  0  0  0  0  0  0  0  0  0  0  0
   -2.4482   -1.6435   -0.8496 H   0  0  0  0  0  0  0  0  0  0  0  0
   -0.4915   -1.0823   -0.1688 C   0  0  1  0  0  0  0  0  0  0  0  0
    0.3284   -1.7613   -0.4284 H   0  0  0  0  0  0  0  0  0  0  0  0
   -0.4982    0.0441   -1.2380 C   0  0  0  0  0  0  0  0  0  0  0  0
   -0.6393    1.0029   -0.7273 H   0  0  0  0  0  0  0  0  0  0  0  0
    0.4948    0.0824   -1.6978 H   0  0  0  0  0  0  0  0  0  0  0  0
   -1.5353   -0.0535   -2.3478 C   0  0  0  0  0  0  0  0  0  0  0  0
   -1.7869   -1.2593   -3.0286 C   0  0  0  0  0  0  0  0  0  0  0  0
   -1.1953   -2.1432   -2.8045 H   0  0  0  0  0  0  0  0  0  0  0  0
   -2.7758   -1.3317   -4.0160 C   0  0  0  0  0  0  0  0  0  0  0  0
   -2.9454   -2.2690   -4.5349 H   0  0  0  0  0  0  0  0  0  0  0  0
   -3.5312   -0.2026   -4.3357 C   0  0  0  0  0  0  0  0  0  0  0  0
   -4.4973   -0.2594   -5.2981 O   0  0  0  0  0  0  0  0  0  0  0  0
   -4.4819   -1.1228   -5.7393 H   0  0  0  0  0  0  0  0  0  0  0  0
   -3.2920    0.9958   -3.6673 C   0  0  0  0  0  0  0  0  0  0  0  0
   -3.8820    1.8699   -3.9236 H   0  0  0  0  0  0  0  0  0  0  0  0
   -2.3015    1.0745   -2.6821 C   0  0  0  0  0  0  0  0  0  0  0  0
   -2.1353    2.0213   -2.1759 H   0  0  0  0  0  0  0  0  0  0  0  0
   -0.1315   -0.4928    1.2110 C   0  0  0  0  0  0  0  0  0  0  0  0
    1.0433   -0.3253    1.5093 O   0  0  0  0  0  0  0  0  0  0  0  0
   -1.1144    0.0934    1.9882 N   0  0  0  0  0  0  0  0  0  0  0  0
   -2.0738   -0.1231    1.7383 H   0  0  0  0  0  0  0  0  0  0  0  0
   -0.8438    0.6919    3.2891 C   0  0  0  0  0  0  0  0  0  0  0  0
   -0.0948    1.4858    3.1986 H   0  0  0  0  0  0  0  0  0  0  0  0
   -1.7582    1.1282    3.7020 H   0  0  0  0  0  0  0  0  0  0  0  0
   -0.4718   -0.0651    3.9875 H   0  0  0  0  0  0  0  0  0  0  0  0
  1  2  1  0  0  0  0
  2  3  1  0  0  0  0
  2  4  1  0  0  0  0
  2  5  1  0  0  0  0
  5  6  2  0  0  0  0
  5  7  1  0  0  0  0
  7  8  1  0  0  0  0
  7  9  1  0  0  0  0
  9 10  1  0  0  0  0
  9 11  1  0  0  0  0
  9 26  1  0  0  0  0
 11 12  1  0  0  0  0
 11 13  1  0  0  0  0
 11 14  1  0  0  0  0
 14 15  2  0  0  0  0
 14 24  1  0  0  0  0
 15 16  1  0  0  0  0
 15 17  1  0  0  0  0
 17 18  1  0  0  0  0
 17 19  2  0  0  0  0
 19 20  1  0  0  0  0
 19 22  1  0  0  0  0
 20 21  1  0  0  0  0
 22 23  1  0  0  0  0
 22 24  2  0  0  0  0
 24 25  1  0  0  0  0
 26 27  2  0  0  0  0
 26 28  1  0  0  0  0
 28 29  1  0  0  0  0
 28 30  1  0  0  0  0
 30 31  1  0  0  0  0
 30 32  1  0  0  0  0
 30 33  1  0  0  0  0
M  END
$$$$

  -OEChem-03222214083D

 33 33  0     1  0  0  0  0  0999 V2000
   -3.0883   -4.7544    1.2686 H   0  0  0  0  0  0  0  0  0  0  0  0
   -3.1442   -3.8994    0.5888 C   0  0  0  0  0  0  0  0  0  0  0  0
   -3.9876   -3.2705    0.8837 H   0  0  0  0  0  0  0  0  0  0  0  0
   -3.3090   -4.2681   -0.4264 H   0  0  0  0  0  0  0  0  0  0  0  0
   -1.8548   -3.1022    0.6481 C   0  0  0  0  0  0  0  0  0  0  0  0
   -0.9498   -3.4636    1.3782 O   0  0  0  0  0  0  0  0  0  0  0  0
   -1.7141   -1.9693   -0.1279 N   0  0  0  0  0  0  0  0  0  0  0  0
   -2.4995   -1.7054   -0.7183 H   0  0  0  0  0  0  0  0  0  0  0  0
   -0.5150   -1.1104   -0.1550 C   0  0  1  0  0  0  0  0  0  0  0  0
    0.3210   -1.7726   -0.4078 H   0  0  0  0  0  0  0  0  0  0  0  0
   -0.5462   -0.0062   -1.2503 C   0  0  0  0  0  0  0  0  0  0  0  0
   -0.7129    0.9519   -0.7456 H   0  0  0  0  0  0  0  0  0  0  0  0
    0.4539    0.0496   -1.6923 H   0  0  0  0  0  0  0  0  0  0  0  0
   -1.5545   -0.0897   -2.3938 C   0  0  0  0  0  0  0  0  0  0  0  0
   -2.0495   -1.2981   -2.9253 C   0  0  0  0  0  0  0  0  0  0  0  0
   -1.6483   -2.2532   -2.6002 H   0  0  0  0  0  0  0  0  0  0  0  0
   -3.0209   -1.2980   -3.9332 C   0  0  0  0  0  0  0  0  0  0  0  0
   -3.3730   -2.2411   -4.3372 H   0  0  0  0  0  0  0  0  0  0  0  0
   -3.5213   -0.0930   -4.4259 C   0  0  0  0  0  0  0  0  0  0  0  0
   -4.4692   -0.0790   -5.4079 O   0  0  0  0  0  0  0  0  0  0  0  0
   -4.6430   -0.9804   -5.7200 H   0  0  0  0  0  0  0  0  0  0  0  0
   -3.0408    1.1087   -3.9141 C   0  0  0  0  0  0  0  0  0  0  0  0
   -3.4310    2.0434   -4.3038 H   0  0  0  0  0  0  0  0  0  0  0  0
   -2.0660    1.1129   -2.9108 C   0  0  0  0  0  0  0  0  0  0  0  0
   -1.7125    2.0667   -2.5290 H   0  0  0  0  0  0  0  0  0  0  0  0
   -0.1547   -0.4831    1.2089 C   0  0  0  0  0  0  0  0  0  0  0  0
    1.0178   -0.2692    1.4856 O   0  0  0  0  0  0  0  0  0  0  0  0
   -1.1440    0.0806    1.9952 N   0  0  0  0  0  0  0  0  0  0  0  0
   -2.1020   -0.1541    1.7575 H   0  0  0  0  0  0  0  0  0  0  0  0
   -0.8722    0.7269    3.2732 C   0  0  0  0  0  0  0  0  0  0  0  0
   -0.1525    1.5427    3.1463 H   0  0  0  0  0  0  0  0  0  0  0  0
   -1.7940    1.1442    3.6896 H   0  0  0  0  0  0  0  0  0  0  0  0
   -0.4631    0.0041    3.9870 H   0  0  0  0  0  0  0  0  0  0  0  0
  1  2  1  0  0  0  0
  2  3  1  0  0  0  0
  2  4  1  0  0  0  0
  2  5  1  0  0  0  0
  5  6  2  0  0  0  0
  5  7  1  0  0  0  0
  7  8  1  0  0  0  0
  7  9  1  0  0  0  0
  9 10  1  0  0  0  0
  9 11  1  0  0  0  0
  9 26  1  0  0  0  0
 11 12  1  0  0  0  0
 11 13  1  0  0  0  0
 11 14  1  0  0  0  0
 14 15  2  0  0  0  0
 14 24  1  0  0  0  0
 15 16  1  0  0  0  0
 15 17  1  0  0  0  0
 17 18  1  0  0  0  0
 17 19  2  0  0  0  0
 19 20  1  0  0  0  0
 19 22  1  0  0  0  0
 20 21  1  0  0  0  0
 22 23  1  0  0  0  0
 22 24  2  0  0  0  0
 24 25  1  0  0  0  0
 26 27  2  0  0  0  0
 26 28  1  0  0  0  0
 28 29  1  0  0  0  0
 28 30  1  0  0  0  0
 30 31  1  0  0  0  0
 30 32  1  0  0  0  0
 30 33  1  0  0  0  0
M  END
$$$$

  -OEChem-03222214083D

 33 33  0     1  0  0  0  0  0999 V2000
   -2.9502   -4.8087    1.4723 H   0  0  0  0  0  0  0  0  0  0  0  0
   -3.0570   -3.9746    0.7729 C   0  0  0  0  0  0  0  0  0  0  0  0
   -3.8910   -3.3486    1.0983 H   0  0  0  0  0  0  0  0  0  0  0  0
   -3.2741   -4.3750   -0.2203 H   0  0  0  0  0  0  0  0  0  0  0  0
   -1.7783   -3.1592    0.7345 C   0  0  0  0  0  0  0  0  0  0  0  0
   -0.8217   -3.4957    1.4085 O   0  0  0  0  0  0  0  0  0  0  0  0
   -1.7082   -2.0365   -0.0660 N   0  0  0  0  0  0  0  0  0  0  0  0
   -2.5497   -1.7710   -0.5707 H   0  0  0  0  0  0  0  0  0  0  0  0
   -0.5466   -1.1345   -0.1457 C   0  0  1  0  0  0  0  0  0  0  0  0
    0.3036   -1.7775   -0.4008 H   0  0  0  0  0  0  0  0  0  0  0  0
   -0.6142   -0.0558   -1.2658 C   0  0  0  0  0  0  0  0  0  0  0  0
   -0.8054    0.9026   -0.7703 H   0  0  0  0  0  0  0  0  0  0  0  0
    0.3891    0.0174   -1.6989 H   0  0  0  0  0  0  0  0  0  0  0  0
   -1.6055   -0.1316   -2.4294 C   0  0  0  0  0  0  0  0  0  0  0  0
   -2.3465   -1.2654   -2.8278 C   0  0  0  0  0  0  0  0  0  0  0  0
   -2.1691   -2.2455   -2.4033 H   0  0  0  0  0  0  0  0  0  0  0  0
   -3.2837   -1.1892   -3.8658 C   0  0  0  0  0  0  0  0  0  0  0  0
   -3.8253   -2.0805   -4.1642 H   0  0  0  0  0  0  0  0  0  0  0  0
   -3.5065    0.0178   -4.5266 C   0  0  0  0  0  0  0  0  0  0  0  0
   -4.4157    0.1044   -5.5410 O   0  0  0  0  0  0  0  0  0  0  0  0
   -4.7865   -0.7698   -5.7364 H   0  0  0  0  0  0  0  0  0  0  0  0
   -2.7824    1.1442   -4.1522 C   0  0  0  0  0  0  0  0  0  0  0  0
   -2.9546    2.0809   -4.6725 H   0  0  0  0  0  0  0  0  0  0  0  0
   -1.8433    1.0708   -3.1189 C   0  0  0  0  0  0  0  0  0  0  0  0
   -1.2975    1.9702   -2.8468 H   0  0  0  0  0  0  0  0  0  0  0  0
   -0.1725   -0.4706    1.1974 C   0  0  0  0  0  0  0  0  0  0  0  0
    0.9971   -0.2007    1.4347 O   0  0  0  0  0  0  0  0  0  0  0  0
   -1.1609    0.0670    2.0030 N   0  0  0  0  0  0  0  0  0  0  0  0
   -2.1156   -0.2071    1.7975 H   0  0  0  0  0  0  0  0  0  0  0  0
   -0.8788    0.7575    3.2553 C   0  0  0  0  0  0  0  0  0  0  0  0
   -0.2215    1.6156    3.0808 H   0  0  0  0  0  0  0  0  0  0  0  0
   -1.8076    1.1219    3.7045 H   0  0  0  0  0  0  0  0  0  0  0  0
   -0.3916    0.0797    3.9640 H   0  0  0  0  0  0  0  0  0  0  0  0
  1  2  1  0  0  0  0
  2  3  1  0  0  0  0
  2  4  1  0  0  0  0
  2  5  1  0  0  0  0
  5  6  2  0  0  0  0
  5  7  1  0  0  0  0
  7  8  1  0  0  0  0
  7  9  1  0  0  0  0
  9 10  1  0  0  0  0
  9 11  1  0  0  0  0
  9 26  1  0  0  0  0
 11 12  1  0  0  0  0
 11 13  1  0  0  0  0
 11 14  1  0  0  0  0
 14 15  2  0  0  0  0
 14 24  1  0  0  0  0
 15 16  1  0  0  0  0
 15 17  1  0  0  0  0
 17 18  1  0  0  0  0
 17 19  2  0  0  0  0
 19 20  1  0  0  0  0
 19 22  1  0  0  0  0
 20 21  1  0  0  0  0
 22 23  1  0  0  0  0
 22 24  2  0  0  0  0
 24 25  1  0  0  0  0
 26 27  2  0  0  0  0
 26 28  1  0  0  0  0
 28 29  1  0  0  0  0
 28 30  1  0  0  0  0
 30 31  1  0  0  0  0
 30 32  1  0  0  0  0
 30 33  1  0  0  0  0
M  END
$$$$

  -OEChem-03222214083D

 33 33  0     1  0  0  0  0  0999 V2000
   -2.8187   -4.8458    1.6323 H   0  0  0  0  0  0  0  0  0  0  0  0
   -2.9805   -4.0245    0.9282 C   0  0  0  0  0  0  0  0  0  0  0  0
   -3.8002   -3.4031    1.2962 H   0  0  0  0  0  0  0  0  0  0  0  0
   -3.2558   -4.4437   -0.0425 H   0  0  0  0  0  0  0  0  0  0  0  0
   -1.7167   -3.1956    0.7952 C   0  0  0  0  0  0  0  0  0  0  0  0
   -0.7153   -3.5119    1.4113 O   0  0  0  0  0  0  0  0  0  0  0  0
   -1.7148   -2.0790   -0.0179 N   0  0  0  0  0  0  0  0  0  0  0  0
   -2.6026   -1.8058   -0.4275 H   0  0  0  0  0  0  0  0  0  0  0  0
   -0.5853   -1.1454   -0.1470 C   0  0  1  0  0  0  0  0  0  0  0  0
    0.2711   -1.7736   -0.4183 H   0  0  0  0  0  0  0  0  0  0  0  0
   -0.6896   -0.0806   -1.2784 C   0  0  0  0  0  0  0  0  0  0  0  0
   -0.8932    0.8776   -0.7873 H   0  0  0  0  0  0  0  0  0  0  0  0
    0.3121    0.0051   -1.7134 H   0  0  0  0  0  0  0  0  0  0  0  0
   -1.6820   -0.1466   -2.4442 C   0  0  0  0  0  0  0  0  0  0  0  0
   -2.6484   -1.1429   -2.7120 C   0  0  0  0  0  0  0  0  0  0  0  0
   -2.7252   -2.0620   -2.1521 H   0  0  0  0  0  0  0  0  0  0  0  0
   -3.5303   -1.0229   -3.7938 C   0  0  0  0  0  0  0  0  0  0  0  0
   -4.2509   -1.8107   -3.9847 H   0  0  0  0  0  0  0  0  0  0  0  0
   -3.4764    0.0900   -4.6305 C   0  0  0  0  0  0  0  0  0  0  0  0
   -4.3302    0.2144   -5.6881 O   0  0  0  0  0  0  0  0  0  0  0  0
   -4.8965   -0.5694   -5.7570 H   0  0  0  0  0  0  0  0  0  0  0  0
   -2.5324    1.0794   -4.3862 C   0  0  0  0  0  0  0  0  0  0  0  0
   -2.4893    1.9435   -5.0413 H   0  0  0  0  0  0  0  0  0  0  0  0
   -1.6497    0.9628   -3.3088 C   0  0  0  0  0  0  0  0  0  0  0  0
   -0.9290    1.7588   -3.1415 H   0  0  0  0  0  0  0  0  0  0  0  0
   -0.1836   -0.4604    1.1776 C   0  0  0  0  0  0  0  0  0  0  0  0
    0.9851   -0.1549    1.3721 O   0  0  0  0  0  0  0  0  0  0  0  0
   -1.1576    0.0544    2.0149 N   0  0  0  0  0  0  0  0  0  0  0  0
   -2.1125   -0.2386    1.8405 H   0  0  0  0  0  0  0  0  0  0  0  0
   -0.8511    0.7618    3.2516 C   0  0  0  0  0  0  0  0  0  0  0  0
   -0.2472    1.6515    3.0446 H   0  0  0  0  0  0  0  0  0  0  0  0
   -1.7747    1.0796    3.7447 H   0  0  0  0  0  0  0  0  0  0  0  0
   -0.2972    0.1112    3.9367 H   0  0  0  0  0  0  0  0  0  0  0  0
  1  2  1  0  0  0  0
  2  3  1  0  0  0  0
  2  4  1  0  0  0  0
  2  5  1  0  0  0  0
  5  6  2  0  0  0  0
  5  7  1  0  0  0  0
  7  8  1  0  0  0  0
  7  9  1  0  0  0  0
  9 10  1  0  0  0  0
  9 11  1  0  0  0  0
  9 26  1  0  0  0  0
 11 12  1  0  0  0  0
 11 13  1  0  0  0  0
 11 14  1  0  0  0  0
 14 15  2  0  0  0  0
 14 24  1  0  0  0  0
 15 16  1  0  0  0  0
 15 17  1  0  0  0  0
 17 18  1  0  0  0  0
 17 19  2  0  0  0  0
 19 20  1  0  0  0  0
 19 22  1  0  0  0  0
 20 21  1  0  0  0  0
 22 23  1  0  0  0  0
 22 24  2  0  0  0  0
 24 25  1  0  0  0  0
 26 27  2  0  0  0  0
 26 28  1  0  0  0  0
 28 29  1  0  0  0  0
 28 30  1  0  0  0  0
 30 31  1  0  0  0  0
 30 32  1  0  0  0  0
 30 33  1  0  0  0  0
M  END
$$$$

  -OEChem-03222214083D

 33 33  0     1  0  0  0  0  0999 V2000
   -2.6784   -4.7962    1.8152 H   0  0  0  0  0  0  0  0  0  0  0  0
   -2.9043   -3.9808    1.1217 C   0  0  0  0  0  0  0  0  0  0  0  0
   -3.6674   -3.3404    1.5701 H   0  0  0  0  0  0  0  0  0  0  0  0
   -3.2927   -4.4070    0.1935 H   0  0  0  0  0  0  0  0  0  0  0  0
   -1.6495   -3.1764    0.8375 C   0  0  0  0  0  0  0  0  0  0  0  0
   -0.5916   -3.5038    1.3438 O   0  0  0  0  0  0  0  0  0  0  0  0
   -1.7208   -2.0662    0.0183 N   0  0  0  0  0  0  0  0  0  0  0  0
   -2.6477   -1.7695   -0.2607 H   0  0  0  0  0  0  0  0  0  0  0  0
   -0.6034   -1.1375   -0.2130 C   0  0  1  0  0  0  0  0  0  0  0  0
    0.2224   -1.7795   -0.5413 H   0  0  0  0  0  0  0  0  0  0  0  0
   -0.7667   -0.0848   -1.3498 C   0  0  0  0  0  0  0  0  0  0  0  0
   -0.9287    0.8831   -0.8626 H   0  0  0  0  0  0  0  0  0  0  0  0
    0.2112   -0.0207   -1.8401 H   0  0  0  0  0  0  0  0  0  0  0  0
   -1.8298   -0.1423   -2.4525 C   0  0  0  0  0  0  0  0  0  0  0  0
   -2.9989   -0.9351   -2.5040 C   0  0  0  0  0  0  0  0  0  0  0  0
   -3.2779   -1.6436   -1.7424 H   0  0  0  0  0  0  0  0  0  0  0  0
   -3.8805   -0.8540   -3.5899 C   0  0  0  0  0  0  0  0  0  0  0  0
   -4.7656   -1.4807   -3.6073 H   0  0  0  0  0  0  0  0  0  0  0  0
   -3.6278    0.0204   -4.6443 C   0  0  0  0  0  0  0  0  0  0  0  0
   -4.4820    0.1042   -5.7057 O   0  0  0  0  0  0  0  0  0  0  0  0
   -5.2071   -0.5311   -5.6043 H   0  0  0  0  0  0  0  0  0  0  0  0
   -2.4899    0.8160   -4.6091 C   0  0  0  0  0  0  0  0  0  0  0  0
   -2.2951    1.4986   -5.4299 H   0  0  0  0  0  0  0  0  0  0  0  0
   -1.6059    0.7360   -3.5295 C   0  0  0  0  0  0  0  0  0  0  0  0
   -0.7269    1.3750   -3.5342 H   0  0  0  0  0  0  0  0  0  0  0  0
   -0.0853   -0.4438    1.0660 C   0  0  0  0  0  0  0  0  0  0  0  0
    1.0969   -0.1412    1.1536 O   0  0  0  0  0  0  0  0  0  0  0  0
   -0.9781    0.0828    1.9830 N   0  0  0  0  0  0  0  0  0  0  0  0
   -1.9472   -0.2025    1.8984 H   0  0  0  0  0  0  0  0  0  0  0  0
   -0.5577    0.8153    3.1713 C   0  0  0  0  0  0  0  0  0  0  0  0
   -0.0109    1.7213    2.8893 H   0  0  0  0  0  0  0  0  0  0  0  0
   -1.4293    1.1091    3.7637 H   0  0  0  0  0  0  0  0  0  0  0  0
    0.0915    0.1917    3.7951 H   0  0  0  0  0  0  0  0  0  0  0  0
  1  2  1  0  0  0  0
  2  3  1  0  0  0  0
  2  4  1  0  0  0  0
  2  5  1  0  0  0  0
  5  6  2  0  0  0  0
  5  7  1  0  0  0  0
  7  8  1  0  0  0  0
  7  9  1  0  0  0  0
  9 10  1  0  0  0  0
  9 11  1  0  0  0  0
  9 26  1  0  0  0  0
 11 12  1  0  0  0  0
 11 13  1  0  0  0  0
 11 14  1  0  0  0  0
 14 15  2  0  0  0  0
 14 24  1  0  0  0  0
 15 16  1  0  0  0  0
 15 17  1  0  0  0  0
 17 18  1  0  0  0  0
 17 19  2  0  0  0  0
 19 20  1  0  0  0  0
 19 22  1  0  0  0  0
 20 21  1  0  0  0  0
 22 23  1  0  0  0  0
 22 24  2  0  0  0  0
 24 25  1  0  0  0  0
 26 27  2  0  0  0  0
 26 28  1  0  0  0  0
 28 29  1  0  0  0  0
 28 30  1  0  0  0  0
 30 31  1  0  0  0  0
 30 32  1  0  0  0  0
 30 33  1  0  0  0  0
M  END
$$$$

  -OEChem-03222214083D

 33 33  0     1  0  0  0  0  0999 V2000
   -2.6138   -4.9995    1.2831 H   0  0  0  0  0  0  0  0  0  0  0  0
   -2.7926   -4.1634    0.6010 C   0  0  0  0  0  0  0  0  0  0  0  0
   -3.7768   -3.7397    0.8145 H   0  0  0  0  0  0  0  0  0  0  0  0
   -2.7788   -4.5392   -0.4250 H   0  0  0  0  0  0  0  0  0  0  0  0
   -1.7209   -3.1047    0.7806 C   0  0  0  0  0  0  0  0  0  0  0  0
   -0.8595   -3.2560    1.6275 O   0  0  0  0  0  0  0  0  0  0  0  0
   -1.7382   -1.9800   -0.0222 N   0  0  0  0  0  0  0  0  0  0  0  0
   -2.3513   -2.0512   -0.8276 H   0  0  0  0  0  0  0  0  0  0  0  0
   -0.5922   -1.0655   -0.1672 C   0  0  1  0  0  0  0  0  0  0  0  0
    0.2451   -1.6938   -0.4913 H   0  0  0  0  0  0  0  0  0  0  0  0
   -0.7377    0.0583   -1.2407 C   0  0  0  0  0  0  0  0  0  0  0  0
   -0.8954    1.0047   -0.7117 H   0  0  0  0  0  0  0  0  0  0  0  0
    0.2413    0.1413   -1.7257 H   0  0  0  0  0  0  0  0  0  0  0  0
   -1.8181    0.0379   -2.3260 C   0  0  0  0  0  0  0  0  0  0  0  0
   -3.1038   -0.5351   -2.2155 C   0  0  0  0  0  0  0  0  0  0  0  0
   -3.4938   -0.8936   -1.2722 H   0  0  0  0  0  0  0  0  0  0  0  0
   -3.9785   -0.5702   -3.3090 C   0  0  0  0  0  0  0  0  0  0  0  0
   -4.9671   -1.0004   -3.1904 H   0  0  0  0  0  0  0  0  0  0  0  0
   -3.5917   -0.0384   -4.5381 C   0  0  0  0  0  0  0  0  0  0  0  0
   -4.4349   -0.0666   -5.6112 O   0  0  0  0  0  0  0  0  0  0  0  0
   -5.2819   -0.4678   -5.3639 H   0  0  0  0  0  0  0  0  0  0  0  0
   -2.3337    0.5391   -4.6649 C   0  0  0  0  0  0  0  0  0  0  0  0
   -2.0379    0.9573   -5.6218 H   0  0  0  0  0  0  0  0  0  0  0  0
   -1.4586    0.5771   -3.5750 C   0  0  0  0  0  0  0  0  0  0  0  0
   -0.4795    1.0271   -3.7145 H   0  0  0  0  0  0  0  0  0  0  0  0
   -0.1347   -0.4056    1.1536 C   0  0  0  0  0  0  0  0  0  0  0  0
    1.0462   -0.1190    1.3017 O   0  0  0  0  0  0  0  0  0  0  0  0
   -1.0694    0.1183    2.0283 N   0  0  0  0  0  0  0  0  0  0  0  0
   -2.0185   -0.2241    1.9207 H   0  0  0  0  0  0  0  0  0  0  0  0
   -0.6989    0.7752    3.2755 C   0  0  0  0  0  0  0  0  0  0  0  0
   -0.0428    1.6301    3.0798 H   0  0  0  0  0  0  0  0  0  0  0  0
   -1.5926    1.1394    3.7907 H   0  0  0  0  0  0  0  0  0  0  0  0
   -0.1770    0.0744    3.9357 H   0  0  0  0  0  0  0  0  0  0  0  0
  1  2  1  0  0  0  0
  2  3  1  0  0  0  0
  2  4  1  0  0  0  0
  2  5  1  0  0  0  0
  5  6  2  0  0  0  0
  5  7  1  0  0  0  0
  7  8  1  0  0  0  0
  7  9  1  0  0  0  0
  9 10  1  0  0  0  0
  9 11  1  0  0  0  0
  9 26  1  0  0  0  0
 11 12  1  0  0  0  0
 11 13  1  0  0  0  0
 11 14  1  0  0  0  0
 14 15  2  0  0  0  0
 14 24  1  0  0  0  0
 15 16  1  0  0  0  0
 15 17  1  0  0  0  0
 17 18  1  0  0  0  0
 17 19  2  0  0  0  0
 19 20  1  0  0  0  0
 19 22  1  0  0  0  0
 20 21  1  0  0  0  0
 22 23  1  0  0  0  0
 22 24  2  0  0  0  0
 24 25  1  0  0  0  0
 26 27  2  0  0  0  0
 26 28  1  0  0  0  0
 28 29  1  0  0  0  0
 28 30  1  0  0  0  0
 30 31  1  0  0  0  0
 30 32  1  0  0  0  0
 30 33  1  0  0  0  0
M  END
$$$$

  -OEChem-03222214083D

 33 33  0     1  0  0  0  0  0999 V2000
   -3.0350   -4.8489    1.1195 H   0  0  0  0  0  0  0  0  0  0  0  0
   -3.1022   -3.9881    0.4480 C   0  0  0  0  0  0  0  0  0  0  0  0
   -4.0452   -3.4691    0.6348 H   0  0  0  0  0  0  0  0  0  0  0  0
   -3.0884   -4.3471   -0.5841 H   0  0  0  0  0  0  0  0  0  0  0  0
   -1.9358   -3.0473    0.6867 C   0  0  0  0  0  0  0  0  0  0  0  0
   -1.1291   -3.2949    1.5645 O   0  0  0  0  0  0  0  0  0  0  0  0
   -1.8066   -1.9136   -0.0921 N   0  0  0  0  0  0  0  0  0  0  0  0
   -2.4072   -1.8845   -0.9114 H   0  0  0  0  0  0  0  0  0  0  0  0
   -0.5797   -1.0983   -0.1591 C   0  0  1  0  0  0  0  0  0  0  0  0
    0.2186   -1.7882   -0.4546 H   0  0  0  0  0  0  0  0  0  0  0  0
   -0.5962    0.0388   -1.2240 C   0  0  0  0  0  0  0  0  0  0  0  0
   -0.7159    0.9942   -0.7015 H   0  0  0  0  0  0  0  0  0  0  0  0
    0.3999    0.0645   -1.6784 H   0  0  0  0  0  0  0  0  0  0  0  0
   -1.6538    0.0436   -2.3246 C   0  0  0  0  0  0  0  0  0  0  0  0
   -3.0247   -0.1955   -2.1020 C   0  0  0  0  0  0  0  0  0  0  0  0
   -3.4147   -0.2849   -1.0933 H   0  0  0  0  0  0  0  0  0  0  0  0
   -3.9309   -0.2481   -3.1678 C   0  0  0  0  0  0  0  0  0  0  0  0
   -4.9842   -0.4147   -2.9690 H   0  0  0  0  0  0  0  0  0  0  0  0
   -3.4848   -0.0697   -4.4774 C   0  0  0  0  0  0  0  0  0  0  0  0
   -4.3568   -0.1179   -5.5265 O   0  0  0  0  0  0  0  0  0  0  0  0
   -5.2628   -0.2451   -5.2059 H   0  0  0  0  0  0  0  0  0  0  0  0
   -2.1345    0.1687   -4.7142 C   0  0  0  0  0  0  0  0  0  0  0  0
   -1.7935    0.3093   -5.7348 H   0  0  0  0  0  0  0  0  0  0  0  0
   -1.2270    0.2251   -3.6512 C   0  0  0  0  0  0  0  0  0  0  0  0
   -0.1780    0.4046   -3.8704 H   0  0  0  0  0  0  0  0  0  0  0  0
   -0.1356   -0.4960    1.1925 C   0  0  0  0  0  0  0  0  0  0  0  0
    1.0557   -0.3088    1.4028 O   0  0  0  0  0  0  0  0  0  0  0  0
   -1.0672    0.0964    2.0262 N   0  0  0  0  0  0  0  0  0  0  0  0
   -2.0341   -0.1678    1.8685 H   0  0  0  0  0  0  0  0  0  0  0  0
   -0.7081    0.7026    3.3020 C   0  0  0  0  0  0  0  0  0  0  0  0
    0.0219    1.5054    3.1533 H   0  0  0  0  0  0  0  0  0  0  0  0
   -1.5943    1.1292    3.7813 H   0  0  0  0  0  0  0  0  0  0  0  0
   -0.2756   -0.0475    3.9724 H   0  0  0  0  0  0  0  0  0  0  0  0
  1  2  1  0  0  0  0
  2  3  1  0  0  0  0
  2  4  1  0  0  0  0
  2  5  1  0  0  0  0
  5  6  2  0  0  0  0
  5  7  1  0  0  0  0
  7  8  1  0  0  0  0
  7  9  1  0  0  0  0
  9 10  1  0  0  0  0
  9 11  1  0  0  0  0
  9 26  1  0  0  0  0
 11 12  1  0  0  0  0
 11 13  1  0  0  0  0
 11 14  1  0  0  0  0
 14 15  2  0  0  0  0
 14 24  1  0  0  0  0
 15 16  1  0  0  0  0
 15 17  1  0  0  0  0
 17 18  1  0  0  0  0
 17 19  2  0  0  0  0
 19 20  1  0  0  0  0
 19 22  1  0  0  0  0
 20 21  1  0  0  0  0
 22 23  1  0  0  0  0
 22 24  2  0  0  0  0
 24 25  1  0  0  0  0
 26 27  2  0  0  0  0
 26 28  1  0  0  0  0
 28 29  1  0  0  0  0
 28 30  1  0  0  0  0
 30 31  1  0  0  0  0
 30 32  1  0  0  0  0
 30 33  1  0  0  0  0
M  END
$$$$

  -OEChem-03222214083D

 33 33  0     1  0  0  0  0  0999 V2000
   -3.1584   -4.7658    0.9451 H   0  0  0  0  0  0  0  0  0  0  0  0
   -3.1766   -3.8873    0.2939 C   0  0  0  0  0  0  0  0  0  0  0  0
   -4.1023   -3.3354    0.4728 H   0  0  0  0  0  0  0  0  0  0  0  0
   -3.1540   -4.2214   -0.7464 H   0  0  0  0  0  0  0  0  0  0  0  0
   -1.9796   -3.0002    0.5804 C   0  0  0  0  0  0  0  0  0  0  0  0
   -1.2058   -3.2953    1.4732 O   0  0  0  0  0  0  0  0  0  0  0  0
   -1.7859   -1.8564   -0.1684 N   0  0  0  0  0  0  0  0  0  0  0  0
   -2.3789   -1.7646   -0.9901 H   0  0  0  0  0  0  0  0  0  0  0  0
   -0.5376   -1.0687   -0.1704 C   0  0  1  0  0  0  0  0  0  0  0  0
    0.2583   -1.7674   -0.4521 H   0  0  0  0  0  0  0  0  0  0  0  0
   -0.5190    0.0769   -1.2212 C   0  0  0  0  0  0  0  0  0  0  0  0
   -0.6500    1.0323   -0.7016 H   0  0  0  0  0  0  0  0  0  0  0  0
    0.4804    0.1067   -1.6682 H   0  0  0  0  0  0  0  0  0  0  0  0
   -1.5732    0.0370   -2.3168 C   0  0  0  0  0  0  0  0  0  0  0  0
   -2.9503    0.0765   -2.0295 C   0  0  0  0  0  0  0  0  0  0  0  0
   -3.2874    0.2064   -1.0048 H   0  0  0  0  0  0  0  0  0  0  0  0
   -3.8988   -0.0168   -3.0546 C   0  0  0  0  0  0  0  0  0  0  0  0
   -4.9554    0.0276   -2.8129 H   0  0  0  0  0  0  0  0  0  0  0  0
   -3.4861   -0.1569   -4.3806 C   0  0  0  0  0  0  0  0  0  0  0  0
   -4.3996   -0.2493   -5.3906 O   0  0  0  0  0  0  0  0  0  0  0  0
   -5.2986   -0.1439   -5.0431 H   0  0  0  0  0  0  0  0  0  0  0  0
   -2.1256   -0.2010   -4.6756 C   0  0  0  0  0  0  0  0  0  0  0  0
   -1.8129   -0.3104   -5.7092 H   0  0  0  0  0  0  0  0  0  0  0  0
   -1.1736   -0.1064   -3.6546 C   0  0  0  0  0  0  0  0  0  0  0  0
   -0.1186   -0.1522   -3.9104 H   0  0  0  0  0  0  0  0  0  0  0  0
   -0.1292   -0.4974    1.2048 C   0  0  0  0  0  0  0  0  0  0  0  0
    1.0572   -0.3316    1.4567 O   0  0  0  0  0  0  0  0  0  0  0  0
   -1.0776    0.1049    2.0118 N   0  0  0  0  0  0  0  0  0  0  0  0
   -2.0412   -0.1521    1.8253 H   0  0  0  0  0  0  0  0  0  0  0  0
   -0.7504    0.6918    3.3053 C   0  0  0  0  0  0  0  0  0  0  0  0
   -0.0038    1.4846    3.1894 H   0  0  0  0  0  0  0  0  0  0  0  0
   -1.6450    1.1269    3.7607 H   0  0  0  0  0  0  0  0  0  0  0  0
   -0.3514   -0.0717    3.9815 H   0  0  0  0  0  0  0  0  0  0  0  0
  1  2  1  0  0  0  0
  2  3  1  0  0  0  0
  2  4  1  0  0  0  0
  2  5  1  0  0  0  0
  5  6  2  0  0  0  0
  5  7  1  0  0  0  0
  7  8  1  0  0  0  0
  7  9  1  0  0  0  0
  9 10  1  0  0  0  0
  9 11  1  0  0  0  0
  9 26  1  0  0  0  0
 11 12  1  0  0  0  0
 11 13  1  0  0  0  0
 11 14  1  0  0  0  0
 14 15  2  0  0  0  0
 14 24  1  0  0  0  0
 15 16  1  0  0  0  0
 15 17  1  0  0  0  0
 17 18  1  0  0  0  0
 17 19  2  0  0  0  0
 19 20  1  0  0  0  0
 19 22  1  0  0  0  0
 20 21  1  0  0  0  0
 22 23  1  0  0  0  0
 22 24  2  0  0  0  0
 24 25  1  0  0  0  0
 26 27  2  0  0  0  0
 26 28  1  0  0  0  0
 28 29  1  0  0  0  0
 28 30  1  0  0  0  0
 30 31  1  0  0  0  0
 30 32  1  0  0  0  0
 30 33  1  0  0  0  0
M  END
$$$$

  -OEChem-03222214083D

 33 33  0     1  0  0  0  0  0999 V2000
   -3.2383   -4.6907    0.8183 H   0  0  0  0  0  0  0  0  0  0  0  0
   -3.2232   -3.7990    0.1853 C   0  0  0  0  0  0  0  0  0  0  0  0
   -4.1291   -3.2177    0.3733 H   0  0  0  0  0  0  0  0  0  0  0  0
   -3.2095   -4.1121   -0.8616 H   0  0  0  0  0  0  0  0  0  0  0  0
   -1.9964   -2.9610    0.4931 C   0  0  0  0  0  0  0  0  0  0  0  0
   -1.2381   -3.2987    1.3842 O   0  0  0  0  0  0  0  0  0  0  0  0
   -1.7570   -1.8116   -0.2326 N   0  0  0  0  0  0  0  0  0  0  0  0
   -2.3528   -1.6632   -1.0448 H   0  0  0  0  0  0  0  0  0  0  0  0
   -0.4969   -1.0426   -0.1859 C   0  0  1  0  0  0  0  0  0  0  0  0
    0.3000   -1.7435   -0.4577 H   0  0  0  0  0  0  0  0  0  0  0  0
   -0.4596    0.1097   -1.2239 C   0  0  0  0  0  0  0  0  0  0  0  0
   -0.5952    1.0665   -0.7076 H   0  0  0  0  0  0  0  0  0  0  0  0
    0.5386    0.1408   -1.6738 H   0  0  0  0  0  0  0  0  0  0  0  0
   -1.5152    0.0270   -2.3093 C   0  0  0  0  0  0  0  0  0  0  0  0
   -2.8556    0.3488   -2.0357 C   0  0  0  0  0  0  0  0  0  0  0  0
   -3.1350    0.7088   -1.0491 H   0  0  0  0  0  0  0  0  0  0  0  0
   -3.8344    0.2208   -3.0279 C   0  0  0  0  0  0  0  0  0  0  0  0
   -4.8628    0.4826   -2.8023 H   0  0  0  0  0  0  0  0  0  0  0  0
   -3.4863   -0.2371   -4.3003 C   0  0  0  0  0  0  0  0  0  0  0  0
   -4.4315   -0.3681   -5.2761 O   0  0  0  0  0  0  0  0  0  0  0  0
   -5.2866   -0.0340   -4.9637 H   0  0  0  0  0  0  0  0  0  0  0  0
   -2.1599   -0.5644   -4.5760 C   0  0  0  0  0  0  0  0  0  0  0  0
   -1.8981   -0.9203   -5.5674 H   0  0  0  0  0  0  0  0  0  0  0  0
   -1.1766   -0.4348   -3.5892 C   0  0  0  0  0  0  0  0  0  0  0  0
   -0.1491   -0.7010   -3.8218 H   0  0  0  0  0  0  0  0  0  0  0  0
   -0.1232   -0.4935    1.2074 C   0  0  0  0  0  0  0  0  0  0  0  0
    1.0566   -0.3516    1.5009 O   0  0  0  0  0  0  0  0  0  0  0  0
   -1.0891    0.1137    1.9897 N   0  0  0  0  0  0  0  0  0  0  0  0
   -2.0494   -0.1279    1.7683 H   0  0  0  0  0  0  0  0  0  0  0  0
   -0.7970    0.6753    3.3026 C   0  0  0  0  0  0  0  0  0  0  0  0
   -0.0288    1.4520    3.2263 H   0  0  0  0  0  0  0  0  0  0  0  0
   -1.6981    1.1247    3.7303 H   0  0  0  0  0  0  0  0  0  0  0  0
   -0.4409   -0.1066    3.9818 H   0  0  0  0  0  0  0  0  0  0  0  0
  1  2  1  0  0  0  0
  2  3  1  0  0  0  0
  2  4  1  0  0  0  0
  2  5  1  0  0  0  0
  5  6  2  0  0  0  0
  5  7  1  0  0  0  0
  7  8  1  0  0  0  0
  7  9  1  0  0  0  0
  9 10  1  0  0  0  0
  9 11  1  0  0  0  0
  9 26  1  0  0  0  0
 11 12  1  0  0  0  0
 11 13  1  0  0  0  0
 11 14  1  0  0  0  0
 14 15  2  0  0  0  0
 14 24  1  0  0  0  0
 15 16  1  0  0  0  0
 15 17  1  0  0  0  0
 17 18  1  0  0  0  0
 17 19  2  0  0  0  0
 19 20  1  0  0  0  0
 19 22  1  0  0  0  0
 20 21  1  0  0  0  0
 22 23  1  0  0  0  0
 22 24  2  0  0  0  0
 24 25  1  0  0  0  0
 26 27  2  0  0  0  0
 26 28  1  0  0  0  0
 28 29  1  0  0  0  0
 28 30  1  0  0  0  0
 30 31  1  0  0  0  0
 30 32  1  0  0  0  0
 30 33  1  0  0  0  0
M  END
$$$$

  -OEChem-03222214083D

 33 33  0     1  0  0  0  0  0999 V2000
   -3.2603   -4.6589    0.7600 H   0  0  0  0  0  0  0  0  0  0  0  0
   -3.2406   -3.7505    0.1513 C   0  0  0  0  0  0  0  0  0  0  0  0
   -4.1340   -3.1608    0.3695 H   0  0  0  0  0  0  0  0  0  0  0  0
   -3.2480   -4.0351   -0.9037 H   0  0  0  0  0  0  0  0  0  0  0  0
   -1.9959   -2.9398    0.4604 C   0  0  0  0  0  0  0  0  0  0  0  0
   -1.2416   -3.2975    1.3473 O   0  0  0  0  0  0  0  0  0  0  0  0
   -1.7340   -1.7927   -0.2606 N   0  0  0  0  0  0  0  0  0  0  0  0
   -2.3389   -1.6128   -1.0599 H   0  0  0  0  0  0  0  0  0  0  0  0
   -0.4692   -1.0313   -0.1958 C   0  0  1  0  0  0  0  0  0  0  0  0
    0.3302   -1.7327   -0.4595 H   0  0  0  0  0  0  0  0  0  0  0  0
   -0.4299    0.1208   -1.2319 C   0  0  0  0  0  0  0  0  0  0  0  0
   -0.5627    1.0799   -0.7193 H   0  0  0  0  0  0  0  0  0  0  0  0
    0.5640    0.1497   -1.6908 H   0  0  0  0  0  0  0  0  0  0  0  0
   -1.4892    0.0111   -2.3082 C   0  0  0  0  0  0  0  0  0  0  0  0
   -2.7501    0.6021   -2.1313 C   0  0  0  0  0  0  0  0  0  0  0  0
   -2.9599    1.1759   -1.2328 H   0  0  0  0  0  0  0  0  0  0  0  0
   -3.7423    0.4584   -3.1083 C   0  0  0  0  0  0  0  0  0  0  0  0
   -4.7111    0.9238   -2.9604 H   0  0  0  0  0  0  0  0  0  0  0  0
   -3.4851   -0.2794   -4.2658 C   0  0  0  0  0  0  0  0  0  0  0  0
   -4.4450   -0.4282   -5.2243 O   0  0  0  0  0  0  0  0  0  0  0  0
   -5.2193    0.1155   -5.0114 H   0  0  0  0  0  0  0  0  0  0  0  0
   -2.2360   -0.8719   -4.4432 C   0  0  0  0  0  0  0  0  0  0  0  0
   -2.0457   -1.4442   -5.3457 H   0  0  0  0  0  0  0  0  0  0  0  0
   -1.2388   -0.7286   -3.4725 C   0  0  0  0  0  0  0  0  0  0  0  0
   -0.2712   -1.1996   -3.6238 H   0  0  0  0  0  0  0  0  0  0  0  0
   -0.1160   -0.4848    1.2030 C   0  0  0  0  0  0  0  0  0  0  0  0
    1.0585   -0.3577    1.5230 O   0  0  0  0  0  0  0  0  0  0  0  0
   -1.0935    0.1275    1.9665 N   0  0  0  0  0  0  0  0  0  0  0  0
   -2.0506   -0.0978    1.7153 H   0  0  0  0  0  0  0  0  0  0  0  0
   -0.8300    0.6577    3.2982 C   0  0  0  0  0  0  0  0  0  0  0  0
   -0.0326    1.4075    3.2633 H   0  0  0  0  0  0  0  0  0  0  0  0
   -1.7297    1.1321    3.7011 H   0  0  0  0  0  0  0  0  0  0  0  0
   -0.5269   -0.1475    3.9756 H   0  0  0  0  0  0  0  0  0  0  0  0
  1  2  1  0  0  0  0
  2  3  1  0  0  0  0
  2  4  1  0  0  0  0
  2  5  1  0  0  0  0
  5  6  2  0  0  0  0
  5  7  1  0  0  0  0
  7  8  1  0  0  0  0
  7  9  1  0  0  0  0
  9 10  1  0  0  0  0
  9 11  1  0  0  0  0
  9 26  1  0  0  0  0
 11 12  1  0  0  0  0
 11 13  1  0  0  0  0
 11 14  1  0  0  0  0
 14 15  2  0  0  0  0
 14 24  1  0  0  0  0
 15 16  1  0  0  0  0
 15 17  1  0  0  0  0
 17 18  1  0  0  0  0
 17 19  2  0  0  0  0
 19 20  1  0  0  0  0
 19 22  1  0  0  0  0
 20 21  1  0  0  0  0
 22 23  1  0  0  0  0
 22 24  2  0  0  0  0
 24 25  1  0  0  0  0
 26 27  2  0  0  0  0
 26 28  1  0  0  0  0
 28 29  1  0  0  0  0
 28 30  1  0  0  0  0
 30 31  1  0  0  0  0
 30 32  1  0  0  0  0
 30 33  1  0  0  0  0
M  END
$$$$

  -OEChem-03222214083D

 33 33  0     1  0  0  0  0  0999 V2000
   -3.2601   -4.6620    0.7816 H   0  0  0  0  0  0  0  0  0  0  0  0
   -3.2430   -3.7550    0.1707 C   0  0  0  0  0  0  0  0  0  0  0  0
   -4.1340   -3.1629    0.3929 H   0  0  0  0  0  0  0  0  0  0  0  0
   -3.2573   -4.0414   -0.8838 H   0  0  0  0  0  0  0  0  0  0  0  0
   -1.9946   -2.9472    0.4711 C   0  0  0  0  0  0  0  0  0  0  0  0
   -1.2312   -3.3102    1.3481 O   0  0  0  0  0  0  0  0  0  0  0  0
   -1.7346   -1.8011   -0.2521 N   0  0  0  0  0  0  0  0  0  0  0  0
   -2.3546   -1.6079   -1.0367 H   0  0  0  0  0  0  0  0  0  0  0  0
   -0.4712   -1.0370   -0.1905 C   0  0  1  0  0  0  0  0  0  0  0  0
    0.3288   -1.7384   -0.4517 H   0  0  0  0  0  0  0  0  0  0  0  0
   -0.4349    0.1092   -1.2329 C   0  0  0  0  0  0  0  0  0  0  0  0
   -0.5634    1.0699   -0.7223 H   0  0  0  0  0  0  0  0  0  0  0  0
    0.5565    0.1343   -1.6973 H   0  0  0  0  0  0  0  0  0  0  0  0
   -1.4938   -0.0098   -2.3094 C   0  0  0  0  0  0  0  0  0  0  0  0
   -2.6280    0.8162   -2.2952 C   0  0  0  0  0  0  0  0  0  0  0  0
   -2.7479    1.5657   -1.5178 H   0  0  0  0  0  0  0  0  0  0  0  0
   -3.6134    0.6809   -3.2805 C   0  0  0  0  0  0  0  0  0  0  0  0
   -4.4842    1.3273   -3.2573 H   0  0  0  0  0  0  0  0  0  0  0  0
   -3.4740   -0.2780   -4.2864 C   0  0  0  0  0  0  0  0  0  0  0  0
   -4.4290   -0.4202   -5.2507 O   0  0  0  0  0  0  0  0  0  0  0  0
   -5.1017    0.2727   -5.1616 H   0  0  0  0  0  0  0  0  0  0  0  0
   -2.3470   -1.0975   -4.3068 C   0  0  0  0  0  0  0  0  0  0  0  0
   -2.2446   -1.8366   -5.0951 H   0  0  0  0  0  0  0  0  0  0  0  0
   -1.3568   -0.9642   -3.3281 C   0  0  0  0  0  0  0  0  0  0  0  0
   -0.4819   -1.6081   -3.3579 H   0  0  0  0  0  0  0  0  0  0  0  0
   -0.1168   -0.4863    1.2061 C   0  0  0  0  0  0  0  0  0  0  0  0
    1.0583   -0.3589    1.5244 O   0  0  0  0  0  0  0  0  0  0  0  0
   -1.0937    0.1262    1.9700 N   0  0  0  0  0  0  0  0  0  0  0  0
   -2.0516   -0.0943    1.7171 H   0  0  0  0  0  0  0  0  0  0  0  0
   -0.8287    0.6643    3.2981 C   0  0  0  0  0  0  0  0  0  0  0  0
   -0.0358    1.4188    3.2562 H   0  0  0  0  0  0  0  0  0  0  0  0
   -1.7299    1.1356    3.7019 H   0  0  0  0  0  0  0  0  0  0  0  0
   -0.5185   -0.1359    3.9785 H   0  0  0  0  0  0  0  0  0  0  0  0
  1  2  1  0  0  0  0
  2  3  1  0  0  0  0
  2  4  1  0  0  0  0
  2  5  1  0  0  0  0
  5  6  2  0  0  0  0
  5  7  1  0  0  0  0
  7  8  1  0  0  0  0
  7  9  1  0  0  0  0
  9 10  1  0  0  0  0
  9 11  1  0  0  0  0
  9 26  1  0  0  0  0
 11 12  1  0  0  0  0
 11 13  1  0  0  0  0
 11 14  1  0  0  0  0
 14 15  2  0  0  0  0
 14 24  1  0  0  0  0
 15 16  1  0  0  0  0
 15 17  1  0  0  0  0
 17 18  1  0  0  0  0
 17 19  2  0  0  0  0
 19 20  1  0  0  0  0
 19 22  1  0  0  0  0
 20 21  1  0  0  0  0
 22 23  1  0  0  0  0
 22 24  2  0  0  0  0
 24 25  1  0  0  0  0
 26 27  2  0  0  0  0
 26 28  1  0  0  0  0
 28 29  1  0  0  0  0
 28 30  1  0  0  0  0
 30 31  1  0  0  0  0
 30 32  1  0  0  0  0
 30 33  1  0  0  0  0
M  END
$$$$

  -OEChem-03222214083D

 33 33  0     1  0  0  0  0  0999 V2000
   -3.2417   -4.6794    0.8848 H   0  0  0  0  0  0  0  0  0  0  0  0
   -3.2368   -3.7816    0.2602 C   0  0  0  0  0  0  0  0  0  0  0  0
   -4.1190   -3.1823    0.4974 H   0  0  0  0  0  0  0  0  0  0  0  0
   -3.2810   -4.0838   -0.7891 H   0  0  0  0  0  0  0  0  0  0  0  0
   -1.9773   -2.9755    0.5155 C   0  0  0  0  0  0  0  0  0  0  0  0
   -1.1862   -3.3366    1.3683 O   0  0  0  0  0  0  0  0  0  0  0  0
   -1.7370   -1.8335   -0.2209 N   0  0  0  0  0  0  0  0  0  0  0  0
   -2.3866   -1.6313   -0.9787 H   0  0  0  0  0  0  0  0  0  0  0  0
   -0.4819   -1.0549   -0.1804 C   0  0  1  0  0  0  0  0  0  0  0  0
    0.3230   -1.7507   -0.4412 H   0  0  0  0  0  0  0  0  0  0  0  0
   -0.4637    0.0816   -1.2351 C   0  0  0  0  0  0  0  0  0  0  0  0
   -0.5927    1.0434   -0.7271 H   0  0  0  0  0  0  0  0  0  0  0  0
    0.5249    0.1081   -1.7053 H   0  0  0  0  0  0  0  0  0  0  0  0
   -1.5226   -0.0395   -2.3142 C   0  0  0  0  0  0  0  0  0  0  0  0
   -2.4848    0.9670   -2.4892 C   0  0  0  0  0  0  0  0  0  0  0  0
   -2.4900    1.8376   -1.8390 H   0  0  0  0  0  0  0  0  0  0  0  0
   -3.4493    0.8582   -3.4985 C   0  0  0  0  0  0  0  0  0  0  0  0
   -4.1905    1.6418   -3.6151 H   0  0  0  0  0  0  0  0  0  0  0  0
   -3.4536   -0.2485   -4.3502 C   0  0  0  0  0  0  0  0  0  0  0  0
   -4.3886   -0.3652   -5.3373 O   0  0  0  0  0  0  0  0  0  0  0  0
   -4.9329    0.4364   -5.3796 H   0  0  0  0  0  0  0  0  0  0  0  0
   -2.4870   -1.2403   -4.1962 C   0  0  0  0  0  0  0  0  0  0  0  0
   -2.4894   -2.0902   -4.8714 H   0  0  0  0  0  0  0  0  0  0  0  0
   -1.5188   -1.1349   -3.1927 C   0  0  0  0  0  0  0  0  0  0  0  0
   -0.7620   -1.9086   -3.0943 H   0  0  0  0  0  0  0  0  0  0  0  0
   -0.1207   -0.4877    1.2079 C   0  0  0  0  0  0  0  0  0  0  0  0
    1.0555   -0.3478    1.5160 O   0  0  0  0  0  0  0  0  0  0  0  0
   -1.0969    0.1207    1.9760 N   0  0  0  0  0  0  0  0  0  0  0  0
   -2.0556   -0.1025    1.7289 H   0  0  0  0  0  0  0  0  0  0  0  0
   -0.8261    0.6756    3.2959 C   0  0  0  0  0  0  0  0  0  0  0  0
   -0.0360    1.4318    3.2408 H   0  0  0  0  0  0  0  0  0  0  0  0
   -1.7263    1.1489    3.6991 H   0  0  0  0  0  0  0  0  0  0  0  0
   -0.5095   -0.1153    3.9839 H   0  0  0  0  0  0  0  0  0  0  0  0
  1  2  1  0  0  0  0
  2  3  1  0  0  0  0
  2  4  1  0  0  0  0
  2  5  1  0  0  0  0
  5  6  2  0  0  0  0
  5  7  1  0  0  0  0
  7  8  1  0  0  0  0
  7  9  1  0  0  0  0
  9 10  1  0  0  0  0
  9 11  1  0  0  0  0
  9 26  1  0  0  0  0
 11 12  1  0  0  0  0
 11 13  1  0  0  0  0
 11 14  1  0  0  0  0
 14 15  2  0  0  0  0
 14 24  1  0  0  0  0
 15 16  1  0  0  0  0
 15 17  1  0  0  0  0
 17 18  1  0  0  0  0
 17 19  2  0  0  0  0
 19 20  1  0  0  0  0
 19 22  1  0  0  0  0
 20 21  1  0  0  0  0
 22 23  1  0  0  0  0
 22 24  2  0  0  0  0
 24 25  1  0  0  0  0
 26 27  2  0  0  0  0
 26 28  1  0  0  0  0
 28 29  1  0  0  0  0
 28 30  1  0  0  0  0
 30 31  1  0  0  0  0
 30 32  1  0  0  0  0
 30 33  1  0  0  0  0
M  END
$$$$

  -OEChem-03222214083D

 33 33  0     1  0  0  0  0  0999 V2000
   -3.2264   -4.6925    1.0348 H   0  0  0  0  0  0  0  0  0  0  0  0
   -3.2311   -3.8122    0.3859 C   0  0  0  0  0  0  0  0  0  0  0  0
   -4.0960   -3.1937    0.6374 H   0  0  0  0  0  0  0  0  0  0  0  0
   -3.3165   -4.1413   -0.6525 H   0  0  0  0  0  0  0  0  0  0  0  0
   -1.9526   -3.0179    0.5747 C   0  0  0  0  0  0  0  0  0  0  0  0
   -1.1222   -3.3830    1.3874 O   0  0  0  0  0  0  0  0  0  0  0  0
   -1.7407   -1.8798   -0.1763 N   0  0  0  0  0  0  0  0  0  0  0  0
   -2.4368   -1.6577   -0.8852 H   0  0  0  0  0  0  0  0  0  0  0  0
   -0.4999   -1.0790   -0.1674 C   0  0  1  0  0  0  0  0  0  0  0  0
    0.3123   -1.7652   -0.4324 H   0  0  0  0  0  0  0  0  0  0  0  0
   -0.5099    0.0471   -1.2357 C   0  0  0  0  0  0  0  0  0  0  0  0
   -0.6448    1.0085   -0.7283 H   0  0  0  0  0  0  0  0  0  0  0  0
    0.4764    0.0818   -1.7102 H   0  0  0  0  0  0  0  0  0  0  0  0
   -1.5686   -0.0686   -2.3198 C   0  0  0  0  0  0  0  0  0  0  0  0
   -2.3199    1.0574   -2.6922 C   0  0  0  0  0  0  0  0  0  0  0  0
   -2.1887    1.9988   -2.1659 H   0  0  0  0  0  0  0  0  0  0  0  0
   -3.2533    0.9808   -3.7331 C   0  0  0  0  0  0  0  0  0  0  0  0
   -3.8376    1.8575   -3.9912 H   0  0  0  0  0  0  0  0  0  0  0  0
   -3.4235   -0.2122   -4.4374 C   0  0  0  0  0  0  0  0  0  0  0  0
   -4.3304   -0.2994   -5.4534 O   0  0  0  0  0  0  0  0  0  0  0  0
   -4.7467    0.5632   -5.6057 H   0  0  0  0  0  0  0  0  0  0  0  0
   -2.6465   -1.3209   -4.1101 C   0  0  0  0  0  0  0  0  0  0  0  0
   -2.7641   -2.2359   -4.6823 H   0  0  0  0  0  0  0  0  0  0  0  0
   -1.7118   -1.2479   -3.0725 C   0  0  0  0  0  0  0  0  0  0  0  0
   -1.0898   -2.1127   -2.8564 H   0  0  0  0  0  0  0  0  0  0  0  0
   -0.1269   -0.4913    1.2097 C   0  0  0  0  0  0  0  0  0  0  0  0
    1.0511   -0.3226    1.4954 O   0  0  0  0  0  0  0  0  0  0  0  0
   -1.1015    0.1070    1.9879 N   0  0  0  0  0  0  0  0  0  0  0  0
   -2.0610   -0.1288    1.7565 H   0  0  0  0  0  0  0  0  0  0  0  0
   -0.8197    0.6961    3.2908 C   0  0  0  0  0  0  0  0  0  0  0  0
   -0.0616    1.4815    3.2024 H   0  0  0  0  0  0  0  0  0  0  0  0
   -1.7276    1.1413    3.7086 H   0  0  0  0  0  0  0  0  0  0  0  0
   -0.4554   -0.0689    3.9846 H   0  0  0  0  0  0  0  0  0  0  0  0
  1  2  1  0  0  0  0
  2  3  1  0  0  0  0
  2  4  1  0  0  0  0
  2  5  1  0  0  0  0
  5  6  2  0  0  0  0
  5  7  1  0  0  0  0
  7  8  1  0  0  0  0
  7  9  1  0  0  0  0
  9 10  1  0  0  0  0
  9 11  1  0  0  0  0
  9 26  1  0  0  0  0
 11 12  1  0  0  0  0
 11 13  1  0  0  0  0
 11 14  1  0  0  0  0
 14 15  2  0  0  0  0
 14 24  1  0  0  0  0
 15 16  1  0  0  0  0
 15 17  1  0  0  0  0
 17 18  1  0  0  0  0
 17 19  2  0  0  0  0
 19 20  1  0  0  0  0
 19 22  1  0  0  0  0
 20 21  1  0  0  0  0
 22 23  1  0  0  0  0
 22 24  2  0  0  0  0
 24 25  1  0  0  0  0
 26 27  2  0  0  0  0
 26 28  1  0  0  0  0
 28 29  1  0  0  0  0
 28 30  1  0  0  0  0
 30 31  1  0  0  0  0
 30 32  1  0  0  0  0
 30 33  1  0  0  0  0
M  END
$$$$

  -OEChem-03222214083D

 33 33  0     1  0  0  0  0  0999 V2000
   -3.1689   -4.7246    1.2083 H   0  0  0  0  0  0  0  0  0  0  0  0
   -3.2054   -3.8593    0.5403 C   0  0  0  0  0  0  0  0  0  0  0  0
   -4.0584   -3.2362    0.8192 H   0  0  0  0  0  0  0  0  0  0  0  0
   -3.3398   -4.2119   -0.4853 H   0  0  0  0  0  0  0  0  0  0  0  0
   -1.9207   -3.0596    0.6497 C   0  0  0  0  0  0  0  0  0  0  0  0
   -1.0430   -3.4170    1.4145 O   0  0  0  0  0  0  0  0  0  0  0  0
   -1.7553   -1.9258   -0.1195 N   0  0  0  0  0  0  0  0  0  0  0  0
   -2.5014   -1.6936   -0.7717 H   0  0  0  0  0  0  0  0  0  0  0  0
   -0.5339   -1.0975   -0.1542 C   0  0  1  0  0  0  0  0  0  0  0  0
    0.2840   -1.7738   -0.4266 H   0  0  0  0  0  0  0  0  0  0  0  0
   -0.5750    0.0136   -1.2399 C   0  0  0  0  0  0  0  0  0  0  0  0
   -0.7195    0.9748   -0.7349 H   0  0  0  0  0  0  0  0  0  0  0  0
    0.4101    0.0580   -1.7162 H   0  0  0  0  0  0  0  0  0  0  0  0
   -1.6301   -0.0894   -2.3334 C   0  0  0  0  0  0  0  0  0  0  0  0
   -2.1332    1.0926   -2.9028 C   0  0  0  0  0  0  0  0  0  0  0  0
   -1.8404    2.0574   -2.4975 H   0  0  0  0  0  0  0  0  0  0  0  0
   -3.0293    1.0513   -3.9778 C   0  0  0  0  0  0  0  0  0  0  0  0
   -3.4259    1.9783   -4.3775 H   0  0  0  0  0  0  0  0  0  0  0  0
   -3.3984   -0.1724   -4.5365 C   0  0  0  0  0  0  0  0  0  0  0  0
   -4.2723   -0.2281   -5.5832 O   0  0  0  0  0  0  0  0  0  0  0  0
   -4.5256    0.6675   -5.8555 H   0  0  0  0  0  0  0  0  0  0  0  0
   -2.8444   -1.3477   -4.0377 C   0  0  0  0  0  0  0  0  0  0  0  0
   -3.1002   -2.2919   -4.5081 H   0  0  0  0  0  0  0  0  0  0  0  0
   -1.9474   -1.3082   -2.9654 C   0  0  0  0  0  0  0  0  0  0  0  0
   -1.4819   -2.2365   -2.6468 H   0  0  0  0  0  0  0  0  0  0  0  0
   -0.1400   -0.4867    1.2074 C   0  0  0  0  0  0  0  0  0  0  0  0
    1.0406   -0.2919    1.4639 O   0  0  0  0  0  0  0  0  0  0  0  0
   -1.1066    0.0978    2.0061 N   0  0  0  0  0  0  0  0  0  0  0  0
   -2.0692   -0.1432    1.7937 H   0  0  0  0  0  0  0  0  0  0  0  0
   -0.8040    0.7180    3.2898 C   0  0  0  0  0  0  0  0  0  0  0  0
   -0.0837    1.5330    3.1622 H   0  0  0  0  0  0  0  0  0  0  0  0
   -1.7146    1.1308    3.7341 H   0  0  0  0  0  0  0  0  0  0  0  0
   -0.3827   -0.0198    3.9809 H   0  0  0  0  0  0  0  0  0  0  0  0
  1  2  1  0  0  0  0
  2  3  1  0  0  0  0
  2  4  1  0  0  0  0
  2  5  1  0  0  0  0
  5  6  2  0  0  0  0
  5  7  1  0  0  0  0
  7  8  1  0  0  0  0
  7  9  1  0  0  0  0
  9 10  1  0  0  0  0
  9 11  1  0  0  0  0
  9 26  1  0  0  0  0
 11 12  1  0  0  0  0
 11 13  1  0  0  0  0
 11 14  1  0  0  0  0
 14 15  2  0  0  0  0
 14 24  1  0  0  0  0
 15 16  1  0  0  0  0
 15 17  1  0  0  0  0
 17 18  1  0  0  0  0
 17 19  2  0  0  0  0
 19 20  1  0  0  0  0
 19 22  1  0  0  0  0
 20 21  1  0  0  0  0
 22 23  1  0  0  0  0
 22 24  2  0  0  0  0
 24 25  1  0  0  0  0
 26 27  2  0  0  0  0
 26 28  1  0  0  0  0
 28 29  1  0  0  0  0
 28 30  1  0  0  0  0
 30 31  1  0  0  0  0
 30 32  1  0  0  0  0
 30 33  1  0  0  0  0
M  END
$$$$

  -OEChem-03222214083D

 33 33  0     1  0  0  0  0  0999 V2000
   -3.0540   -4.7712    1.4192 H   0  0  0  0  0  0  0  0  0  0  0  0
   -3.1454   -3.9256    0.7315 C   0  0  0  0  0  0  0  0  0  0  0  0
   -3.9869   -3.3045    1.0474 H   0  0  0  0  0  0  0  0  0  0  0  0
   -3.3403   -4.3092   -0.2730 H   0  0  0  0  0  0  0  0  0  0  0  0
   -1.8667   -3.1094    0.7358 C   0  0  0  0  0  0  0  0  0  0  0  0
   -0.9312   -3.4478    1.4380 O   0  0  0  0  0  0  0  0  0  0  0  0
   -1.7709   -1.9825   -0.0561 N   0  0  0  0  0  0  0  0  0  0  0  0
   -2.5789   -1.7405   -0.6248 H   0  0  0  0  0  0  0  0  0  0  0  0
   -0.5808   -1.1165   -0.1466 C   0  0  1  0  0  0  0  0  0  0  0  0
    0.2457   -1.7787   -0.4287 H   0  0  0  0  0  0  0  0  0  0  0  0
   -0.6577   -0.0242   -1.2509 C   0  0  0  0  0  0  0  0  0  0  0  0
   -0.8150    0.9369   -0.7492 H   0  0  0  0  0  0  0  0  0  0  0  0
    0.3285    0.0312   -1.7240 H   0  0  0  0  0  0  0  0  0  0  0  0
   -1.7018   -0.1042   -2.3616 C   0  0  0  0  0  0  0  0  0  0  0  0
   -1.9262    1.0642   -3.1111 C   0  0  0  0  0  0  0  0  0  0  0  0
   -1.4480    1.9939   -2.8150 H   0  0  0  0  0  0  0  0  0  0  0  0
   -2.7778    1.0683   -4.2216 C   0  0  0  0  0  0  0  0  0  0  0  0
   -2.9564    1.9961   -4.7542 H   0  0  0  0  0  0  0  0  0  0  0  0
   -3.3790   -0.1153   -4.6456 C   0  0  0  0  0  0  0  0  0  0  0  0
   -4.2110   -0.1294   -5.7272 O   0  0  0  0  0  0  0  0  0  0  0  0
   -4.2753    0.7594   -6.1100 H   0  0  0  0  0  0  0  0  0  0  0  0
   -3.0936   -1.3018   -3.9783 C   0  0  0  0  0  0  0  0  0  0  0  0
   -3.5196   -2.2285   -4.3495 H   0  0  0  0  0  0  0  0  0  0  0  0
   -2.2384   -1.3065   -2.8712 C   0  0  0  0  0  0  0  0  0  0  0  0
   -1.9709   -2.2732   -2.4605 H   0  0  0  0  0  0  0  0  0  0  0  0
   -0.1613   -0.4744    1.1935 C   0  0  0  0  0  0  0  0  0  0  0  0
    1.0207   -0.2399    1.4070 O   0  0  0  0  0  0  0  0  0  0  0  0
   -1.1166    0.0896    2.0203 N   0  0  0  0  0  0  0  0  0  0  0  0
   -2.0806   -0.1708    1.8404 H   0  0  0  0  0  0  0  0  0  0  0  0
   -0.7872    0.7439    3.2803 C   0  0  0  0  0  0  0  0  0  0  0  0
   -0.0992    1.5791    3.1111 H   0  0  0  0  0  0  0  0  0  0  0  0
   -1.6936    1.1349    3.7520 H   0  0  0  0  0  0  0  0  0  0  0  0
   -0.3163    0.0332    3.9677 H   0  0  0  0  0  0  0  0  0  0  0  0
  1  2  1  0  0  0  0
  2  3  1  0  0  0  0
  2  4  1  0  0  0  0
  2  5  1  0  0  0  0
  5  6  2  0  0  0  0
  5  7  1  0  0  0  0
  7  8  1  0  0  0  0
  7  9  1  0  0  0  0
  9 10  1  0  0  0  0
  9 11  1  0  0  0  0
  9 26  1  0  0  0  0
 11 12  1  0  0  0  0
 11 13  1  0  0  0  0
 11 14  1  0  0  0  0
 14 15  2  0  0  0  0
 14 24  1  0  0  0  0
 15 16  1  0  0  0  0
 15 17  1  0  0  0  0
 17 18  1  0  0  0  0
 17 19  2  0  0  0  0
 19 20  1  0  0  0  0
 19 22  1  0  0  0  0
 20 21  1  0  0  0  0
 22 23  1  0  0  0  0
 22 24  2  0  0  0  0
 24 25  1  0  0  0  0
 26 27  2  0  0  0  0
 26 28  1  0  0  0  0
 28 29  1  0  0  0  0
 28 30  1  0  0  0  0
 30 31  1  0  0  0  0
 30 32  1  0  0  0  0
 30 33  1  0  0  0  0
M  END
$$$$

  -OEChem-03222214083D

 33 33  0     1  0  0  0  0  0999 V2000
   -2.6019   -4.8797    1.7292 H   0  0  0  0  0  0  0  0  0  0  0  0
   -2.8404   -4.0591    1.0464 C   0  0  0  0  0  0  0  0  0  0  0  0
   -3.6261   -3.4466    1.4947 H   0  0  0  0  0  0  0  0  0  0  0  0
   -3.2061   -4.4798    0.1065 H   0  0  0  0  0  0  0  0  0  0  0  0
   -1.6035   -3.2182    0.7903 C   0  0  0  0  0  0  0  0  0  0  0  0
   -0.5399   -3.5357    1.2913 O   0  0  0  0  0  0  0  0  0  0  0  0
   -1.6951   -2.0921   -0.0051 N   0  0  0  0  0  0  0  0  0  0  0  0
   -2.6293   -1.8031   -0.2690 H   0  0  0  0  0  0  0  0  0  0  0  0
   -0.6015   -1.1269   -0.1960 C   0  0  1  0  0  0  0  0  0  0  0  0
    0.2557   -1.7274   -0.5223 H   0  0  0  0  0  0  0  0  0  0  0  0
   -0.7871   -0.0391   -1.3001 C   0  0  0  0  0  0  0  0  0  0  0  0
   -0.6723    0.9363   -0.8136 H   0  0  0  0  0  0  0  0  0  0  0  0
    0.0752   -0.1455   -1.9672 H   0  0  0  0  0  0  0  0  0  0  0  0
   -2.0147    0.1043   -2.2071 C   0  0  0  0  0  0  0  0  0  0  0  0
   -1.9423    1.1719   -3.1223 C   0  0  0  0  0  0  0  0  0  0  0  0
   -1.0794    1.8327   -3.1096 H   0  0  0  0  0  0  0  0  0  0  0  0
   -2.9613    1.4236   -4.0467 C   0  0  0  0  0  0  0  0  0  0  0  0
   -2.8727    2.2669   -4.7230 H   0  0  0  0  0  0  0  0  0  0  0  0
   -4.0767    0.5928   -4.0978 C   0  0  0  0  0  0  0  0  0  0  0  0
   -5.0820    0.8242   -4.9913 O   0  0  0  0  0  0  0  0  0  0  0  0
   -4.8758    1.6037   -5.5303 H   0  0  0  0  0  0  0  0  0  0  0  0
   -4.1535   -0.4959   -3.2375 C   0  0  0  0  0  0  0  0  0  0  0  0
   -5.0133   -1.1545   -3.3062 H   0  0  0  0  0  0  0  0  0  0  0  0
   -3.1336   -0.7535   -2.3139 C   0  0  0  0  0  0  0  0  0  0  0  0
   -3.2645   -1.6547   -1.7385 H   0  0  0  0  0  0  0  0  0  0  0  0
   -0.1409   -0.4603    1.1198 C   0  0  0  0  0  0  0  0  0  0  0  0
    1.0306   -0.1351    1.2586 O   0  0  0  0  0  0  0  0  0  0  0  0
   -1.0760    0.0078    2.0262 N   0  0  0  0  0  0  0  0  0  0  0  0
   -2.0385   -0.2777    1.8849 H   0  0  0  0  0  0  0  0  0  0  0  0
   -0.7161    0.6983    3.2581 C   0  0  0  0  0  0  0  0  0  0  0  0
   -0.1772    1.6251    3.0351 H   0  0  0  0  0  0  0  0  0  0  0  0
   -1.6159    0.9508    3.8271 H   0  0  0  0  0  0  0  0  0  0  0  0
   -0.0791    0.0613    3.8808 H   0  0  0  0  0  0  0  0  0  0  0  0
  1  2  1  0  0  0  0
  2  3  1  0  0  0  0
  2  4  1  0  0  0  0
  2  5  1  0  0  0  0
  5  6  2  0  0  0  0
  5  7  1  0  0  0  0
  7  8  1  0  0  0  0
  7  9  1  0  0  0  0
  9 10  1  0  0  0  0
  9 11  1  0  0  0  0
  9 26  1  0  0  0  0
 11 12  1  0  0  0  0
 11 13  1  0  0  0  0
 11 14  1  0  0  0  0
 14 15  2  0  0  0  0
 14 24  1  0  0  0  0
 15 16  1  0  0  0  0
 15 17  1  0  0  0  0
 17 18  1  0  0  0  0
 17 19  2  0  0  0  0
 19 20  1  0  0  0  0
 19 22  1  0  0  0  0
 20 21  1  0  0  0  0
 22 23  1  0  0  0  0
 22 24  2  0  0  0  0
 24 25  1  0  0  0  0
 26 27  2  0  0  0  0
 26 28  1  0  0  0  0
 28 29  1  0  0  0  0
 28 30  1  0  0  0  0
 30 31  1  0  0  0  0
 30 32  1  0  0  0  0
 30 33  1  0  0  0  0
M  END
$$$$

  -OEChem-03222214083D

 33 33  0     1  0  0  0  0  0999 V2000
   -2.3776   -5.1555    1.1615 H   0  0  0  0  0  0  0  0  0  0  0  0
   -2.5838   -4.3202    0.4861 C   0  0  0  0  0  0  0  0  0  0  0  0
   -3.5755   -3.9219    0.7126 H   0  0  0  0  0  0  0  0  0  0  0  0
   -2.5725   -4.6897   -0.5421 H   0  0  0  0  0  0  0  0  0  0  0  0
   -1.5355   -3.2373    0.6610 C   0  0  0  0  0  0  0  0  0  0  0  0
   -0.6526   -3.3802    1.4872 O   0  0  0  0  0  0  0  0  0  0  0  0
   -1.5946   -2.0992   -0.1206 N   0  0  0  0  0  0  0  0  0  0  0  0
   -2.2404   -2.1432   -0.9043 H   0  0  0  0  0  0  0  0  0  0  0  0
   -0.5070   -1.1099   -0.2216 C   0  0  1  0  0  0  0  0  0  0  0  0
    0.3845   -1.6662   -0.5327 H   0  0  0  0  0  0  0  0  0  0  0  0
   -0.7227    0.0227   -1.2743 C   0  0  0  0  0  0  0  0  0  0  0  0
   -0.6456    0.9885   -0.7619 H   0  0  0  0  0  0  0  0  0  0  0  0
    0.1384   -0.0303   -1.9490 H   0  0  0  0  0  0  0  0  0  0  0  0
   -1.9752    0.1189   -2.1469 C   0  0  0  0  0  0  0  0  0  0  0  0
   -1.8843    0.9717   -3.2626 C   0  0  0  0  0  0  0  0  0  0  0  0
   -0.9304    1.4271   -3.5148 H   0  0  0  0  0  0  0  0  0  0  0  0
   -2.9872    1.2291   -4.0843 C   0  0  0  0  0  0  0  0  0  0  0  0
   -2.8661    1.8614   -4.9573 H   0  0  0  0  0  0  0  0  0  0  0  0
   -4.2310    0.6854   -3.7735 C   0  0  0  0  0  0  0  0  0  0  0  0
   -5.3177    0.9244   -4.5636 O   0  0  0  0  0  0  0  0  0  0  0  0
   -5.0675    1.4827   -5.3163 H   0  0  0  0  0  0  0  0  0  0  0  0
   -4.3700   -0.0785   -2.6202 C   0  0  0  0  0  0  0  0  0  0  0  0
   -5.3549   -0.4486   -2.3535 H   0  0  0  0  0  0  0  0  0  0  0  0
   -3.2677   -0.3327   -1.7966 C   0  0  0  0  0  0  0  0  0  0  0  0
   -3.4803   -0.8394   -0.8651 H   0  0  0  0  0  0  0  0  0  0  0  0
   -0.1382   -0.4529    1.1283 C   0  0  0  0  0  0  0  0  0  0  0  0
    1.0166   -0.0988    1.3286 O   0  0  0  0  0  0  0  0  0  0  0  0
   -1.1350   -0.0131    1.9806 N   0  0  0  0  0  0  0  0  0  0  0  0
   -2.0623   -0.3908    1.8169 H   0  0  0  0  0  0  0  0  0  0  0  0
   -0.8560    0.6374    3.2545 C   0  0  0  0  0  0  0  0  0  0  0  0
   -0.2537    1.5391    3.1016 H   0  0  0  0  0  0  0  0  0  0  0  0
   -1.7902    0.9278    3.7443 H   0  0  0  0  0  0  0  0  0  0  0  0
   -0.3112   -0.0419    3.9185 H   0  0  0  0  0  0  0  0  0  0  0  0
  1  2  1  0  0  0  0
  2  3  1  0  0  0  0
  2  4  1  0  0  0  0
  2  5  1  0  0  0  0
  5  6  2  0  0  0  0
  5  7  1  0  0  0  0
  7  8  1  0  0  0  0
  7  9  1  0  0  0  0
  9 10  1  0  0  0  0
  9 11  1  0  0  0  0
  9 26  1  0  0  0  0
 11 12  1  0  0  0  0
 11 13  1  0  0  0  0
 11 14  1  0  0  0  0
 14 15  2  0  0  0  0
 14 24  1  0  0  0  0
 15 16  1  0  0  0  0
 15 17  1  0  0  0  0
 17 18  1  0  0  0  0
 17 19  2  0  0  0  0
 19 20  1  0  0  0  0
 19 22  1  0  0  0  0
 20 21  1  0  0  0  0
 22 23  1  0  0  0  0
 22 24  2  0  0  0  0
 24 25  1  0  0  0  0
 26 27  2  0  0  0  0
 26 28  1  0  0  0  0
 28 29  1  0  0  0  0
 28 30  1  0  0  0  0
 30 31  1  0  0  0  0
 30 32  1  0  0  0  0
 30 33  1  0  0  0  0
M  END
$$$$

  -OEChem-03222214083D

 33 33  0     1  0  0  0  0  0999 V2000
   -2.8305   -4.9709    1.1872 H   0  0  0  0  0  0  0  0  0  0  0  0
   -2.9316   -4.1232    0.5034 C   0  0  0  0  0  0  0  0  0  0  0  0
   -3.8772   -3.6161    0.7091 H   0  0  0  0  0  0  0  0  0  0  0  0
   -2.9433   -4.4995   -0.5224 H   0  0  0  0  0  0  0  0  0  0  0  0
   -1.7742   -3.1601    0.6899 C   0  0  0  0  0  0  0  0  0  0  0  0
   -0.9333   -3.3810    1.5424 O   0  0  0  0  0  0  0  0  0  0  0  0
   -1.6896   -2.0353   -0.1069 N   0  0  0  0  0  0  0  0  0  0  0  0
   -2.3366   -1.9958   -0.8910 H   0  0  0  0  0  0  0  0  0  0  0  0
   -0.5155   -1.1442   -0.1703 C   0  0  1  0  0  0  0  0  0  0  0  0
    0.3390   -1.7777   -0.4342 H   0  0  0  0  0  0  0  0  0  0  0  0
   -0.6093   -0.0330   -1.2591 C   0  0  0  0  0  0  0  0  0  0  0  0
   -0.4974    0.9456   -0.7789 H   0  0  0  0  0  0  0  0  0  0  0  0
    0.2656   -0.1554   -1.9058 H   0  0  0  0  0  0  0  0  0  0  0  0
   -1.8489    0.0617   -2.1424 C   0  0  0  0  0  0  0  0  0  0  0  0
   -1.6899    0.5583   -3.4477 C   0  0  0  0  0  0  0  0  0  0  0  0
   -0.6935    0.7522   -3.8351 H   0  0  0  0  0  0  0  0  0  0  0  0
   -2.7923    0.7851   -4.2793 C   0  0  0  0  0  0  0  0  0  0  0  0
   -2.6319    1.1330   -5.2941 H   0  0  0  0  0  0  0  0  0  0  0  0
   -4.0848    0.5780   -3.7999 C   0  0  0  0  0  0  0  0  0  0  0  0
   -5.1695    0.7959   -4.5989 O   0  0  0  0  0  0  0  0  0  0  0  0
   -4.8826    1.0876   -5.4785 H   0  0  0  0  0  0  0  0  0  0  0  0
   -4.2679    0.1784   -2.4798 C   0  0  0  0  0  0  0  0  0  0  0  0
   -5.2789    0.0718   -2.0995 H   0  0  0  0  0  0  0  0  0  0  0  0
   -3.1657   -0.0468   -1.6481 C   0  0  0  0  0  0  0  0  0  0  0  0
   -3.3589   -0.2686   -0.6041 H   0  0  0  0  0  0  0  0  0  0  0  0
   -0.1485   -0.4924    1.1812 C   0  0  0  0  0  0  0  0  0  0  0  0
    1.0224   -0.2305    1.4244 O   0  0  0  0  0  0  0  0  0  0  0  0
   -1.1396    0.0505    1.9792 N   0  0  0  0  0  0  0  0  0  0  0  0
   -2.0854   -0.2638    1.7902 H   0  0  0  0  0  0  0  0  0  0  0  0
   -0.8595    0.7000    3.2534 C   0  0  0  0  0  0  0  0  0  0  0  0
   -0.1672    1.5371    3.1142 H   0  0  0  0  0  0  0  0  0  0  0  0
   -1.7838    1.0887    3.6911 H   0  0  0  0  0  0  0  0  0  0  0  0
   -0.4139   -0.0128    3.9552 H   0  0  0  0  0  0  0  0  0  0  0  0
  1  2  1  0  0  0  0
  2  3  1  0  0  0  0
  2  4  1  0  0  0  0
  2  5  1  0  0  0  0
  5  6  2  0  0  0  0
  5  7  1  0  0  0  0
  7  8  1  0  0  0  0
  7  9  1  0  0  0  0
  9 10  1  0  0  0  0
  9 11  1  0  0  0  0
  9 26  1  0  0  0  0
 11 12  1  0  0  0  0
 11 13  1  0  0  0  0
 11 14  1  0  0  0  0
 14 15  2  0  0  0  0
 14 24  1  0  0  0  0
 15 16  1  0  0  0  0
 15 17  1  0  0  0  0
 17 18  1  0  0  0  0
 17 19  2  0  0  0  0
 19 20  1  0  0  0  0
 19 22  1  0  0  0  0
 20 21  1  0  0  0  0
 22 23  1  0  0  0  0
 22 24  2  0  0  0  0
 24 25  1  0  0  0  0
 26 27  2  0  0  0  0
 26 28  1  0  0  0  0
 28 29  1  0  0  0  0
 28 30  1  0  0  0  0
 30 31  1  0  0  0  0
 30 32  1  0  0  0  0
 30 33  1  0  0  0  0
M  END
$$$$

  -OEChem-03222214083D

 33 33  0     1  0  0  0  0  0999 V2000
   -2.9831   -4.8752    1.0818 H   0  0  0  0  0  0  0  0  0  0  0  0
   -3.0441   -4.0100    0.4157 C   0  0  0  0  0  0  0  0  0  0  0  0
   -3.9643   -3.4628    0.6332 H   0  0  0  0  0  0  0  0  0  0  0  0
   -3.0735   -4.3642   -0.6175 H   0  0  0  0  0  0  0  0  0  0  0  0
   -1.8421   -3.1071    0.6210 C   0  0  0  0  0  0  0  0  0  0  0  0
   -1.0108   -3.3855    1.4661 O   0  0  0  0  0  0  0  0  0  0  0  0
   -1.7034   -1.9691   -0.1484 N   0  0  0  0  0  0  0  0  0  0  0  0
   -2.3646   -1.8574   -0.9140 H   0  0  0  0  0  0  0  0  0  0  0  0
   -0.5004   -1.1127   -0.1709 C   0  0  1  0  0  0  0  0  0  0  0  0
    0.3395   -1.7649   -0.4347 H   0  0  0  0  0  0  0  0  0  0  0  0
   -0.5556    0.0117   -1.2457 C   0  0  0  0  0  0  0  0  0  0  0  0
   -0.4405    0.9864   -0.7581 H   0  0  0  0  0  0  0  0  0  0  0  0
    0.3203   -0.1121   -1.8909 H   0  0  0  0  0  0  0  0  0  0  0  0
   -1.8034    0.0913   -2.1118 C   0  0  0  0  0  0  0  0  0  0  0  0
   -1.6729    0.2691   -3.4990 C   0  0  0  0  0  0  0  0  0  0  0  0
   -0.6883    0.2625   -3.9586 H   0  0  0  0  0  0  0  0  0  0  0  0
   -2.8013    0.4372   -4.3107 C   0  0  0  0  0  0  0  0  0  0  0  0
   -2.6749    0.5458   -5.3826 H   0  0  0  0  0  0  0  0  0  0  0  0
   -4.0752    0.4748   -3.7425 C   0  0  0  0  0  0  0  0  0  0  0  0
   -5.1836    0.6369   -4.5215 O   0  0  0  0  0  0  0  0  0  0  0  0
   -4.9272    0.7331   -5.4520 H   0  0  0  0  0  0  0  0  0  0  0  0
   -4.2136    0.3699   -2.3611 C   0  0  0  0  0  0  0  0  0  0  0  0
   -5.2049    0.4385   -1.9246 H   0  0  0  0  0  0  0  0  0  0  0  0
   -3.0881    0.2041   -1.5479 C   0  0  0  0  0  0  0  0  0  0  0  0
   -3.2193    0.1807   -0.4702 H   0  0  0  0  0  0  0  0  0  0  0  0
   -0.1364   -0.4977    1.1983 C   0  0  0  0  0  0  0  0  0  0  0  0
    1.0373   -0.2720    1.4630 O   0  0  0  0  0  0  0  0  0  0  0  0
   -1.1243    0.0610    1.9895 N   0  0  0  0  0  0  0  0  0  0  0  0
   -2.0722   -0.2411    1.7921 H   0  0  0  0  0  0  0  0  0  0  0  0
   -0.8441    0.6810    3.2786 C   0  0  0  0  0  0  0  0  0  0  0  0
   -0.1267    1.5005    3.1638 H   0  0  0  0  0  0  0  0  0  0  0  0
   -1.7633    1.0887    3.7098 H   0  0  0  0  0  0  0  0  0  0  0  0
   -0.4289   -0.0558    3.9742 H   0  0  0  0  0  0  0  0  0  0  0  0
  1  2  1  0  0  0  0
  2  3  1  0  0  0  0
  2  4  1  0  0  0  0
  2  5  1  0  0  0  0
  5  6  2  0  0  0  0
  5  7  1  0  0  0  0
  7  8  1  0  0  0  0
  7  9  1  0  0  0  0
  9 10  1  0  0  0  0
  9 11  1  0  0  0  0
  9 26  1  0  0  0  0
 11 12  1  0  0  0  0
 11 13  1  0  0  0  0
 11 14  1  0  0  0  0
 14 15  2  0  0  0  0
 14 24  1  0  0  0  0
 15 16  1  0  0  0  0
 15 17  1  0  0  0  0
 17 18  1  0  0  0  0
 17 19  2  0  0  0  0
 19 20  1  0  0  0  0
 19 22  1  0  0  0  0
 20 21  1  0  0  0  0
 22 23  1  0  0  0  0
 22 24  2  0  0  0  0
 24 25  1  0  0  0  0
 26 27  2  0  0  0  0
 26 28  1  0  0  0  0
 28 29  1  0  0  0  0
 28 30  1  0  0  0  0
 30 31  1  0  0  0  0
 30 32  1  0  0  0  0
 30 33  1  0  0  0  0
M  END
$$$$

  -OEChem-03222214083D

 33 33  0     1  0  0  0  0  0999 V2000
   -3.1226   -4.7697    0.9967 H   0  0  0  0  0  0  0  0  0  0  0  0
   -3.1401   -3.8948    0.3406 C   0  0  0  0  0  0  0  0  0  0  0  0
   -4.0332   -3.3059    0.5625 H   0  0  0  0  0  0  0  0  0  0  0  0
   -3.1843   -4.2347   -0.6969 H   0  0  0  0  0  0  0  0  0  0  0  0
   -1.8962   -3.0542    0.5585 C   0  0  0  0  0  0  0  0  0  0  0  0
   -1.0779   -3.3850    1.3978 O   0  0  0  0  0  0  0  0  0  0  0  0
   -1.7069   -1.9098   -0.1893 N   0  0  0  0  0  0  0  0  0  0  0  0
   -2.3774   -1.7344   -0.9354 H   0  0  0  0  0  0  0  0  0  0  0  0
   -0.4792   -1.0882   -0.1782 C   0  0  1  0  0  0  0  0  0  0  0  0
    0.3486   -1.7560   -0.4420 H   0  0  0  0  0  0  0  0  0  0  0  0
   -0.5047    0.0493   -1.2368 C   0  0  0  0  0  0  0  0  0  0  0  0
   -0.3808    1.0182   -0.7401 H   0  0  0  0  0  0  0  0  0  0  0  0
    0.3680   -0.0754   -1.8859 H   0  0  0  0  0  0  0  0  0  0  0  0
   -1.7606    0.1253   -2.0857 C   0  0  0  0  0  0  0  0  0  0  0  0
   -1.6843   -0.0109   -3.4804 C   0  0  0  0  0  0  0  0  0  0  0  0
   -0.7297   -0.2156   -3.9575 H   0  0  0  0  0  0  0  0  0  0  0  0
   -2.8352    0.1005   -4.2701 C   0  0  0  0  0  0  0  0  0  0  0  0
   -2.7586   -0.0254   -5.3449 H   0  0  0  0  0  0  0  0  0  0  0  0
   -4.0692    0.3759   -3.6780 C   0  0  0  0  0  0  0  0  0  0  0  0
   -5.1984    0.4829   -4.4366 O   0  0  0  0  0  0  0  0  0  0  0  0
   -4.9797    0.3912   -5.3772 H   0  0  0  0  0  0  0  0  0  0  0  0
   -4.1465    0.5565   -2.2988 C   0  0  0  0  0  0  0  0  0  0  0  0
   -5.1059    0.7944   -1.8505 H   0  0  0  0  0  0  0  0  0  0  0  0
   -2.9995    0.4489   -1.5064 C   0  0  0  0  0  0  0  0  0  0  0  0
   -3.0726    0.6212   -0.4364 H   0  0  0  0  0  0  0  0  0  0  0  0
   -0.1240   -0.5048    1.2061 C   0  0  0  0  0  0  0  0  0  0  0  0
    1.0497   -0.3096    1.4934 O   0  0  0  0  0  0  0  0  0  0  0  0
   -1.1122    0.0694    1.9857 N   0  0  0  0  0  0  0  0  0  0  0  0
   -2.0625   -0.2144    1.7723 H   0  0  0  0  0  0  0  0  0  0  0  0
   -0.8387    0.6674    3.2863 C   0  0  0  0  0  0  0  0  0  0  0  0
   -0.1110    1.4800    3.1895 H   0  0  0  0  0  0  0  0  0  0  0  0
   -1.7577    1.0788    3.7141 H   0  0  0  0  0  0  0  0  0  0  0  0
   -0.4387   -0.0834    3.9758 H   0  0  0  0  0  0  0  0  0  0  0  0
  1  2  1  0  0  0  0
  2  3  1  0  0  0  0
  2  4  1  0  0  0  0
  2  5  1  0  0  0  0
  5  6  2  0  0  0  0
  5  7  1  0  0  0  0
  7  8  1  0  0  0  0
  7  9  1  0  0  0  0
  9 10  1  0  0  0  0
  9 11  1  0  0  0  0
  9 26  1  0  0  0  0
 11 12  1  0  0  0  0
 11 13  1  0  0  0  0
 11 14  1  0  0  0  0
 14 15  2  0  0  0  0
 14 24  1  0  0  0  0
 15 16  1  0  0  0  0
 15 17  1  0  0  0  0
 17 18  1  0  0  0  0
 17 19  2  0  0  0  0
 19 20  1  0  0  0  0
 19 22  1  0  0  0  0
 20 21  1  0  0  0  0
 22 23  1  0  0  0  0
 22 24  2  0  0  0  0
 24 25  1  0  0  0  0
 26 27  2  0  0  0  0
 26 28  1  0  0  0  0
 28 29  1  0  0  0  0
 28 30  1  0  0  0  0
 30 31  1  0  0  0  0
 30 32  1  0  0  0  0
 30 33  1  0  0  0  0
M  END
$$$$

  -OEChem-03222214083D

 33 33  0     1  0  0  0  0  0999 V2000
   -3.2005   -4.6980    0.9396 H   0  0  0  0  0  0  0  0  0  0  0  0
   -3.1999   -3.8100    0.3012 C   0  0  0  0  0  0  0  0  0  0  0  0
   -4.0702   -3.1977    0.5490 H   0  0  0  0  0  0  0  0  0  0  0  0
   -3.2708   -4.1273   -0.7420 H   0  0  0  0  0  0  0  0  0  0  0  0
   -1.9268   -3.0132    0.5155 C   0  0  0  0  0  0  0  0  0  0  0  0
   -1.1104   -3.3812    1.3413 O   0  0  0  0  0  0  0  0  0  0  0  0
   -1.7075   -1.8663   -0.2198 N   0  0  0  0  0  0  0  0  0  0  0  0
   -2.3904   -1.6418   -0.9412 H   0  0  0  0  0  0  0  0  0  0  0  0
   -0.4656   -1.0667   -0.1885 C   0  0  1  0  0  0  0  0  0  0  0  0
    0.3543   -1.7443   -0.4519 H   0  0  0  0  0  0  0  0  0  0  0  0
   -0.4718    0.0786   -1.2363 C   0  0  0  0  0  0  0  0  0  0  0  0
   -0.3396    1.0432   -0.7337 H   0  0  0  0  0  0  0  0  0  0  0  0
    0.3973   -0.0471   -1.8900 H   0  0  0  0  0  0  0  0  0  0  0  0
   -1.7314    0.1533   -2.0750 C   0  0  0  0  0  0  0  0  0  0  0  0
   -1.7282   -0.2832   -3.4080 C   0  0  0  0  0  0  0  0  0  0  0  0
   -0.8198   -0.6867   -3.8472 H   0  0  0  0  0  0  0  0  0  0  0  0
   -2.8944   -0.2116   -4.1791 C   0  0  0  0  0  0  0  0  0  0  0  0
   -2.8762   -0.5603   -5.2060 H   0  0  0  0  0  0  0  0  0  0  0  0
   -4.0690    0.3062   -3.6294 C   0  0  0  0  0  0  0  0  0  0  0  0
   -5.2124    0.3797   -4.3705 O   0  0  0  0  0  0  0  0  0  0  0  0
   -5.0390    0.1004   -5.2831 H   0  0  0  0  0  0  0  0  0  0  0  0
   -4.0726    0.7589   -2.3115 C   0  0  0  0  0  0  0  0  0  0  0  0
   -4.9874    1.1721   -1.8986 H   0  0  0  0  0  0  0  0  0  0  0  0
   -2.9101    0.6928   -1.5369 C   0  0  0  0  0  0  0  0  0  0  0  0
   -2.9233    1.0637   -0.5158 H   0  0  0  0  0  0  0  0  0  0  0  0
   -0.1156   -0.5010    1.2038 C   0  0  0  0  0  0  0  0  0  0  0  0
    1.0578   -0.3327    1.5082 O   0  0  0  0  0  0  0  0  0  0  0  0
   -1.1030    0.0841    1.9762 N   0  0  0  0  0  0  0  0  0  0  0  0
   -2.0557   -0.1757    1.7427 H   0  0  0  0  0  0  0  0  0  0  0  0
   -0.8381    0.6501    3.2931 C   0  0  0  0  0  0  0  0  0  0  0  0
   -0.0607    1.4192    3.2329 H   0  0  0  0  0  0  0  0  0  0  0  0
   -1.7448    1.1108    3.6963 H   0  0  0  0  0  0  0  0  0  0  0  0
   -0.5067   -0.1320    3.9843 H   0  0  0  0  0  0  0  0  0  0  0  0
  1  2  1  0  0  0  0
  2  3  1  0  0  0  0
  2  4  1  0  0  0  0
  2  5  1  0  0  0  0
  5  6  2  0  0  0  0
  5  7  1  0  0  0  0
  7  8  1  0  0  0  0
  7  9  1  0  0  0  0
  9 10  1  0  0  0  0
  9 11  1  0  0  0  0
  9 26  1  0  0  0  0
 11 12  1  0  0  0  0
 11 13  1  0  0  0  0
 11 14  1  0  0  0  0
 14 15  2  0  0  0  0
 14 24  1  0  0  0  0
 15 16  1  0  0  0  0
 15 17  1  0  0  0  0
 17 18  1  0  0  0  0
 17 19  2  0  0  0  0
 19 20  1  0  0  0  0
 19 22  1  0  0  0  0
 20 21  1  0  0  0  0
 22 23  1  0  0  0  0
 22 24  2  0  0  0  0
 24 25  1  0  0  0  0
 26 27  2  0  0  0  0
 26 28  1  0  0  0  0
 28 29  1  0  0  0  0
 28 30  1  0  0  0  0
 30 31  1  0  0  0  0
 30 32  1  0  0  0  0
 30 33  1  0  0  0  0
M  END
$$$$

  -OEChem-03222214083D

 33 33  0     1  0  0  0  0  0999 V2000
   -3.2705   -4.6370    0.9110 H   0  0  0  0  0  0  0  0  0  0  0  0
   -3.2452   -3.7484    0.2740 C   0  0  0  0  0  0  0  0  0  0  0  0
   -4.0936   -3.1087    0.5286 H   0  0  0  0  0  0  0  0  0  0  0  0
   -3.3335   -4.0615   -0.7691 H   0  0  0  0  0  0  0  0  0  0  0  0
   -1.9453   -2.9936    0.4810 C   0  0  0  0  0  0  0  0  0  0  0  0
   -1.1286   -3.3964    1.2900 O   0  0  0  0  0  0  0  0  0  0  0  0
   -1.6999   -1.8466   -0.2456 N   0  0  0  0  0  0  0  0  0  0  0  0
   -2.3937   -1.5816   -0.9425 H   0  0  0  0  0  0  0  0  0  0  0  0
   -0.4483   -1.0619   -0.1986 C   0  0  1  0  0  0  0  0  0  0  0  0
    0.3684   -1.7438   -0.4601 H   0  0  0  0  0  0  0  0  0  0  0  0
   -0.4416    0.0926   -1.2358 C   0  0  0  0  0  0  0  0  0  0  0  0
   -0.2946    1.0526   -0.7279 H   0  0  0  0  0  0  0  0  0  0  0  0
    0.4209   -0.0391   -1.8973 H   0  0  0  0  0  0  0  0  0  0  0  0
   -1.7021    0.1745   -2.0702 C   0  0  0  0  0  0  0  0  0  0  0  0
   -1.7998   -0.5262   -3.2813 C   0  0  0  0  0  0  0  0  0  0  0  0
   -0.9578   -1.1131   -3.6386 H   0  0  0  0  0  0  0  0  0  0  0  0
   -2.9806   -0.4801   -4.0317 C   0  0  0  0  0  0  0  0  0  0  0  0
   -3.0405   -1.0285   -4.9660 H   0  0  0  0  0  0  0  0  0  0  0  0
   -4.0712    0.2656   -3.5789 C   0  0  0  0  0  0  0  0  0  0  0  0
   -5.2286    0.3159   -4.3001 O   0  0  0  0  0  0  0  0  0  0  0  0
   -5.1159   -0.1419   -5.1478 H   0  0  0  0  0  0  0  0  0  0  0  0
   -3.9769    0.9665   -2.3777 C   0  0  0  0  0  0  0  0  0  0  0  0
   -4.8286    1.5474   -2.0377 H   0  0  0  0  0  0  0  0  0  0  0  0
   -2.7983    0.9275   -1.6250 C   0  0  0  0  0  0  0  0  0  0  0  0
   -2.7382    1.4821   -0.6923 H   0  0  0  0  0  0  0  0  0  0  0  0
   -0.1090   -0.5069    1.2007 C   0  0  0  0  0  0  0  0  0  0  0  0
    1.0618   -0.3552    1.5235 O   0  0  0  0  0  0  0  0  0  0  0  0
   -1.1005    0.0859    1.9620 N   0  0  0  0  0  0  0  0  0  0  0  0
   -2.0544   -0.1455    1.7040 H   0  0  0  0  0  0  0  0  0  0  0  0
   -0.8505    0.6503    3.2823 C   0  0  0  0  0  0  0  0  0  0  0  0
   -0.0697    1.4166    3.2324 H   0  0  0  0  0  0  0  0  0  0  0  0
   -1.7607    1.1140    3.6739 H   0  0  0  0  0  0  0  0  0  0  0  0
   -0.5309   -0.1329    3.9775 H   0  0  0  0  0  0  0  0  0  0  0  0
  1  2  1  0  0  0  0
  2  3  1  0  0  0  0
  2  4  1  0  0  0  0
  2  5  1  0  0  0  0
  5  6  2  0  0  0  0
  5  7  1  0  0  0  0
  7  8  1  0  0  0  0
  7  9  1  0  0  0  0
  9 10  1  0  0  0  0
  9 11  1  0  0  0  0
  9 26  1  0  0  0  0
 11 12  1  0  0  0  0
 11 13  1  0  0  0  0
 11 14  1  0  0  0  0
 14 15  2  0  0  0  0
 14 24  1  0  0  0  0
 15 16  1  0  0  0  0
 15 17  1  0  0  0  0
 17 18  1  0  0  0  0
 17 19  2  0  0  0  0
 19 20  1  0  0  0  0
 19 22  1  0  0  0  0
 20 21  1  0  0  0  0
 22 23  1  0  0  0  0
 22 24  2  0  0  0  0
 24 25  1  0  0  0  0
 26 27  2  0  0  0  0
 26 28  1  0  0  0  0
 28 29  1  0  0  0  0
 28 30  1  0  0  0  0
 30 31  1  0  0  0  0
 30 32  1  0  0  0  0
 30 33  1  0  0  0  0
M  END
$$$$

  -OEChem-03222214083D

 33 33  0     1  0  0  0  0  0999 V2000
   -3.2750   -4.6272    0.9424 H   0  0  0  0  0  0  0  0  0  0  0  0
   -3.2500   -3.7417    0.3009 C   0  0  0  0  0  0  0  0  0  0  0  0
   -4.0865   -3.0907    0.5666 H   0  0  0  0  0  0  0  0  0  0  0  0
   -3.3588   -4.0580   -0.7392 H   0  0  0  0  0  0  0  0  0  0  0  0
   -1.9382   -3.0017    0.4822 C   0  0  0  0  0  0  0  0  0  0  0  0
   -1.1065   -3.4183    1.2683 O   0  0  0  0  0  0  0  0  0  0  0  0
   -1.6963   -1.8553   -0.2464 N   0  0  0  0  0  0  0  0  0  0  0  0
   -2.4088   -1.5693   -0.9152 H   0  0  0  0  0  0  0  0  0  0  0  0
   -0.4473   -1.0673   -0.2006 C   0  0  1  0  0  0  0  0  0  0  0  0
    0.3717   -1.7468   -0.4612 H   0  0  0  0  0  0  0  0  0  0  0  0
   -0.4400    0.0897   -1.2357 C   0  0  0  0  0  0  0  0  0  0  0  0
   -0.2837    1.0467   -0.7254 H   0  0  0  0  0  0  0  0  0  0  0  0
    0.4202   -0.0462   -1.8993 H   0  0  0  0  0  0  0  0  0  0  0  0
   -1.6945    0.1828   -2.0791 C   0  0  0  0  0  0  0  0  0  0  0  0
   -1.9207   -0.7327   -3.1193 C   0  0  0  0  0  0  0  0  0  0  0  0
   -1.1726   -1.4872   -3.3490 H   0  0  0  0  0  0  0  0  0  0  0  0
   -3.1037   -0.6795   -3.8649 C   0  0  0  0  0  0  0  0  0  0  0  0
   -3.2607   -1.3908   -4.6689 H   0  0  0  0  0  0  0  0  0  0  0  0
   -4.0720    0.2840   -3.5753 C   0  0  0  0  0  0  0  0  0  0  0  0
   -5.2302    0.3454   -4.2943 O   0  0  0  0  0  0  0  0  0  0  0  0
   -5.2009   -0.2819   -5.0336 H   0  0  0  0  0  0  0  0  0  0  0  0
   -3.8546    1.1915   -2.5399 C   0  0  0  0  0  0  0  0  0  0  0  0
   -4.6131    1.9371   -2.3230 H   0  0  0  0  0  0  0  0  0  0  0  0
   -2.6730    1.1456   -1.7925 C   0  0  0  0  0  0  0  0  0  0  0  0
   -2.5223    1.8590   -0.9867 H   0  0  0  0  0  0  0  0  0  0  0  0
   -0.1122   -0.5104    1.1988 C   0  0  0  0  0  0  0  0  0  0  0  0
    1.0574   -0.3641    1.5281 O   0  0  0  0  0  0  0  0  0  0  0  0
   -1.1058    0.0803    1.9589 N   0  0  0  0  0  0  0  0  0  0  0  0
   -2.0609   -0.1271    1.6857 H   0  0  0  0  0  0  0  0  0  0  0  0
   -0.8596    0.6492    3.2777 C   0  0  0  0  0  0  0  0  0  0  0  0
   -0.0893    1.4259    3.2238 H   0  0  0  0  0  0  0  0  0  0  0  0
   -1.7748    1.1008    3.6717 H   0  0  0  0  0  0  0  0  0  0  0  0
   -0.5273   -0.1289    3.9729 H   0  0  0  0  0  0  0  0  0  0  0  0
  1  2  1  0  0  0  0
  2  3  1  0  0  0  0
  2  4  1  0  0  0  0
  2  5  1  0  0  0  0
  5  6  2  0  0  0  0
  5  7  1  0  0  0  0
  7  8  1  0  0  0  0
  7  9  1  0  0  0  0
  9 10  1  0  0  0  0
  9 11  1  0  0  0  0
  9 26  1  0  0  0  0
 11 12  1  0  0  0  0
 11 13  1  0  0  0  0
 11 14  1  0  0  0  0
 14 15  2  0  0  0  0
 14 24  1  0  0  0  0
 15 16  1  0  0  0  0
 15 17  1  0  0  0  0
 17 18  1  0  0  0  0
 17 19  2  0  0  0  0
 19 20  1  0  0  0  0
 19 22  1  0  0  0  0
 20 21  1  0  0  0  0
 22 23  1  0  0  0  0
 22 24  2  0  0  0  0
 24 25  1  0  0  0  0
 26 27  2  0  0  0  0
 26 28  1  0  0  0  0
 28 29  1  0  0  0  0
 28 30  1  0  0  0  0
 30 31  1  0  0  0  0
 30 32  1  0  0  0  0
 30 33  1  0  0  0  0
M  END
$$$$

  -OEChem-03222214083D

 33 33  0     1  0  0  0  0  0999 V2000
   -3.2004   -4.6729    1.0541 H   0  0  0  0  0  0  0  0  0  0  0  0
   -3.2062   -3.7945    0.4023 C   0  0  0  0  0  0  0  0  0  0  0  0
   -4.0360   -3.1457    0.6927 H   0  0  0  0  0  0  0  0  0  0  0  0
   -3.3526   -4.1233   -0.6293 H   0  0  0  0  0  0  0  0  0  0  0  0
   -1.8936   -3.0446    0.5253 C   0  0  0  0  0  0  0  0  0  0  0  0
   -1.0263   -3.4539    1.2758 O   0  0  0  0  0  0  0  0  0  0  0  0
   -1.6898   -1.8987   -0.2163 N   0  0  0  0  0  0  0  0  0  0  0  0
   -2.4423   -1.6018   -0.8343 H   0  0  0  0  0  0  0  0  0  0  0  0
   -0.4595   -1.0829   -0.1928 C   0  0  1  0  0  0  0  0  0  0  0  0
    0.3699   -1.7500   -0.4524 H   0  0  0  0  0  0  0  0  0  0  0  0
   -0.4698    0.0689   -1.2368 C   0  0  0  0  0  0  0  0  0  0  0  0
   -0.3101    1.0250   -0.7258 H   0  0  0  0  0  0  0  0  0  0  0  0
    0.3919   -0.0685   -1.8979 H   0  0  0  0  0  0  0  0  0  0  0  0
   -1.7106    0.1784   -2.1057 C   0  0  0  0  0  0  0  0  0  0  0  0
   -2.1043   -0.8759   -2.9487 C   0  0  0  0  0  0  0  0  0  0  0  0
   -1.4864   -1.7673   -3.0230 H   0  0  0  0  0  0  0  0  0  0  0  0
   -3.2764   -0.7826   -3.7073 C   0  0  0  0  0  0  0  0  0  0  0  0
   -3.5590   -1.6027   -4.3584 H   0  0  0  0  0  0  0  0  0  0  0  0
   -4.0721    0.3617   -3.6295 C   0  0  0  0  0  0  0  0  0  0  0  0
   -5.2157    0.4670   -4.3669 O   0  0  0  0  0  0  0  0  0  0  0  0
   -5.2953   -0.2848   -4.9744 H   0  0  0  0  0  0  0  0  0  0  0  0
   -3.6935    1.4082   -2.7913 C   0  0  0  0  0  0  0  0  0  0  0  0
   -4.3185    2.2940   -2.7373 H   0  0  0  0  0  0  0  0  0  0  0  0
   -2.5210    1.3217   -2.0328 C   0  0  0  0  0  0  0  0  0  0  0  0
   -2.2474    2.1490   -1.3836 H   0  0  0  0  0  0  0  0  0  0  0  0
   -0.1240   -0.5099    1.2005 C   0  0  0  0  0  0  0  0  0  0  0  0
    1.0448   -0.3418    1.5217 O   0  0  0  0  0  0  0  0  0  0  0  0
   -1.1220    0.0626    1.9688 N   0  0  0  0  0  0  0  0  0  0  0  0
   -2.0771   -0.1413    1.6931 H   0  0  0  0  0  0  0  0  0  0  0  0
   -0.8759    0.6480    3.2805 C   0  0  0  0  0  0  0  0  0  0  0  0
   -0.1378    1.4538    3.2091 H   0  0  0  0  0  0  0  0  0  0  0  0
   -1.8011    1.0653    3.6890 H   0  0  0  0  0  0  0  0  0  0  0  0
   -0.5011   -0.1129    3.9731 H   0  0  0  0  0  0  0  0  0  0  0  0
  1  2  1  0  0  0  0
  2  3  1  0  0  0  0
  2  4  1  0  0  0  0
  2  5  1  0  0  0  0
  5  6  2  0  0  0  0
  5  7  1  0  0  0  0
  7  8  1  0  0  0  0
  7  9  1  0  0  0  0
  9 10  1  0  0  0  0
  9 11  1  0  0  0  0
  9 26  1  0  0  0  0
 11 12  1  0  0  0  0
 11 13  1  0  0  0  0
 11 14  1  0  0  0  0
 14 15  2  0  0  0  0
 14 24  1  0  0  0  0
 15 16  1  0  0  0  0
 15 17  1  0  0  0  0
 17 18  1  0  0  0  0
 17 19  2  0  0  0  0
 19 20  1  0  0  0  0
 19 22  1  0  0  0  0
 20 21  1  0  0  0  0
 22 23  1  0  0  0  0
 22 24  2  0  0  0  0
 24 25  1  0  0  0  0
 26 27  2  0  0  0  0
 26 28  1  0  0  0  0
 28 29  1  0  0  0  0
 28 30  1  0  0  0  0
 30 31  1  0  0  0  0
 30 32  1  0  0  0  0
 30 33  1  0  0  0  0
M  END
$$$$

  -OEChem-03222214083D

 33 33  0     1  0  0  0  0  0999 V2000
   -3.0702   -4.7439    1.2178 H   0  0  0  0  0  0  0  0  0  0  0  0
   -3.1257   -3.8786    0.5510 C   0  0  0  0  0  0  0  0  0  0  0  0
   -3.9474   -3.2363    0.8764 H   0  0  0  0  0  0  0  0  0  0  0  0
   -3.3248   -4.2294   -0.4644 H   0  0  0  0  0  0  0  0  0  0  0  0
   -1.8192   -3.1086    0.5868 C   0  0  0  0  0  0  0  0  0  0  0  0
   -0.8994   -3.5045    1.2796 O   0  0  0  0  0  0  0  0  0  0  0  0
   -1.6799   -1.9629   -0.1705 N   0  0  0  0  0  0  0  0  0  0  0  0
   -2.4895   -1.6544   -0.7034 H   0  0  0  0  0  0  0  0  0  0  0  0
   -0.4822   -1.1018   -0.1807 C   0  0  1  0  0  0  0  0  0  0  0  0
    0.3637   -1.7484   -0.4404 H   0  0  0  0  0  0  0  0  0  0  0  0
   -0.5191    0.0382   -1.2418 C   0  0  0  0  0  0  0  0  0  0  0  0
   -0.3727    0.9958   -0.7299 H   0  0  0  0  0  0  0  0  0  0  0  0
    0.3536   -0.0922   -1.8899 H   0  0  0  0  0  0  0  0  0  0  0  0
   -1.7371    0.1630   -2.1504 C   0  0  0  0  0  0  0  0  0  0  0  0
   -2.3286   -0.9403   -2.7959 C   0  0  0  0  0  0  0  0  0  0  0  0
   -1.8701   -1.9232   -2.7292 H   0  0  0  0  0  0  0  0  0  0  0  0
   -3.4831   -0.7868   -3.5722 C   0  0  0  0  0  0  0  0  0  0  0  0
   -3.9117   -1.6494   -4.0714 H   0  0  0  0  0  0  0  0  0  0  0  0
   -4.0715    0.4702   -3.7117 C   0  0  0  0  0  0  0  0  0  0  0  0
   -5.1970    0.6344   -4.4659 O   0  0  0  0  0  0  0  0  0  0  0  0
   -5.4212   -0.1926   -4.9198 H   0  0  0  0  0  0  0  0  0  0  0  0
   -3.4987    1.5699   -3.0785 C   0  0  0  0  0  0  0  0  0  0  0  0
   -3.9600    2.5456   -3.1939 H   0  0  0  0  0  0  0  0  0  0  0  0
   -2.3418    1.4216   -2.3057 C   0  0  0  0  0  0  0  0  0  0  0  0
   -1.9196    2.2973   -1.8201 H   0  0  0  0  0  0  0  0  0  0  0  0
   -0.1439   -0.5067    1.2036 C   0  0  0  0  0  0  0  0  0  0  0  0
    1.0235   -0.3008    1.5072 O   0  0  0  0  0  0  0  0  0  0  0  0
   -1.1475    0.0329    1.9887 N   0  0  0  0  0  0  0  0  0  0  0  0
   -2.1021   -0.1769    1.7168 H   0  0  0  0  0  0  0  0  0  0  0  0
   -0.9005    0.6557    3.2830 C   0  0  0  0  0  0  0  0  0  0  0  0
   -0.1991    1.4904    3.1801 H   0  0  0  0  0  0  0  0  0  0  0  0
   -1.8349    1.0417    3.7011 H   0  0  0  0  0  0  0  0  0  0  0  0
   -0.4804   -0.0732    3.9840 H   0  0  0  0  0  0  0  0  0  0  0  0
  1  2  1  0  0  0  0
  2  3  1  0  0  0  0
  2  4  1  0  0  0  0
  2  5  1  0  0  0  0
  5  6  2  0  0  0  0
  5  7  1  0  0  0  0
  7  8  1  0  0  0  0
  7  9  1  0  0  0  0
  9 10  1  0  0  0  0
  9 11  1  0  0  0  0
  9 26  1  0  0  0  0
 11 12  1  0  0  0  0
 11 13  1  0  0  0  0
 11 14  1  0  0  0  0
 14 15  2  0  0  0  0
 14 24  1  0  0  0  0
 15 16  1  0  0  0  0
 15 17  1  0  0  0  0
 17 18  1  0  0  0  0
 17 19  2  0  0  0  0
 19 20  1  0  0  0  0
 19 22  1  0  0  0  0
 20 21  1  0  0  0  0
 22 23  1  0  0  0  0
 22 24  2  0  0  0  0
 24 25  1  0  0  0  0
 26 27  2  0  0  0  0
 26 28  1  0  0  0  0
 28 29  1  0  0  0  0
 28 30  1  0  0  0  0
 30 31  1  0  0  0  0
 30 32  1  0  0  0  0
 30 33  1  0  0  0  0
M  END
$$$$

  -OEChem-03222214083D

 33 33  0     1  0  0  0  0  0999 V2000
   -2.9082   -4.8206    1.3926 H   0  0  0  0  0  0  0  0  0  0  0  0
   -3.0219   -3.9703    0.7143 C   0  0  0  0  0  0  0  0  0  0  0  0
   -3.8374   -3.3395    1.0760 H   0  0  0  0  0  0  0  0  0  0  0  0
   -3.2730   -4.3459   -0.2805 H   0  0  0  0  0  0  0  0  0  0  0  0
   -1.7324   -3.1731    0.6570 C   0  0  0  0  0  0  0  0  0  0  0  0
   -0.7613   -3.5410    1.2928 O   0  0  0  0  0  0  0  0  0  0  0  0
   -1.6692   -2.0311   -0.1167 N   0  0  0  0  0  0  0  0  0  0  0  0
   -2.5295   -1.7282   -0.5650 H   0  0  0  0  0  0  0  0  0  0  0  0
   -0.5135   -1.1186   -0.1685 C   0  0  1  0  0  0  0  0  0  0  0  0
    0.3496   -1.7407   -0.4320 H   0  0  0  0  0  0  0  0  0  0  0  0
   -0.5875    0.0044   -1.2492 C   0  0  0  0  0  0  0  0  0  0  0  0
   -0.4690    0.9660   -0.7372 H   0  0  0  0  0  0  0  0  0  0  0  0
    0.2977   -0.1090   -1.8831 H   0  0  0  0  0  0  0  0  0  0  0  0
   -1.7834    0.1359   -2.1940 C   0  0  0  0  0  0  0  0  0  0  0  0
   -2.5796   -0.9352   -2.6506 C   0  0  0  0  0  0  0  0  0  0  0  0
   -2.3010   -1.9653   -2.4582 H   0  0  0  0  0  0  0  0  0  0  0  0
   -3.7064   -0.7102   -3.4503 C   0  0  0  0  0  0  0  0  0  0  0  0
   -4.2880   -1.5547   -3.8041 H   0  0  0  0  0  0  0  0  0  0  0  0
   -4.0668    0.5885   -3.8077 C   0  0  0  0  0  0  0  0  0  0  0  0
   -5.1616    0.8221   -4.5886 O   0  0  0  0  0  0  0  0  0  0  0  0
   -5.5620   -0.0158   -4.8670 H   0  0  0  0  0  0  0  0  0  0  0  0
   -3.2912    1.6572   -3.3706 C   0  0  0  0  0  0  0  0  0  0  0  0
   -3.5728    2.6661   -3.6557 H   0  0  0  0  0  0  0  0  0  0  0  0
   -2.1628    1.4354   -2.5747 C   0  0  0  0  0  0  0  0  0  0  0  0
   -1.5832    2.2935   -2.2451 H   0  0  0  0  0  0  0  0  0  0  0  0
   -0.1661   -0.4944    1.2008 C   0  0  0  0  0  0  0  0  0  0  0  0
    0.9983   -0.2321    1.4706 O   0  0  0  0  0  0  0  0  0  0  0  0
   -1.1705    0.0084    2.0089 N   0  0  0  0  0  0  0  0  0  0  0  0
   -2.1242   -0.2325    1.7614 H   0  0  0  0  0  0  0  0  0  0  0  0
   -0.9137    0.6660    3.2838 C   0  0  0  0  0  0  0  0  0  0  0  0
   -0.2705    1.5407    3.1417 H   0  0  0  0  0  0  0  0  0  0  0  0
   -1.8534    0.9994    3.7343 H   0  0  0  0  0  0  0  0  0  0  0  0
   -0.4217   -0.0246    3.9767 H   0  0  0  0  0  0  0  0  0  0  0  0
  1  2  1  0  0  0  0
  2  3  1  0  0  0  0
  2  4  1  0  0  0  0
  2  5  1  0  0  0  0
  5  6  2  0  0  0  0
  5  7  1  0  0  0  0
  7  8  1  0  0  0  0
  7  9  1  0  0  0  0
  9 10  1  0  0  0  0
  9 11  1  0  0  0  0
  9 26  1  0  0  0  0
 11 12  1  0  0  0  0
 11 13  1  0  0  0  0
 11 14  1  0  0  0  0
 14 15  2  0  0  0  0
 14 24  1  0  0  0  0
 15 16  1  0  0  0  0
 15 17  1  0  0  0  0
 17 18  1  0  0  0  0
 17 19  2  0  0  0  0
 19 20  1  0  0  0  0
 19 22  1  0  0  0  0
 20 21  1  0  0  0  0
 22 23  1  0  0  0  0
 22 24  2  0  0  0  0
 24 25  1  0  0  0  0
 26 27  2  0  0  0  0
 26 28  1  0  0  0  0
 28 29  1  0  0  0  0
 28 30  1  0  0  0  0
 30 31  1  0  0  0  0
 30 32  1  0  0  0  0
 30 33  1  0  0  0  0
M  END
$$$$

  -OEChem-03222214083D

 33 33  0     1  0  0  0  0  0999 V2000
   -2.7231   -4.8803    1.5784 H   0  0  0  0  0  0  0  0  0  0  0  0
   -2.9037   -4.0491    0.8907 C   0  0  0  0  0  0  0  0  0  0  0  0
   -3.7115   -3.4319    1.2907 H   0  0  0  0  0  0  0  0  0  0  0  0
   -3.2073   -4.4540   -0.0776 H   0  0  0  0  0  0  0  0  0  0  0  0
   -1.6430   -3.2199    0.7333 C   0  0  0  0  0  0  0  0  0  0  0  0
   -0.6216   -3.5545    1.3053 O   0  0  0  0  0  0  0  0  0  0  0  0
   -1.6648   -2.0864   -0.0560 N   0  0  0  0  0  0  0  0  0  0  0  0
   -2.5702   -1.7950   -0.4101 H   0  0  0  0  0  0  0  0  0  0  0  0
   -0.5528   -1.1281   -0.1591 C   0  0  1  0  0  0  0  0  0  0  0  0
    0.3233   -1.7260   -0.4363 H   0  0  0  0  0  0  0  0  0  0  0  0
   -0.6760   -0.0255   -1.2579 C   0  0  0  0  0  0  0  0  0  0  0  0
   -0.5852    0.9426   -0.7520 H   0  0  0  0  0  0  0  0  0  0  0  0
    0.2153   -0.1200   -1.8874 H   0  0  0  0  0  0  0  0  0  0  0  0
   -1.8636    0.1053   -2.2182 C   0  0  0  0  0  0  0  0  0  0  0  0
   -2.8573   -0.8615   -2.4900 C   0  0  0  0  0  0  0  0  0  0  0  0
   -2.7973   -1.8784   -2.1299 H   0  0  0  0  0  0  0  0  0  0  0  0
   -3.9357   -0.5744   -3.3366 C   0  0  0  0  0  0  0  0  0  0  0  0
   -4.6734   -1.3426   -3.5421 H   0  0  0  0  0  0  0  0  0  0  0  0
   -4.0533    0.6813   -3.9294 C   0  0  0  0  0  0  0  0  0  0  0  0
   -5.1000    0.9704   -4.7567 O   0  0  0  0  0  0  0  0  0  0  0  0
   -5.6636    0.1900   -4.8715 H   0  0  0  0  0  0  0  0  0  0  0  0
   -3.0830    1.6447   -3.6813 C   0  0  0  0  0  0  0  0  0  0  0  0
   -3.1734    2.6200   -4.1490 H   0  0  0  0  0  0  0  0  0  0  0  0
   -2.0038    1.3608   -2.8389 C   0  0  0  0  0  0  0  0  0  0  0  0
   -1.2678    2.1406   -2.6611 H   0  0  0  0  0  0  0  0  0  0  0  0
   -0.1834   -0.4753    1.1920 C   0  0  0  0  0  0  0  0  0  0  0  0
    0.9785   -0.1665    1.4195 O   0  0  0  0  0  0  0  0  0  0  0  0
   -1.1773   -0.0061    2.0332 N   0  0  0  0  0  0  0  0  0  0  0  0
   -2.1314   -0.2708    1.8144 H   0  0  0  0  0  0  0  0  0  0  0  0
   -0.9028    0.6867    3.2859 C   0  0  0  0  0  0  0  0  0  0  0  0
   -0.3148    1.5923    3.1034 H   0  0  0  0  0  0  0  0  0  0  0  0
   -1.8397    0.9771    3.7709 H   0  0  0  0  0  0  0  0  0  0  0  0
   -0.3453    0.0361    3.9681 H   0  0  0  0  0  0  0  0  0  0  0  0
  1  2  1  0  0  0  0
  2  3  1  0  0  0  0
  2  4  1  0  0  0  0
  2  5  1  0  0  0  0
  5  6  2  0  0  0  0
  5  7  1  0  0  0  0
  7  8  1  0  0  0  0
  7  9  1  0  0  0  0
  9 10  1  0  0  0  0
  9 11  1  0  0  0  0
  9 26  1  0  0  0  0
 11 12  1  0  0  0  0
 11 13  1  0  0  0  0
 11 14  1  0  0  0  0
 14 15  2  0  0  0  0
 14 24  1  0  0  0  0
 15 16  1  0  0  0  0
 15 17  1  0  0  0  0
 17 18  1  0  0  0  0
 17 19  2  0  0  0  0
 19 20  1  0  0  0  0
 19 22  1  0  0  0  0
 20 21  1  0  0  0  0
 22 23  1  0  0  0  0
 22 24  2  0  0  0  0
 24 25  1  0  0  0  0
 26 27  2  0  0  0  0
 26 28  1  0  0  0  0
 28 29  1  0  0  0  0
 28 30  1  0  0  0  0
 30 31  1  0  0  0  0
 30 32  1  0  0  0  0
 30 33  1  0  0  0  0
M  END
$$$$

  -OEChem-03222214083D

 33 33  0     1  0  0  0  0  0999 V2000
   -2.5323   -4.9217    1.6817 H   0  0  0  0  0  0  0  0  0  0  0  0
   -2.7827   -4.0980    1.0067 C   0  0  0  0  0  0  0  0  0  0  0  0
   -3.5711   -3.4963    1.4651 H   0  0  0  0  0  0  0  0  0  0  0  0
   -3.1499   -4.5148    0.0656 H   0  0  0  0  0  0  0  0  0  0  0  0
   -1.5556   -3.2435    0.7497 C   0  0  0  0  0  0  0  0  0  0  0  0
   -0.4856   -3.5592    1.2374 O   0  0  0  0  0  0  0  0  0  0  0  0
   -1.6641   -2.1075   -0.0295 N   0  0  0  0  0  0  0  0  0  0  0  0
   -2.6037   -1.8206   -0.2722 H   0  0  0  0  0  0  0  0  0  0  0  0
   -0.5853   -1.1211   -0.1952 C   0  0  1  0  0  0  0  0  0  0  0  0
    0.2841   -1.7036   -0.5224 H   0  0  0  0  0  0  0  0  0  0  0  0
   -0.7753   -0.0206   -1.2856 C   0  0  0  0  0  0  0  0  0  0  0  0
   -0.6804    0.9484   -0.7824 H   0  0  0  0  0  0  0  0  0  0  0  0
    0.0961   -0.1036   -1.9442 H   0  0  0  0  0  0  0  0  0  0  0  0
   -1.9924    0.1210   -2.2074 C   0  0  0  0  0  0  0  0  0  0  0  0
   -3.1540   -0.6828   -2.2679 C   0  0  0  0  0  0  0  0  0  0  0  0
   -3.2959   -1.5796   -1.6886 H   0  0  0  0  0  0  0  0  0  0  0  0
   -4.1992   -0.3781   -3.1501 C   0  0  0  0  0  0  0  0  0  0  0  0
   -5.0737   -1.0187   -3.1837 H   0  0  0  0  0  0  0  0  0  0  0  0
   -4.1186    0.7321   -3.9880 C   0  0  0  0  0  0  0  0  0  0  0  0
   -5.1319    1.0356   -4.8506 O   0  0  0  0  0  0  0  0  0  0  0  0
   -5.8361    0.3724   -4.7888 H   0  0  0  0  0  0  0  0  0  0  0  0
   -2.9864    1.5351   -3.9445 C   0  0  0  0  0  0  0  0  0  0  0  0
   -2.9247    2.3996   -4.5977 H   0  0  0  0  0  0  0  0  0  0  0  0
   -1.9406    1.2331   -3.0685 C   0  0  0  0  0  0  0  0  0  0  0  0
   -1.0719    1.8863   -3.0580 H   0  0  0  0  0  0  0  0  0  0  0  0
   -0.1453   -0.4669    1.1341 C   0  0  0  0  0  0  0  0  0  0  0  0
    1.0197   -0.1257    1.2864 O   0  0  0  0  0  0  0  0  0  0  0  0
   -1.0934   -0.0273    2.0416 N   0  0  0  0  0  0  0  0  0  0  0  0
   -2.0509   -0.3241    1.8905 H   0  0  0  0  0  0  0  0  0  0  0  0
   -0.7527    0.6610    3.2805 C   0  0  0  0  0  0  0  0  0  0  0  0
   -0.2044    1.5851    3.0685 H   0  0  0  0  0  0  0  0  0  0  0  0
   -1.6616    0.9186    3.8323 H   0  0  0  0  0  0  0  0  0  0  0  0
   -0.1310    0.0201    3.9145 H   0  0  0  0  0  0  0  0  0  0  0  0
  1  2  1  0  0  0  0
  2  3  1  0  0  0  0
  2  4  1  0  0  0  0
  2  5  1  0  0  0  0
  5  6  2  0  0  0  0
  5  7  1  0  0  0  0
  7  8  1  0  0  0  0
  7  9  1  0  0  0  0
  9 10  1  0  0  0  0
  9 11  1  0  0  0  0
  9 26  1  0  0  0  0
 11 12  1  0  0  0  0
 11 13  1  0  0  0  0
 11 14  1  0  0  0  0
 14 15  2  0  0  0  0
 14 24  1  0  0  0  0
 15 16  1  0  0  0  0
 15 17  1  0  0  0  0
 17 18  1  0  0  0  0
 17 19  2  0  0  0  0
 19 20  1  0  0  0  0
 19 22  1  0  0  0  0
 20 21  1  0  0  0  0
 22 23  1  0  0  0  0
 22 24  2  0  0  0  0
 24 25  1  0  0  0  0
 26 27  2  0  0  0  0
 26 28  1  0  0  0  0
 28 29  1  0  0  0  0
 28 30  1  0  0  0  0
 30 31  1  0  0  0  0
 30 32  1  0  0  0  0
 30 33  1  0  0  0  0
M  END
$$$$

  -OEChem-03222214083D

 33 33  0     1  0  0  0  0  0999 V2000
   -2.4107   -5.1082    1.1944 H   0  0  0  0  0  0  0  0  0  0  0  0
   -2.6332   -4.2624    0.5375 C   0  0  0  0  0  0  0  0  0  0  0  0
   -3.6187   -3.8676    0.7949 H   0  0  0  0  0  0  0  0  0  0  0  0
   -2.6469   -4.6163   -0.4961 H   0  0  0  0  0  0  0  0  0  0  0  0
   -1.5810   -3.1821    0.7034 C   0  0  0  0  0  0  0  0  0  0  0  0
   -0.6769   -3.3412    1.5029 O   0  0  0  0  0  0  0  0  0  0  0  0
   -1.6621   -2.0310   -0.0580 N   0  0  0  0  0  0  0  0  0  0  0  0
   -2.3146   -2.0806   -0.8341 H   0  0  0  0  0  0  0  0  0  0  0  0
   -0.5582   -1.0668   -0.2029 C   0  0  1  0  0  0  0  0  0  0  0  0
    0.3012   -1.6393   -0.5698 H   0  0  0  0  0  0  0  0  0  0  0  0
   -0.7919    0.0963   -1.2203 C   0  0  0  0  0  0  0  0  0  0  0  0
   -0.6529    1.0448   -0.6891 H   0  0  0  0  0  0  0  0  0  0  0  0
    0.0376    0.0285   -1.9326 H   0  0  0  0  0  0  0  0  0  0  0  0
   -2.0707    0.2842   -2.0450 C   0  0  0  0  0  0  0  0  0  0  0  0
   -3.3285   -0.3266   -1.8394 C   0  0  0  0  0  0  0  0  0  0  0  0
   -3.5582   -0.9180   -0.9650 H   0  0  0  0  0  0  0  0  0  0  0  0
   -4.3913   -0.1121   -2.7269 C   0  0  0  0  0  0  0  0  0  0  0  0
   -5.3508   -0.5800   -2.5355 H   0  0  0  0  0  0  0  0  0  0  0  0
   -4.2282    0.7115   -3.8392 C   0  0  0  0  0  0  0  0  0  0  0  0
   -5.2575    0.9298   -4.7088 O   0  0  0  0  0  0  0  0  0  0  0  0
   -6.0553    0.4674   -4.4098 H   0  0  0  0  0  0  0  0  0  0  0  0
   -3.0015    1.3269   -4.0558 C   0  0  0  0  0  0  0  0  0  0  0  0
   -2.8779    1.9709   -4.9207 H   0  0  0  0  0  0  0  0  0  0  0  0
   -1.9391    1.1163   -3.1721 C   0  0  0  0  0  0  0  0  0  0  0  0
   -0.9916    1.6071   -3.3773 H   0  0  0  0  0  0  0  0  0  0  0  0
   -0.1034   -0.4453    1.1383 C   0  0  0  0  0  0  0  0  0  0  0  0
    1.0706   -0.1318    1.2883 O   0  0  0  0  0  0  0  0  0  0  0  0
   -1.0427    0.0008    2.0505 N   0  0  0  0  0  0  0  0  0  0  0  0
   -1.9863   -0.3511    1.9263 H   0  0  0  0  0  0  0  0  0  0  0  0
   -0.6792    0.5974    3.3294 C   0  0  0  0  0  0  0  0  0  0  0  0
   -0.0500    1.4805    3.1765 H   0  0  0  0  0  0  0  0  0  0  0  0
   -1.5777    0.9060    3.8721 H   0  0  0  0  0  0  0  0  0  0  0  0
   -0.1307   -0.1239    3.9444 H   0  0  0  0  0  0  0  0  0  0  0  0
  1  2  1  0  0  0  0
  2  3  1  0  0  0  0
  2  4  1  0  0  0  0
  2  5  1  0  0  0  0
  5  6  2  0  0  0  0
  5  7  1  0  0  0  0
  7  8  1  0  0  0  0
  7  9  1  0  0  0  0
  9 10  1  0  0  0  0
  9 11  1  0  0  0  0
  9 26  1  0  0  0  0
 11 12  1  0  0  0  0
 11 13  1  0  0  0  0
 11 14  1  0  0  0  0
 14 15  2  0  0  0  0
 14 24  1  0  0  0  0
 15 16  1  0  0  0  0
 15 17  1  0  0  0  0
 17 18  1  0  0  0  0
 17 19  2  0  0  0  0
 19 20  1  0  0  0  0
 19 22  1  0  0  0  0
 20 21  1  0  0  0  0
 22 23  1  0  0  0  0
 22 24  2  0  0  0  0
 24 25  1  0  0  0  0
 26 27  2  0  0  0  0
 26 28  1  0  0  0  0
 28 29  1  0  0  0  0
 28 30  1  0  0  0  0
 30 31  1  0  0  0  0
 30 32  1  0  0  0  0
 30 33  1  0  0  0  0
M  END
$$$$

  -OEChem-03222214083D

 33 33  0     1  0  0  0  0  0999 V2000
   -2.9009   -4.9157    1.1757 H   0  0  0  0  0  0  0  0  0  0  0  0
   -3.0031   -4.0551    0.5083 C   0  0  0  0  0  0  0  0  0  0  0  0
   -3.9451   -3.5479    0.7303 H   0  0  0  0  0  0  0  0  0  0  0  0
   -3.0227   -4.4125   -0.5244 H   0  0  0  0  0  0  0  0  0  0  0  0
   -1.8402   -3.1010    0.7055 C   0  0  0  0  0  0  0  0  0  0  0  0
   -0.9922   -3.3464    1.5439 O   0  0  0  0  0  0  0  0  0  0  0  0
   -1.7593   -1.9592   -0.0679 N   0  0  0  0  0  0  0  0  0  0  0  0
   -2.4030   -1.9189   -0.8541 H   0  0  0  0  0  0  0  0  0  0  0  0
   -0.5607   -1.1056   -0.1618 C   0  0  1  0  0  0  0  0  0  0  0  0
    0.2593   -1.7609   -0.4763 H   0  0  0  0  0  0  0  0  0  0  0  0
   -0.6467    0.0471   -1.2113 C   0  0  0  0  0  0  0  0  0  0  0  0
   -0.4666    0.9991   -0.6995 H   0  0  0  0  0  0  0  0  0  0  0  0
    0.2052   -0.0964   -1.8844 H   0  0  0  0  0  0  0  0  0  0  0  0
   -1.8931    0.2690   -2.0701 C   0  0  0  0  0  0  0  0  0  0  0  0
   -3.2159   -0.0303   -1.6818 C   0  0  0  0  0  0  0  0  0  0  0  0
   -3.4519   -0.3284   -0.6669 H   0  0  0  0  0  0  0  0  0  0  0  0
   -4.2861    0.1355   -2.5690 C   0  0  0  0  0  0  0  0  0  0  0  0
   -5.2955   -0.0833   -2.2374 H   0  0  0  0  0  0  0  0  0  0  0  0
   -4.0594    0.5964   -3.8652 C   0  0  0  0  0  0  0  0  0  0  0  0
   -5.0937    0.7623   -4.7401 O   0  0  0  0  0  0  0  0  0  0  0  0
   -5.9366    0.5581   -4.3070 H   0  0  0  0  0  0  0  0  0  0  0  0
   -2.7625    0.9006   -4.2652 C   0  0  0  0  0  0  0  0  0  0  0  0
   -2.5913    1.2623   -5.2742 H   0  0  0  0  0  0  0  0  0  0  0  0
   -1.6922    0.7415   -3.3792 C   0  0  0  0  0  0  0  0  0  0  0  0
   -0.6909    0.9821   -3.7254 H   0  0  0  0  0  0  0  0  0  0  0  0
   -0.1180   -0.5054    1.1917 C   0  0  0  0  0  0  0  0  0  0  0  0
    1.0700   -0.2920    1.3963 O   0  0  0  0  0  0  0  0  0  0  0  0
   -1.0583    0.0443    2.0443 N   0  0  0  0  0  0  0  0  0  0  0  0
   -2.0199   -0.2358    1.8841 H   0  0  0  0  0  0  0  0  0  0  0  0
   -0.7073    0.6397    3.3273 C   0  0  0  0  0  0  0  0  0  0  0  0
   -0.0053    1.4684    3.1870 H   0  0  0  0  0  0  0  0  0  0  0  0
   -1.6029    1.0286    3.8212 H   0  0  0  0  0  0  0  0  0  0  0  0
   -0.2445   -0.1071    3.9811 H   0  0  0  0  0  0  0  0  0  0  0  0
  1  2  1  0  0  0  0
  2  3  1  0  0  0  0
  2  4  1  0  0  0  0
  2  5  1  0  0  0  0
  5  6  2  0  0  0  0
  5  7  1  0  0  0  0
  7  8  1  0  0  0  0
  7  9  1  0  0  0  0
  9 10  1  0  0  0  0
  9 11  1  0  0  0  0
  9 26  1  0  0  0  0
 11 12  1  0  0  0  0
 11 13  1  0  0  0  0
 11 14  1  0  0  0  0
 14 15  2  0  0  0  0
 14 24  1  0  0  0  0
 15 16  1  0  0  0  0
 15 17  1  0  0  0  0
 17 18  1  0  0  0  0
 17 19  2  0  0  0  0
 19 20  1  0  0  0  0
 19 22  1  0  0  0  0
 20 21  1  0  0  0  0
 22 23  1  0  0  0  0
 22 24  2  0  0  0  0
 24 25  1  0  0  0  0
 26 27  2  0  0  0  0
 26 28  1  0  0  0  0
 28 29  1  0  0  0  0
 28 30  1  0  0  0  0
 30 31  1  0  0  0  0
 30 32  1  0  0  0  0
 30 33  1  0  0  0  0
M  END
$$$$

  -OEChem-03222214083D

 33 33  0     1  0  0  0  0  0999 V2000
   -3.0676   -4.8141    1.0276 H   0  0  0  0  0  0  0  0  0  0  0  0
   -3.1124   -3.9378    0.3747 C   0  0  0  0  0  0  0  0  0  0  0  0
   -4.0319   -3.3876    0.5867 H   0  0  0  0  0  0  0  0  0  0  0  0
   -3.1287   -4.2757   -0.6643 H   0  0  0  0  0  0  0  0  0  0  0  0
   -1.9076   -3.0467    0.6123 C   0  0  0  0  0  0  0  0  0  0  0  0
   -1.0935   -3.3432    1.4678 O   0  0  0  0  0  0  0  0  0  0  0  0
   -1.7527   -1.8982   -0.1383 N   0  0  0  0  0  0  0  0  0  0  0  0
   -2.3906   -1.7915   -0.9239 H   0  0  0  0  0  0  0  0  0  0  0  0
   -0.5250   -1.0798   -0.1698 C   0  0  1  0  0  0  0  0  0  0  0  0
    0.2882   -1.7532   -0.4632 H   0  0  0  0  0  0  0  0  0  0  0  0
   -0.5573    0.0755   -1.2151 C   0  0  0  0  0  0  0  0  0  0  0  0
   -0.3940    1.0281   -0.6990 H   0  0  0  0  0  0  0  0  0  0  0  0
    0.3091   -0.0651   -1.8694 H   0  0  0  0  0  0  0  0  0  0  0  0
   -1.8007    0.2614   -2.0781 C   0  0  0  0  0  0  0  0  0  0  0  0
   -3.1093    0.2230   -1.5586 C   0  0  0  0  0  0  0  0  0  0  0  0
   -3.2709    0.1378   -0.4883 H   0  0  0  0  0  0  0  0  0  0  0  0
   -4.2216    0.3437   -2.3996 C   0  0  0  0  0  0  0  0  0  0  0  0
   -5.2193    0.3262   -1.9743 H   0  0  0  0  0  0  0  0  0  0  0  0
   -4.0468    0.4983   -3.7750 C   0  0  0  0  0  0  0  0  0  0  0  0
   -5.1222    0.6169   -4.6068 O   0  0  0  0  0  0  0  0  0  0  0  0
   -5.9446    0.6375   -4.0936 H   0  0  0  0  0  0  0  0  0  0  0  0
   -2.7592    0.5370   -4.3028 C   0  0  0  0  0  0  0  0  0  0  0  0
   -2.6301    0.6592   -5.3736 H   0  0  0  0  0  0  0  0  0  0  0  0
   -1.6448    0.4210   -3.4650 C   0  0  0  0  0  0  0  0  0  0  0  0
   -0.6524    0.4502   -3.9063 H   0  0  0  0  0  0  0  0  0  0  0  0
   -0.1158   -0.5067    1.2050 C   0  0  0  0  0  0  0  0  0  0  0  0
    1.0690   -0.3228    1.4511 O   0  0  0  0  0  0  0  0  0  0  0  0
   -1.0708    0.0642    2.0273 N   0  0  0  0  0  0  0  0  0  0  0  0
   -2.0307   -0.2064    1.8426 H   0  0  0  0  0  0  0  0  0  0  0  0
   -0.7466    0.6396    3.3265 C   0  0  0  0  0  0  0  0  0  0  0  0
   -0.0206    1.4522    3.2166 H   0  0  0  0  0  0  0  0  0  0  0  0
   -1.6476    1.0455    3.7961 H   0  0  0  0  0  0  0  0  0  0  0  0
   -0.3230   -0.1245    3.9869 H   0  0  0  0  0  0  0  0  0  0  0  0
  1  2  1  0  0  0  0
  2  3  1  0  0  0  0
  2  4  1  0  0  0  0
  2  5  1  0  0  0  0
  5  6  2  0  0  0  0
  5  7  1  0  0  0  0
  7  8  1  0  0  0  0
  7  9  1  0  0  0  0
  9 10  1  0  0  0  0
  9 11  1  0  0  0  0
  9 26  1  0  0  0  0
 11 12  1  0  0  0  0
 11 13  1  0  0  0  0
 11 14  1  0  0  0  0
 14 15  2  0  0  0  0
 14 24  1  0  0  0  0
 15 16  1  0  0  0  0
 15 17  1  0  0  0  0
 17 18  1  0  0  0  0
 17 19  2  0  0  0  0
 19 20  1  0  0  0  0
 19 22  1  0  0  0  0
 20 21  1  0  0  0  0
 22 23  1  0  0  0  0
 22 24  2  0  0  0  0
 24 25  1  0  0  0  0
 26 27  2  0  0  0  0
 26 28  1  0  0  0  0
 28 29  1  0  0  0  0
 28 30  1  0  0  0  0
 30 31  1  0  0  0  0
 30 32  1  0  0  0  0
 30 33  1  0  0  0  0
M  END
$$$$

  -OEChem-03222214083D

 33 33  0     1  0  0  0  0  0999 V2000
   -3.1773   -4.7239    0.8860 H   0  0  0  0  0  0  0  0  0  0  0  0
   -3.1894   -3.8254    0.2621 C   0  0  0  0  0  0  0  0  0  0  0  0
   -4.0869   -3.2472    0.4946 H   0  0  0  0  0  0  0  0  0  0  0  0
   -3.2198   -4.1272   -0.7877 H   0  0  0  0  0  0  0  0  0  0  0  0
   -1.9502   -2.9904    0.5256 C   0  0  0  0  0  0  0  0  0  0  0  0
   -1.1602   -3.3308    1.3876 O   0  0  0  0  0  0  0  0  0  0  0  0
   -1.7365   -1.8387   -0.2047 N   0  0  0  0  0  0  0  0  0  0  0  0
   -2.3749   -1.6694   -0.9795 H   0  0  0  0  0  0  0  0  0  0  0  0
   -0.4891   -1.0482   -0.1831 C   0  0  1  0  0  0  0  0  0  0  0  0
    0.3202   -1.7337   -0.4584 H   0  0  0  0  0  0  0  0  0  0  0  0
   -0.4820    0.1071   -1.2241 C   0  0  0  0  0  0  0  0  0  0  0  0
   -0.3322    1.0624   -0.7085 H   0  0  0  0  0  0  0  0  0  0  0  0
    0.3912   -0.0305   -1.8703 H   0  0  0  0  0  0  0  0  0  0  0  0
   -1.7268    0.2485   -2.0835 C   0  0  0  0  0  0  0  0  0  0  0  0
   -2.9872    0.4916   -1.5090 C   0  0  0  0  0  0  0  0  0  0  0  0
   -3.0729    0.6371   -0.4357 H   0  0  0  0  0  0  0  0  0  0  0  0
   -4.1338    0.5668   -2.3080 C   0  0  0  0  0  0  0  0  0  0  0  0
   -5.0961    0.7634   -1.8472 H   0  0  0  0  0  0  0  0  0  0  0  0
   -4.0365    0.3945   -3.6899 C   0  0  0  0  0  0  0  0  0  0  0  0
   -5.1459    0.4655   -4.4816 O   0  0  0  0  0  0  0  0  0  0  0  0
   -5.9173    0.7318   -3.9578 H   0  0  0  0  0  0  0  0  0  0  0  0
   -2.7924    0.1498   -4.2673 C   0  0  0  0  0  0  0  0  0  0  0  0
   -2.7256    0.0174   -5.3425 H   0  0  0  0  0  0  0  0  0  0  0  0
   -1.6427    0.0775   -3.4736 C   0  0  0  0  0  0  0  0  0  0  0  0
   -0.6843   -0.1179   -3.9467 H   0  0  0  0  0  0  0  0  0  0  0  0
   -0.1145   -0.4960    1.2092 C   0  0  0  0  0  0  0  0  0  0  0  0
    1.0647   -0.3415    1.4983 O   0  0  0  0  0  0  0  0  0  0  0  0
   -1.0849    0.0902    2.0020 N   0  0  0  0  0  0  0  0  0  0  0  0
   -2.0416   -0.1664    1.7841 H   0  0  0  0  0  0  0  0  0  0  0  0
   -0.7950    0.6295    3.3247 C   0  0  0  0  0  0  0  0  0  0  0  0
   -0.0059    1.3868    3.2680 H   0  0  0  0  0  0  0  0  0  0  0  0
   -1.6893    1.0981    3.7462 H   0  0  0  0  0  0  0  0  0  0  0  0
   -0.4686   -0.1691    3.9992 H   0  0  0  0  0  0  0  0  0  0  0  0
  1  2  1  0  0  0  0
  2  3  1  0  0  0  0
  2  4  1  0  0  0  0
  2  5  1  0  0  0  0
  5  6  2  0  0  0  0
  5  7  1  0  0  0  0
  7  8  1  0  0  0  0
  7  9  1  0  0  0  0
  9 10  1  0  0  0  0
  9 11  1  0  0  0  0
  9 26  1  0  0  0  0
 11 12  1  0  0  0  0
 11 13  1  0  0  0  0
 11 14  1  0  0  0  0
 14 15  2  0  0  0  0
 14 24  1  0  0  0  0
 15 16  1  0  0  0  0
 15 17  1  0  0  0  0
 17 18  1  0  0  0  0
 17 19  2  0  0  0  0
 19 20  1  0  0  0  0
 19 22  1  0  0  0  0
 20 21  1  0  0  0  0
 22 23  1  0  0  0  0
 22 24  2  0  0  0  0
 24 25  1  0  0  0  0
 26 27  2  0  0  0  0
 26 28  1  0  0  0  0
 28 29  1  0  0  0  0
 28 30  1  0  0  0  0
 30 31  1  0  0  0  0
 30 32  1  0  0  0  0
 30 33  1  0  0  0  0
M  END
$$$$

  -OEChem-03222214083D

 33 33  0     1  0  0  0  0  0999 V2000
   -3.2469   -4.6625    0.8038 H   0  0  0  0  0  0  0  0  0  0  0  0
   -3.2302   -3.7577    0.1895 C   0  0  0  0  0  0  0  0  0  0  0  0
   -4.1124   -3.1568    0.4225 H   0  0  0  0  0  0  0  0  0  0  0  0
   -3.2626   -4.0475   -0.8636 H   0  0  0  0  0  0  0  0  0  0  0  0
   -1.9699   -2.9605    0.4681 C   0  0  0  0  0  0  0  0  0  0  0  0
   -1.1942   -3.3305    1.3310 O   0  0  0  0  0  0  0  0  0  0  0  0
   -1.7164   -1.8118   -0.2532 N   0  0  0  0  0  0  0  0  0  0  0  0
   -2.3565   -1.6003   -1.0166 H   0  0  0  0  0  0  0  0  0  0  0  0
   -0.4576   -1.0395   -0.1971 C   0  0  1  0  0  0  0  0  0  0  0  0
    0.3516   -1.7307   -0.4576 H   0  0  0  0  0  0  0  0  0  0  0  0
   -0.4271    0.1187   -1.2309 C   0  0  0  0  0  0  0  0  0  0  0  0
   -0.2776    1.0746   -0.7163 H   0  0  0  0  0  0  0  0  0  0  0  0
    0.4452   -0.0197   -1.8780 H   0  0  0  0  0  0  0  0  0  0  0  0
   -1.6747    0.2323   -2.0830 C   0  0  0  0  0  0  0  0  0  0  0  0
   -2.8574    0.7612   -1.5417 C   0  0  0  0  0  0  0  0  0  0  0  0
   -2.8645    1.1380   -0.5224 H   0  0  0  0  0  0  0  0  0  0  0  0
   -4.0271    0.8133   -2.3084 C   0  0  0  0  0  0  0  0  0  0  0  0
   -4.9309    1.2312   -1.8774 H   0  0  0  0  0  0  0  0  0  0  0  0
   -4.0275    0.3317   -3.6192 C   0  0  0  0  0  0  0  0  0  0  0  0
   -5.1611    0.3751   -4.3776 O   0  0  0  0  0  0  0  0  0  0  0  0
   -5.8594    0.8608   -3.9116 H   0  0  0  0  0  0  0  0  0  0  0  0
   -2.8579   -0.1998   -4.1592 C   0  0  0  0  0  0  0  0  0  0  0  0
   -2.8679   -0.5715   -5.1790 H   0  0  0  0  0  0  0  0  0  0  0  0
   -1.6846   -0.2509   -3.3993 C   0  0  0  0  0  0  0  0  0  0  0  0
   -0.7839   -0.6739   -3.8360 H   0  0  0  0  0  0  0  0  0  0  0  0
   -0.1162   -0.4956    1.2065 C   0  0  0  0  0  0  0  0  0  0  0  0
    1.0554   -0.3560    1.5317 O   0  0  0  0  0  0  0  0  0  0  0  0
   -1.1034    0.1025    1.9693 N   0  0  0  0  0  0  0  0  0  0  0  0
   -2.0562   -0.1408    1.7197 H   0  0  0  0  0  0  0  0  0  0  0  0
   -0.8488    0.6387    3.3005 C   0  0  0  0  0  0  0  0  0  0  0  0
   -0.0617    1.3994    3.2654 H   0  0  0  0  0  0  0  0  0  0  0  0
   -1.7555    1.1020    3.7009 H   0  0  0  0  0  0  0  0  0  0  0  0
   -0.5354   -0.1606    3.9804 H   0  0  0  0  0  0  0  0  0  0  0  0
  1  2  1  0  0  0  0
  2  3  1  0  0  0  0
  2  4  1  0  0  0  0
  2  5  1  0  0  0  0
  5  6  2  0  0  0  0
  5  7  1  0  0  0  0
  7  8  1  0  0  0  0
  7  9  1  0  0  0  0
  9 10  1  0  0  0  0
  9 11  1  0  0  0  0
  9 26  1  0  0  0  0
 11 12  1  0  0  0  0
 11 13  1  0  0  0  0
 11 14  1  0  0  0  0
 14 15  2  0  0  0  0
 14 24  1  0  0  0  0
 15 16  1  0  0  0  0
 15 17  1  0  0  0  0
 17 18  1  0  0  0  0
 17 19  2  0  0  0  0
 19 20  1  0  0  0  0
 19 22  1  0  0  0  0
 20 21  1  0  0  0  0
 22 23  1  0  0  0  0
 22 24  2  0  0  0  0
 24 25  1  0  0  0  0
 26 27  2  0  0  0  0
 26 28  1  0  0  0  0
 28 29  1  0  0  0  0
 28 30  1  0  0  0  0
 30 31  1  0  0  0  0
 30 32  1  0  0  0  0
 30 33  1  0  0  0  0
M  END
$$$$

  -OEChem-03222214083D

 33 33  0     1  0  0  0  0  0999 V2000
   -3.2664   -4.6421    0.8104 H   0  0  0  0  0  0  0  0  0  0  0  0
   -3.2398   -3.7402    0.1923 C   0  0  0  0  0  0  0  0  0  0  0  0
   -4.1092   -3.1229    0.4309 H   0  0  0  0  0  0  0  0  0  0  0  0
   -3.2873   -4.0338   -0.8593 H   0  0  0  0  0  0  0  0  0  0  0  0
   -1.9635   -2.9640    0.4568 C   0  0  0  0  0  0  0  0  0  0  0  0
   -1.1823   -3.3487    1.3082 O   0  0  0  0  0  0  0  0  0  0  0  0
   -1.6999   -1.8190   -0.2666 N   0  0  0  0  0  0  0  0  0  0  0  0
   -2.3549   -1.5829   -1.0099 H   0  0  0  0  0  0  0  0  0  0  0  0
   -0.4413   -1.0464   -0.2024 C   0  0  1  0  0  0  0  0  0  0  0  0
    0.3725   -1.7353   -0.4544 H   0  0  0  0  0  0  0  0  0  0  0  0
   -0.4113    0.1116   -1.2354 C   0  0  0  0  0  0  0  0  0  0  0  0
   -0.2582    1.0680   -0.7229 H   0  0  0  0  0  0  0  0  0  0  0  0
    0.4561   -0.0274   -1.8888 H   0  0  0  0  0  0  0  0  0  0  0  0
   -1.6612    0.2098   -2.0841 C   0  0  0  0  0  0  0  0  0  0  0  0
   -2.7424    0.9985   -1.6635 C   0  0  0  0  0  0  0  0  0  0  0  0
   -2.6716    1.5696   -0.7416 H   0  0  0  0  0  0  0  0  0  0  0  0
   -3.9155    1.0545   -2.4252 C   0  0  0  0  0  0  0  0  0  0  0  0
   -4.7420    1.6711   -2.0884 H   0  0  0  0  0  0  0  0  0  0  0  0
   -4.0190    0.3214   -3.6093 C   0  0  0  0  0  0  0  0  0  0  0  0
   -5.1589    0.3658   -4.3581 O   0  0  0  0  0  0  0  0  0  0  0  0
   -5.7762    1.0181   -3.9917 H   0  0  0  0  0  0  0  0  0  0  0  0
   -2.9477   -0.4647   -4.0300 C   0  0  0  0  0  0  0  0  0  0  0  0
   -3.0369   -1.0291   -4.9531 H   0  0  0  0  0  0  0  0  0  0  0  0
   -1.7708   -0.5213   -3.2759 C   0  0  0  0  0  0  0  0  0  0  0  0
   -0.9446   -1.1397   -3.6164 H   0  0  0  0  0  0  0  0  0  0  0  0
   -0.1161   -0.4966    1.2021 C   0  0  0  0  0  0  0  0  0  0  0  0
    1.0512   -0.3564    1.5422 O   0  0  0  0  0  0  0  0  0  0  0  0
   -1.1136    0.1042    1.9489 N   0  0  0  0  0  0  0  0  0  0  0  0
   -2.0640   -0.1284    1.6795 H   0  0  0  0  0  0  0  0  0  0  0  0
   -0.8782    0.6462    3.2810 C   0  0  0  0  0  0  0  0  0  0  0  0
   -0.0959    1.4121    3.2520 H   0  0  0  0  0  0  0  0  0  0  0  0
   -1.7923    1.1043    3.6705 H   0  0  0  0  0  0  0  0  0  0  0  0
   -0.5666   -0.1492    3.9661 H   0  0  0  0  0  0  0  0  0  0  0  0
  1  2  1  0  0  0  0
  2  3  1  0  0  0  0
  2  4  1  0  0  0  0
  2  5  1  0  0  0  0
  5  6  2  0  0  0  0
  5  7  1  0  0  0  0
  7  8  1  0  0  0  0
  7  9  1  0  0  0  0
  9 10  1  0  0  0  0
  9 11  1  0  0  0  0
  9 26  1  0  0  0  0
 11 12  1  0  0  0  0
 11 13  1  0  0  0  0
 11 14  1  0  0  0  0
 14 15  2  0  0  0  0
 14 24  1  0  0  0  0
 15 16  1  0  0  0  0
 15 17  1  0  0  0  0
 17 18  1  0  0  0  0
 17 19  2  0  0  0  0
 19 20  1  0  0  0  0
 19 22  1  0  0  0  0
 20 21  1  0  0  0  0
 22 23  1  0  0  0  0
 22 24  2  0  0  0  0
 24 25  1  0  0  0  0
 26 27  2  0  0  0  0
 26 28  1  0  0  0  0
 28 29  1  0  0  0  0
 28 30  1  0  0  0  0
 30 31  1  0  0  0  0
 30 32  1  0  0  0  0
 30 33  1  0  0  0  0
M  END
$$$$

  -OEChem-03222214083D

 33 33  0     1  0  0  0  0  0999 V2000
   -3.2365   -4.6652    0.8909 H   0  0  0  0  0  0  0  0  0  0  0  0
   -3.2245   -3.7697    0.2631 C   0  0  0  0  0  0  0  0  0  0  0  0
   -4.0879   -3.1502    0.5166 H   0  0  0  0  0  0  0  0  0  0  0  0
   -3.2975   -4.0743   -0.7836 H   0  0  0  0  0  0  0  0  0  0  0  0
   -1.9419   -2.9912    0.4883 C   0  0  0  0  0  0  0  0  0  0  0  0
   -1.1342   -3.3755    1.3151 O   0  0  0  0  0  0  0  0  0  0  0  0
   -1.6986   -1.8479   -0.2454 N   0  0  0  0  0  0  0  0  0  0  0  0
   -2.3815   -1.6013   -0.9594 H   0  0  0  0  0  0  0  0  0  0  0  0
   -0.4486   -1.0610   -0.1974 C   0  0  1  0  0  0  0  0  0  0  0  0
    0.3707   -1.7429   -0.4508 H   0  0  0  0  0  0  0  0  0  0  0  0
   -0.4344    0.0917   -1.2372 C   0  0  0  0  0  0  0  0  0  0  0  0
   -0.2772    1.0496   -0.7290 H   0  0  0  0  0  0  0  0  0  0  0  0
    0.4280   -0.0492   -1.8972 H   0  0  0  0  0  0  0  0  0  0  0  0
   -1.6853    0.1839   -2.0867 C   0  0  0  0  0  0  0  0  0  0  0  0
   -2.6348    1.1884   -1.8485 C   0  0  0  0  0  0  0  0  0  0  0  0
   -2.4772    1.9092   -1.0509 H   0  0  0  0  0  0  0  0  0  0  0  0
   -3.7930    1.2673   -2.6310 C   0  0  0  0  0  0  0  0  0  0  0  0
   -4.5201    2.0473   -2.4317 H   0  0  0  0  0  0  0  0  0  0  0  0
   -4.0083    0.3497   -3.6615 C   0  0  0  0  0  0  0  0  0  0  0  0
   -5.1346    0.4163   -4.4292 O   0  0  0  0  0  0  0  0  0  0  0  0
   -5.6539    1.2015   -4.1957 H   0  0  0  0  0  0  0  0  0  0  0  0
   -3.0610   -0.6414   -3.9116 C   0  0  0  0  0  0  0  0  0  0  0  0
   -3.2327   -1.3435   -4.7214 H   0  0  0  0  0  0  0  0  0  0  0  0
   -1.8999   -0.7230   -3.1361 C   0  0  0  0  0  0  0  0  0  0  0  0
   -1.1651   -1.4955   -3.3479 H   0  0  0  0  0  0  0  0  0  0  0  0
   -0.1191   -0.4991    1.2016 C   0  0  0  0  0  0  0  0  0  0  0  0
    1.0488   -0.3495    1.5351 O   0  0  0  0  0  0  0  0  0  0  0  0
   -1.1164    0.0951    1.9539 N   0  0  0  0  0  0  0  0  0  0  0  0
   -2.0683   -0.1286    1.6823 H   0  0  0  0  0  0  0  0  0  0  0  0
   -0.8780    0.6516    3.2793 C   0  0  0  0  0  0  0  0  0  0  0  0
   -0.1000    1.4214    3.2389 H   0  0  0  0  0  0  0  0  0  0  0  0
   -1.7930    1.1086    3.6678 H   0  0  0  0  0  0  0  0  0  0  0  0
   -0.5598   -0.1351    3.9714 H   0  0  0  0  0  0  0  0  0  0  0  0
  1  2  1  0  0  0  0
  2  3  1  0  0  0  0
  2  4  1  0  0  0  0
  2  5  1  0  0  0  0
  5  6  2  0  0  0  0
  5  7  1  0  0  0  0
  7  8  1  0  0  0  0
  7  9  1  0  0  0  0
  9 10  1  0  0  0  0
  9 11  1  0  0  0  0
  9 26  1  0  0  0  0
 11 12  1  0  0  0  0
 11 13  1  0  0  0  0
 11 14  1  0  0  0  0
 14 15  2  0  0  0  0
 14 24  1  0  0  0  0
 15 16  1  0  0  0  0
 15 17  1  0  0  0  0
 17 18  1  0  0  0  0
 17 19  2  0  0  0  0
 19 20  1  0  0  0  0
 19 22  1  0  0  0  0
 20 21  1  0  0  0  0
 22 23  1  0  0  0  0
 22 24  2  0  0  0  0
 24 25  1  0  0  0  0
 26 27  2  0  0  0  0
 26 28  1  0  0  0  0
 28 29  1  0  0  0  0
 28 30  1  0  0  0  0
 30 31  1  0  0  0  0
 30 32  1  0  0  0  0
 30 33  1  0  0  0  0
M  END
$$$$

  -OEChem-03222214083D

 33 33  0     1  0  0  0  0  0999 V2000
   -3.1958   -4.6855    1.0272 H   0  0  0  0  0  0  0  0  0  0  0  0
   -3.2021   -3.8037    0.3800 C   0  0  0  0  0  0  0  0  0  0  0  0
   -4.0479   -3.1696    0.6563 H   0  0  0  0  0  0  0  0  0  0  0  0
   -3.3223   -4.1292   -0.6561 H   0  0  0  0  0  0  0  0  0  0  0  0
   -1.9041   -3.0338    0.5341 C   0  0  0  0  0  0  0  0  0  0  0  0
   -1.0535   -3.4246    1.3132 O   0  0  0  0  0  0  0  0  0  0  0  0
   -1.6965   -1.8899   -0.2095 N   0  0  0  0  0  0  0  0  0  0  0  0
   -2.4272   -1.6223   -0.8660 H   0  0  0  0  0  0  0  0  0  0  0  0
   -0.4627   -1.0780   -0.1891 C   0  0  1  0  0  0  0  0  0  0  0  0
    0.3645   -1.7478   -0.4492 H   0  0  0  0  0  0  0  0  0  0  0  0
   -0.4773    0.0697   -1.2366 C   0  0  0  0  0  0  0  0  0  0  0  0
   -0.3194    1.0287   -0.7310 H   0  0  0  0  0  0  0  0  0  0  0  0
    0.3802   -0.0672   -1.9034 H   0  0  0  0  0  0  0  0  0  0  0  0
   -1.7295    0.1616   -2.0893 C   0  0  0  0  0  0  0  0  0  0  0  0
   -2.5184    1.3219   -2.0662 C   0  0  0  0  0  0  0  0  0  0  0  0
   -2.2596    2.1445   -1.4051 H   0  0  0  0  0  0  0  0  0  0  0  0
   -3.6508    1.4287   -2.8826 C   0  0  0  0  0  0  0  0  0  0  0  0
   -4.2562    2.3280   -2.8400 H   0  0  0  0  0  0  0  0  0  0  0  0
   -3.9929    0.3884   -3.7487 C   0  0  0  0  0  0  0  0  0  0  0  0
   -5.0955    0.4806   -4.5474 O   0  0  0  0  0  0  0  0  0  0  0  0
   -5.5135    1.3497   -4.4427 H   0  0  0  0  0  0  0  0  0  0  0  0
   -3.1928   -0.7507   -3.8070 C   0  0  0  0  0  0  0  0  0  0  0  0
   -3.4540   -1.5446   -4.4997 H   0  0  0  0  0  0  0  0  0  0  0  0
   -2.0589   -0.8608   -2.9956 C   0  0  0  0  0  0  0  0  0  0  0  0
   -1.4301   -1.7442   -3.0721 H   0  0  0  0  0  0  0  0  0  0  0  0
   -0.1227   -0.5034    1.2027 C   0  0  0  0  0  0  0  0  0  0  0  0
    1.0470   -0.3299    1.5185 O   0  0  0  0  0  0  0  0  0  0  0  0
   -1.1195    0.0734    1.9695 N   0  0  0  0  0  0  0  0  0  0  0  0
   -2.0730   -0.1523    1.7052 H   0  0  0  0  0  0  0  0  0  0  0  0
   -0.8725    0.6517    3.2844 C   0  0  0  0  0  0  0  0  0  0  0  0
   -0.1111    1.4364    3.2225 H   0  0  0  0  0  0  0  0  0  0  0  0
   -1.7902    1.0955    3.6815 H   0  0  0  0  0  0  0  0  0  0  0  0
   -0.5280   -0.1193    3.9817 H   0  0  0  0  0  0  0  0  0  0  0  0
  1  2  1  0  0  0  0
  2  3  1  0  0  0  0
  2  4  1  0  0  0  0
  2  5  1  0  0  0  0
  5  6  2  0  0  0  0
  5  7  1  0  0  0  0
  7  8  1  0  0  0  0
  7  9  1  0  0  0  0
  9 10  1  0  0  0  0
  9 11  1  0  0  0  0
  9 26  1  0  0  0  0
 11 12  1  0  0  0  0
 11 13  1  0  0  0  0
 11 14  1  0  0  0  0
 14 15  2  0  0  0  0
 14 24  1  0  0  0  0
 15 16  1  0  0  0  0
 15 17  1  0  0  0  0
 17 18  1  0  0  0  0
 17 19  2  0  0  0  0
 19 20  1  0  0  0  0
 19 22  1  0  0  0  0
 20 21  1  0  0  0  0
 22 23  1  0  0  0  0
 22 24  2  0  0  0  0
 24 25  1  0  0  0  0
 26 27  2  0  0  0  0
 26 28  1  0  0  0  0
 28 29  1  0  0  0  0
 28 30  1  0  0  0  0
 30 31  1  0  0  0  0
 30 32  1  0  0  0  0
 30 33  1  0  0  0  0
M  END
$$$$

  -OEChem-03222214083D

 33 33  0     1  0  0  0  0  0999 V2000
   -3.1217   -4.7305    1.1784 H   0  0  0  0  0  0  0  0  0  0  0  0
   -3.1658   -3.8587    0.5193 C   0  0  0  0  0  0  0  0  0  0  0  0
   -4.0029   -3.2274    0.8261 H   0  0  0  0  0  0  0  0  0  0  0  0
   -3.3320   -4.2008   -0.5051 H   0  0  0  0  0  0  0  0  0  0  0  0
   -1.8682   -3.0768    0.6011 C   0  0  0  0  0  0  0  0  0  0  0  0
   -0.9720   -3.4585    1.3320 O   0  0  0  0  0  0  0  0  0  0  0  0
   -1.7116   -1.9319   -0.1537 N   0  0  0  0  0  0  0  0  0  0  0  0
   -2.4891   -1.6556   -0.7493 H   0  0  0  0  0  0  0  0  0  0  0  0
   -0.4987   -1.0907   -0.1730 C   0  0  1  0  0  0  0  0  0  0  0  0
    0.3344   -1.7478   -0.4473 H   0  0  0  0  0  0  0  0  0  0  0  0
   -0.5468    0.0485   -1.2315 C   0  0  0  0  0  0  0  0  0  0  0  0
   -0.3952    1.0088   -0.7263 H   0  0  0  0  0  0  0  0  0  0  0  0
    0.3094   -0.0811   -1.9016 H   0  0  0  0  0  0  0  0  0  0  0  0
   -1.7970    0.1483   -2.0920 C   0  0  0  0  0  0  0  0  0  0  0  0
   -2.3940    1.4018   -2.3051 C   0  0  0  0  0  0  0  0  0  0  0  0
   -2.0166    2.2804   -1.7890 H   0  0  0  0  0  0  0  0  0  0  0  0
   -3.4899    1.5381   -3.1653 C   0  0  0  0  0  0  0  0  0  0  0  0
   -3.9501    2.5121   -3.2916 H   0  0  0  0  0  0  0  0  0  0  0  0
   -3.9766    0.4316   -3.8621 C   0  0  0  0  0  0  0  0  0  0  0  0
   -5.0437    0.5504   -4.7042 O   0  0  0  0  0  0  0  0  0  0  0  0
   -5.3384    1.4736   -4.7424 H   0  0  0  0  0  0  0  0  0  0  0  0
   -3.3495   -0.8028   -3.7146 C   0  0  0  0  0  0  0  0  0  0  0  0
   -3.7099   -1.6489   -4.2911 H   0  0  0  0  0  0  0  0  0  0  0  0
   -2.2541   -0.9418   -2.8565 C   0  0  0  0  0  0  0  0  0  0  0  0
   -1.7480   -1.9020   -2.8006 H   0  0  0  0  0  0  0  0  0  0  0  0
   -0.1325   -0.5010    1.2060 C   0  0  0  0  0  0  0  0  0  0  0  0
    1.0418   -0.3022    1.4876 O   0  0  0  0  0  0  0  0  0  0  0  0
   -1.1176    0.0561    2.0019 N   0  0  0  0  0  0  0  0  0  0  0  0
   -2.0757   -0.1767    1.7623 H   0  0  0  0  0  0  0  0  0  0  0  0
   -0.8417    0.6542    3.3019 C   0  0  0  0  0  0  0  0  0  0  0  0
   -0.1282    1.4789    3.2017 H   0  0  0  0  0  0  0  0  0  0  0  0
   -1.7631    1.0489    3.7403 H   0  0  0  0  0  0  0  0  0  0  0  0
   -0.4231   -0.0929    3.9845 H   0  0  0  0  0  0  0  0  0  0  0  0
  1  2  1  0  0  0  0
  2  3  1  0  0  0  0
  2  4  1  0  0  0  0
  2  5  1  0  0  0  0
  5  6  2  0  0  0  0
  5  7  1  0  0  0  0
  7  8  1  0  0  0  0
  7  9  1  0  0  0  0
  9 10  1  0  0  0  0
  9 11  1  0  0  0  0
  9 26  1  0  0  0  0
 11 12  1  0  0  0  0
 11 13  1  0  0  0  0
 11 14  1  0  0  0  0
 14 15  2  0  0  0  0
 14 24  1  0  0  0  0
 15 16  1  0  0  0  0
 15 17  1  0  0  0  0
 17 18  1  0  0  0  0
 17 19  2  0  0  0  0
 19 20  1  0  0  0  0
 19 22  1  0  0  0  0
 20 21  1  0  0  0  0
 22 23  1  0  0  0  0
 22 24  2  0  0  0  0
 24 25  1  0  0  0  0
 26 27  2  0  0  0  0
 26 28  1  0  0  0  0
 28 29  1  0  0  0  0
 28 30  1  0  0  0  0
 30 31  1  0  0  0  0
 30 32  1  0  0  0  0
 30 33  1  0  0  0  0
M  END
$$$$

  -OEChem-03222214083D

 33 33  0     1  0  0  0  0  0999 V2000
   -3.0005   -4.7873    1.3516 H   0  0  0  0  0  0  0  0  0  0  0  0
   -3.0993   -3.9268    0.6835 C   0  0  0  0  0  0  0  0  0  0  0  0
   -3.9269   -3.3046    1.0321 H   0  0  0  0  0  0  0  0  0  0  0  0
   -3.3214   -4.2876   -0.3237 H   0  0  0  0  0  0  0  0  0  0  0  0
   -1.8121   -3.1235    0.6735 C   0  0  0  0  0  0  0  0  0  0  0  0
   -0.8618   -3.4902    1.3410 O   0  0  0  0  0  0  0  0  0  0  0  0
   -1.7245   -1.9787   -0.0935 N   0  0  0  0  0  0  0  0  0  0  0  0
   -2.5555   -1.6976   -0.6082 H   0  0  0  0  0  0  0  0  0  0  0  0
   -0.5421   -1.0994   -0.1610 C   0  0  1  0  0  0  0  0  0  0  0  0
    0.2989   -1.7393   -0.4514 H   0  0  0  0  0  0  0  0  0  0  0  0
   -0.6293    0.0304   -1.2302 C   0  0  0  0  0  0  0  0  0  0  0  0
   -0.4870    0.9921   -0.7246 H   0  0  0  0  0  0  0  0  0  0  0  0
    0.2276   -0.0897   -1.9012 H   0  0  0  0  0  0  0  0  0  0  0  0
   -1.8728    0.1461   -2.1048 C   0  0  0  0  0  0  0  0  0  0  0  0
   -2.2498    1.4232   -2.5561 C   0  0  0  0  0  0  0  0  0  0  0  0
   -1.7302    2.3034   -2.1869 H   0  0  0  0  0  0  0  0  0  0  0  0
   -3.3069    1.5931   -3.4578 C   0  0  0  0  0  0  0  0  0  0  0  0
   -3.5969    2.5946   -3.7572 H   0  0  0  0  0  0  0  0  0  0  0  0
   -3.9698    0.4817   -3.9766 C   0  0  0  0  0  0  0  0  0  0  0  0
   -5.0014    0.6308   -4.8574 O   0  0  0  0  0  0  0  0  0  0  0  0
   -5.1489    1.5713   -5.0429 H   0  0  0  0  0  0  0  0  0  0  0  0
   -3.5468   -0.7942   -3.6182 C   0  0  0  0  0  0  0  0  0  0  0  0
   -4.0305   -1.6542   -4.0705 H   0  0  0  0  0  0  0  0  0  0  0  0
   -2.4891   -0.9639   -2.7188 C   0  0  0  0  0  0  0  0  0  0  0  0
   -2.1324   -1.9736   -2.5424 H   0  0  0  0  0  0  0  0  0  0  0  0
   -0.1474   -0.4912    1.2024 C   0  0  0  0  0  0  0  0  0  0  0  0
    1.0293   -0.2587    1.4452 O   0  0  0  0  0  0  0  0  0  0  0  0
   -1.1202    0.0379    2.0316 N   0  0  0  0  0  0  0  0  0  0  0  0
   -2.0813   -0.2051    1.8164 H   0  0  0  0  0  0  0  0  0  0  0  0
   -0.8180    0.6558    3.3164 C   0  0  0  0  0  0  0  0  0  0  0  0
   -0.1508    1.5139    3.1826 H   0  0  0  0  0  0  0  0  0  0  0  0
   -1.7379    1.0064    3.7938 H   0  0  0  0  0  0  0  0  0  0  0  0
   -0.3337   -0.0663    3.9824 H   0  0  0  0  0  0  0  0  0  0  0  0
  1  2  1  0  0  0  0
  2  3  1  0  0  0  0
  2  4  1  0  0  0  0
  2  5  1  0  0  0  0
  5  6  2  0  0  0  0
  5  7  1  0  0  0  0
  7  8  1  0  0  0  0
  7  9  1  0  0  0  0
  9 10  1  0  0  0  0
  9 11  1  0  0  0  0
  9 26  1  0  0  0  0
 11 12  1  0  0  0  0
 11 13  1  0  0  0  0
 11 14  1  0  0  0  0
 14 15  2  0  0  0  0
 14 24  1  0  0  0  0
 15 16  1  0  0  0  0
 15 17  1  0  0  0  0
 17 18  1  0  0  0  0
 17 19  2  0  0  0  0
 19 20  1  0  0  0  0
 19 22  1  0  0  0  0
 20 21  1  0  0  0  0
 22 23  1  0  0  0  0
 22 24  2  0  0  0  0
 24 25  1  0  0  0  0
 26 27  2  0  0  0  0
 26 28  1  0  0  0  0
 28 29  1  0  0  0  0
 28 30  1  0  0  0  0
 30 31  1  0  0  0  0
 30 32  1  0  0  0  0
 30 33  1  0  0  0  0
M  END
$$$$

  -OEChem-03222214083D

 33 33  0     1  0  0  0  0  0999 V2000
   -2.8402   -4.8328    1.5497 H   0  0  0  0  0  0  0  0  0  0  0  0
   -3.0003   -3.9895    0.8717 C   0  0  0  0  0  0  0  0  0  0  0  0
   -3.8123   -3.3728    1.2639 H   0  0  0  0  0  0  0  0  0  0  0  0
   -3.2855   -4.3769   -0.1093 H   0  0  0  0  0  0  0  0  0  0  0  0
   -1.7311   -3.1667    0.7535 C   0  0  0  0  0  0  0  0  0  0  0  0
   -0.7272   -3.5081    1.3524 O   0  0  0  0  0  0  0  0  0  0  0  0
   -1.7234   -2.0307   -0.0321 N   0  0  0  0  0  0  0  0  0  0  0  0
   -2.6093   -1.7442   -0.4388 H   0  0  0  0  0  0  0  0  0  0  0  0
   -0.5822   -1.1079   -0.1541 C   0  0  1  0  0  0  0  0  0  0  0  0
    0.2700   -1.7286   -0.4538 H   0  0  0  0  0  0  0  0  0  0  0  0
   -0.7104    0.0009   -1.2435 C   0  0  0  0  0  0  0  0  0  0  0  0
   -0.5847    0.9688   -0.7453 H   0  0  0  0  0  0  0  0  0  0  0  0
    0.1536   -0.1126   -1.9064 H   0  0  0  0  0  0  0  0  0  0  0  0
   -1.9378    0.1328   -2.1462 C   0  0  0  0  0  0  0  0  0  0  0  0
   -2.0715    1.3524   -2.8359 C   0  0  0  0  0  0  0  0  0  0  0  0
   -1.3829    2.1670   -2.6274 H   0  0  0  0  0  0  0  0  0  0  0  0
   -3.0940    1.5627   -3.7676 C   0  0  0  0  0  0  0  0  0  0  0  0
   -3.1881    2.5308   -4.2474 H   0  0  0  0  0  0  0  0  0  0  0  0
   -3.9741    0.5307   -4.0824 C   0  0  0  0  0  0  0  0  0  0  0  0
   -4.9772    0.7189   -4.9881 O   0  0  0  0  0  0  0  0  0  0  0  0
   -4.9528    1.6266   -5.3290 H   0  0  0  0  0  0  0  0  0  0  0  0
   -3.7985   -0.7163   -3.4932 C   0  0  0  0  0  0  0  0  0  0  0  0
   -4.4496   -1.5322   -3.7906 H   0  0  0  0  0  0  0  0  0  0  0  0
   -2.7737   -0.9273   -2.5640 C   0  0  0  0  0  0  0  0  0  0  0  0
   -2.6306   -1.9494   -2.2393 H   0  0  0  0  0  0  0  0  0  0  0  0
   -0.1671   -0.4690    1.1897 C   0  0  0  0  0  0  0  0  0  0  0  0
    1.0068   -0.1885    1.3914 O   0  0  0  0  0  0  0  0  0  0  0  0
   -1.1315    0.0301    2.0474 N   0  0  0  0  0  0  0  0  0  0  0  0
   -2.0914   -0.2407    1.8629 H   0  0  0  0  0  0  0  0  0  0  0  0
   -0.8113    0.6776    3.3133 C   0  0  0  0  0  0  0  0  0  0  0  0
   -0.1858    1.5605    3.1452 H   0  0  0  0  0  0  0  0  0  0  0  0
   -1.7279    0.9963    3.8183 H   0  0  0  0  0  0  0  0  0  0  0  0
   -0.2748   -0.0143    3.9711 H   0  0  0  0  0  0  0  0  0  0  0  0
  1  2  1  0  0  0  0
  2  3  1  0  0  0  0
  2  4  1  0  0  0  0
  2  5  1  0  0  0  0
  5  6  2  0  0  0  0
  5  7  1  0  0  0  0
  7  8  1  0  0  0  0
  7  9  1  0  0  0  0
  9 10  1  0  0  0  0
  9 11  1  0  0  0  0
  9 26  1  0  0  0  0
 11 12  1  0  0  0  0
 11 13  1  0  0  0  0
 11 14  1  0  0  0  0
 14 15  2  0  0  0  0
 14 24  1  0  0  0  0
 15 16  1  0  0  0  0
 15 17  1  0  0  0  0
 17 18  1  0  0  0  0
 17 19  2  0  0  0  0
 19 20  1  0  0  0  0
 19 22  1  0  0  0  0
 20 21  1  0  0  0  0
 22 23  1  0  0  0  0
 22 24  2  0  0  0  0
 24 25  1  0  0  0  0
 26 27  2  0  0  0  0
 26 28  1  0  0  0  0
 28 29  1  0  0  0  0
 28 30  1  0  0  0  0
 30 31  1  0  0  0  0
 30 32  1  0  0  0  0
 30 33  1  0  0  0  0
M  END
$$$$

  -OEChem-03222214083D

 33 33  0     1  0  0  0  0  0999 V2000
   -2.3337   -5.1795    1.0232 H   0  0  0  0  0  0  0  0  0  0  0  0
   -2.5409   -4.3251    0.3725 C   0  0  0  0  0  0  0  0  0  0  0  0
   -3.5255   -3.9232    0.6230 H   0  0  0  0  0  0  0  0  0  0  0  0
   -2.5472   -4.6679   -0.6650 H   0  0  0  0  0  0  0  0  0  0  0  0
   -1.4803   -3.2566    0.5603 C   0  0  0  0  0  0  0  0  0  0  0  0
   -0.5798   -3.4322    1.3606 O   0  0  0  0  0  0  0  0  0  0  0  0
   -1.5479   -2.0947   -0.1844 N   0  0  0  0  0  0  0  0  0  0  0  0
   -2.2148   -2.1023   -0.9509 H   0  0  0  0  0  0  0  0  0  0  0  0
   -0.4780   -1.0850   -0.2495 C   0  0  1  0  0  0  0  0  0  0  0  0
    0.4329   -1.5981   -0.5783 H   0  0  0  0  0  0  0  0  0  0  0  0
   -0.7395    0.0894   -1.2428 C   0  0  0  0  0  0  0  0  0  0  0  0
   -0.3706    1.0144   -0.7839 H   0  0  0  0  0  0  0  0  0  0  0  0
   -0.0816   -0.1036   -2.0964 H   0  0  0  0  0  0  0  0  0  0  0  0
   -2.1093    0.4160   -1.8473 C   0  0  0  0  0  0  0  0  0  0  0  0
   -2.1226    1.5142   -2.7277 C   0  0  0  0  0  0  0  0  0  0  0  0
   -1.1889    2.0079   -2.9842 H   0  0  0  0  0  0  0  0  0  0  0  0
   -3.3067    1.9814   -3.3078 C   0  0  0  0  0  0  0  0  0  0  0  0
   -3.2691    2.8139   -4.0023 H   0  0  0  0  0  0  0  0  0  0  0  0
   -4.5227    1.3849   -2.9873 C   0  0  0  0  0  0  0  0  0  0  0  0
   -5.6873    1.8280   -3.5431 O   0  0  0  0  0  0  0  0  0  0  0  0
   -5.5093    2.5684   -4.1438 H   0  0  0  0  0  0  0  0  0  0  0  0
   -4.5477    0.3442   -2.0662 C   0  0  0  0  0  0  0  0  0  0  0  0
   -5.5054   -0.0858   -1.7910 H   0  0  0  0  0  0  0  0  0  0  0  0
   -3.3649   -0.1225   -1.4811 C   0  0  0  0  0  0  0  0  0  0  0  0
   -3.4960   -0.8739   -0.7171 H   0  0  0  0  0  0  0  0  0  0  0  0
   -0.1410   -0.4736    1.1302 C   0  0  0  0  0  0  0  0  0  0  0  0
    1.0066   -0.1203    1.3694 O   0  0  0  0  0  0  0  0  0  0  0  0
   -1.1569   -0.0852    1.9848 N   0  0  0  0  0  0  0  0  0  0  0  0
   -2.0838   -0.4400    1.7748 H   0  0  0  0  0  0  0  0  0  0  0  0
   -0.9133    0.5310    3.2826 C   0  0  0  0  0  0  0  0  0  0  0  0
   -0.3367    1.4548    3.1670 H   0  0  0  0  0  0  0  0  0  0  0  0
   -1.8626    0.7769    3.7677 H   0  0  0  0  0  0  0  0  0  0  0  0
   -0.3566   -0.1530    3.9317 H   0  0  0  0  0  0  0  0  0  0  0  0
  1  2  1  0  0  0  0
  2  3  1  0  0  0  0
  2  4  1  0  0  0  0
  2  5  1  0  0  0  0
  5  6  2  0  0  0  0
  5  7  1  0  0  0  0
  7  8  1  0  0  0  0
  7  9  1  0  0  0  0
  9 10  1  0  0  0  0
  9 11  1  0  0  0  0
  9 26  1  0  0  0  0
 11 12  1  0  0  0  0
 11 13  1  0  0  0  0
 11 14  1  0  0  0  0
 14 15  2  0  0  0  0
 14 24  1  0  0  0  0
 15 16  1  0  0  0  0
 15 17  1  0  0  0  0
 17 18  1  0  0  0  0
 17 19  2  0  0  0  0
 19 20  1  0  0  0  0
 19 22  1  0  0  0  0
 20 21  1  0  0  0  0
 22 23  1  0  0  0  0
 22 24  2  0  0  0  0
 24 25  1  0  0  0  0
 26 27  2  0  0  0  0
 26 28  1  0  0  0  0
 28 29  1  0  0  0  0
 28 30  1  0  0  0  0
 30 31  1  0  0  0  0
 30 32  1  0  0  0  0
 30 33  1  0  0  0  0
M  END
$$$$

  -OEChem-03222214083D

 33 33  0     1  0  0  0  0  0999 V2000
   -2.7574   -5.0103    1.1405 H   0  0  0  0  0  0  0  0  0  0  0  0
   -2.8712   -4.1592    0.4629 C   0  0  0  0  0  0  0  0  0  0  0  0
   -3.8165   -3.6577    0.6835 H   0  0  0  0  0  0  0  0  0  0  0  0
   -2.8931   -4.5297   -0.5648 H   0  0  0  0  0  0  0  0  0  0  0  0
   -1.7155   -3.1926    0.6413 C   0  0  0  0  0  0  0  0  0  0  0  0
   -0.8534   -3.4251    1.4690 O   0  0  0  0  0  0  0  0  0  0  0  0
   -1.6526   -2.0540   -0.1377 N   0  0  0  0  0  0  0  0  0  0  0  0
   -2.3327   -1.9849   -0.8914 H   0  0  0  0  0  0  0  0  0  0  0  0
   -0.4973   -1.1382   -0.1915 C   0  0  1  0  0  0  0  0  0  0  0  0
    0.3776   -1.7366   -0.4703 H   0  0  0  0  0  0  0  0  0  0  0  0
   -0.6399   -0.0024   -1.2475 C   0  0  0  0  0  0  0  0  0  0  0  0
   -0.2406    0.9272   -0.8258 H   0  0  0  0  0  0  0  0  0  0  0  0
    0.0300   -0.2737   -2.0702 H   0  0  0  0  0  0  0  0  0  0  0  0
   -1.9921    0.3309   -1.8753 C   0  0  0  0  0  0  0  0  0  0  0  0
   -1.9726    1.1217   -3.0380 C   0  0  0  0  0  0  0  0  0  0  0  0
   -1.0225    1.3752   -3.5005 H   0  0  0  0  0  0  0  0  0  0  0  0
   -3.1550    1.5709   -3.6367 C   0  0  0  0  0  0  0  0  0  0  0  0
   -3.1028    2.1489   -4.5529 H   0  0  0  0  0  0  0  0  0  0  0  0
   -4.3869    1.2857   -3.0512 C   0  0  0  0  0  0  0  0  0  0  0  0
   -5.5497    1.7150   -3.6222 O   0  0  0  0  0  0  0  0  0  0  0  0
   -5.3607    2.2031   -4.4388 H   0  0  0  0  0  0  0  0  0  0  0  0
   -4.4255    0.5843   -1.8510 C   0  0  0  0  0  0  0  0  0  0  0  0
   -5.3859    0.4130   -1.3753 H   0  0  0  0  0  0  0  0  0  0  0  0
   -3.2434    0.1388   -1.2497 C   0  0  0  0  0  0  0  0  0  0  0  0
   -3.3336   -0.3165   -0.2712 H   0  0  0  0  0  0  0  0  0  0  0  0
   -0.1493   -0.5045    1.1747 C   0  0  0  0  0  0  0  0  0  0  0  0
    1.0163   -0.2326    1.4326 O   0  0  0  0  0  0  0  0  0  0  0  0
   -1.1517    0.0019    1.9826 N   0  0  0  0  0  0  0  0  0  0  0  0
   -2.0941   -0.3113    1.7776 H   0  0  0  0  0  0  0  0  0  0  0  0
   -0.8877    0.6410    3.2654 C   0  0  0  0  0  0  0  0  0  0  0  0
   -0.2453    1.5178    3.1326 H   0  0  0  0  0  0  0  0  0  0  0  0
   -1.8252    0.9684    3.7249 H   0  0  0  0  0  0  0  0  0  0  0  0
   -0.3921   -0.0590    3.9464 H   0  0  0  0  0  0  0  0  0  0  0  0
  1  2  1  0  0  0  0
  2  3  1  0  0  0  0
  2  4  1  0  0  0  0
  2  5  1  0  0  0  0
  5  6  2  0  0  0  0
  5  7  1  0  0  0  0
  7  8  1  0  0  0  0
  7  9  1  0  0  0  0
  9 10  1  0  0  0  0
  9 11  1  0  0  0  0
  9 26  1  0  0  0  0
 11 12  1  0  0  0  0
 11 13  1  0  0  0  0
 11 14  1  0  0  0  0
 14 15  2  0  0  0  0
 14 24  1  0  0  0  0
 15 16  1  0  0  0  0
 15 17  1  0  0  0  0
 17 18  1  0  0  0  0
 17 19  2  0  0  0  0
 19 20  1  0  0  0  0
 19 22  1  0  0  0  0
 20 21  1  0  0  0  0
 22 23  1  0  0  0  0
 22 24  2  0  0  0  0
 24 25  1  0  0  0  0
 26 27  2  0  0  0  0
 26 28  1  0  0  0  0
 28 29  1  0  0  0  0
 28 30  1  0  0  0  0
 30 31  1  0  0  0  0
 30 32  1  0  0  0  0
 30 33  1  0  0  0  0
M  END
$$$$

  -OEChem-03222214083D

 33 33  0     1  0  0  0  0  0999 V2000
   -2.9095   -4.9166    1.0544 H   0  0  0  0  0  0  0  0  0  0  0  0
   -2.9879   -4.0448    0.3983 C   0  0  0  0  0  0  0  0  0  0  0  0
   -3.9070   -3.5048    0.6381 H   0  0  0  0  0  0  0  0  0  0  0  0
   -3.0342   -4.3886   -0.6379 H   0  0  0  0  0  0  0  0  0  0  0  0
   -1.7874   -3.1372    0.5900 C   0  0  0  0  0  0  0  0  0  0  0  0
   -0.9350   -3.4229    1.4113 O   0  0  0  0  0  0  0  0  0  0  0  0
   -1.6745   -1.9861   -0.1637 N   0  0  0  0  0  0  0  0  0  0  0  0
   -2.3689   -1.8483   -0.8950 H   0  0  0  0  0  0  0  0  0  0  0  0
   -0.4900   -1.1048   -0.1813 C   0  0  1  0  0  0  0  0  0  0  0  0
    0.3691   -1.7274   -0.4559 H   0  0  0  0  0  0  0  0  0  0  0  0
   -0.5897    0.0319   -1.2384 C   0  0  0  0  0  0  0  0  0  0  0  0
   -0.1999    0.9617   -0.8088 H   0  0  0  0  0  0  0  0  0  0  0  0
    0.0916   -0.2387   -2.0515 H   0  0  0  0  0  0  0  0  0  0  0  0
   -1.9483    0.3422   -1.8547 C   0  0  0  0  0  0  0  0  0  0  0  0
   -1.9902    0.8358   -3.1696 C   0  0  0  0  0  0  0  0  0  0  0  0
   -1.0759    0.9033   -3.7527 H   0  0  0  0  0  0  0  0  0  0  0  0
   -3.1989    1.2292   -3.7560 C   0  0  0  0  0  0  0  0  0  0  0  0
   -3.2045    1.5812   -4.7820 H   0  0  0  0  0  0  0  0  0  0  0  0
   -4.3829    1.1803   -3.0206 C   0  0  0  0  0  0  0  0  0  0  0  0
   -5.5685    1.5625   -3.5779 O   0  0  0  0  0  0  0  0  0  0  0  0
   -5.4272    1.8703   -4.4867 H   0  0  0  0  0  0  0  0  0  0  0  0
   -4.3482    0.7615   -1.6938 C   0  0  0  0  0  0  0  0  0  0  0  0
   -5.2680    0.7643   -1.1177 H   0  0  0  0  0  0  0  0  0  0  0  0
   -3.1409    0.3708   -1.1055 C   0  0  0  0  0  0  0  0  0  0  0  0
   -3.1435    0.1135   -0.0521 H   0  0  0  0  0  0  0  0  0  0  0  0
   -0.1351   -0.5033    1.1971 C   0  0  0  0  0  0  0  0  0  0  0  0
    1.0358   -0.2657    1.4633 O   0  0  0  0  0  0  0  0  0  0  0  0
   -1.1264    0.0235    2.0059 N   0  0  0  0  0  0  0  0  0  0  0  0
   -2.0705   -0.2908    1.8115 H   0  0  0  0  0  0  0  0  0  0  0  0
   -0.8459    0.6225    3.3047 C   0  0  0  0  0  0  0  0  0  0  0  0
   -0.1548    1.4654    3.1985 H   0  0  0  0  0  0  0  0  0  0  0  0
   -1.7703    0.9920    3.7581 H   0  0  0  0  0  0  0  0  0  0  0  0
   -0.3990   -0.1168    3.9776 H   0  0  0  0  0  0  0  0  0  0  0  0
  1  2  1  0  0  0  0
  2  3  1  0  0  0  0
  2  4  1  0  0  0  0
  2  5  1  0  0  0  0
  5  6  2  0  0  0  0
  5  7  1  0  0  0  0
  7  8  1  0  0  0  0
  7  9  1  0  0  0  0
  9 10  1  0  0  0  0
  9 11  1  0  0  0  0
  9 26  1  0  0  0  0
 11 12  1  0  0  0  0
 11 13  1  0  0  0  0
 11 14  1  0  0  0  0
 14 15  2  0  0  0  0
 14 24  1  0  0  0  0
 15 16  1  0  0  0  0
 15 17  1  0  0  0  0
 17 18  1  0  0  0  0
 17 19  2  0  0  0  0
 19 20  1  0  0  0  0
 19 22  1  0  0  0  0
 20 21  1  0  0  0  0
 22 23  1  0  0  0  0
 22 24  2  0  0  0  0
 24 25  1  0  0  0  0
 26 27  2  0  0  0  0
 26 28  1  0  0  0  0
 28 29  1  0  0  0  0
 28 30  1  0  0  0  0
 30 31  1  0  0  0  0
 30 32  1  0  0  0  0
 30 33  1  0  0  0  0
M  END
$$$$

  -OEChem-03222214083D

 33 33  0     1  0  0  0  0  0999 V2000
   -3.0535   -4.8121    0.9828 H   0  0  0  0  0  0  0  0  0  0  0  0
   -3.0922   -3.9279    0.3403 C   0  0  0  0  0  0  0  0  0  0  0  0
   -3.9823   -3.3472    0.5937 H   0  0  0  0  0  0  0  0  0  0  0  0
   -3.1618   -4.2531   -0.7005 H   0  0  0  0  0  0  0  0  0  0  0  0
   -1.8472   -3.0837    0.5375 C   0  0  0  0  0  0  0  0  0  0  0  0
   -1.0003   -3.4264    1.3429 O   0  0  0  0  0  0  0  0  0  0  0  0
   -1.6879   -1.9218   -0.1901 N   0  0  0  0  0  0  0  0  0  0  0  0
   -2.3977   -1.7130   -0.8896 H   0  0  0  0  0  0  0  0  0  0  0  0
   -0.4788   -1.0743   -0.1757 C   0  0  1  0  0  0  0  0  0  0  0  0
    0.3649   -1.7176   -0.4492 H   0  0  0  0  0  0  0  0  0  0  0  0
   -0.5413    0.0655   -1.2291 C   0  0  0  0  0  0  0  0  0  0  0  0
   -0.1544    0.9922   -0.7912 H   0  0  0  0  0  0  0  0  0  0  0  0
    0.1468   -0.2038   -2.0366 H   0  0  0  0  0  0  0  0  0  0  0  0
   -1.9048    0.3629   -1.8335 C   0  0  0  0  0  0  0  0  0  0  0  0
   -2.0261    0.5462   -3.2207 C   0  0  0  0  0  0  0  0  0  0  0  0
   -1.1613    0.4171   -3.8657 H   0  0  0  0  0  0  0  0  0  0  0  0
   -3.2586    0.8827   -3.7934 C   0  0  0  0  0  0  0  0  0  0  0  0
   -3.3324    0.9991   -4.8695 H   0  0  0  0  0  0  0  0  0  0  0  0
   -4.3792    1.0751   -2.9843 C   0  0  0  0  0  0  0  0  0  0  0  0
   -5.5853    1.4051   -3.5304 O   0  0  0  0  0  0  0  0  0  0  0  0
   -5.4973    1.5216   -4.4893 H   0  0  0  0  0  0  0  0  0  0  0  0
   -4.2592    0.9481   -1.6027 C   0  0  0  0  0  0  0  0  0  0  0  0
   -5.1284    1.1306   -0.9787 H   0  0  0  0  0  0  0  0  0  0  0  0
   -3.0295    0.6128   -1.0274 C   0  0  0  0  0  0  0  0  0  0  0  0
   -2.9531    0.5595    0.0533 H   0  0  0  0  0  0  0  0  0  0  0  0
   -0.1199   -0.5064    1.2153 C   0  0  0  0  0  0  0  0  0  0  0  0
    1.0541   -0.2962    1.4906 O   0  0  0  0  0  0  0  0  0  0  0  0
   -1.1038    0.0349    2.0233 N   0  0  0  0  0  0  0  0  0  0  0  0
   -2.0508   -0.2703    1.8274 H   0  0  0  0  0  0  0  0  0  0  0  0
   -0.8167    0.6105    3.3314 C   0  0  0  0  0  0  0  0  0  0  0  0
   -0.1054    1.4381    3.2393 H   0  0  0  0  0  0  0  0  0  0  0  0
   -1.7347    0.9963    3.7848 H   0  0  0  0  0  0  0  0  0  0  0  0
   -0.3907   -0.1475    3.9972 H   0  0  0  0  0  0  0  0  0  0  0  0
  1  2  1  0  0  0  0
  2  3  1  0  0  0  0
  2  4  1  0  0  0  0
  2  5  1  0  0  0  0
  5  6  2  0  0  0  0
  5  7  1  0  0  0  0
  7  8  1  0  0  0  0
  7  9  1  0  0  0  0
  9 10  1  0  0  0  0
  9 11  1  0  0  0  0
  9 26  1  0  0  0  0
 11 12  1  0  0  0  0
 11 13  1  0  0  0  0
 11 14  1  0  0  0  0
 14 15  2  0  0  0  0
 14 24  1  0  0  0  0
 15 16  1  0  0  0  0
 15 17  1  0  0  0  0
 17 18  1  0  0  0  0
 17 19  2  0  0  0  0
 19 20  1  0  0  0  0
 19 22  1  0  0  0  0
 20 21  1  0  0  0  0
 22 23  1  0  0  0  0
 22 24  2  0  0  0  0
 24 25  1  0  0  0  0
 26 27  2  0  0  0  0
 26 28  1  0  0  0  0
 28 29  1  0  0  0  0
 28 30  1  0  0  0  0
 30 31  1  0  0  0  0
 30 32  1  0  0  0  0
 30 33  1  0  0  0  0
M  END
$$$$

  -OEChem-03222214083D

 33 33  0     1  0  0  0  0  0999 V2000
   -3.1602   -4.7169    0.9428 H   0  0  0  0  0  0  0  0  0  0  0  0
   -3.1682   -3.8283    0.3052 C   0  0  0  0  0  0  0  0  0  0  0  0
   -4.0306   -3.2122    0.5712 H   0  0  0  0  0  0  0  0  0  0  0  0
   -3.2618   -4.1445   -0.7365 H   0  0  0  0  0  0  0  0  0  0  0  0
   -1.8867   -3.0386    0.4946 C   0  0  0  0  0  0  0  0  0  0  0  0
   -1.0456   -3.4238    1.2869 O   0  0  0  0  0  0  0  0  0  0  0  0
   -1.6873   -1.8770   -0.2229 N   0  0  0  0  0  0  0  0  0  0  0  0
   -2.4031   -1.6197   -0.8998 H   0  0  0  0  0  0  0  0  0  0  0  0
   -0.4586   -1.0581   -0.1852 C   0  0  1  0  0  0  0  0  0  0  0  0
    0.3760   -1.7159   -0.4533 H   0  0  0  0  0  0  0  0  0  0  0  0
   -0.4912    0.0887   -1.2296 C   0  0  0  0  0  0  0  0  0  0  0  0
   -0.0988    1.0094   -0.7835 H   0  0  0  0  0  0  0  0  0  0  0  0
    0.1951   -0.1783   -2.0399 H   0  0  0  0  0  0  0  0  0  0  0  0
   -1.8594    0.3821   -1.8171 C   0  0  0  0  0  0  0  0  0  0  0  0
   -2.0783    0.2622   -3.1983 C   0  0  0  0  0  0  0  0  0  0  0  0
   -1.2761   -0.0699   -3.8516 H   0  0  0  0  0  0  0  0  0  0  0  0
   -3.3318    0.5562   -3.7481 C   0  0  0  0  0  0  0  0  0  0  0  0
   -3.4851    0.4438   -4.8160 H   0  0  0  0  0  0  0  0  0  0  0  0
   -4.3729    0.9944   -2.9280 C   0  0  0  0  0  0  0  0  0  0  0  0
   -5.5990    1.2837   -3.4523 O   0  0  0  0  0  0  0  0  0  0  0  0
   -5.5772    1.2050   -4.4188 H   0  0  0  0  0  0  0  0  0  0  0  0
   -4.1538    1.1496   -1.5610 C   0  0  0  0  0  0  0  0  0  0  0  0
   -4.9629    1.5119   -0.9347 H   0  0  0  0  0  0  0  0  0  0  0  0
   -2.9029    0.8592   -1.0072 C   0  0  0  0  0  0  0  0  0  0  0  0
   -2.7440    1.0157    0.0549 H   0  0  0  0  0  0  0  0  0  0  0  0
   -0.1114   -0.5084    1.2156 C   0  0  0  0  0  0  0  0  0  0  0  0
    1.0613   -0.3281    1.5165 O   0  0  0  0  0  0  0  0  0  0  0  0
   -1.0990    0.0495    2.0080 N   0  0  0  0  0  0  0  0  0  0  0  0
   -2.0494   -0.2270    1.7855 H   0  0  0  0  0  0  0  0  0  0  0  0
   -0.8269    0.6034    3.3287 C   0  0  0  0  0  0  0  0  0  0  0  0
   -0.0927    1.4133    3.2621 H   0  0  0  0  0  0  0  0  0  0  0  0
   -1.7449    1.0075    3.7659 H   0  0  0  0  0  0  0  0  0  0  0  0
   -0.4358   -0.1724    3.9952 H   0  0  0  0  0  0  0  0  0  0  0  0
  1  2  1  0  0  0  0
  2  3  1  0  0  0  0
  2  4  1  0  0  0  0
  2  5  1  0  0  0  0
  5  6  2  0  0  0  0
  5  7  1  0  0  0  0
  7  8  1  0  0  0  0
  7  9  1  0  0  0  0
  9 10  1  0  0  0  0
  9 11  1  0  0  0  0
  9 26  1  0  0  0  0
 11 12  1  0  0  0  0
 11 13  1  0  0  0  0
 11 14  1  0  0  0  0
 14 15  2  0  0  0  0
 14 24  1  0  0  0  0
 15 16  1  0  0  0  0
 15 17  1  0  0  0  0
 17 18  1  0  0  0  0
 17 19  2  0  0  0  0
 19 20  1  0  0  0  0
 19 22  1  0  0  0  0
 20 21  1  0  0  0  0
 22 23  1  0  0  0  0
 22 24  2  0  0  0  0
 24 25  1  0  0  0  0
 26 27  2  0  0  0  0
 26 28  1  0  0  0  0
 28 29  1  0  0  0  0
 28 30  1  0  0  0  0
 30 31  1  0  0  0  0
 30 32  1  0  0  0  0
 30 33  1  0  0  0  0
M  END
$$$$

  -OEChem-03222214083D

 33 33  0     1  0  0  0  0  0999 V2000
   -3.2433   -4.6319    0.9291 H   0  0  0  0  0  0  0  0  0  0  0  0
   -3.2213   -3.7445    0.2902 C   0  0  0  0  0  0  0  0  0  0  0  0
   -4.0521   -3.0912    0.5672 H   0  0  0  0  0  0  0  0  0  0  0  0
   -3.3425   -4.0572   -0.7497 H   0  0  0  0  0  0  0  0  0  0  0  0
   -1.9049   -3.0100    0.4602 C   0  0  0  0  0  0  0  0  0  0  0  0
   -1.0671   -3.4317    1.2373 O   0  0  0  0  0  0  0  0  0  0  0  0
   -1.6708   -1.8558   -0.2585 N   0  0  0  0  0  0  0  0  0  0  0  0
   -2.3993   -1.5508   -0.9013 H   0  0  0  0  0  0  0  0  0  0  0  0
   -0.4290   -1.0574   -0.2040 C   0  0  1  0  0  0  0  0  0  0  0  0
    0.4028   -1.7220   -0.4630 H   0  0  0  0  0  0  0  0  0  0  0  0
   -0.4423    0.1008   -1.2354 C   0  0  0  0  0  0  0  0  0  0  0  0
   -0.0376    1.0133   -0.7832 H   0  0  0  0  0  0  0  0  0  0  0  0
    0.2361   -0.1631   -2.0531 H   0  0  0  0  0  0  0  0  0  0  0  0
   -1.8129    0.3994   -1.8083 C   0  0  0  0  0  0  0  0  0  0  0  0
   -2.1435    0.0029   -3.1130 C   0  0  0  0  0  0  0  0  0  0  0  0
   -1.4133   -0.5180   -3.7261 H   0  0  0  0  0  0  0  0  0  0  0  0
   -3.4166    0.2661   -3.6322 C   0  0  0  0  0  0  0  0  0  0  0  0
   -3.6579   -0.0522   -4.6410 H   0  0  0  0  0  0  0  0  0  0  0  0
   -4.3666    0.9341   -2.8564 C   0  0  0  0  0  0  0  0  0  0  0  0
   -5.6119    1.1942   -3.3500 O   0  0  0  0  0  0  0  0  0  0  0  0
   -5.6630    0.9360   -4.2834 H   0  0  0  0  0  0  0  0  0  0  0  0
   -4.0377    1.3450   -1.5658 C   0  0  0  0  0  0  0  0  0  0  0  0
   -4.7786    1.8750   -0.9756 H   0  0  0  0  0  0  0  0  0  0  0  0
   -2.7659    1.0883   -1.0434 C   0  0  0  0  0  0  0  0  0  0  0  0
   -2.5193    1.4296   -0.0422 H   0  0  0  0  0  0  0  0  0  0  0  0
   -0.1066   -0.5113    1.2033 C   0  0  0  0  0  0  0  0  0  0  0  0
    1.0602   -0.3489    1.5353 O   0  0  0  0  0  0  0  0  0  0  0  0
   -1.1081    0.0619    1.9666 N   0  0  0  0  0  0  0  0  0  0  0  0
   -2.0569   -0.1881    1.7074 H   0  0  0  0  0  0  0  0  0  0  0  0
   -0.8689    0.6099    3.2959 C   0  0  0  0  0  0  0  0  0  0  0  0
   -0.0938    1.3828    3.2609 H   0  0  0  0  0  0  0  0  0  0  0  0
   -1.7846    1.0610    3.6895 H   0  0  0  0  0  0  0  0  0  0  0  0
   -0.5464   -0.1804    3.9819 H   0  0  0  0  0  0  0  0  0  0  0  0
  1  2  1  0  0  0  0
  2  3  1  0  0  0  0
  2  4  1  0  0  0  0
  2  5  1  0  0  0  0
  5  6  2  0  0  0  0
  5  7  1  0  0  0  0
  7  8  1  0  0  0  0
  7  9  1  0  0  0  0
  9 10  1  0  0  0  0
  9 11  1  0  0  0  0
  9 26  1  0  0  0  0
 11 12  1  0  0  0  0
 11 13  1  0  0  0  0
 11 14  1  0  0  0  0
 14 15  2  0  0  0  0
 14 24  1  0  0  0  0
 15 16  1  0  0  0  0
 15 17  1  0  0  0  0
 17 18  1  0  0  0  0
 17 19  2  0  0  0  0
 19 20  1  0  0  0  0
 19 22  1  0  0  0  0
 20 21  1  0  0  0  0
 22 23  1  0  0  0  0
 22 24  2  0  0  0  0
 24 25  1  0  0  0  0
 26 27  2  0  0  0  0
 26 28  1  0  0  0  0
 28 29  1  0  0  0  0
 28 30  1  0  0  0  0
 30 31  1  0  0  0  0
 30 32  1  0  0  0  0
 30 33  1  0  0  0  0
M  END
$$$$

  -OEChem-03222214083D

 33 33  0     1  0  0  0  0  0999 V2000
   -3.2728   -4.5989    0.9446 H   0  0  0  0  0  0  0  0  0  0  0  0
   -3.2398   -3.7174    0.2979 C   0  0  0  0  0  0  0  0  0  0  0  0
   -4.0554   -3.0457    0.5764 H   0  0  0  0  0  0  0  0  0  0  0  0
   -3.3764   -4.0361   -0.7382 H   0  0  0  0  0  0  0  0  0  0  0  0
   -1.9075   -3.0081    0.4498 C   0  0  0  0  0  0  0  0  0  0  0  0
   -1.0667   -3.4458    1.2146 O   0  0  0  0  0  0  0  0  0  0  0  0
   -1.6587   -1.8628   -0.2782 N   0  0  0  0  0  0  0  0  0  0  0  0
   -2.3968   -1.5332   -0.8971 H   0  0  0  0  0  0  0  0  0  0  0  0
   -0.4121   -1.0722   -0.2179 C   0  0  1  0  0  0  0  0  0  0  0  0
    0.4217   -1.7369   -0.4699 H   0  0  0  0  0  0  0  0  0  0  0  0
   -0.4166    0.0954   -1.2379 C   0  0  0  0  0  0  0  0  0  0  0  0
    0.0044    0.9998   -0.7840 H   0  0  0  0  0  0  0  0  0  0  0  0
    0.2510   -0.1704   -2.0639 H   0  0  0  0  0  0  0  0  0  0  0  0
   -1.7851    0.4061   -1.8056 C   0  0  0  0  0  0  0  0  0  0  0  0
   -2.2370   -0.2301   -2.9722 C   0  0  0  0  0  0  0  0  0  0  0  0
   -1.5909   -0.9303   -3.4953 H   0  0  0  0  0  0  0  0  0  0  0  0
   -3.5189    0.0322   -3.4692 C   0  0  0  0  0  0  0  0  0  0  0  0
   -3.8528   -0.4644   -4.3742 H   0  0  0  0  0  0  0  0  0  0  0  0
   -4.3589    0.9287   -2.8047 C   0  0  0  0  0  0  0  0  0  0  0  0
   -5.6103    1.1938   -3.2797 O   0  0  0  0  0  0  0  0  0  0  0  0
   -5.7405    0.7660   -4.1403 H   0  0  0  0  0  0  0  0  0  0  0  0
   -3.9145    1.5611   -1.6446 C   0  0  0  0  0  0  0  0  0  0  0  0
   -4.5733    2.2589   -1.1373 H   0  0  0  0  0  0  0  0  0  0  0  0
   -2.6333    1.3059   -1.1447 C   0  0  0  0  0  0  0  0  0  0  0  0
   -2.2998    1.8087   -0.2407 H   0  0  0  0  0  0  0  0  0  0  0  0
   -0.1105   -0.5185    1.1907 C   0  0  0  0  0  0  0  0  0  0  0  0
    1.0504   -0.3678    1.5474 O   0  0  0  0  0  0  0  0  0  0  0  0
   -1.1232    0.0654    1.9309 N   0  0  0  0  0  0  0  0  0  0  0  0
   -2.0710   -0.1495    1.6382 H   0  0  0  0  0  0  0  0  0  0  0  0
   -0.9078    0.6328    3.2559 C   0  0  0  0  0  0  0  0  0  0  0  0
   -0.1547    1.4268    3.2162 H   0  0  0  0  0  0  0  0  0  0  0  0
   -1.8385    1.0612    3.6398 H   0  0  0  0  0  0  0  0  0  0  0  0
   -0.5671   -0.1415    3.9514 H   0  0  0  0  0  0  0  0  0  0  0  0
  1  2  1  0  0  0  0
  2  3  1  0  0  0  0
  2  4  1  0  0  0  0
  2  5  1  0  0  0  0
  5  6  2  0  0  0  0
  5  7  1  0  0  0  0
  7  8  1  0  0  0  0
  7  9  1  0  0  0  0
  9 10  1  0  0  0  0
  9 11  1  0  0  0  0
  9 26  1  0  0  0  0
 11 12  1  0  0  0  0
 11 13  1  0  0  0  0
 11 14  1  0  0  0  0
 14 15  2  0  0  0  0
 14 24  1  0  0  0  0
 15 16  1  0  0  0  0
 15 17  1  0  0  0  0
 17 18  1  0  0  0  0
 17 19  2  0  0  0  0
 19 20  1  0  0  0  0
 19 22  1  0  0  0  0
 20 21  1  0  0  0  0
 22 23  1  0  0  0  0
 22 24  2  0  0  0  0
 24 25  1  0  0  0  0
 26 27  2  0  0  0  0
 26 28  1  0  0  0  0
 28 29  1  0  0  0  0
 28 30  1  0  0  0  0
 30 31  1  0  0  0  0
 30 32  1  0  0  0  0
 30 33  1  0  0  0  0
M  END
$$$$

  -OEChem-03222214083D

 33 33  0     1  0  0  0  0  0999 V2000
   -3.2377   -4.6123    1.0129 H   0  0  0  0  0  0  0  0  0  0  0  0
   -3.2202   -3.7353    0.3596 C   0  0  0  0  0  0  0  0  0  0  0  0
   -4.0199   -3.0553    0.6626 H   0  0  0  0  0  0  0  0  0  0  0  0
   -3.3959   -4.0594   -0.6688 H   0  0  0  0  0  0  0  0  0  0  0  0
   -1.8777   -3.0360    0.4599 C   0  0  0  0  0  0  0  0  0  0  0  0
   -1.0113   -3.4819    1.1905 O   0  0  0  0  0  0  0  0  0  0  0  0
   -1.6483   -1.8917   -0.2767 N   0  0  0  0  0  0  0  0  0  0  0  0
   -2.4156   -1.5420   -0.8464 H   0  0  0  0  0  0  0  0  0  0  0  0
   -0.4111   -1.0869   -0.2248 C   0  0  1  0  0  0  0  0  0  0  0  0
    0.4302   -1.7427   -0.4755 H   0  0  0  0  0  0  0  0  0  0  0  0
   -0.4208    0.0866   -1.2403 C   0  0  0  0  0  0  0  0  0  0  0  0
    0.0115    0.9847   -0.7844 H   0  0  0  0  0  0  0  0  0  0  0  0
    0.2418   -0.1824   -2.0693 H   0  0  0  0  0  0  0  0  0  0  0  0
   -1.7808    0.4145   -1.8228 C   0  0  0  0  0  0  0  0  0  0  0  0
   -2.3639   -0.4061   -2.8031 C   0  0  0  0  0  0  0  0  0  0  0  0
   -1.8148   -1.2609   -3.1898 H   0  0  0  0  0  0  0  0  0  0  0  0
   -3.6442   -0.1255   -3.2932 C   0  0  0  0  0  0  0  0  0  0  0  0
   -4.0767   -0.7642   -4.0560 H   0  0  0  0  0  0  0  0  0  0  0  0
   -4.3558    0.9726   -2.8056 C   0  0  0  0  0  0  0  0  0  0  0  0
   -5.6033    1.2603   -3.2775 O   0  0  0  0  0  0  0  0  0  0  0  0
   -5.8231    0.6799   -4.0227 H   0  0  0  0  0  0  0  0  0  0  0  0
   -3.7858    1.7849   -1.8271 C   0  0  0  0  0  0  0  0  0  0  0  0
   -4.3465    2.6360   -1.4537 H   0  0  0  0  0  0  0  0  0  0  0  0
   -2.5055    1.5110   -1.3349 C   0  0  0  0  0  0  0  0  0  0  0  0
   -2.0784    2.1526   -0.5687 H   0  0  0  0  0  0  0  0  0  0  0  0
   -0.1185   -0.5262    1.1833 C   0  0  0  0  0  0  0  0  0  0  0  0
    1.0392   -0.3700    1.5477 O   0  0  0  0  0  0  0  0  0  0  0  0
   -1.1396    0.0469    1.9206 N   0  0  0  0  0  0  0  0  0  0  0  0
   -2.0857   -0.1379    1.6034 H   0  0  0  0  0  0  0  0  0  0  0  0
   -0.9374    0.6323    3.2395 C   0  0  0  0  0  0  0  0  0  0  0  0
   -0.1968    1.4379    3.1926 H   0  0  0  0  0  0  0  0  0  0  0  0
   -1.8763    1.0496    3.6160 H   0  0  0  0  0  0  0  0  0  0  0  0
   -0.5863   -0.1284    3.9448 H   0  0  0  0  0  0  0  0  0  0  0  0
  1  2  1  0  0  0  0
  2  3  1  0  0  0  0
  2  4  1  0  0  0  0
  2  5  1  0  0  0  0
  5  6  2  0  0  0  0
  5  7  1  0  0  0  0
  7  8  1  0  0  0  0
  7  9  1  0  0  0  0
  9 10  1  0  0  0  0
  9 11  1  0  0  0  0
  9 26  1  0  0  0  0
 11 12  1  0  0  0  0
 11 13  1  0  0  0  0
 11 14  1  0  0  0  0
 14 15  2  0  0  0  0
 14 24  1  0  0  0  0
 15 16  1  0  0  0  0
 15 17  1  0  0  0  0
 17 18  1  0  0  0  0
 17 19  2  0  0  0  0
 19 20  1  0  0  0  0
 19 22  1  0  0  0  0
 20 21  1  0  0  0  0
 22 23  1  0  0  0  0
 22 24  2  0  0  0  0
 24 25  1  0  0  0  0
 26 27  2  0  0  0  0
 26 28  1  0  0  0  0
 28 29  1  0  0  0  0
 28 30  1  0  0  0  0
 30 31  1  0  0  0  0
 30 32  1  0  0  0  0
 30 33  1  0  0  0  0
M  END
$$$$

  -OEChem-03222214083D

 33 33  0     1  0  0  0  0  0999 V2000
   -3.1206   -4.6856    1.1327 H   0  0  0  0  0  0  0  0  0  0  0  0
   -3.1508   -3.8118    0.4754 C   0  0  0  0  0  0  0  0  0  0  0  0
   -3.9436   -3.1421    0.8169 H   0  0  0  0  0  0  0  0  0  0  0  0
   -3.3748   -4.1438   -0.5411 H   0  0  0  0  0  0  0  0  0  0  0  0
   -1.8151   -3.0928    0.5022 C   0  0  0  0  0  0  0  0  0  0  0  0
   -0.9033   -3.5287    1.1815 O   0  0  0  0  0  0  0  0  0  0  0  0
   -1.6417   -1.9458   -0.2462 N   0  0  0  0  0  0  0  0  0  0  0  0
   -2.4546   -1.5891   -0.7420 H   0  0  0  0  0  0  0  0  0  0  0  0
   -0.4309   -1.1025   -0.2200 C   0  0  1  0  0  0  0  0  0  0  0  0
    0.4237   -1.7406   -0.4721 H   0  0  0  0  0  0  0  0  0  0  0  0
   -0.4588    0.0696   -1.2414 C   0  0  0  0  0  0  0  0  0  0  0  0
   -0.0212    0.9654   -0.7862 H   0  0  0  0  0  0  0  0  0  0  0  0
    0.2084   -0.2038   -2.0652 H   0  0  0  0  0  0  0  0  0  0  0  0
   -1.8026    0.4181   -1.8619 C   0  0  0  0  0  0  0  0  0  0  0  0
   -2.5358   -0.5083   -2.6261 C   0  0  0  0  0  0  0  0  0  0  0  0
   -2.1092   -1.4820   -2.8530 H   0  0  0  0  0  0  0  0  0  0  0  0
   -3.8000   -0.1800   -3.1289 C   0  0  0  0  0  0  0  0  0  0  0  0
   -4.3425   -0.9034   -3.7283 H   0  0  0  0  0  0  0  0  0  0  0  0
   -4.3543    1.0739   -2.8662 C   0  0  0  0  0  0  0  0  0  0  0  0
   -5.5868    1.4070   -3.3489 O   0  0  0  0  0  0  0  0  0  0  0  0
   -5.9207    0.7075   -3.9317 H   0  0  0  0  0  0  0  0  0  0  0  0
   -3.6405    1.9956   -2.1037 C   0  0  0  0  0  0  0  0  0  0  0  0
   -4.0792    2.9683   -1.9040 H   0  0  0  0  0  0  0  0  0  0  0  0
   -2.3743    1.6737   -1.6032 C   0  0  0  0  0  0  0  0  0  0  0  0
   -1.8406    2.4065   -1.0038 H   0  0  0  0  0  0  0  0  0  0  0  0
   -0.1368   -0.5288    1.1833 C   0  0  0  0  0  0  0  0  0  0  0  0
    1.0204   -0.3473    1.5372 O   0  0  0  0  0  0  0  0  0  0  0  0
   -1.1624    0.0138    1.9375 N   0  0  0  0  0  0  0  0  0  0  0  0
   -2.1089   -0.1530    1.6123 H   0  0  0  0  0  0  0  0  0  0  0  0
   -0.9576    0.6183    3.2477 C   0  0  0  0  0  0  0  0  0  0  0  0
   -0.2545    1.4550    3.1787 H   0  0  0  0  0  0  0  0  0  0  0  0
   -1.9052    0.9967    3.6425 H   0  0  0  0  0  0  0  0  0  0  0  0
   -0.5584   -0.1205    3.9507 H   0  0  0  0  0  0  0  0  0  0  0  0
  1  2  1  0  0  0  0
  2  3  1  0  0  0  0
  2  4  1  0  0  0  0
  2  5  1  0  0  0  0
  5  6  2  0  0  0  0
  5  7  1  0  0  0  0
  7  8  1  0  0  0  0
  7  9  1  0  0  0  0
  9 10  1  0  0  0  0
  9 11  1  0  0  0  0
  9 26  1  0  0  0  0
 11 12  1  0  0  0  0
 11 13  1  0  0  0  0
 11 14  1  0  0  0  0
 14 15  2  0  0  0  0
 14 24  1  0  0  0  0
 15 16  1  0  0  0  0
 15 17  1  0  0  0  0
 17 18  1  0  0  0  0
 17 19  2  0  0  0  0
 19 20  1  0  0  0  0
 19 22  1  0  0  0  0
 20 21  1  0  0  0  0
 22 23  1  0  0  0  0
 22 24  2  0  0  0  0
 24 25  1  0  0  0  0
 26 27  2  0  0  0  0
 26 28  1  0  0  0  0
 28 29  1  0  0  0  0
 28 30  1  0  0  0  0
 30 31  1  0  0  0  0
 30 32  1  0  0  0  0
 30 33  1  0  0  0  0
M  END
$$$$

  -OEChem-03222214083D

 33 33  0     1  0  0  0  0  0999 V2000
   -2.9393   -4.7923    1.2805 H   0  0  0  0  0  0  0  0  0  0  0  0
   -3.0395   -3.9249    0.6215 C   0  0  0  0  0  0  0  0  0  0  0  0
   -3.8298   -3.2783    1.0102 H   0  0  0  0  0  0  0  0  0  0  0  0
   -3.3181   -4.2723   -0.3763 H   0  0  0  0  0  0  0  0  0  0  0  0
   -1.7277   -3.1654    0.5578 C   0  0  0  0  0  0  0  0  0  0  0  0
   -0.7588   -3.5759    1.1706 O   0  0  0  0  0  0  0  0  0  0  0  0
   -1.6389   -2.0131   -0.1985 N   0  0  0  0  0  0  0  0  0  0  0  0
   -2.5025   -1.6634   -0.6035 H   0  0  0  0  0  0  0  0  0  0  0  0
   -0.4681   -1.1166   -0.2078 C   0  0  1  0  0  0  0  0  0  0  0  0
    0.4025   -1.7287   -0.4703 H   0  0  0  0  0  0  0  0  0  0  0  0
   -0.5282    0.0499   -1.2391 C   0  0  0  0  0  0  0  0  0  0  0  0
   -0.1009    0.9484   -0.7794 H   0  0  0  0  0  0  0  0  0  0  0  0
    0.1526   -0.2187   -2.0532 H   0  0  0  0  0  0  0  0  0  0  0  0
   -1.8530    0.4132   -1.9039 C   0  0  0  0  0  0  0  0  0  0  0  0
   -2.7478   -0.5326   -2.4427 C   0  0  0  0  0  0  0  0  0  0  0  0
   -2.4680   -1.5791   -2.5148 H   0  0  0  0  0  0  0  0  0  0  0  0
   -3.9837   -0.1388   -2.9695 C   0  0  0  0  0  0  0  0  0  0  0  0
   -4.6457   -0.8839   -3.3978 H   0  0  0  0  0  0  0  0  0  0  0  0
   -4.3543    1.2060   -2.9595 C   0  0  0  0  0  0  0  0  0  0  0  0
   -5.5543    1.6060   -3.4726 O   0  0  0  0  0  0  0  0  0  0  0  0
   -6.0126    0.8563   -3.8826 H   0  0  0  0  0  0  0  0  0  0  0  0
   -3.4834    2.1518   -2.4272 C   0  0  0  0  0  0  0  0  0  0  0  0
   -3.7762    3.1970   -2.4236 H   0  0  0  0  0  0  0  0  0  0  0  0
   -2.2458    1.7624   -1.9045 C   0  0  0  0  0  0  0  0  0  0  0  0
   -1.5926    2.5246   -1.4881 H   0  0  0  0  0  0  0  0  0  0  0  0
   -0.1592   -0.5297    1.1876 C   0  0  0  0  0  0  0  0  0  0  0  0
    0.9989   -0.3018    1.5107 O   0  0  0  0  0  0  0  0  0  0  0  0
   -1.1840   -0.0333    1.9738 N   0  0  0  0  0  0  0  0  0  0  0  0
   -2.1329   -0.2150    1.6651 H   0  0  0  0  0  0  0  0  0  0  0  0
   -0.9663    0.6054    3.2655 C   0  0  0  0  0  0  0  0  0  0  0  0
   -0.3440    1.4991    3.1514 H   0  0  0  0  0  0  0  0  0  0  0  0
   -1.9222    0.9045    3.7060 H   0  0  0  0  0  0  0  0  0  0  0  0
   -0.4681   -0.0854    3.9539 H   0  0  0  0  0  0  0  0  0  0  0  0
  1  2  1  0  0  0  0
  2  3  1  0  0  0  0
  2  4  1  0  0  0  0
  2  5  1  0  0  0  0
  5  6  2  0  0  0  0
  5  7  1  0  0  0  0
  7  8  1  0  0  0  0
  7  9  1  0  0  0  0
  9 10  1  0  0  0  0
  9 11  1  0  0  0  0
  9 26  1  0  0  0  0
 11 12  1  0  0  0  0
 11 13  1  0  0  0  0
 11 14  1  0  0  0  0
 14 15  2  0  0  0  0
 14 24  1  0  0  0  0
 15 16  1  0  0  0  0
 15 17  1  0  0  0  0
 17 18  1  0  0  0  0
 17 19  2  0  0  0  0
 19 20  1  0  0  0  0
 19 22  1  0  0  0  0
 20 21  1  0  0  0  0
 22 23  1  0  0  0  0
 22 24  2  0  0  0  0
 24 25  1  0  0  0  0
 26 27  2  0  0  0  0
 26 28  1  0  0  0  0
 28 29  1  0  0  0  0
 28 30  1  0  0  0  0
 30 31  1  0  0  0  0
 30 32  1  0  0  0  0
 30 33  1  0  0  0  0
M  END
$$$$

  -OEChem-03222214083D

 33 33  0     1  0  0  0  0  0999 V2000
   -2.7516   -4.8678    1.4386 H   0  0  0  0  0  0  0  0  0  0  0  0
   -2.9129   -4.0163    0.7710 C   0  0  0  0  0  0  0  0  0  0  0  0
   -3.6969   -3.3833    1.1934 H   0  0  0  0  0  0  0  0  0  0  0  0
   -3.2387   -4.3903   -0.2025 H   0  0  0  0  0  0  0  0  0  0  0  0
   -1.6284   -3.2232    0.6178 C   0  0  0  0  0  0  0  0  0  0  0  0
   -0.6123   -3.6020    1.1715 O   0  0  0  0  0  0  0  0  0  0  0  0
   -1.6215   -2.0752   -0.1510 N   0  0  0  0  0  0  0  0  0  0  0  0
   -2.5259   -1.7424   -0.4680 H   0  0  0  0  0  0  0  0  0  0  0  0
   -0.4954   -1.1274   -0.2017 C   0  0  1  0  0  0  0  0  0  0  0  0
    0.3923   -1.7102   -0.4743 H   0  0  0  0  0  0  0  0  0  0  0  0
   -0.6035    0.0265   -1.2467 C   0  0  0  0  0  0  0  0  0  0  0  0
   -0.1950    0.9349   -0.7894 H   0  0  0  0  0  0  0  0  0  0  0  0
    0.0876   -0.2343   -2.0547 H   0  0  0  0  0  0  0  0  0  0  0  0
   -1.9185    0.3906   -1.9416 C   0  0  0  0  0  0  0  0  0  0  0  0
   -2.9705   -0.4992   -2.2475 C   0  0  0  0  0  0  0  0  0  0  0  0
   -2.8585   -1.5713   -2.1504 H   0  0  0  0  0  0  0  0  0  0  0  0
   -4.1735   -0.0389   -2.7968 C   0  0  0  0  0  0  0  0  0  0  0  0
   -4.9562   -0.7485   -3.0426 H   0  0  0  0  0  0  0  0  0  0  0  0
   -4.3587    1.3195   -3.0476 C   0  0  0  0  0  0  0  0  0  0  0  0
   -5.5265    1.7799   -3.5832 O   0  0  0  0  0  0  0  0  0  0  0  0
   -6.1174    1.0394   -3.7892 H   0  0  0  0  0  0  0  0  0  0  0  0
   -3.3329    2.2121   -2.7583 C   0  0  0  0  0  0  0  0  0  0  0  0
   -3.4788    3.2688   -2.9593 H   0  0  0  0  0  0  0  0  0  0  0  0
   -2.1290    1.7552   -2.2131 C   0  0  0  0  0  0  0  0  0  0  0  0
   -1.3543    2.4838   -1.9893 H   0  0  0  0  0  0  0  0  0  0  0  0
   -0.1751   -0.5172    1.1818 C   0  0  0  0  0  0  0  0  0  0  0  0
    0.9806   -0.2398    1.4731 O   0  0  0  0  0  0  0  0  0  0  0  0
   -1.1980   -0.0627    1.9955 N   0  0  0  0  0  0  0  0  0  0  0  0
   -2.1483   -0.2624    1.7038 H   0  0  0  0  0  0  0  0  0  0  0  0
   -0.9707    0.6052    3.2705 C   0  0  0  0  0  0  0  0  0  0  0  0
   -0.3815    1.5169    3.1263 H   0  0  0  0  0  0  0  0  0  0  0  0
   -1.9247    0.8802    3.7301 H   0  0  0  0  0  0  0  0  0  0  0  0
   -0.4331   -0.0572    3.9572 H   0  0  0  0  0  0  0  0  0  0  0  0
  1  2  1  0  0  0  0
  2  3  1  0  0  0  0
  2  4  1  0  0  0  0
  2  5  1  0  0  0  0
  5  6  2  0  0  0  0
  5  7  1  0  0  0  0
  7  8  1  0  0  0  0
  7  9  1  0  0  0  0
  9 10  1  0  0  0  0
  9 11  1  0  0  0  0
  9 26  1  0  0  0  0
 11 12  1  0  0  0  0
 11 13  1  0  0  0  0
 11 14  1  0  0  0  0
 14 15  2  0  0  0  0
 14 24  1  0  0  0  0
 15 16  1  0  0  0  0
 15 17  1  0  0  0  0
 17 18  1  0  0  0  0
 17 19  2  0  0  0  0
 19 20  1  0  0  0  0
 19 22  1  0  0  0  0
 20 21  1  0  0  0  0
 22 23  1  0  0  0  0
 22 24  2  0  0  0  0
 24 25  1  0  0  0  0
 26 27  2  0  0  0  0
 26 28  1  0  0  0  0
 28 29  1  0  0  0  0
 28 30  1  0  0  0  0
 30 31  1  0  0  0  0
 30 32  1  0  0  0  0
 30 33  1  0  0  0  0
M  END
$$$$

  -OEChem-03222214083D

 33 33  0     1  0  0  0  0  0999 V2000
   -2.3909   -5.1384    1.0718 H   0  0  0  0  0  0  0  0  0  0  0  0
   -2.6078   -4.2745    0.4367 C   0  0  0  0  0  0  0  0  0  0  0  0
   -3.5860   -3.8727    0.7114 H   0  0  0  0  0  0  0  0  0  0  0  0
   -2.6342   -4.6044   -0.6047 H   0  0  0  0  0  0  0  0  0  0  0  0
   -1.5397   -3.2123    0.6188 C   0  0  0  0  0  0  0  0  0  0  0  0
   -0.6312   -3.4009    1.4068 O   0  0  0  0  0  0  0  0  0  0  0  0
   -1.6094   -2.0455   -0.1192 N   0  0  0  0  0  0  0  0  0  0  0  0
   -2.2747   -2.0589   -0.8859 H   0  0  0  0  0  0  0  0  0  0  0  0
   -0.5130   -1.0683   -0.2246 C   0  0  1  0  0  0  0  0  0  0  0  0
    0.3683   -1.6046   -0.5943 H   0  0  0  0  0  0  0  0  0  0  0  0
   -0.7744    0.1280   -1.1926 C   0  0  0  0  0  0  0  0  0  0  0  0
   -0.3492    1.0322   -0.7414 H   0  0  0  0  0  0  0  0  0  0  0  0
   -0.1589   -0.0823   -2.0736 H   0  0  0  0  0  0  0  0  0  0  0  0
   -2.1500    0.5239   -1.7434 C   0  0  0  0  0  0  0  0  0  0  0  0
   -3.4029   -0.0829   -1.4935 C   0  0  0  0  0  0  0  0  0  0  0  0
   -3.5497   -0.8763   -0.7773 H   0  0  0  0  0  0  0  0  0  0  0  0
   -4.5667    0.3723   -2.1274 C   0  0  0  0  0  0  0  0  0  0  0  0
   -5.5166   -0.1025   -1.9061 H   0  0  0  0  0  0  0  0  0  0  0  0
   -4.5139    1.4351   -3.0268 C   0  0  0  0  0  0  0  0  0  0  0  0
   -5.6432    1.8869   -3.6466 O   0  0  0  0  0  0  0  0  0  0  0  0
   -6.4174    1.3905   -3.3403 H   0  0  0  0  0  0  0  0  0  0  0  0
   -3.2932    2.0450   -3.2870 C   0  0  0  0  0  0  0  0  0  0  0  0
   -3.2539    2.8739   -3.9865 H   0  0  0  0  0  0  0  0  0  0  0  0
   -2.1301    1.5958   -2.6550 C   0  0  0  0  0  0  0  0  0  0  0  0
   -1.1912    2.0915   -2.8869 H   0  0  0  0  0  0  0  0  0  0  0  0
   -0.1028   -0.4779    1.1451 C   0  0  0  0  0  0  0  0  0  0  0  0
    1.0660   -0.1728    1.3453 O   0  0  0  0  0  0  0  0  0  0  0  0
   -1.0707   -0.0657    2.0432 N   0  0  0  0  0  0  0  0  0  0  0  0
   -2.0161   -0.3867    1.8642 H   0  0  0  0  0  0  0  0  0  0  0  0
   -0.7527    0.4991    3.3483 C   0  0  0  0  0  0  0  0  0  0  0  0
   -0.1402    1.4001    3.2379 H   0  0  0  0  0  0  0  0  0  0  0  0
   -1.6712    0.7705    3.8771 H   0  0  0  0  0  0  0  0  0  0  0  0
   -0.2034   -0.2288    3.9547 H   0  0  0  0  0  0  0  0  0  0  0  0
  1  2  1  0  0  0  0
  2  3  1  0  0  0  0
  2  4  1  0  0  0  0
  2  5  1  0  0  0  0
  5  6  2  0  0  0  0
  5  7  1  0  0  0  0
  7  8  1  0  0  0  0
  7  9  1  0  0  0  0
  9 10  1  0  0  0  0
  9 11  1  0  0  0  0
  9 26  1  0  0  0  0
 11 12  1  0  0  0  0
 11 13  1  0  0  0  0
 11 14  1  0  0  0  0
 14 15  2  0  0  0  0
 14 24  1  0  0  0  0
 15 16  1  0  0  0  0
 15 17  1  0  0  0  0
 17 18  1  0  0  0  0
 17 19  2  0  0  0  0
 19 20  1  0  0  0  0
 19 22  1  0  0  0  0
 20 21  1  0  0  0  0
 22 23  1  0  0  0  0
 22 24  2  0  0  0  0
 24 25  1  0  0  0  0
 26 27  2  0  0  0  0
 26 28  1  0  0  0  0
 28 29  1  0  0  0  0
 28 30  1  0  0  0  0
 30 31  1  0  0  0  0
 30 32  1  0  0  0  0
 30 33  1  0  0  0  0
M  END
$$$$

  -OEChem-03222214083D

 33 33  0     1  0  0  0  0  0999 V2000
   -2.8016   -4.9669    1.1488 H   0  0  0  0  0  0  0  0  0  0  0  0
   -2.9223   -4.1001    0.4924 C   0  0  0  0  0  0  0  0  0  0  0  0
   -3.8600   -3.5977    0.7412 H   0  0  0  0  0  0  0  0  0  0  0  0
   -2.9652   -4.4476   -0.5427 H   0  0  0  0  0  0  0  0  0  0  0  0
   -1.7576   -3.1442    0.6702 C   0  0  0  0  0  0  0  0  0  0  0  0
   -0.8833   -3.4002    1.4778 O   0  0  0  0  0  0  0  0  0  0  0  0
   -1.7031   -1.9909   -0.0887 N   0  0  0  0  0  0  0  0  0  0  0  0
   -2.3792   -1.9267   -0.8455 H   0  0  0  0  0  0  0  0  0  0  0  0
   -0.5271   -1.1061   -0.1770 C   0  0  1  0  0  0  0  0  0  0  0  0
    0.3176   -1.7203   -0.5085 H   0  0  0  0  0  0  0  0  0  0  0  0
   -0.6746    0.0692   -1.1908 C   0  0  0  0  0  0  0  0  0  0  0  0
   -0.2137    0.9650   -0.7593 H   0  0  0  0  0  0  0  0  0  0  0  0
   -0.0480   -0.2077   -2.0452 H   0  0  0  0  0  0  0  0  0  0  0  0
   -2.0227    0.5040   -1.7716 C   0  0  0  0  0  0  0  0  0  0  0  0
   -3.3022    0.1559   -1.2859 C   0  0  0  0  0  0  0  0  0  0  0  0
   -3.4413   -0.3745   -0.3531 H   0  0  0  0  0  0  0  0  0  0  0  0
   -4.4643    0.5628   -1.9529 C   0  0  0  0  0  0  0  0  0  0  0  0
   -5.4346    0.2936   -1.5499 H   0  0  0  0  0  0  0  0  0  0  0  0
   -4.3789    1.3239   -3.1176 C   0  0  0  0  0  0  0  0  0  0  0  0
   -5.5048    1.7285   -3.7745 O   0  0  0  0  0  0  0  0  0  0  0  0
   -6.2964    1.4474   -3.2909 H   0  0  0  0  0  0  0  0  0  0  0  0
   -3.1283    1.6827   -3.6073 C   0  0  0  0  0  0  0  0  0  0  0  0
   -3.0654    2.2797   -4.5114 H   0  0  0  0  0  0  0  0  0  0  0  0
   -1.9659    1.2788   -2.9436 C   0  0  0  0  0  0  0  0  0  0  0  0
   -1.0037    1.5701   -3.3560 H   0  0  0  0  0  0  0  0  0  0  0  0
   -0.1051   -0.5163    1.1886 C   0  0  0  0  0  0  0  0  0  0  0  0
    1.0782   -0.2931    1.4091 O   0  0  0  0  0  0  0  0  0  0  0  0
   -1.0589   -0.0045    2.0499 N   0  0  0  0  0  0  0  0  0  0  0  0
   -2.0187   -0.2757    1.8672 H   0  0  0  0  0  0  0  0  0  0  0  0
   -0.7259    0.5728    3.3458 C   0  0  0  0  0  0  0  0  0  0  0  0
   -0.0394    1.4176    3.2255 H   0  0  0  0  0  0  0  0  0  0  0  0
   -1.6310    0.9339    3.8428 H   0  0  0  0  0  0  0  0  0  0  0  0
   -0.2522   -0.1781    3.9869 H   0  0  0  0  0  0  0  0  0  0  0  0
  1  2  1  0  0  0  0
  2  3  1  0  0  0  0
  2  4  1  0  0  0  0
  2  5  1  0  0  0  0
  5  6  2  0  0  0  0
  5  7  1  0  0  0  0
  7  8  1  0  0  0  0
  7  9  1  0  0  0  0
  9 10  1  0  0  0  0
  9 11  1  0  0  0  0
  9 26  1  0  0  0  0
 11 12  1  0  0  0  0
 11 13  1  0  0  0  0
 11 14  1  0  0  0  0
 14 15  2  0  0  0  0
 14 24  1  0  0  0  0
 15 16  1  0  0  0  0
 15 17  1  0  0  0  0
 17 18  1  0  0  0  0
 17 19  2  0  0  0  0
 19 20  1  0  0  0  0
 19 22  1  0  0  0  0
 20 21  1  0  0  0  0
 22 23  1  0  0  0  0
 22 24  2  0  0  0  0
 24 25  1  0  0  0  0
 26 27  2  0  0  0  0
 26 28  1  0  0  0  0
 28 29  1  0  0  0  0
 28 30  1  0  0  0  0
 30 31  1  0  0  0  0
 30 32  1  0  0  0  0
 30 33  1  0  0  0  0
M  END
$$$$

  -OEChem-03222214083D

 33 33  0     1  0  0  0  0  0999 V2000
   -2.9800   -4.8587    1.0332 H   0  0  0  0  0  0  0  0  0  0  0  0
   -3.0510   -3.9749    0.3924 C   0  0  0  0  0  0  0  0  0  0  0  0
   -3.9657   -3.4318    0.6412 H   0  0  0  0  0  0  0  0  0  0  0  0
   -3.0997   -4.3004   -0.6497 H   0  0  0  0  0  0  0  0  0  0  0  0
   -1.8427   -3.0812    0.6009 C   0  0  0  0  0  0  0  0  0  0  0  0
   -0.9979   -3.3859    1.4231 O   0  0  0  0  0  0  0  0  0  0  0  0
   -1.7177   -1.9213   -0.1381 N   0  0  0  0  0  0  0  0  0  0  0  0
   -2.3945   -1.7885   -0.8863 H   0  0  0  0  0  0  0  0  0  0  0  0
   -0.5070   -1.0778   -0.1762 C   0  0  1  0  0  0  0  0  0  0  0  0
    0.3240   -1.7211   -0.4872 H   0  0  0  0  0  0  0  0  0  0  0  0
   -0.5921    0.0936   -1.1989 C   0  0  0  0  0  0  0  0  0  0  0  0
   -0.1449    0.9898   -0.7542 H   0  0  0  0  0  0  0  0  0  0  0  0
    0.0596   -0.1874   -2.0326 H   0  0  0  0  0  0  0  0  0  0  0  0
   -1.9378    0.5085   -1.7905 C   0  0  0  0  0  0  0  0  0  0  0  0
   -3.1726    0.3901   -1.1210 C   0  0  0  0  0  0  0  0  0  0  0  0
   -3.2152    0.0706   -0.0856 H   0  0  0  0  0  0  0  0  0  0  0  0
   -4.3723    0.7418   -1.7511 C   0  0  0  0  0  0  0  0  0  0  0  0
   -5.3078    0.6555   -1.2087 H   0  0  0  0  0  0  0  0  0  0  0  0
   -4.3635    1.2145   -3.0632 C   0  0  0  0  0  0  0  0  0  0  0  0
   -5.5258    1.5623   -3.6888 O   0  0  0  0  0  0  0  0  0  0  0  0
   -6.2743    1.4812   -3.0779 H   0  0  0  0  0  0  0  0  0  0  0  0
   -3.1526    1.3399   -3.7373 C   0  0  0  0  0  0  0  0  0  0  0  0
   -3.1519    1.7120   -4.7569 H   0  0  0  0  0  0  0  0  0  0  0  0
   -1.9518    0.9934   -3.1093 C   0  0  0  0  0  0  0  0  0  0  0  0
   -1.0227    1.1006   -3.6624 H   0  0  0  0  0  0  0  0  0  0  0  0
   -0.0997   -0.5154    1.2047 C   0  0  0  0  0  0  0  0  0  0  0  0
    1.0844   -0.3242    1.4499 O   0  0  0  0  0  0  0  0  0  0  0  0
   -1.0560    0.0244    2.0464 N   0  0  0  0  0  0  0  0  0  0  0  0
   -2.0141   -0.2503    1.8605 H   0  0  0  0  0  0  0  0  0  0  0  0
   -0.7303    0.5710    3.3578 C   0  0  0  0  0  0  0  0  0  0  0  0
    0.0054    1.3773    3.2675 H   0  0  0  0  0  0  0  0  0  0  0  0
   -1.6286    0.9783    3.8311 H   0  0  0  0  0  0  0  0  0  0  0  0
   -0.3187   -0.2102    4.0055 H   0  0  0  0  0  0  0  0  0  0  0  0
  1  2  1  0  0  0  0
  2  3  1  0  0  0  0
  2  4  1  0  0  0  0
  2  5  1  0  0  0  0
  5  6  2  0  0  0  0
  5  7  1  0  0  0  0
  7  8  1  0  0  0  0
  7  9  1  0  0  0  0
  9 10  1  0  0  0  0
  9 11  1  0  0  0  0
  9 26  1  0  0  0  0
 11 12  1  0  0  0  0
 11 13  1  0  0  0  0
 11 14  1  0  0  0  0
 14 15  2  0  0  0  0
 14 24  1  0  0  0  0
 15 16  1  0  0  0  0
 15 17  1  0  0  0  0
 17 18  1  0  0  0  0
 17 19  2  0  0  0  0
 19 20  1  0  0  0  0
 19 22  1  0  0  0  0
 20 21  1  0  0  0  0
 22 23  1  0  0  0  0
 22 24  2  0  0  0  0
 24 25  1  0  0  0  0
 26 27  2  0  0  0  0
 26 28  1  0  0  0  0
 28 29  1  0  0  0  0
 28 30  1  0  0  0  0
 30 31  1  0  0  0  0
 30 32  1  0  0  0  0
 30 33  1  0  0  0  0
M  END
$$$$

  -OEChem-03222214083D

 33 33  0     1  0  0  0  0  0999 V2000
   -3.1376   -4.7491    0.9171 H   0  0  0  0  0  0  0  0  0  0  0  0
   -3.1593   -3.8528    0.2904 C   0  0  0  0  0  0  0  0  0  0  0  0
   -4.0502   -3.2714    0.5386 H   0  0  0  0  0  0  0  0  0  0  0  0
   -3.2117   -4.1587   -0.7573 H   0  0  0  0  0  0  0  0  0  0  0  0
   -1.9126   -3.0205    0.5252 C   0  0  0  0  0  0  0  0  0  0  0  0
   -1.0918   -3.3762    1.3514 O   0  0  0  0  0  0  0  0  0  0  0  0
   -1.7248   -1.8542   -0.1887 N   0  0  0  0  0  0  0  0  0  0  0  0
   -2.4019   -1.6522   -0.9215 H   0  0  0  0  0  0  0  0  0  0  0  0
   -0.4891   -1.0463   -0.1733 C   0  0  1  0  0  0  0  0  0  0  0  0
    0.3308   -1.7126   -0.4637 H   0  0  0  0  0  0  0  0  0  0  0  0
   -0.5183    0.1163   -1.2047 C   0  0  0  0  0  0  0  0  0  0  0  0
   -0.0926    1.0174   -0.7491 H   0  0  0  0  0  0  0  0  0  0  0  0
    0.1589   -0.1626   -2.0185 H   0  0  0  0  0  0  0  0  0  0  0  0
   -1.8646    0.4950   -1.8072 C   0  0  0  0  0  0  0  0  0  0  0  0
   -3.0274    0.6386   -1.0276 C   0  0  0  0  0  0  0  0  0  0  0  0
   -2.9763    0.5371    0.0515 H   0  0  0  0  0  0  0  0  0  0  0  0
   -4.2572    0.9428   -1.6226 C   0  0  0  0  0  0  0  0  0  0  0  0
   -5.1391    1.0586   -1.0015 H   0  0  0  0  0  0  0  0  0  0  0  0
   -4.3453    1.1053   -3.0058 C   0  0  0  0  0  0  0  0  0  0  0  0
   -5.5379    1.4022   -3.5992 O   0  0  0  0  0  0  0  0  0  0  0  0
   -6.2232    1.5387   -2.9269 H   0  0  0  0  0  0  0  0  0  0  0  0
   -3.2018    0.9652   -3.7882 C   0  0  0  0  0  0  0  0  0  0  0  0
   -3.2776    1.0946   -4.8632 H   0  0  0  0  0  0  0  0  0  0  0  0
   -1.9702    0.6635   -3.1973 C   0  0  0  0  0  0  0  0  0  0  0  0
   -1.0949    0.5570   -3.8321 H   0  0  0  0  0  0  0  0  0  0  0  0
   -0.1000   -0.5099    1.2221 C   0  0  0  0  0  0  0  0  0  0  0  0
    1.0826   -0.3451    1.4914 O   0  0  0  0  0  0  0  0  0  0  0  0
   -1.0592    0.0512    2.0461 N   0  0  0  0  0  0  0  0  0  0  0  0
   -2.0153   -0.2272    1.8561 H   0  0  0  0  0  0  0  0  0  0  0  0
   -0.7421    0.5822    3.3663 C   0  0  0  0  0  0  0  0  0  0  0  0
    0.0150    1.3702    3.2931 H   0  0  0  0  0  0  0  0  0  0  0  0
   -1.6377    1.0095    3.8271 H   0  0  0  0  0  0  0  0  0  0  0  0
   -0.3609   -0.2130    4.0157 H   0  0  0  0  0  0  0  0  0  0  0  0
  1  2  1  0  0  0  0
  2  3  1  0  0  0  0
  2  4  1  0  0  0  0
  2  5  1  0  0  0  0
  5  6  2  0  0  0  0
  5  7  1  0  0  0  0
  7  8  1  0  0  0  0
  7  9  1  0  0  0  0
  9 10  1  0  0  0  0
  9 11  1  0  0  0  0
  9 26  1  0  0  0  0
 11 12  1  0  0  0  0
 11 13  1  0  0  0  0
 11 14  1  0  0  0  0
 14 15  2  0  0  0  0
 14 24  1  0  0  0  0
 15 16  1  0  0  0  0
 15 17  1  0  0  0  0
 17 18  1  0  0  0  0
 17 19  2  0  0  0  0
 19 20  1  0  0  0  0
 19 22  1  0  0  0  0
 20 21  1  0  0  0  0
 22 23  1  0  0  0  0
 22 24  2  0  0  0  0
 24 25  1  0  0  0  0
 26 27  2  0  0  0  0
 26 28  1  0  0  0  0
 28 29  1  0  0  0  0
 28 30  1  0  0  0  0
 30 31  1  0  0  0  0
 30 32  1  0  0  0  0
 30 33  1  0  0  0  0
M  END
$$$$

  -OEChem-03222214083D

 33 33  0     1  0  0  0  0  0999 V2000
   -3.2490   -4.6521    0.8387 H   0  0  0  0  0  0  0  0  0  0  0  0
   -3.2284   -3.7533    0.2158 C   0  0  0  0  0  0  0  0  0  0  0  0
   -4.0958   -3.1355    0.4599 H   0  0  0  0  0  0  0  0  0  0  0  0
   -3.2859   -4.0520   -0.8337 H   0  0  0  0  0  0  0  0  0  0  0  0
   -1.9495   -2.9759    0.4634 C   0  0  0  0  0  0  0  0  0  0  0  0
   -1.1475   -3.3706    1.2907 O   0  0  0  0  0  0  0  0  0  0  0  0
   -1.7106   -1.8132   -0.2404 N   0  0  0  0  0  0  0  0  0  0  0  0
   -2.3899   -1.5574   -0.9548 H   0  0  0  0  0  0  0  0  0  0  0  0
   -0.4581   -1.0323   -0.1864 C   0  0  1  0  0  0  0  0  0  0  0  0
    0.3577   -1.7123   -0.4557 H   0  0  0  0  0  0  0  0  0  0  0  0
   -0.4465    0.1273   -1.2180 C   0  0  0  0  0  0  0  0  0  0  0  0
   -0.0268    1.0288   -0.7574 H   0  0  0  0  0  0  0  0  0  0  0  0
    0.2388   -0.1517   -2.0247 H   0  0  0  0  0  0  0  0  0  0  0  0
   -1.7957    0.4800   -1.8183 C   0  0  0  0  0  0  0  0  0  0  0  0
   -2.8599    0.9064   -1.0062 C   0  0  0  0  0  0  0  0  0  0  0  0
   -2.7063    1.0458    0.0592 H   0  0  0  0  0  0  0  0  0  0  0  0
   -4.1165    1.1758   -1.5602 C   0  0  0  0  0  0  0  0  0  0  0  0
   -4.9229    1.5140   -0.9182 H   0  0  0  0  0  0  0  0  0  0  0  0
   -4.3263    1.0160   -2.9309 C   0  0  0  0  0  0  0  0  0  0  0  0
   -5.5467    1.2739   -3.4842 O   0  0  0  0  0  0  0  0  0  0  0  0
   -6.1474    1.6414   -2.8174 H   0  0  0  0  0  0  0  0  0  0  0  0
   -3.2779    0.5891   -3.7430 C   0  0  0  0  0  0  0  0  0  0  0  0
   -3.4498    0.4686   -4.8080 H   0  0  0  0  0  0  0  0  0  0  0  0
   -2.0187    0.3220   -3.1948 C   0  0  0  0  0  0  0  0  0  0  0  0
   -1.2177   -0.0145   -3.8473 H   0  0  0  0  0  0  0  0  0  0  0  0
   -0.1048   -0.5091    1.2229 C   0  0  0  0  0  0  0  0  0  0  0  0
    1.0702   -0.3561    1.5293 O   0  0  0  0  0  0  0  0  0  0  0  0
   -1.0833    0.0683    2.0125 N   0  0  0  0  0  0  0  0  0  0  0  0
   -2.0351   -0.2038    1.7918 H   0  0  0  0  0  0  0  0  0  0  0  0
   -0.8052    0.5970    3.3420 C   0  0  0  0  0  0  0  0  0  0  0  0
   -0.0541    1.3923    3.2898 H   0  0  0  0  0  0  0  0  0  0  0  0
   -1.7163    1.0139    3.7816 H   0  0  0  0  0  0  0  0  0  0  0  0
   -0.4329   -0.1966    3.9985 H   0  0  0  0  0  0  0  0  0  0  0  0
  1  2  1  0  0  0  0
  2  3  1  0  0  0  0
  2  4  1  0  0  0  0
  2  5  1  0  0  0  0
  5  6  2  0  0  0  0
  5  7  1  0  0  0  0
  7  8  1  0  0  0  0
  7  9  1  0  0  0  0
  9 10  1  0  0  0  0
  9 11  1  0  0  0  0
  9 26  1  0  0  0  0
 11 12  1  0  0  0  0
 11 13  1  0  0  0  0
 11 14  1  0  0  0  0
 14 15  2  0  0  0  0
 14 24  1  0  0  0  0
 15 16  1  0  0  0  0
 15 17  1  0  0  0  0
 17 18  1  0  0  0  0
 17 19  2  0  0  0  0
 19 20  1  0  0  0  0
 19 22  1  0  0  0  0
 20 21  1  0  0  0  0
 22 23  1  0  0  0  0
 22 24  2  0  0  0  0
 24 25  1  0  0  0  0
 26 27  2  0  0  0  0
 26 28  1  0  0  0  0
 28 29  1  0  0  0  0
 28 30  1  0  0  0  0
 30 31  1  0  0  0  0
 30 32  1  0  0  0  0
 30 33  1  0  0  0  0
M  END
$$$$

  -OEChem-03222214083D

 33 33  0     1  0  0  0  0  0999 V2000
   -3.2989   -4.5955    0.8080 H   0  0  0  0  0  0  0  0  0  0  0  0
   -3.2583   -3.6943    0.1898 C   0  0  0  0  0  0  0  0  0  0  0  0
   -4.1022   -3.0505    0.4492 H   0  0  0  0  0  0  0  0  0  0  0  0
   -3.3398   -3.9855   -0.8603 H   0  0  0  0  0  0  0  0  0  0  0  0
   -1.9527   -2.9585    0.4250 C   0  0  0  0  0  0  0  0  0  0  0  0
   -1.1566   -3.3772    1.2461 O   0  0  0  0  0  0  0  0  0  0  0  0
   -1.6823   -1.8064   -0.2841 N   0  0  0  0  0  0  0  0  0  0  0  0
   -2.3673   -1.5177   -0.9802 H   0  0  0  0  0  0  0  0  0  0  0  0
   -0.4240   -1.0357   -0.2064 C   0  0  1  0  0  0  0  0  0  0  0  0
    0.3972   -1.7167   -0.4561 H   0  0  0  0  0  0  0  0  0  0  0  0
   -0.3968    0.1274   -1.2323 C   0  0  0  0  0  0  0  0  0  0  0  0
    0.0227    1.0287   -0.7710 H   0  0  0  0  0  0  0  0  0  0  0  0
    0.2861   -0.1485   -2.0423 H   0  0  0  0  0  0  0  0  0  0  0  0
   -1.7513    0.4590   -1.8239 C   0  0  0  0  0  0  0  0  0  0  0  0
   -2.7042    1.1555   -1.0652 C   0  0  0  0  0  0  0  0  0  0  0  0
   -2.4512    1.5088   -0.0696 H   0  0  0  0  0  0  0  0  0  0  0  0
   -3.9782    1.4081   -1.5864 C   0  0  0  0  0  0  0  0  0  0  0  0
   -4.7009    1.9528   -0.9882 H   0  0  0  0  0  0  0  0  0  0  0  0
   -4.3128    0.9629   -2.8672 C   0  0  0  0  0  0  0  0  0  0  0  0
   -5.5522    1.2004   -3.3861 O   0  0  0  0  0  0  0  0  0  0  0  0
   -6.0621    1.7720   -2.7912 H   0  0  0  0  0  0  0  0  0  0  0  0
   -3.3709    0.2683   -3.6239 C   0  0  0  0  0  0  0  0  0  0  0  0
   -3.6392   -0.0719   -4.6192 H   0  0  0  0  0  0  0  0  0  0  0  0
   -2.0949    0.0159   -3.1097 C   0  0  0  0  0  0  0  0  0  0  0  0
   -1.3755   -0.5312   -3.7130 H   0  0  0  0  0  0  0  0  0  0  0  0
   -0.1114   -0.5033    1.2084 C   0  0  0  0  0  0  0  0  0  0  0  0
    1.0531   -0.3695    1.5599 O   0  0  0  0  0  0  0  0  0  0  0  0
   -1.1115    0.0885    1.9593 N   0  0  0  0  0  0  0  0  0  0  0  0
   -2.0601   -0.1485    1.6880 H   0  0  0  0  0  0  0  0  0  0  0  0
   -0.8798    0.6132    3.2994 C   0  0  0  0  0  0  0  0  0  0  0  0
   -0.0940    1.3758    3.2835 H   0  0  0  0  0  0  0  0  0  0  0  0
   -1.7935    1.0707    3.6904 H   0  0  0  0  0  0  0  0  0  0  0  0
   -0.5748   -0.1916    3.9765 H   0  0  0  0  0  0  0  0  0  0  0  0
  1  2  1  0  0  0  0
  2  3  1  0  0  0  0
  2  4  1  0  0  0  0
  2  5  1  0  0  0  0
  5  6  2  0  0  0  0
  5  7  1  0  0  0  0
  7  8  1  0  0  0  0
  7  9  1  0  0  0  0
  9 10  1  0  0  0  0
  9 11  1  0  0  0  0
  9 26  1  0  0  0  0
 11 12  1  0  0  0  0
 11 13  1  0  0  0  0
 11 14  1  0  0  0  0
 14 15  2  0  0  0  0
 14 24  1  0  0  0  0
 15 16  1  0  0  0  0
 15 17  1  0  0  0  0
 17 18  1  0  0  0  0
 17 19  2  0  0  0  0
 19 20  1  0  0  0  0
 19 22  1  0  0  0  0
 20 21  1  0  0  0  0
 22 23  1  0  0  0  0
 22 24  2  0  0  0  0
 24 25  1  0  0  0  0
 26 27  2  0  0  0  0
 26 28  1  0  0  0  0
 28 29  1  0  0  0  0
 28 30  1  0  0  0  0
 30 31  1  0  0  0  0
 30 32  1  0  0  0  0
 30 33  1  0  0  0  0
M  END
$$$$

  -OEChem-03222214083D

 33 33  0     1  0  0  0  0  0999 V2000
   -3.2777   -4.6071    0.8646 H   0  0  0  0  0  0  0  0  0  0  0  0
   -3.2412   -3.7144    0.2336 C   0  0  0  0  0  0  0  0  0  0  0  0
   -4.0771   -3.0620    0.4969 H   0  0  0  0  0  0  0  0  0  0  0  0
   -3.3402   -4.0184   -0.8112 H   0  0  0  0  0  0  0  0  0  0  0  0
   -1.9275   -2.9843    0.4381 C   0  0  0  0  0  0  0  0  0  0  0  0
   -1.1179   -3.4025    1.2463 O   0  0  0  0  0  0  0  0  0  0  0  0
   -1.6603   -1.8434   -0.2907 N   0  0  0  0  0  0  0  0  0  0  0  0
   -2.3656   -1.5424   -0.9606 H   0  0  0  0  0  0  0  0  0  0  0  0
   -0.4072   -1.0634   -0.2186 C   0  0  1  0  0  0  0  0  0  0  0  0
    0.4240   -1.7356   -0.4592 H   0  0  0  0  0  0  0  0  0  0  0  0
   -0.3902    0.1030   -1.2406 C   0  0  0  0  0  0  0  0  0  0  0  0
    0.0364    1.0035   -0.7843 H   0  0  0  0  0  0  0  0  0  0  0  0
    0.2817   -0.1720   -2.0601 H   0  0  0  0  0  0  0  0  0  0  0  0
   -1.7500    0.4251   -1.8227 C   0  0  0  0  0  0  0  0  0  0  0  0
   -2.5799    1.3649   -1.1944 C   0  0  0  0  0  0  0  0  0  0  0  0
   -2.2373    1.8806   -0.3010 H   0  0  0  0  0  0  0  0  0  0  0  0
   -3.8511    1.6425   -1.7104 C   0  0  0  0  0  0  0  0  0  0  0  0
   -4.4818    2.3714   -1.2124 H   0  0  0  0  0  0  0  0  0  0  0  0
   -4.3009    0.9864   -2.8586 C   0  0  0  0  0  0  0  0  0  0  0  0
   -5.5388    1.2463   -3.3704 O   0  0  0  0  0  0  0  0  0  0  0  0
   -5.9582    1.9722   -2.8827 H   0  0  0  0  0  0  0  0  0  0  0  0
   -3.4759    0.0583   -3.4914 C   0  0  0  0  0  0  0  0  0  0  0  0
   -3.8315   -0.4395   -4.3882 H   0  0  0  0  0  0  0  0  0  0  0  0
   -2.2036   -0.2215   -2.9826 C   0  0  0  0  0  0  0  0  0  0  0  0
   -1.5708   -0.9448   -3.4899 H   0  0  0  0  0  0  0  0  0  0  0  0
   -0.1188   -0.5089    1.1926 C   0  0  0  0  0  0  0  0  0  0  0  0
    1.0384   -0.3680    1.5656 O   0  0  0  0  0  0  0  0  0  0  0  0
   -1.1368    0.0852    1.9175 N   0  0  0  0  0  0  0  0  0  0  0  0
   -2.0809   -0.1300    1.6138 H   0  0  0  0  0  0  0  0  0  0  0  0
   -0.9373    0.6395    3.2506 C   0  0  0  0  0  0  0  0  0  0  0  0
   -0.1668    1.4176    3.2321 H   0  0  0  0  0  0  0  0  0  0  0  0
   -1.8664    1.0855    3.6178 H   0  0  0  0  0  0  0  0  0  0  0  0
   -0.6278   -0.1459    3.9483 H   0  0  0  0  0  0  0  0  0  0  0  0
  1  2  1  0  0  0  0
  2  3  1  0  0  0  0
  2  4  1  0  0  0  0
  2  5  1  0  0  0  0
  5  6  2  0  0  0  0
  5  7  1  0  0  0  0
  7  8  1  0  0  0  0
  7  9  1  0  0  0  0
  9 10  1  0  0  0  0
  9 11  1  0  0  0  0
  9 26  1  0  0  0  0
 11 12  1  0  0  0  0
 11 13  1  0  0  0  0
 11 14  1  0  0  0  0
 14 15  2  0  0  0  0
 14 24  1  0  0  0  0
 15 16  1  0  0  0  0
 15 17  1  0  0  0  0
 17 18  1  0  0  0  0
 17 19  2  0  0  0  0
 19 20  1  0  0  0  0
 19 22  1  0  0  0  0
 20 21  1  0  0  0  0
 22 23  1  0  0  0  0
 22 24  2  0  0  0  0
 24 25  1  0  0  0  0
 26 27  2  0  0  0  0
 26 28  1  0  0  0  0
 28 29  1  0  0  0  0
 28 30  1  0  0  0  0
 30 31  1  0  0  0  0
 30 32  1  0  0  0  0
 30 33  1  0  0  0  0
M  END
$$$$

  -OEChem-03222214083D

 33 33  0     1  0  0  0  0  0999 V2000
   -3.2240   -4.6346    0.9822 H   0  0  0  0  0  0  0  0  0  0  0  0
   -3.2075   -3.7538    0.3340 C   0  0  0  0  0  0  0  0  0  0  0  0
   -4.0268   -3.0904    0.6213 H   0  0  0  0  0  0  0  0  0  0  0  0
   -3.3531   -4.0758   -0.6998 H   0  0  0  0  0  0  0  0  0  0  0  0
   -1.8814   -3.0293    0.4689 C   0  0  0  0  0  0  0  0  0  0  0  0
   -1.0317   -3.4502    1.2331 O   0  0  0  0  0  0  0  0  0  0  0  0
   -1.6485   -1.8885   -0.2719 N   0  0  0  0  0  0  0  0  0  0  0  0
   -2.3951   -1.5711   -0.8867 H   0  0  0  0  0  0  0  0  0  0  0  0
   -0.4111   -1.0831   -0.2208 C   0  0  1  0  0  0  0  0  0  0  0  0
    0.4311   -1.7390   -0.4681 H   0  0  0  0  0  0  0  0  0  0  0  0
   -0.4229    0.0861   -1.2405 C   0  0  0  0  0  0  0  0  0  0  0  0
    0.0066    0.9873   -0.7883 H   0  0  0  0  0  0  0  0  0  0  0  0
    0.2397   -0.1835   -2.0693 H   0  0  0  0  0  0  0  0  0  0  0  0
   -1.7866    0.4038   -1.8189 C   0  0  0  0  0  0  0  0  0  0  0  0
   -2.4890    1.5381   -1.3865 C   0  0  0  0  0  0  0  0  0  0  0  0
   -2.0654    2.1810   -0.6192 H   0  0  0  0  0  0  0  0  0  0  0  0
   -3.7411    1.8462   -1.9314 C   0  0  0  0  0  0  0  0  0  0  0  0
   -4.2739    2.7234   -1.5798 H   0  0  0  0  0  0  0  0  0  0  0  0
   -4.2951    1.0328   -2.9224 C   0  0  0  0  0  0  0  0  0  0  0  0
   -5.5148    1.3227   -3.4613 O   0  0  0  0  0  0  0  0  0  0  0  0
   -5.8448    2.1644   -3.1098 H   0  0  0  0  0  0  0  0  0  0  0  0
   -3.5912   -0.0825   -3.3726 C   0  0  0  0  0  0  0  0  0  0  0  0
   -4.0234   -0.6992   -4.1543 H   0  0  0  0  0  0  0  0  0  0  0  0
   -2.3380   -0.3929   -2.8353 C   0  0  0  0  0  0  0  0  0  0  0  0
   -1.7925   -1.2553   -3.2097 H   0  0  0  0  0  0  0  0  0  0  0  0
   -0.1212   -0.5153    1.1849 C   0  0  0  0  0  0  0  0  0  0  0  0
    1.0355   -0.3523    1.5497 O   0  0  0  0  0  0  0  0  0  0  0  0
   -1.1451    0.0612    1.9155 N   0  0  0  0  0  0  0  0  0  0  0  0
   -2.0885   -0.1510    1.6075 H   0  0  0  0  0  0  0  0  0  0  0  0
   -0.9485    0.6338    3.2408 C   0  0  0  0  0  0  0  0  0  0  0  0
   -0.1876    1.4208    3.2110 H   0  0  0  0  0  0  0  0  0  0  0  0
   -1.8821    1.0726    3.6047 H   0  0  0  0  0  0  0  0  0  0  0  0
   -0.6285   -0.1399    3.9466 H   0  0  0  0  0  0  0  0  0  0  0  0
  1  2  1  0  0  0  0
  2  3  1  0  0  0  0
  2  4  1  0  0  0  0
  2  5  1  0  0  0  0
  5  6  2  0  0  0  0
  5  7  1  0  0  0  0
  7  8  1  0  0  0  0
  7  9  1  0  0  0  0
  9 10  1  0  0  0  0
  9 11  1  0  0  0  0
  9 26  1  0  0  0  0
 11 12  1  0  0  0  0
 11 13  1  0  0  0  0
 11 14  1  0  0  0  0
 14 15  2  0  0  0  0
 14 24  1  0  0  0  0
 15 16  1  0  0  0  0
 15 17  1  0  0  0  0
 17 18  1  0  0  0  0
 17 19  2  0  0  0  0
 19 20  1  0  0  0  0
 19 22  1  0  0  0  0
 20 21  1  0  0  0  0
 22 23  1  0  0  0  0
 22 24  2  0  0  0  0
 24 25  1  0  0  0  0
 26 27  2  0  0  0  0
 26 28  1  0  0  0  0
 28 29  1  0  0  0  0
 28 30  1  0  0  0  0
 30 31  1  0  0  0  0
 30 32  1  0  0  0  0
 30 33  1  0  0  0  0
M  END
$$$$

  -OEChem-03222214083D

 33 33  0     1  0  0  0  0  0999 V2000
   -3.1297   -4.6936    1.1139 H   0  0  0  0  0  0  0  0  0  0  0  0
   -3.1569   -3.8194    0.4573 C   0  0  0  0  0  0  0  0  0  0  0  0
   -3.9700   -3.1639    0.7778 H   0  0  0  0  0  0  0  0  0  0  0  0
   -3.3482   -4.1539   -0.5651 H   0  0  0  0  0  0  0  0  0  0  0  0
   -1.8351   -3.0779    0.5212 C   0  0  0  0  0  0  0  0  0  0  0  0
   -0.9372   -3.4952    1.2303 O   0  0  0  0  0  0  0  0  0  0  0  0
   -1.6577   -1.9309   -0.2258 N   0  0  0  0  0  0  0  0  0  0  0  0
   -2.4515   -1.6029   -0.7708 H   0  0  0  0  0  0  0  0  0  0  0  0
   -0.4414   -1.0945   -0.2089 C   0  0  1  0  0  0  0  0  0  0  0  0
    0.4078   -1.7353   -0.4717 H   0  0  0  0  0  0  0  0  0  0  0  0
   -0.4853    0.0726   -1.2328 C   0  0  0  0  0  0  0  0  0  0  0  0
   -0.0524    0.9739   -0.7849 H   0  0  0  0  0  0  0  0  0  0  0  0
    0.1709   -0.1951   -2.0670 H   0  0  0  0  0  0  0  0  0  0  0  0
   -1.8485    0.3956   -1.8178 C   0  0  0  0  0  0  0  0  0  0  0  0
   -2.4055    1.6700   -1.6296 C   0  0  0  0  0  0  0  0  0  0  0  0
   -1.8930    2.4023   -1.0115 H   0  0  0  0  0  0  0  0  0  0  0  0
   -3.6294    2.0084   -2.2194 C   0  0  0  0  0  0  0  0  0  0  0  0
   -4.0512    2.9922   -2.0438 H   0  0  0  0  0  0  0  0  0  0  0  0
   -4.2946    1.0897   -3.0330 C   0  0  0  0  0  0  0  0  0  0  0  0
   -5.4875    1.4085   -3.6140 O   0  0  0  0  0  0  0  0  0  0  0  0
   -5.7208    2.3289   -3.4153 H   0  0  0  0  0  0  0  0  0  0  0  0
   -3.7242   -0.1590   -3.2695 C   0  0  0  0  0  0  0  0  0  0  0  0
   -4.2334   -0.8546   -3.9289 H   0  0  0  0  0  0  0  0  0  0  0  0
   -2.5010   -0.5005   -2.6836 C   0  0  0  0  0  0  0  0  0  0  0  0
   -2.0525   -1.4636   -2.9134 H   0  0  0  0  0  0  0  0  0  0  0  0
   -0.1271   -0.5212    1.1900 C   0  0  0  0  0  0  0  0  0  0  0  0
    1.0352   -0.3348    1.5249 O   0  0  0  0  0  0  0  0  0  0  0  0
   -1.1421    0.0282    1.9532 N   0  0  0  0  0  0  0  0  0  0  0  0
   -2.0911   -0.1789    1.6599 H   0  0  0  0  0  0  0  0  0  0  0  0
   -0.9206    0.6178    3.2672 C   0  0  0  0  0  0  0  0  0  0  0  0
   -0.2033    1.4427    3.2021 H   0  0  0  0  0  0  0  0  0  0  0  0
   -1.8598    1.0100    3.6688 H   0  0  0  0  0  0  0  0  0  0  0  0
   -0.5314   -0.1343    3.9615 H   0  0  0  0  0  0  0  0  0  0  0  0
  1  2  1  0  0  0  0
  2  3  1  0  0  0  0
  2  4  1  0  0  0  0
  2  5  1  0  0  0  0
  5  6  2  0  0  0  0
  5  7  1  0  0  0  0
  7  8  1  0  0  0  0
  7  9  1  0  0  0  0
  9 10  1  0  0  0  0
  9 11  1  0  0  0  0
  9 26  1  0  0  0  0
 11 12  1  0  0  0  0
 11 13  1  0  0  0  0
 11 14  1  0  0  0  0
 14 15  2  0  0  0  0
 14 24  1  0  0  0  0
 15 16  1  0  0  0  0
 15 17  1  0  0  0  0
 17 18  1  0  0  0  0
 17 19  2  0  0  0  0
 19 20  1  0  0  0  0
 19 22  1  0  0  0  0
 20 21  1  0  0  0  0
 22 23  1  0  0  0  0
 22 24  2  0  0  0  0
 24 25  1  0  0  0  0
 26 27  2  0  0  0  0
 26 28  1  0  0  0  0
 28 29  1  0  0  0  0
 28 30  1  0  0  0  0
 30 31  1  0  0  0  0
 30 32  1  0  0  0  0
 30 33  1  0  0  0  0
M  END
$$$$

  -OEChem-03222214083D

 33 33  0     1  0  0  0  0  0999 V2000
   -3.0117   -4.7576    1.2548 H   0  0  0  0  0  0  0  0  0  0  0  0
   -3.0921   -3.8877    0.5967 C   0  0  0  0  0  0  0  0  0  0  0  0
   -3.8942   -3.2429    0.9632 H   0  0  0  0  0  0  0  0  0  0  0  0
   -3.3401   -4.2314   -0.4103 H   0  0  0  0  0  0  0  0  0  0  0  0
   -1.7798   -3.1263    0.5764 C   0  0  0  0  0  0  0  0  0  0  0  0
   -0.8313   -3.5328    1.2231 O   0  0  0  0  0  0  0  0  0  0  0  0
   -1.6688   -1.9734   -0.1754 N   0  0  0  0  0  0  0  0  0  0  0  0
   -2.5104   -1.6404   -0.6385 H   0  0  0  0  0  0  0  0  0  0  0  0
   -0.4798   -1.1001   -0.1976 C   0  0  1  0  0  0  0  0  0  0  0  0
    0.3761   -1.7235   -0.4795 H   0  0  0  0  0  0  0  0  0  0  0  0
   -0.5572    0.0671   -1.2245 C   0  0  0  0  0  0  0  0  0  0  0  0
   -0.1265    0.9690   -0.7751 H   0  0  0  0  0  0  0  0  0  0  0  0
    0.0985   -0.1938   -2.0614 H   0  0  0  0  0  0  0  0  0  0  0  0
   -1.9162    0.4028   -1.8219 C   0  0  0  0  0  0  0  0  0  0  0  0
   -2.3118    1.7487   -1.9017 C   0  0  0  0  0  0  0  0  0  0  0  0
   -1.6990    2.5236   -1.4488 H   0  0  0  0  0  0  0  0  0  0  0  0
   -3.5052    2.1133   -2.5363 C   0  0  0  0  0  0  0  0  0  0  0  0
   -3.8022    3.1566   -2.5538 H   0  0  0  0  0  0  0  0  0  0  0  0
   -4.2975    1.1431   -3.1504 C   0  0  0  0  0  0  0  0  0  0  0  0
   -5.4645    1.4836   -3.7701 O   0  0  0  0  0  0  0  0  0  0  0  0
   -5.6058    2.4416   -3.7135 H   0  0  0  0  0  0  0  0  0  0  0  0
   -3.8755   -0.1834   -3.1555 C   0  0  0  0  0  0  0  0  0  0  0  0
   -4.4734   -0.9238   -3.6774 H   0  0  0  0  0  0  0  0  0  0  0  0
   -2.6820   -0.5485   -2.5244 C   0  0  0  0  0  0  0  0  0  0  0  0
   -2.3426   -1.5766   -2.6137 H   0  0  0  0  0  0  0  0  0  0  0  0
   -0.1382   -0.5208    1.1930 C   0  0  0  0  0  0  0  0  0  0  0  0
    1.0289   -0.3076    1.4934 O   0  0  0  0  0  0  0  0  0  0  0  0
   -1.1412   -0.0045    1.9943 N   0  0  0  0  0  0  0  0  0  0  0  0
   -2.0962   -0.2104    1.7211 H   0  0  0  0  0  0  0  0  0  0  0  0
   -0.8903    0.5950    3.2988 C   0  0  0  0  0  0  0  0  0  0  0  0
   -0.2152    1.4520    3.2040 H   0  0  0  0  0  0  0  0  0  0  0  0
   -1.8281    0.9429    3.7423 H   0  0  0  0  0  0  0  0  0  0  0  0
   -0.4368   -0.1378    3.9745 H   0  0  0  0  0  0  0  0  0  0  0  0
  1  2  1  0  0  0  0
  2  3  1  0  0  0  0
  2  4  1  0  0  0  0
  2  5  1  0  0  0  0
  5  6  2  0  0  0  0
  5  7  1  0  0  0  0
  7  8  1  0  0  0  0
  7  9  1  0  0  0  0
  9 10  1  0  0  0  0
  9 11  1  0  0  0  0
  9 26  1  0  0  0  0
 11 12  1  0  0  0  0
 11 13  1  0  0  0  0
 11 14  1  0  0  0  0
 14 15  2  0  0  0  0
 14 24  1  0  0  0  0
 15 16  1  0  0  0  0
 15 17  1  0  0  0  0
 17 18  1  0  0  0  0
 17 19  2  0  0  0  0
 19 20  1  0  0  0  0
 19 22  1  0  0  0  0
 20 21  1  0  0  0  0
 22 23  1  0  0  0  0
 22 24  2  0  0  0  0
 24 25  1  0  0  0  0
 26 27  2  0  0  0  0
 26 28  1  0  0  0  0
 28 29  1  0  0  0  0
 28 30  1  0  0  0  0
 30 31  1  0  0  0  0
 30 32  1  0  0  0  0
 30 33  1  0  0  0  0
M  END
$$$$

  -OEChem-03222214083D

 33 33  0     1  0  0  0  0  0999 V2000
   -2.8419   -4.8235    1.4269 H   0  0  0  0  0  0  0  0  0  0  0  0
   -2.9895   -3.9647    0.7657 C   0  0  0  0  0  0  0  0  0  0  0  0
   -3.7793   -3.3340    1.1805 H   0  0  0  0  0  0  0  0  0  0  0  0
   -3.2993   -4.3277   -0.2173 H   0  0  0  0  0  0  0  0  0  0  0  0
   -1.7003   -3.1742    0.6439 C   0  0  0  0  0  0  0  0  0  0  0  0
   -0.6965   -3.5591    1.2159 O   0  0  0  0  0  0  0  0  0  0  0  0
   -1.6732   -2.0207   -0.1156 N   0  0  0  0  0  0  0  0  0  0  0  0
   -2.5630   -1.6914   -0.4785 H   0  0  0  0  0  0  0  0  0  0  0  0
   -0.5223   -1.1031   -0.1894 C   0  0  1  0  0  0  0  0  0  0  0  0
    0.3423   -1.7041   -0.4935 H   0  0  0  0  0  0  0  0  0  0  0  0
   -0.6458    0.0566   -1.2238 C   0  0  0  0  0  0  0  0  0  0  0  0
   -0.2205    0.9631   -0.7785 H   0  0  0  0  0  0  0  0  0  0  0  0
    0.0100   -0.2016   -2.0616 H   0  0  0  0  0  0  0  0  0  0  0  0
   -1.9971    0.4093   -1.8400 C   0  0  0  0  0  0  0  0  0  0  0  0
   -2.2126    1.7515   -2.2023 C   0  0  0  0  0  0  0  0  0  0  0  0
   -1.4804    2.5085   -1.9347 H   0  0  0  0  0  0  0  0  0  0  0  0
   -3.3722    2.1503   -2.8764 C   0  0  0  0  0  0  0  0  0  0  0  0
   -3.5232    3.2005   -3.1030 H   0  0  0  0  0  0  0  0  0  0  0  0
   -4.3163    1.2018   -3.2635 C   0  0  0  0  0  0  0  0  0  0  0  0
   -5.4523    1.5745   -3.9210 O   0  0  0  0  0  0  0  0  0  0  0  0
   -5.4606    2.5354   -4.0534 H   0  0  0  0  0  0  0  0  0  0  0  0
   -4.0733   -0.1441   -3.0106 C   0  0  0  0  0  0  0  0  0  0  0  0
   -4.7832   -0.8816   -3.3716 H   0  0  0  0  0  0  0  0  0  0  0  0
   -2.9117   -0.5425   -2.3402 C   0  0  0  0  0  0  0  0  0  0  0  0
   -2.7233   -1.6078   -2.2741 H   0  0  0  0  0  0  0  0  0  0  0  0
   -0.1483   -0.5096    1.1875 C   0  0  0  0  0  0  0  0  0  0  0  0
    1.0210   -0.2561    1.4447 O   0  0  0  0  0  0  0  0  0  0  0  0
   -1.1375   -0.0321    2.0293 N   0  0  0  0  0  0  0  0  0  0  0  0
   -2.0966   -0.2514    1.7825 H   0  0  0  0  0  0  0  0  0  0  0  0
   -0.8597    0.5850    3.3200 C   0  0  0  0  0  0  0  0  0  0  0  0
   -0.2334    1.4742    3.1935 H   0  0  0  0  0  0  0  0  0  0  0  0
   -1.7932    0.8875    3.8039 H   0  0  0  0  0  0  0  0  0  0  0  0
   -0.3409   -0.1212    3.9766 H   0  0  0  0  0  0  0  0  0  0  0  0
  1  2  1  0  0  0  0
  2  3  1  0  0  0  0
  2  4  1  0  0  0  0
  2  5  1  0  0  0  0
  5  6  2  0  0  0  0
  5  7  1  0  0  0  0
  7  8  1  0  0  0  0
  7  9  1  0  0  0  0
  9 10  1  0  0  0  0
  9 11  1  0  0  0  0
  9 26  1  0  0  0  0
 11 12  1  0  0  0  0
 11 13  1  0  0  0  0
 11 14  1  0  0  0  0
 14 15  2  0  0  0  0
 14 24  1  0  0  0  0
 15 16  1  0  0  0  0
 15 17  1  0  0  0  0
 17 18  1  0  0  0  0
 17 19  2  0  0  0  0
 19 20  1  0  0  0  0
 19 22  1  0  0  0  0
 20 21  1  0  0  0  0
 22 23  1  0  0  0  0
 22 24  2  0  0  0  0
 24 25  1  0  0  0  0
 26 27  2  0  0  0  0
 26 28  1  0  0  0  0
 28 29  1  0  0  0  0
 28 30  1  0  0  0  0
 30 31  1  0  0  0  0
 30 32  1  0  0  0  0
 30 33  1  0  0  0  0
M  END
$$$$

  -OEChem-03222214083D

 33 33  0     1  0  0  0  0  0999 V2000
   -2.7290   -5.0308    1.0374 H   0  0  0  0  0  0  0  0  0  0  0  0
   -2.8561   -4.1574    0.3912 C   0  0  0  0  0  0  0  0  0  0  0  0
   -3.7961   -3.6634    0.6484 H   0  0  0  0  0  0  0  0  0  0  0  0
   -2.9000   -4.4938   -0.6474 H   0  0  0  0  0  0  0  0  0  0  0  0
   -1.6961   -3.1972    0.5771 C   0  0  0  0  0  0  0  0  0  0  0  0
   -0.8236   -3.4517    1.3872 O   0  0  0  0  0  0  0  0  0  0  0  0
   -1.6400   -2.0400   -0.1754 N   0  0  0  0  0  0  0  0  0  0  0  0
   -2.3321   -1.9462   -0.9146 H   0  0  0  0  0  0  0  0  0  0  0  0
   -0.4902   -1.1165   -0.2053 C   0  0  1  0  0  0  0  0  0  0  0  0
    0.3917   -1.6938   -0.5047 H   0  0  0  0  0  0  0  0  0  0  0  0
   -0.6568    0.0465   -1.2212 C   0  0  0  0  0  0  0  0  0  0  0  0
   -0.0198    0.8780   -0.8976 H   0  0  0  0  0  0  0  0  0  0  0  0
   -0.2306   -0.3172   -2.1618 H   0  0  0  0  0  0  0  0  0  0  0  0
   -2.0267    0.6236   -1.5800 C   0  0  0  0  0  0  0  0  0  0  0  0
   -2.0244    1.6694   -2.5203 C   0  0  0  0  0  0  0  0  0  0  0  0
   -1.0914    1.9640   -2.9933 H   0  0  0  0  0  0  0  0  0  0  0  0
   -3.2019    2.3334   -2.8820 C   0  0  0  0  0  0  0  0  0  0  0  0
   -3.1647    3.1179   -3.6301 H   0  0  0  0  0  0  0  0  0  0  0  0
   -4.4094    1.9932   -2.2766 C   0  0  0  0  0  0  0  0  0  0  0  0
   -5.5673    2.6310   -2.6155 O   0  0  0  0  0  0  0  0  0  0  0  0
   -5.3908    3.3104   -3.2849 H   0  0  0  0  0  0  0  0  0  0  0  0
   -4.4258    1.0088   -1.2946 C   0  0  0  0  0  0  0  0  0  0  0  0
   -5.3644    0.7794   -0.8003 H   0  0  0  0  0  0  0  0  0  0  0  0
   -3.2492    0.3450   -0.9296 C   0  0  0  0  0  0  0  0  0  0  0  0
   -3.3314   -0.3516   -0.1071 H   0  0  0  0  0  0  0  0  0  0  0  0
   -0.1476   -0.5127    1.1757 C   0  0  0  0  0  0  0  0  0  0  0  0
    1.0181   -0.2557    1.4478 O   0  0  0  0  0  0  0  0  0  0  0  0
   -1.1509   -0.0296    1.9963 N   0  0  0  0  0  0  0  0  0  0  0  0
   -2.0969   -0.3123    1.7666 H   0  0  0  0  0  0  0  0  0  0  0  0
   -0.8930    0.5756    3.2963 C   0  0  0  0  0  0  0  0  0  0  0  0
   -0.2249    1.4372    3.1936 H   0  0  0  0  0  0  0  0  0  0  0  0
   -1.8296    0.9190    3.7455 H   0  0  0  0  0  0  0  0  0  0  0  0
   -0.4291   -0.1522    3.9701 H   0  0  0  0  0  0  0  0  0  0  0  0
  1  2  1  0  0  0  0
  2  3  1  0  0  0  0
  2  4  1  0  0  0  0
  2  5  1  0  0  0  0
  5  6  2  0  0  0  0
  5  7  1  0  0  0  0
  7  8  1  0  0  0  0
  7  9  1  0  0  0  0
  9 10  1  0  0  0  0
  9 11  1  0  0  0  0
  9 26  1  0  0  0  0
 11 12  1  0  0  0  0
 11 13  1  0  0  0  0
 11 14  1  0  0  0  0
 14 15  2  0  0  0  0
 14 24  1  0  0  0  0
 15 16  1  0  0  0  0
 15 17  1  0  0  0  0
 17 18  1  0  0  0  0
 17 19  2  0  0  0  0
 19 20  1  0  0  0  0
 19 22  1  0  0  0  0
 20 21  1  0  0  0  0
 22 23  1  0  0  0  0
 22 24  2  0  0  0  0
 24 25  1  0  0  0  0
 26 27  2  0  0  0  0
 26 28  1  0  0  0  0
 28 29  1  0  0  0  0
 28 30  1  0  0  0  0
 30 31  1  0  0  0  0
 30 32  1  0  0  0  0
 30 33  1  0  0  0  0
M  END
$$$$

  -OEChem-03222214083D

 33 33  0     1  0  0  0  0  0999 V2000
   -2.8861   -4.9351    0.9667 H   0  0  0  0  0  0  0  0  0  0  0  0
   -2.9718   -4.0454    0.3361 C   0  0  0  0  0  0  0  0  0  0  0  0
   -3.8859   -3.5108    0.6048 H   0  0  0  0  0  0  0  0  0  0  0  0
   -3.0354   -4.3603   -0.7083 H   0  0  0  0  0  0  0  0  0  0  0  0
   -1.7665   -3.1456    0.5341 C   0  0  0  0  0  0  0  0  0  0  0  0
   -0.9004   -3.4554    1.3319 O   0  0  0  0  0  0  0  0  0  0  0  0
   -1.6688   -1.9693   -0.1817 N   0  0  0  0  0  0  0  0  0  0  0  0
   -2.3792   -1.8032   -0.8909 H   0  0  0  0  0  0  0  0  0  0  0  0
   -0.4932   -1.0775   -0.1773 C   0  0  1  0  0  0  0  0  0  0  0  0
    0.3712   -1.6803   -0.4780 H   0  0  0  0  0  0  0  0  0  0  0  0
   -0.6242    0.0760   -1.2060 C   0  0  0  0  0  0  0  0  0  0  0  0
    0.0004    0.9139   -0.8771 H   0  0  0  0  0  0  0  0  0  0  0  0
   -0.1804   -0.2939   -2.1359 H   0  0  0  0  0  0  0  0  0  0  0  0
   -2.0008    0.6285   -1.5645 C   0  0  0  0  0  0  0  0  0  0  0  0
   -2.0915    1.4247   -2.7190 C   0  0  0  0  0  0  0  0  0  0  0  0
   -1.2153    1.5678   -3.3457 H   0  0  0  0  0  0  0  0  0  0  0  0
   -3.2964    2.0321   -3.0909 C   0  0  0  0  0  0  0  0  0  0  0  0
   -3.3372    2.6241   -3.9989 H   0  0  0  0  0  0  0  0  0  0  0  0
   -4.4298    1.8842   -2.2930 C   0  0  0  0  0  0  0  0  0  0  0  0
   -5.6109    2.4735   -2.6393 O   0  0  0  0  0  0  0  0  0  0  0  0
   -5.4999    2.9922   -3.4512 H   0  0  0  0  0  0  0  0  0  0  0  0
   -4.3460    1.1461   -1.1163 C   0  0  0  0  0  0  0  0  0  0  0  0
   -5.2246    1.0642   -0.4844 H   0  0  0  0  0  0  0  0  0  0  0  0
   -3.1419    0.5408   -0.7410 C   0  0  0  0  0  0  0  0  0  0  0  0
   -3.1179    0.0270    0.2115 H   0  0  0  0  0  0  0  0  0  0  0  0
   -0.1213   -0.5095    1.2118 C   0  0  0  0  0  0  0  0  0  0  0  0
    1.0543   -0.2816    1.4669 O   0  0  0  0  0  0  0  0  0  0  0  0
   -1.0956   -0.0094    2.0569 N   0  0  0  0  0  0  0  0  0  0  0  0
   -2.0449   -0.3105    1.8693 H   0  0  0  0  0  0  0  0  0  0  0  0
   -0.7901    0.5554    3.3653 C   0  0  0  0  0  0  0  0  0  0  0  0
   -0.0946    1.3958    3.2692 H   0  0  0  0  0  0  0  0  0  0  0  0
   -1.7046    0.9203    3.8422 H   0  0  0  0  0  0  0  0  0  0  0  0
   -0.3383   -0.2035    4.0126 H   0  0  0  0  0  0  0  0  0  0  0  0
  1  2  1  0  0  0  0
  2  3  1  0  0  0  0
  2  4  1  0  0  0  0
  2  5  1  0  0  0  0
  5  6  2  0  0  0  0
  5  7  1  0  0  0  0
  7  8  1  0  0  0  0
  7  9  1  0  0  0  0
  9 10  1  0  0  0  0
  9 11  1  0  0  0  0
  9 26  1  0  0  0  0
 11 12  1  0  0  0  0
 11 13  1  0  0  0  0
 11 14  1  0  0  0  0
 14 15  2  0  0  0  0
 14 24  1  0  0  0  0
 15 16  1  0  0  0  0
 15 17  1  0  0  0  0
 17 18  1  0  0  0  0
 17 19  2  0  0  0  0
 19 20  1  0  0  0  0
 19 22  1  0  0  0  0
 20 21  1  0  0  0  0
 22 23  1  0  0  0  0
 22 24  2  0  0  0  0
 24 25  1  0  0  0  0
 26 27  2  0  0  0  0
 26 28  1  0  0  0  0
 28 29  1  0  0  0  0
 28 30  1  0  0  0  0
 30 31  1  0  0  0  0
 30 32  1  0  0  0  0
 30 33  1  0  0  0  0
M  END
$$$$

  -OEChem-03222214083D

 33 33  0     1  0  0  0  0  0999 V2000
   -3.0111   -4.8462    0.9104 H   0  0  0  0  0  0  0  0  0  0  0  0
   -3.0701   -3.9440    0.2949 C   0  0  0  0  0  0  0  0  0  0  0  0
   -3.9610   -3.3800    0.5813 H   0  0  0  0  0  0  0  0  0  0  0  0
   -3.1544   -4.2389   -0.7538 H   0  0  0  0  0  0  0  0  0  0  0  0
   -1.8297   -3.0938    0.4949 C   0  0  0  0  0  0  0  0  0  0  0  0
   -0.9560   -3.4614    1.2596 O   0  0  0  0  0  0  0  0  0  0  0  0
   -1.7048   -1.8974   -0.1813 N   0  0  0  0  0  0  0  0  0  0  0  0
   -2.4418   -1.6582   -0.8412 H   0  0  0  0  0  0  0  0  0  0  0  0
   -0.5076   -1.0356   -0.1515 C   0  0  1  0  0  0  0  0  0  0  0  0
    0.3356   -1.6650   -0.4582 H   0  0  0  0  0  0  0  0  0  0  0  0
   -0.5956    0.1096   -1.1914 C   0  0  0  0  0  0  0  0  0  0  0  0
    0.0221    0.9483   -0.8516 H   0  0  0  0  0  0  0  0  0  0  0  0
   -0.1335   -0.2657   -2.1102 H   0  0  0  0  0  0  0  0  0  0  0  0
   -1.9735    0.6492   -1.5534 C   0  0  0  0  0  0  0  0  0  0  0  0
   -2.1687    1.1601   -2.8477 C   0  0  0  0  0  0  0  0  0  0  0  0
   -1.3608    1.1235   -3.5736 H   0  0  0  0  0  0  0  0  0  0  0  0
   -3.3972    1.7135   -3.2277 C   0  0  0  0  0  0  0  0  0  0  0  0
   -3.5245    2.0868   -4.2383 H   0  0  0  0  0  0  0  0  0  0  0  0
   -4.4448    1.7896   -2.3103 C   0  0  0  0  0  0  0  0  0  0  0  0
   -5.6477    2.3268   -2.6657 O   0  0  0  0  0  0  0  0  0  0  0  0
   -5.6121    2.6524   -3.5786 H   0  0  0  0  0  0  0  0  0  0  0  0
   -4.2540    1.3253   -1.0123 C   0  0  0  0  0  0  0  0  0  0  0  0
   -5.0677    1.4108   -0.2991 H   0  0  0  0  0  0  0  0  0  0  0  0
   -3.0271    0.7735   -0.6291 C   0  0  0  0  0  0  0  0  0  0  0  0
   -2.9106    0.4549    0.3985 H   0  0  0  0  0  0  0  0  0  0  0  0
   -0.1008   -0.5128    1.2459 C   0  0  0  0  0  0  0  0  0  0  0  0
    1.0834   -0.3084    1.4792 O   0  0  0  0  0  0  0  0  0  0  0  0
   -1.0440   -0.0080    2.1230 N   0  0  0  0  0  0  0  0  0  0  0  0
   -1.9988   -0.3109    1.9668 H   0  0  0  0  0  0  0  0  0  0  0  0
   -0.6939    0.5312    3.4315 C   0  0  0  0  0  0  0  0  0  0  0  0
    0.0002    1.3719    3.3276 H   0  0  0  0  0  0  0  0  0  0  0  0
   -1.5913    0.8887    3.9452 H   0  0  0  0  0  0  0  0  0  0  0  0
   -0.2224   -0.2402    4.0495 H   0  0  0  0  0  0  0  0  0  0  0  0
  1  2  1  0  0  0  0
  2  3  1  0  0  0  0
  2  4  1  0  0  0  0
  2  5  1  0  0  0  0
  5  6  2  0  0  0  0
  5  7  1  0  0  0  0
  7  8  1  0  0  0  0
  7  9  1  0  0  0  0
  9 10  1  0  0  0  0
  9 11  1  0  0  0  0
  9 26  1  0  0  0  0
 11 12  1  0  0  0  0
 11 13  1  0  0  0  0
 11 14  1  0  0  0  0
 14 15  2  0  0  0  0
 14 24  1  0  0  0  0
 15 16  1  0  0  0  0
 15 17  1  0  0  0  0
 17 18  1  0  0  0  0
 17 19  2  0  0  0  0
 19 20  1  0  0  0  0
 19 22  1  0  0  0  0
 20 21  1  0  0  0  0
 22 23  1  0  0  0  0
 22 24  2  0  0  0  0
 24 25  1  0  0  0  0
 26 27  2  0  0  0  0
 26 28  1  0  0  0  0
 28 29  1  0  0  0  0
 28 30  1  0  0  0  0
 30 31  1  0  0  0  0
 30 32  1  0  0  0  0
 30 33  1  0  0  0  0
M  END
$$$$

  -OEChem-03222214083D

 33 33  0     1  0  0  0  0  0999 V2000
   -3.1119   -4.7604    0.8743 H   0  0  0  0  0  0  0  0  0  0  0  0
   -3.1465   -3.8479    0.2722 C   0  0  0  0  0  0  0  0  0  0  0  0
   -4.0111   -3.2552    0.5804 H   0  0  0  0  0  0  0  0  0  0  0  0
   -3.2582   -4.1243   -0.7790 H   0  0  0  0  0  0  0  0  0  0  0  0
   -1.8729   -3.0469    0.4639 C   0  0  0  0  0  0  0  0  0  0  0  0
   -0.9984   -3.4597    1.2044 O   0  0  0  0  0  0  0  0  0  0  0  0
   -1.7180   -1.8425   -0.1910 N   0  0  0  0  0  0  0  0  0  0  0  0
   -2.4688   -1.5488   -0.8122 H   0  0  0  0  0  0  0  0  0  0  0  0
   -0.5035   -1.0071   -0.1438 C   0  0  1  0  0  0  0  0  0  0  0  0
    0.3262   -1.6556   -0.4474 H   0  0  0  0  0  0  0  0  0  0  0  0
   -0.5588    0.1295   -1.1937 C   0  0  0  0  0  0  0  0  0  0  0  0
    0.0570    0.9677   -0.8496 H   0  0  0  0  0  0  0  0  0  0  0  0
   -0.0869   -0.2509   -2.1052 H   0  0  0  0  0  0  0  0  0  0  0  0
   -1.9398    0.6583   -1.5518 C   0  0  0  0  0  0  0  0  0  0  0  0
   -2.2635    0.8651   -2.9035 C   0  0  0  0  0  0  0  0  0  0  0  0
   -1.5453    0.6188   -3.6806 H   0  0  0  0  0  0  0  0  0  0  0  0
   -3.5120    1.3789   -3.2733 C   0  0  0  0  0  0  0  0  0  0  0  0
   -3.7425    1.5161   -4.3245 H   0  0  0  0  0  0  0  0  0  0  0  0
   -4.4475    1.7181   -2.2957 C   0  0  0  0  0  0  0  0  0  0  0  0
   -5.6688    2.2187   -2.6419 O   0  0  0  0  0  0  0  0  0  0  0  0
   -5.7232    2.3339   -3.6033 H   0  0  0  0  0  0  0  0  0  0  0  0
   -4.1235    1.5571   -0.9511 C   0  0  0  0  0  0  0  0  0  0  0  0
   -4.8465    1.8494   -0.1963 H   0  0  0  0  0  0  0  0  0  0  0  0
   -2.8761    1.0456   -0.5783 C   0  0  0  0  0  0  0  0  0  0  0  0
   -2.6448    0.9705    0.4760 H   0  0  0  0  0  0  0  0  0  0  0  0
   -0.0898   -0.5158    1.2621 C   0  0  0  0  0  0  0  0  0  0  0  0
    1.0975   -0.3355    1.4989 O   0  0  0  0  0  0  0  0  0  0  0  0
   -1.0240   -0.0060    2.1455 N   0  0  0  0  0  0  0  0  0  0  0  0
   -1.9825   -0.2974    1.9860 H   0  0  0  0  0  0  0  0  0  0  0  0
   -0.6640    0.4944    3.4668 C   0  0  0  0  0  0  0  0  0  0  0  0
    0.0527    1.3182    3.3836 H   0  0  0  0  0  0  0  0  0  0  0  0
   -1.5526    0.8645    3.9867 H   0  0  0  0  0  0  0  0  0  0  0  0
   -0.2152   -0.3033    4.0682 H   0  0  0  0  0  0  0  0  0  0  0  0
  1  2  1  0  0  0  0
  2  3  1  0  0  0  0
  2  4  1  0  0  0  0
  2  5  1  0  0  0  0
  5  6  2  0  0  0  0
  5  7  1  0  0  0  0
  7  8  1  0  0  0  0
  7  9  1  0  0  0  0
  9 10  1  0  0  0  0
  9 11  1  0  0  0  0
  9 26  1  0  0  0  0
 11 12  1  0  0  0  0
 11 13  1  0  0  0  0
 11 14  1  0  0  0  0
 14 15  2  0  0  0  0
 14 24  1  0  0  0  0
 15 16  1  0  0  0  0
 15 17  1  0  0  0  0
 17 18  1  0  0  0  0
 17 19  2  0  0  0  0
 19 20  1  0  0  0  0
 19 22  1  0  0  0  0
 20 21  1  0  0  0  0
 22 23  1  0  0  0  0
 22 24  2  0  0  0  0
 24 25  1  0  0  0  0
 26 27  2  0  0  0  0
 26 28  1  0  0  0  0
 28 29  1  0  0  0  0
 28 30  1  0  0  0  0
 30 31  1  0  0  0  0
 30 32  1  0  0  0  0
 30 33  1  0  0  0  0
M  END
$$$$

  -OEChem-03222214083D

 33 33  0     1  0  0  0  0  0999 V2000
   -3.1920   -4.6726    0.8792 H   0  0  0  0  0  0  0  0  0  0  0  0
   -3.1957   -3.7655    0.2684 C   0  0  0  0  0  0  0  0  0  0  0  0
   -4.0282   -3.1322    0.5841 H   0  0  0  0  0  0  0  0  0  0  0  0
   -3.3357   -4.0461   -0.7784 H   0  0  0  0  0  0  0  0  0  0  0  0
   -1.8849   -3.0203    0.4332 C   0  0  0  0  0  0  0  0  0  0  0  0
   -1.0162   -3.4674    1.1606 O   0  0  0  0  0  0  0  0  0  0  0  0
   -1.6899   -1.8273   -0.2317 N   0  0  0  0  0  0  0  0  0  0  0  0
   -2.4483   -1.4915   -0.8216 H   0  0  0  0  0  0  0  0  0  0  0  0
   -0.4606   -1.0138   -0.1679 C   0  0  1  0  0  0  0  0  0  0  0  0
    0.3695   -1.6682   -0.4569 H   0  0  0  0  0  0  0  0  0  0  0  0
   -0.4987    0.1289   -1.2108 C   0  0  0  0  0  0  0  0  0  0  0  0
    0.1206    0.9625   -0.8620 H   0  0  0  0  0  0  0  0  0  0  0  0
   -0.0319   -0.2419   -2.1288 H   0  0  0  0  0  0  0  0  0  0  0  0
   -1.8874    0.6482   -1.5404 C   0  0  0  0  0  0  0  0  0  0  0  0
   -2.3659    0.5712   -2.8585 C   0  0  0  0  0  0  0  0  0  0  0  0
   -1.7573    0.1149   -3.6345 H   0  0  0  0  0  0  0  0  0  0  0  0
   -3.6338    1.0640   -3.1883 C   0  0  0  0  0  0  0  0  0  0  0  0
   -3.9909    0.9793   -4.2091 H   0  0  0  0  0  0  0  0  0  0  0  0
   -4.4292    1.6636   -2.2111 C   0  0  0  0  0  0  0  0  0  0  0  0
   -5.6671    2.1481   -2.5197 O   0  0  0  0  0  0  0  0  0  0  0  0
   -5.8299    2.0709   -3.4728 H   0  0  0  0  0  0  0  0  0  0  0  0
   -3.9461    1.7829   -0.9103 C   0  0  0  0  0  0  0  0  0  0  0  0
   -4.5593    2.2760   -0.1627 H   0  0  0  0  0  0  0  0  0  0  0  0
   -2.6789    1.2934   -0.5770 C   0  0  0  0  0  0  0  0  0  0  0  0
   -2.3119    1.4419    0.4317 H   0  0  0  0  0  0  0  0  0  0  0  0
   -0.0874   -0.5230    1.2489 C   0  0  0  0  0  0  0  0  0  0  0  0
    1.0920   -0.3656    1.5354 O   0  0  0  0  0  0  0  0  0  0  0  0
   -1.0498    0.0054    2.0901 N   0  0  0  0  0  0  0  0  0  0  0  0
   -2.0103   -0.2358    1.8683 H   0  0  0  0  0  0  0  0  0  0  0  0
   -0.7460    0.5027    3.4266 C   0  0  0  0  0  0  0  0  0  0  0  0
   -0.0077    1.3103    3.3782 H   0  0  0  0  0  0  0  0  0  0  0  0
   -1.6517    0.8946    3.8991 H   0  0  0  0  0  0  0  0  0  0  0  0
   -0.3469   -0.3026    4.0523 H   0  0  0  0  0  0  0  0  0  0  0  0
  1  2  1  0  0  0  0
  2  3  1  0  0  0  0
  2  4  1  0  0  0  0
  2  5  1  0  0  0  0
  5  6  2  0  0  0  0
  5  7  1  0  0  0  0
  7  8  1  0  0  0  0
  7  9  1  0  0  0  0
  9 10  1  0  0  0  0
  9 11  1  0  0  0  0
  9 26  1  0  0  0  0
 11 12  1  0  0  0  0
 11 13  1  0  0  0  0
 11 14  1  0  0  0  0
 14 15  2  0  0  0  0
 14 24  1  0  0  0  0
 15 16  1  0  0  0  0
 15 17  1  0  0  0  0
 17 18  1  0  0  0  0
 17 19  2  0  0  0  0
 19 20  1  0  0  0  0
 19 22  1  0  0  0  0
 20 21  1  0  0  0  0
 22 23  1  0  0  0  0
 22 24  2  0  0  0  0
 24 25  1  0  0  0  0
 26 27  2  0  0  0  0
 26 28  1  0  0  0  0
 28 29  1  0  0  0  0
 28 30  1  0  0  0  0
 30 31  1  0  0  0  0
 30 32  1  0  0  0  0
 30 33  1  0  0  0  0
M  END
$$$$

  -OEChem-03222214083D

 33 33  0     1  0  0  0  0  0999 V2000
   -3.2502   -4.6051    0.9013 H   0  0  0  0  0  0  0  0  0  0  0  0
   -3.2297   -3.7078    0.2763 C   0  0  0  0  0  0  0  0  0  0  0  0
   -4.0374   -3.0423    0.5897 H   0  0  0  0  0  0  0  0  0  0  0  0
   -3.3899   -3.9999   -0.7642 H   0  0  0  0  0  0  0  0  0  0  0  0
   -1.8929   -3.0044    0.4157 C   0  0  0  0  0  0  0  0  0  0  0  0
   -1.0321   -3.4702    1.1406 O   0  0  0  0  0  0  0  0  0  0  0  0
   -1.6633   -1.8313   -0.2732 N   0  0  0  0  0  0  0  0  0  0  0  0
   -2.4239   -1.4679   -0.8432 H   0  0  0  0  0  0  0  0  0  0  0  0
   -0.4225   -1.0349   -0.1975 C   0  0  1  0  0  0  0  0  0  0  0  0
    0.4114   -1.6929   -0.4668 H   0  0  0  0  0  0  0  0  0  0  0  0
   -0.4426    0.1212   -1.2249 C   0  0  0  0  0  0  0  0  0  0  0  0
    0.1886    0.9439   -0.8707 H   0  0  0  0  0  0  0  0  0  0  0  0
    0.0106   -0.2405   -2.1531 H   0  0  0  0  0  0  0  0  0  0  0  0
   -1.8318    0.6448   -1.5301 C   0  0  0  0  0  0  0  0  0  0  0  0
   -2.4602    0.3199   -2.7427 C   0  0  0  0  0  0  0  0  0  0  0  0
   -1.9559   -0.3148   -3.4665 H   0  0  0  0  0  0  0  0  0  0  0  0
   -3.7429    0.8014   -3.0284 C   0  0  0  0  0  0  0  0  0  0  0  0
   -4.2165    0.5348   -3.9671 H   0  0  0  0  0  0  0  0  0  0  0  0
   -4.4037    1.6236   -2.1137 C   0  0  0  0  0  0  0  0  0  0  0  0
   -5.6534    2.1013   -2.3815 O   0  0  0  0  0  0  0  0  0  0  0  0
   -5.9212    1.8543   -3.2803 H   0  0  0  0  0  0  0  0  0  0  0  0
   -3.7754    1.9697   -0.9193 C   0  0  0  0  0  0  0  0  0  0  0  0
   -4.2893    2.6249   -0.2230 H   0  0  0  0  0  0  0  0  0  0  0  0
   -2.4925    1.4935   -0.6295 C   0  0  0  0  0  0  0  0  0  0  0  0
   -2.0079    1.7992    0.2931 H   0  0  0  0  0  0  0  0  0  0  0  0
   -0.0958   -0.5249    1.2228 C   0  0  0  0  0  0  0  0  0  0  0  0
    1.0726   -0.3824    1.5578 O   0  0  0  0  0  0  0  0  0  0  0  0
   -1.0877    0.0299    2.0115 N   0  0  0  0  0  0  0  0  0  0  0  0
   -2.0434   -0.1715    1.7350 H   0  0  0  0  0  0  0  0  0  0  0  0
   -0.8380    0.5476    3.3508 C   0  0  0  0  0  0  0  0  0  0  0  0
   -0.0903    1.3473    3.3199 H   0  0  0  0  0  0  0  0  0  0  0  0
   -1.7594    0.9553    3.7771 H   0  0  0  0  0  0  0  0  0  0  0  0
   -0.4736   -0.2502    4.0067 H   0  0  0  0  0  0  0  0  0  0  0  0
  1  2  1  0  0  0  0
  2  3  1  0  0  0  0
  2  4  1  0  0  0  0
  2  5  1  0  0  0  0
  5  6  2  0  0  0  0
  5  7  1  0  0  0  0
  7  8  1  0  0  0  0
  7  9  1  0  0  0  0
  9 10  1  0  0  0  0
  9 11  1  0  0  0  0
  9 26  1  0  0  0  0
 11 12  1  0  0  0  0
 11 13  1  0  0  0  0
 11 14  1  0  0  0  0
 14 15  2  0  0  0  0
 14 24  1  0  0  0  0
 15 16  1  0  0  0  0
 15 17  1  0  0  0  0
 17 18  1  0  0  0  0
 17 19  2  0  0  0  0
 19 20  1  0  0  0  0
 19 22  1  0  0  0  0
 20 21  1  0  0  0  0
 22 23  1  0  0  0  0
 22 24  2  0  0  0  0
 24 25  1  0  0  0  0
 26 27  2  0  0  0  0
 26 28  1  0  0  0  0
 28 29  1  0  0  0  0
 28 30  1  0  0  0  0
 30 31  1  0  0  0  0
 30 32  1  0  0  0  0
 30 33  1  0  0  0  0
M  END
$$$$

  -OEChem-03222214083D

 33 33  0     1  0  0  0  0  0999 V2000
   -3.2817   -4.5593    0.9450 H   0  0  0  0  0  0  0  0  0  0  0  0
   -3.2478   -3.6744    0.3031 C   0  0  0  0  0  0  0  0  0  0  0  0
   -4.0284   -2.9795    0.6215 H   0  0  0  0  0  0  0  0  0  0  0  0
   -3.4394   -3.9805   -0.7280 H   0  0  0  0  0  0  0  0  0  0  0  0
   -1.8880   -3.0089    0.4010 C   0  0  0  0  0  0  0  0  0  0  0  0
   -1.0244   -3.4896    1.1125 O   0  0  0  0  0  0  0  0  0  0  0  0
   -1.6403   -1.8535   -0.3118 N   0  0  0  0  0  0  0  0  0  0  0  0
   -2.4122   -1.4621   -0.8464 H   0  0  0  0  0  0  0  0  0  0  0  0
   -0.3952   -1.0646   -0.2274 C   0  0  1  0  0  0  0  0  0  0  0  0
    0.4440   -1.7221   -0.4807 H   0  0  0  0  0  0  0  0  0  0  0  0
   -0.3995    0.1094   -1.2350 C   0  0  0  0  0  0  0  0  0  0  0  0
    0.2470    0.9170   -0.8733 H   0  0  0  0  0  0  0  0  0  0  0  0
    0.0418   -0.2440   -2.1723 H   0  0  0  0  0  0  0  0  0  0  0  0
   -1.7828    0.6496   -1.5317 C   0  0  0  0  0  0  0  0  0  0  0  0
   -2.5464    0.1220   -2.5856 C   0  0  0  0  0  0  0  0  0  0  0  0
   -2.1332   -0.6584   -3.2193 H   0  0  0  0  0  0  0  0  0  0  0  0
   -3.8392    0.5988   -2.8314 C   0  0  0  0  0  0  0  0  0  0  0  0
   -4.4148    0.1848   -3.6526 H   0  0  0  0  0  0  0  0  0  0  0  0
   -4.3802    1.6040   -2.0268 C   0  0  0  0  0  0  0  0  0  0  0  0
   -5.6394    2.0770   -2.2552 O   0  0  0  0  0  0  0  0  0  0  0  0
   -6.0052    1.6836   -3.0626 H   0  0  0  0  0  0  0  0  0  0  0  0
   -3.6251    2.1324   -0.9814 C   0  0  0  0  0  0  0  0  0  0  0  0
   -4.0516    2.9176   -0.3653 H   0  0  0  0  0  0  0  0  0  0  0  0
   -2.3309    1.6636   -0.7339 C   0  0  0  0  0  0  0  0  0  0  0  0
   -1.7536    2.0905    0.0823 H   0  0  0  0  0  0  0  0  0  0  0  0
   -0.1079   -0.5314    1.1928 C   0  0  0  0  0  0  0  0  0  0  0  0
    1.0489   -0.4021    1.5701 O   0  0  0  0  0  0  0  0  0  0  0  0
   -1.1230    0.0430    1.9372 N   0  0  0  0  0  0  0  0  0  0  0  0
   -2.0700   -0.1037    1.6027 H   0  0  0  0  0  0  0  0  0  0  0  0
   -0.9204    0.6035    3.2668 C   0  0  0  0  0  0  0  0  0  0  0  0
   -0.1654    1.3961    3.2387 H   0  0  0  0  0  0  0  0  0  0  0  0
   -1.8542    1.0315    3.6432 H   0  0  0  0  0  0  0  0  0  0  0  0
   -0.5887   -0.1745    3.9623 H   0  0  0  0  0  0  0  0  0  0  0  0
  1  2  1  0  0  0  0
  2  3  1  0  0  0  0
  2  4  1  0  0  0  0
  2  5  1  0  0  0  0
  5  6  2  0  0  0  0
  5  7  1  0  0  0  0
  7  8  1  0  0  0  0
  7  9  1  0  0  0  0
  9 10  1  0  0  0  0
  9 11  1  0  0  0  0
  9 26  1  0  0  0  0
 11 12  1  0  0  0  0
 11 13  1  0  0  0  0
 11 14  1  0  0  0  0
 14 15  2  0  0  0  0
 14 24  1  0  0  0  0
 15 16  1  0  0  0  0
 15 17  1  0  0  0  0
 17 18  1  0  0  0  0
 17 19  2  0  0  0  0
 19 20  1  0  0  0  0
 19 22  1  0  0  0  0
 20 21  1  0  0  0  0
 22 23  1  0  0  0  0
 22 24  2  0  0  0  0
 24 25  1  0  0  0  0
 26 27  2  0  0  0  0
 26 28  1  0  0  0  0
 28 29  1  0  0  0  0
 28 30  1  0  0  0  0
 30 31  1  0  0  0  0
 30 32  1  0  0  0  0
 30 33  1  0  0  0  0
M  END
$$$$

  -OEChem-03222214083D

 33 33  0     1  0  0  0  0  0999 V2000
   -3.2213   -4.5956    1.0231 H   0  0  0  0  0  0  0  0  0  0  0  0
   -3.2111   -3.7152    0.3742 C   0  0  0  0  0  0  0  0  0  0  0  0
   -3.9766   -3.0160    0.7187 H   0  0  0  0  0  0  0  0  0  0  0  0
   -3.4441   -4.0280   -0.6463 H   0  0  0  0  0  0  0  0  0  0  0  0
   -1.8469   -3.0527    0.4141 C   0  0  0  0  0  0  0  0  0  0  0  0
   -0.9555   -3.5353    1.0892 O   0  0  0  0  0  0  0  0  0  0  0  0
   -1.6258   -1.9027   -0.3168 N   0  0  0  0  0  0  0  0  0  0  0  0
   -2.4280   -1.4981   -0.7923 H   0  0  0  0  0  0  0  0  0  0  0  0
   -0.3943   -1.0929   -0.2426 C   0  0  1  0  0  0  0  0  0  0  0  0
    0.4570   -1.7371   -0.4898 H   0  0  0  0  0  0  0  0  0  0  0  0
   -0.4011    0.0940   -1.2375 C   0  0  0  0  0  0  0  0  0  0  0  0
    0.2581    0.8903   -0.8735 H   0  0  0  0  0  0  0  0  0  0  0  0
    0.0341   -0.2572   -2.1786 H   0  0  0  0  0  0  0  0  0  0  0  0
   -1.7738    0.6565   -1.5516 C   0  0  0  0  0  0  0  0  0  0  0  0
   -2.6654   -0.0204   -2.4018 C   0  0  0  0  0  0  0  0  0  0  0  0
   -2.3507   -0.9331   -2.9012 H   0  0  0  0  0  0  0  0  0  0  0  0
   -3.9515    0.4823   -2.6293 C   0  0  0  0  0  0  0  0  0  0  0  0
   -4.6238   -0.0466   -3.2965 H   0  0  0  0  0  0  0  0  0  0  0  0
   -4.3635    1.6614   -2.0047 C   0  0  0  0  0  0  0  0  0  0  0  0
   -5.6145    2.1635   -2.2182 O   0  0  0  0  0  0  0  0  0  0  0  0
   -6.0695    1.6532   -2.9060 H   0  0  0  0  0  0  0  0  0  0  0  0
   -3.4877    2.3333   -1.1543 C   0  0  0  0  0  0  0  0  0  0  0  0
   -3.8162    3.2492   -0.6729 H   0  0  0  0  0  0  0  0  0  0  0  0
   -2.2000    1.8370   -0.9257 C   0  0  0  0  0  0  0  0  0  0  0  0
   -1.5341    2.3713   -0.2526 H   0  0  0  0  0  0  0  0  0  0  0  0
   -0.1265   -0.5428    1.1750 C   0  0  0  0  0  0  0  0  0  0  0  0
    1.0236   -0.3998    1.5679 O   0  0  0  0  0  0  0  0  0  0  0  0
   -1.1598    0.0195    1.9040 N   0  0  0  0  0  0  0  0  0  0  0  0
   -2.0978   -0.0886    1.5316 H   0  0  0  0  0  0  0  0  0  0  0  0
   -0.9800    0.6239    3.2172 C   0  0  0  0  0  0  0  0  0  0  0  0
   -0.2640    1.4508    3.1646 H   0  0  0  0  0  0  0  0  0  0  0  0
   -1.9324    1.0157    3.5866 H   0  0  0  0  0  0  0  0  0  0  0  0
   -0.6093   -0.1189    3.9315 H   0  0  0  0  0  0  0  0  0  0  0  0
  1  2  1  0  0  0  0
  2  3  1  0  0  0  0
  2  4  1  0  0  0  0
  2  5  1  0  0  0  0
  5  6  2  0  0  0  0
  5  7  1  0  0  0  0
  7  8  1  0  0  0  0
  7  9  1  0  0  0  0
  9 10  1  0  0  0  0
  9 11  1  0  0  0  0
  9 26  1  0  0  0  0
 11 12  1  0  0  0  0
 11 13  1  0  0  0  0
 11 14  1  0  0  0  0
 14 15  2  0  0  0  0
 14 24  1  0  0  0  0
 15 16  1  0  0  0  0
 15 17  1  0  0  0  0
 17 18  1  0  0  0  0
 17 19  2  0  0  0  0
 19 20  1  0  0  0  0
 19 22  1  0  0  0  0
 20 21  1  0  0  0  0
 22 23  1  0  0  0  0
 22 24  2  0  0  0  0
 24 25  1  0  0  0  0
 26 27  2  0  0  0  0
 26 28  1  0  0  0  0
 28 29  1  0  0  0  0
 28 30  1  0  0  0  0
 30 31  1  0  0  0  0
 30 32  1  0  0  0  0
 30 33  1  0  0  0  0
M  END
$$$$

  -OEChem-03222214083D

 33 33  0     1  0  0  0  0  0999 V2000
   -3.0810   -4.6905    1.1314 H   0  0  0  0  0  0  0  0  0  0  0  0
   -3.1250   -3.8125    0.4805 C   0  0  0  0  0  0  0  0  0  0  0  0
   -3.8853   -3.1286    0.8648 H   0  0  0  0  0  0  0  0  0  0  0  0
   -3.4068   -4.1339   -0.5250 H   0  0  0  0  0  0  0  0  0  0  0  0
   -1.7743   -3.1223    0.4441 C   0  0  0  0  0  0  0  0  0  0  0  0
   -0.8357   -3.5909    1.0623 O   0  0  0  0  0  0  0  0  0  0  0  0
   -1.6175   -1.9670   -0.2958 N   0  0  0  0  0  0  0  0  0  0  0  0
   -2.4621   -1.5652   -0.6908 H   0  0  0  0  0  0  0  0  0  0  0  0
   -0.4162   -1.1129   -0.2438 C   0  0  1  0  0  0  0  0  0  0  0  0
    0.4507   -1.7345   -0.4958 H   0  0  0  0  0  0  0  0  0  0  0  0
   -0.4421    0.0815   -1.2346 C   0  0  0  0  0  0  0  0  0  0  0  0
    0.2202    0.8731   -0.8662 H   0  0  0  0  0  0  0  0  0  0  0  0
   -0.0001   -0.2699   -2.1722 H   0  0  0  0  0  0  0  0  0  0  0  0
   -1.8017    0.6656   -1.5882 C   0  0  0  0  0  0  0  0  0  0  0  0
   -2.8176   -0.0887   -2.2045 C   0  0  0  0  0  0  0  0  0  0  0  0
   -2.6158   -1.1002   -2.5456 H   0  0  0  0  0  0  0  0  0  0  0  0
   -4.0824    0.4648   -2.4358 C   0  0  0  0  0  0  0  0  0  0  0  0
   -4.8461   -0.1287   -2.9273 H   0  0  0  0  0  0  0  0  0  0  0  0
   -4.3551    1.7769   -2.0467 C   0  0  0  0  0  0  0  0  0  0  0  0
   -5.5829    2.3309   -2.2669 O   0  0  0  0  0  0  0  0  0  0  0  0
   -6.1403    1.7242   -2.7781 H   0  0  0  0  0  0  0  0  0  0  0  0
   -3.3604    2.5304   -1.4290 C   0  0  0  0  0  0  0  0  0  0  0  0
   -3.5795    3.5501   -1.1282 H   0  0  0  0  0  0  0  0  0  0  0  0
   -2.0945    1.9821   -1.1981 C   0  0  0  0  0  0  0  0  0  0  0  0
   -1.3407    2.5877   -0.7021 H   0  0  0  0  0  0  0  0  0  0  0  0
   -0.1491   -0.5535    1.1709 C   0  0  0  0  0  0  0  0  0  0  0  0
    1.0000   -0.3819    1.5550 O   0  0  0  0  0  0  0  0  0  0  0  0
   -1.1911   -0.0297    1.9159 N   0  0  0  0  0  0  0  0  0  0  0  0
   -2.1255   -0.1165    1.5304 H   0  0  0  0  0  0  0  0  0  0  0  0
   -1.0121    0.6111    3.2121 C   0  0  0  0  0  0  0  0  0  0  0  0
   -0.3444    1.4746    3.1252 H   0  0  0  0  0  0  0  0  0  0  0  0
   -1.9754    0.9569    3.5989 H   0  0  0  0  0  0  0  0  0  0  0  0
   -0.5838   -0.0955    3.9307 H   0  0  0  0  0  0  0  0  0  0  0  0
  1  2  1  0  0  0  0
  2  3  1  0  0  0  0
  2  4  1  0  0  0  0
  2  5  1  0  0  0  0
  5  6  2  0  0  0  0
  5  7  1  0  0  0  0
  7  8  1  0  0  0  0
  7  9  1  0  0  0  0
  9 10  1  0  0  0  0
  9 11  1  0  0  0  0
  9 26  1  0  0  0  0
 11 12  1  0  0  0  0
 11 13  1  0  0  0  0
 11 14  1  0  0  0  0
 14 15  2  0  0  0  0
 14 24  1  0  0  0  0
 15 16  1  0  0  0  0
 15 17  1  0  0  0  0
 17 18  1  0  0  0  0
 17 19  2  0  0  0  0
 19 20  1  0  0  0  0
 19 22  1  0  0  0  0
 20 21  1  0  0  0  0
 22 23  1  0  0  0  0
 22 24  2  0  0  0  0
 24 25  1  0  0  0  0
 26 27  2  0  0  0  0
 26 28  1  0  0  0  0
 28 29  1  0  0  0  0
 28 30  1  0  0  0  0
 30 31  1  0  0  0  0
 30 32  1  0  0  0  0
 30 33  1  0  0  0  0
M  END
$$$$

  -OEChem-03222214083D

 33 33  0     1  0  0  0  0  0999 V2000
   -2.8967   -4.8087    1.2290 H   0  0  0  0  0  0  0  0  0  0  0  0
   -3.0069   -3.9270    0.5911 C   0  0  0  0  0  0  0  0  0  0  0  0
   -3.7648   -3.2715    1.0263 H   0  0  0  0  0  0  0  0  0  0  0  0
   -3.3364   -4.2489   -0.3998 H   0  0  0  0  0  0  0  0  0  0  0  0
   -1.6836   -3.1932    0.4831 C   0  0  0  0  0  0  0  0  0  0  0  0
   -0.6973   -3.6317    1.0467 O   0  0  0  0  0  0  0  0  0  0  0  0
   -1.6089   -2.0311   -0.2595 N   0  0  0  0  0  0  0  0  0  0  0  0
   -2.4938   -1.6499   -0.5750 H   0  0  0  0  0  0  0  0  0  0  0  0
   -0.4483   -1.1233   -0.2399 C   0  0  1  0  0  0  0  0  0  0  0  0
    0.4352   -1.7153   -0.5055 H   0  0  0  0  0  0  0  0  0  0  0  0
   -0.5106    0.0720   -1.2329 C   0  0  0  0  0  0  0  0  0  0  0  0
    0.1477    0.8663   -0.8626 H   0  0  0  0  0  0  0  0  0  0  0  0
   -0.0595   -0.2794   -2.1663 H   0  0  0  0  0  0  0  0  0  0  0  0
   -1.8598    0.6689   -1.6267 C   0  0  0  0  0  0  0  0  0  0  0  0
   -2.9937   -0.0861   -1.9887 C   0  0  0  0  0  0  0  0  0  0  0  0
   -2.9231   -1.1542   -2.1600 H   0  0  0  0  0  0  0  0  0  0  0  0
   -4.2257    0.5319   -2.2351 C   0  0  0  0  0  0  0  0  0  0  0  0
   -5.0776   -0.0695   -2.5339 H   0  0  0  0  0  0  0  0  0  0  0  0
   -4.3533    1.9153   -2.1171 C   0  0  0  0  0  0  0  0  0  0  0  0
   -5.5476    2.5305   -2.3569 O   0  0  0  0  0  0  0  0  0  0  0  0
   -6.2069    1.8840   -2.6524 H   0  0  0  0  0  0  0  0  0  0  0  0
   -3.2451    2.6759   -1.7585 C   0  0  0  0  0  0  0  0  0  0  0  0
   -3.3489    3.7525   -1.6687 H   0  0  0  0  0  0  0  0  0  0  0  0
   -2.0124    2.0618   -1.5140 C   0  0  0  0  0  0  0  0  0  0  0  0
   -1.1708    2.6834   -1.2203 H   0  0  0  0  0  0  0  0  0  0  0  0
   -0.1696   -0.5579    1.1706 C   0  0  0  0  0  0  0  0  0  0  0  0
    0.9812   -0.3441    1.5273 O   0  0  0  0  0  0  0  0  0  0  0  0
   -1.2119   -0.0856    1.9492 N   0  0  0  0  0  0  0  0  0  0  0  0
   -2.1504   -0.1787    1.5761 H   0  0  0  0  0  0  0  0  0  0  0  0
   -1.0187    0.5761    3.2331 C   0  0  0  0  0  0  0  0  0  0  0  0
   -0.4319    1.4922    3.1078 H   0  0  0  0  0  0  0  0  0  0  0  0
   -1.9854    0.8413    3.6717 H   0  0  0  0  0  0  0  0  0  0  0  0
   -0.4934   -0.0868    3.9288 H   0  0  0  0  0  0  0  0  0  0  0  0
  1  2  1  0  0  0  0
  2  3  1  0  0  0  0
  2  4  1  0  0  0  0
  2  5  1  0  0  0  0
  5  6  2  0  0  0  0
  5  7  1  0  0  0  0
  7  8  1  0  0  0  0
  7  9  1  0  0  0  0
  9 10  1  0  0  0  0
  9 11  1  0  0  0  0
  9 26  1  0  0  0  0
 11 12  1  0  0  0  0
 11 13  1  0  0  0  0
 11 14  1  0  0  0  0
 14 15  2  0  0  0  0
 14 24  1  0  0  0  0
 15 16  1  0  0  0  0
 15 17  1  0  0  0  0
 17 18  1  0  0  0  0
 17 19  2  0  0  0  0
 19 20  1  0  0  0  0
 19 22  1  0  0  0  0
 20 21  1  0  0  0  0
 22 23  1  0  0  0  0
 22 24  2  0  0  0  0
 24 25  1  0  0  0  0
 26 27  2  0  0  0  0
 26 28  1  0  0  0  0
 28 29  1  0  0  0  0
 28 30  1  0  0  0  0
 30 31  1  0  0  0  0
 30 32  1  0  0  0  0
 30 33  1  0  0  0  0
M  END
$$$$

  -OEChem-03222214083D

 33 33  0     1  0  0  0  0  0999 V2000
   -2.4712   -4.9556    1.2943 H   0  0  0  0  0  0  0  0  0  0  0  0
   -2.7100   -4.0914    0.6676 C   0  0  0  0  0  0  0  0  0  0  0  0
   -3.4793   -3.4979    1.1671 H   0  0  0  0  0  0  0  0  0  0  0  0
   -3.0961   -4.4480   -0.2903 H   0  0  0  0  0  0  0  0  0  0  0  0
   -1.4667   -3.2511    0.4436 C   0  0  0  0  0  0  0  0  0  0  0  0
   -0.3968   -3.6199    0.8929 O   0  0  0  0  0  0  0  0  0  0  0  0
   -1.5600   -2.0725   -0.2717 N   0  0  0  0  0  0  0  0  0  0  0  0
   -2.4986   -1.7582   -0.4762 H   0  0  0  0  0  0  0  0  0  0  0  0
   -0.4743   -1.0801   -0.3449 C   0  0  1  0  0  0  0  0  0  0  0  0
    0.4174   -1.6083   -0.7023 H   0  0  0  0  0  0  0  0  0  0  0  0
   -0.6875    0.1265   -1.3056 C   0  0  0  0  0  0  0  0  0  0  0  0
   -0.0390    0.9415   -0.9642 H   0  0  0  0  0  0  0  0  0  0  0  0
   -0.2837   -0.1909   -2.2722 H   0  0  0  0  0  0  0  0  0  0  0  0
   -2.0711    0.7012   -1.6251 C   0  0  0  0  0  0  0  0  0  0  0  0
   -3.2924   -0.0063   -1.6582 C   0  0  0  0  0  0  0  0  0  0  0  0
   -3.3429   -1.0835   -1.6077 H   0  0  0  0  0  0  0  0  0  0  0  0
   -4.5089    0.6559   -1.8673 C   0  0  0  0  0  0  0  0  0  0  0  0
   -5.4296    0.0840   -1.9077 H   0  0  0  0  0  0  0  0  0  0  0  0
   -4.5393    2.0381   -2.0425 C   0  0  0  0  0  0  0  0  0  0  0  0
   -5.7192    2.6940   -2.2456 O   0  0  0  0  0  0  0  0  0  0  0  0
   -6.4549    2.0636   -2.2786 H   0  0  0  0  0  0  0  0  0  0  0  0
   -3.3477    2.7527   -2.0195 C   0  0  0  0  0  0  0  0  0  0  0  0
   -3.3727    3.8287   -2.1593 H   0  0  0  0  0  0  0  0  0  0  0  0
   -2.1315    2.0946   -1.8142 C   0  0  0  0  0  0  0  0  0  0  0  0
   -1.2228    2.6900   -1.7902 H   0  0  0  0  0  0  0  0  0  0  0  0
   -0.0952   -0.5249    1.0470 C   0  0  0  0  0  0  0  0  0  0  0  0
    1.0679   -0.2347    1.2929 O   0  0  0  0  0  0  0  0  0  0  0  0
   -1.0823   -0.1496    1.9419 N   0  0  0  0  0  0  0  0  0  0  0  0
   -2.0452   -0.3077    1.6667 H   0  0  0  0  0  0  0  0  0  0  0  0
   -0.8044    0.4959    3.2186 C   0  0  0  0  0  0  0  0  0  0  0  0
   -0.3089    1.4595    3.0613 H   0  0  0  0  0  0  0  0  0  0  0  0
   -1.7354    0.6710    3.7655 H   0  0  0  0  0  0  0  0  0  0  0  0
   -0.1565   -0.1375    3.8335 H   0  0  0  0  0  0  0  0  0  0  0  0
  1  2  1  0  0  0  0
  2  3  1  0  0  0  0
  2  4  1  0  0  0  0
  2  5  1  0  0  0  0
  5  6  2  0  0  0  0
  5  7  1  0  0  0  0
  7  8  1  0  0  0  0
  7  9  1  0  0  0  0
  9 10  1  0  0  0  0
  9 11  1  0  0  0  0
  9 26  1  0  0  0  0
 11 12  1  0  0  0  0
 11 13  1  0  0  0  0
 11 14  1  0  0  0  0
 14 15  2  0  0  0  0
 14 24  1  0  0  0  0
 15 16  1  0  0  0  0
 15 17  1  0  0  0  0
 17 18  1  0  0  0  0
 17 19  2  0  0  0  0
 19 20  1  0  0  0  0
 19 22  1  0  0  0  0
 20 21  1  0  0  0  0
 22 23  1  0  0  0  0
 22 24  2  0  0  0  0
 24 25  1  0  0  0  0
 26 27  2  0  0  0  0
 26 28  1  0  0  0  0
 28 29  1  0  0  0  0
 28 30  1  0  0  0  0
 30 31  1  0  0  0  0
 30 32  1  0  0  0  0
 30 33  1  0  0  0  0
M  END
$$$$

  -OEChem-03222214083D

 33 33  0     1  0  0  0  0  0999 V2000
   -2.5909   -5.0735    1.0761 H   0  0  0  0  0  0  0  0  0  0  0  0
   -2.7488   -4.2080    0.4262 C   0  0  0  0  0  0  0  0  0  0  0  0
   -3.7102   -3.7528    0.6752 H   0  0  0  0  0  0  0  0  0  0  0  0
   -2.7710   -4.5485   -0.6118 H   0  0  0  0  0  0  0  0  0  0  0  0
   -1.6310   -3.2002    0.6193 C   0  0  0  0  0  0  0  0  0  0  0  0
   -0.7495   -3.4254    1.4279 O   0  0  0  0  0  0  0  0  0  0  0  0
   -1.6267   -2.0394   -0.1310 N   0  0  0  0  0  0  0  0  0  0  0  0
   -2.2842   -2.0155   -0.9041 H   0  0  0  0  0  0  0  0  0  0  0  0
   -0.4955   -1.0990   -0.1968 C   0  0  1  0  0  0  0  0  0  0  0  0
    0.3856   -1.6561   -0.5341 H   0  0  0  0  0  0  0  0  0  0  0  0
   -0.7012    0.0981   -1.1690 C   0  0  0  0  0  0  0  0  0  0  0  0
   -0.0346    0.9073   -0.8476 H   0  0  0  0  0  0  0  0  0  0  0  0
   -0.3156   -0.2435   -2.1350 H   0  0  0  0  0  0  0  0  0  0  0  0
   -2.0682    0.7174   -1.4839 C   0  0  0  0  0  0  0  0  0  0  0  0
   -3.3509    0.1831   -1.2202 C   0  0  0  0  0  0  0  0  0  0  0  0
   -3.5172   -0.7470   -0.7003 H   0  0  0  0  0  0  0  0  0  0  0  0
   -4.5117    0.8684   -1.6025 C   0  0  0  0  0  0  0  0  0  0  0  0
   -5.4833    0.4393   -1.3821 H   0  0  0  0  0  0  0  0  0  0  0  0
   -4.4271    2.0957   -2.2567 C   0  0  0  0  0  0  0  0  0  0  0  0
   -5.5534    2.7713   -2.6288 O   0  0  0  0  0  0  0  0  0  0  0  0
   -6.3444    2.2870   -2.3467 H   0  0  0  0  0  0  0  0  0  0  0  0
   -3.1767    2.6356   -2.5299 C   0  0  0  0  0  0  0  0  0  0  0  0
   -3.1122    3.5912   -3.0408 H   0  0  0  0  0  0  0  0  0  0  0  0
   -2.0158    1.9556   -2.1509 C   0  0  0  0  0  0  0  0  0  0  0  0
   -1.0549    2.4056   -2.3855 H   0  0  0  0  0  0  0  0  0  0  0  0
   -0.1259   -0.5059    1.1829 C   0  0  0  0  0  0  0  0  0  0  0  0
    1.0436   -0.2432    1.4332 O   0  0  0  0  0  0  0  0  0  0  0  0
   -1.1157   -0.0512    2.0354 N   0  0  0  0  0  0  0  0  0  0  0  0
   -2.0680   -0.3153    1.8075 H   0  0  0  0  0  0  0  0  0  0  0  0
   -0.8360    0.5461    3.3344 C   0  0  0  0  0  0  0  0  0  0  0  0
   -0.2156    1.4413    3.2188 H   0  0  0  0  0  0  0  0  0  0  0  0
   -1.7692    0.8350    3.8274 H   0  0  0  0  0  0  0  0  0  0  0  0
   -0.3094   -0.1679    3.9767 H   0  0  0  0  0  0  0  0  0  0  0  0
  1  2  1  0  0  0  0
  2  3  1  0  0  0  0
  2  4  1  0  0  0  0
  2  5  1  0  0  0  0
  5  6  2  0  0  0  0
  5  7  1  0  0  0  0
  7  8  1  0  0  0  0
  7  9  1  0  0  0  0
  9 10  1  0  0  0  0
  9 11  1  0  0  0  0
  9 26  1  0  0  0  0
 11 12  1  0  0  0  0
 11 13  1  0  0  0  0
 11 14  1  0  0  0  0
 14 15  2  0  0  0  0
 14 24  1  0  0  0  0
 15 16  1  0  0  0  0
 15 17  1  0  0  0  0
 17 18  1  0  0  0  0
 17 19  2  0  0  0  0
 19 20  1  0  0  0  0
 19 22  1  0  0  0  0
 20 21  1  0  0  0  0
 22 23  1  0  0  0  0
 22 24  2  0  0  0  0
 24 25  1  0  0  0  0
 26 27  2  0  0  0  0
 26 28  1  0  0  0  0
 28 29  1  0  0  0  0
 28 30  1  0  0  0  0
 30 31  1  0  0  0  0
 30 32  1  0  0  0  0
 30 33  1  0  0  0  0
M  END
$$$$

  -OEChem-03222214083D

 33 33  0     1  0  0  0  0  0999 V2000
   -2.7784   -4.9917    1.0307 H   0  0  0  0  0  0  0  0  0  0  0  0
   -2.8991   -4.1066    0.3994 C   0  0  0  0  0  0  0  0  0  0  0  0
   -3.8312   -3.6055    0.6710 H   0  0  0  0  0  0  0  0  0  0  0  0
   -2.9542   -4.4249   -0.6444 H   0  0  0  0  0  0  0  0  0  0  0  0
   -1.7264   -3.1637    0.5922 C   0  0  0  0  0  0  0  0  0  0  0  0
   -0.8502   -3.4432    1.3895 O   0  0  0  0  0  0  0  0  0  0  0  0
   -1.6670   -1.9938   -0.1403 N   0  0  0  0  0  0  0  0  0  0  0  0
   -2.3526   -1.8968   -0.8846 H   0  0  0  0  0  0  0  0  0  0  0  0
   -0.4959   -1.0997   -0.1907 C   0  0  1  0  0  0  0  0  0  0  0  0
    0.3616   -1.6895   -0.5341 H   0  0  0  0  0  0  0  0  0  0  0  0
   -0.6657    0.1009   -1.1628 C   0  0  0  0  0  0  0  0  0  0  0  0
    0.0133    0.8993   -0.8412 H   0  0  0  0  0  0  0  0  0  0  0  0
   -0.2860   -0.2497   -2.1280 H   0  0  0  0  0  0  0  0  0  0  0  0
   -2.0223    0.7438   -1.4625 C   0  0  0  0  0  0  0  0  0  0  0  0
   -3.2793    0.3784   -0.9309 C   0  0  0  0  0  0  0  0  0  0  0  0
   -3.3938   -0.3637   -0.1538 H   0  0  0  0  0  0  0  0  0  0  0  0
   -4.4525    1.0232   -1.3430 C   0  0  0  0  0  0  0  0  0  0  0  0
   -5.4031    0.7330   -0.9086 H   0  0  0  0  0  0  0  0  0  0  0  0
   -4.4025    2.0400   -2.2953 C   0  0  0  0  0  0  0  0  0  0  0  0
   -5.5397    2.6760   -2.7019 O   0  0  0  0  0  0  0  0  0  0  0  0
   -6.3052    2.3459   -2.2071 H   0  0  0  0  0  0  0  0  0  0  0  0
   -3.1748    2.4136   -2.8295 C   0  0  0  0  0  0  0  0  0  0  0  0
   -3.1378    3.2076   -3.5687 H   0  0  0  0  0  0  0  0  0  0  0  0
   -2.0014    1.7742   -2.4188 C   0  0  0  0  0  0  0  0  0  0  0  0
   -1.0577    2.0844   -2.8593 H   0  0  0  0  0  0  0  0  0  0  0  0
   -0.0979   -0.5360    1.1928 C   0  0  0  0  0  0  0  0  0  0  0  0
    1.0814   -0.3194    1.4399 O   0  0  0  0  0  0  0  0  0  0  0  0
   -1.0664   -0.0479    2.0516 N   0  0  0  0  0  0  0  0  0  0  0  0
   -2.0255   -0.2972    1.8382 H   0  0  0  0  0  0  0  0  0  0  0  0
   -0.7591    0.5190    3.3581 C   0  0  0  0  0  0  0  0  0  0  0  0
   -0.0732    1.3667    3.2575 H   0  0  0  0  0  0  0  0  0  0  0  0
   -1.6745    0.8734    3.8409 H   0  0  0  0  0  0  0  0  0  0  0  0
   -0.2953   -0.2359    4.0017 H   0  0  0  0  0  0  0  0  0  0  0  0
  1  2  1  0  0  0  0
  2  3  1  0  0  0  0
  2  4  1  0  0  0  0
  2  5  1  0  0  0  0
  5  6  2  0  0  0  0
  5  7  1  0  0  0  0
  7  8  1  0  0  0  0
  7  9  1  0  0  0  0
  9 10  1  0  0  0  0
  9 11  1  0  0  0  0
  9 26  1  0  0  0  0
 11 12  1  0  0  0  0
 11 13  1  0  0  0  0
 11 14  1  0  0  0  0
 14 15  2  0  0  0  0
 14 24  1  0  0  0  0
 15 16  1  0  0  0  0
 15 17  1  0  0  0  0
 17 18  1  0  0  0  0
 17 19  2  0  0  0  0
 19 20  1  0  0  0  0
 19 22  1  0  0  0  0
 20 21  1  0  0  0  0
 22 23  1  0  0  0  0
 22 24  2  0  0  0  0
 24 25  1  0  0  0  0
 26 27  2  0  0  0  0
 26 28  1  0  0  0  0
 28 29  1  0  0  0  0
 28 30  1  0  0  0  0
 30 31  1  0  0  0  0
 30 32  1  0  0  0  0
 30 33  1  0  0  0  0
M  END
$$$$

  -OEChem-03222214083D

 33 33  0     1  0  0  0  0  0999 V2000
   -2.9518   -4.8838    0.9578 H   0  0  0  0  0  0  0  0  0  0  0  0
   -3.0232   -3.9898    0.3318 C   0  0  0  0  0  0  0  0  0  0  0  0
   -3.9333   -3.4467    0.5967 H   0  0  0  0  0  0  0  0  0  0  0  0
   -3.0818   -4.2988   -0.7147 H   0  0  0  0  0  0  0  0  0  0  0  0
   -1.8087   -3.1054    0.5434 C   0  0  0  0  0  0  0  0  0  0  0  0
   -0.9491   -3.4363    1.3395 O   0  0  0  0  0  0  0  0  0  0  0  0
   -1.6938   -1.9235   -0.1614 N   0  0  0  0  0  0  0  0  0  0  0  0
   -2.3916   -1.7540   -0.8821 H   0  0  0  0  0  0  0  0  0  0  0  0
   -0.4924   -1.0670   -0.1722 C   0  0  1  0  0  0  0  0  0  0  0  0
    0.3485   -1.6862   -0.5045 H   0  0  0  0  0  0  0  0  0  0  0  0
   -0.6107    0.1221   -1.1633 C   0  0  0  0  0  0  0  0  0  0  0  0
    0.0591    0.9233   -0.8307 H   0  0  0  0  0  0  0  0  0  0  0  0
   -0.2067   -0.2414   -2.1139 H   0  0  0  0  0  0  0  0  0  0  0  0
   -1.9665    0.7516   -1.4807 C   0  0  0  0  0  0  0  0  0  0  0  0
   -3.1512    0.5698   -0.7367 C   0  0  0  0  0  0  0  0  0  0  0  0
   -3.1596    0.0111    0.1905 H   0  0  0  0  0  0  0  0  0  0  0  0
   -4.3558    1.1564   -1.1439 C   0  0  0  0  0  0  0  0  0  0  0  0
   -5.2506    1.0096   -0.5488 H   0  0  0  0  0  0  0  0  0  0  0  0
   -4.4043    1.9344   -2.3001 C   0  0  0  0  0  0  0  0  0  0  0  0
   -5.5720    2.5137   -2.7050 O   0  0  0  0  0  0  0  0  0  0  0  0
   -6.2701    2.3554   -2.0512 H   0  0  0  0  0  0  0  0  0  0  0  0
   -3.2445    2.1271   -3.0434 C   0  0  0  0  0  0  0  0  0  0  0  0
   -3.2862    2.7362   -3.9407 H   0  0  0  0  0  0  0  0  0  0  0  0
   -2.0393    1.5443   -2.6388 C   0  0  0  0  0  0  0  0  0  0  0  0
   -1.1501    1.7102   -3.2410 H   0  0  0  0  0  0  0  0  0  0  0  0
   -0.0827   -0.5332    1.2196 C   0  0  0  0  0  0  0  0  0  0  0  0
    1.1026   -0.3518    1.4664 O   0  0  0  0  0  0  0  0  0  0  0  0
   -1.0326   -0.0202    2.0847 N   0  0  0  0  0  0  0  0  0  0  0  0
   -1.9946   -0.2757    1.8949 H   0  0  0  0  0  0  0  0  0  0  0  0
   -0.6973    0.5179    3.3968 C   0  0  0  0  0  0  0  0  0  0  0  0
    0.0223    1.3381    3.3025 H   0  0  0  0  0  0  0  0  0  0  0  0
   -1.5953    0.9043    3.8881 H   0  0  0  0  0  0  0  0  0  0  0  0
   -0.2614   -0.2622    4.0298 H   0  0  0  0  0  0  0  0  0  0  0  0
  1  2  1  0  0  0  0
  2  3  1  0  0  0  0
  2  4  1  0  0  0  0
  2  5  1  0  0  0  0
  5  6  2  0  0  0  0
  5  7  1  0  0  0  0
  7  8  1  0  0  0  0
  7  9  1  0  0  0  0
  9 10  1  0  0  0  0
  9 11  1  0  0  0  0
  9 26  1  0  0  0  0
 11 12  1  0  0  0  0
 11 13  1  0  0  0  0
 11 14  1  0  0  0  0
 14 15  2  0  0  0  0
 14 24  1  0  0  0  0
 15 16  1  0  0  0  0
 15 17  1  0  0  0  0
 17 18  1  0  0  0  0
 17 19  2  0  0  0  0
 19 20  1  0  0  0  0
 19 22  1  0  0  0  0
 20 21  1  0  0  0  0
 22 23  1  0  0  0  0
 22 24  2  0  0  0  0
 24 25  1  0  0  0  0
 26 27  2  0  0  0  0
 26 28  1  0  0  0  0
 28 29  1  0  0  0  0
 28 30  1  0  0  0  0
 30 31  1  0  0  0  0
 30 32  1  0  0  0  0
 30 33  1  0  0  0  0
M  END
$$$$

  -OEChem-03222214083D

 33 33  0     1  0  0  0  0  0999 V2000
   -3.0825   -4.7934    0.8688 H   0  0  0  0  0  0  0  0  0  0  0  0
   -3.1221   -3.8841    0.2621 C   0  0  0  0  0  0  0  0  0  0  0  0
   -4.0157   -3.3174    0.5342 H   0  0  0  0  0  0  0  0  0  0  0  0
   -3.1847   -4.1675   -0.7914 H   0  0  0  0  0  0  0  0  0  0  0  0
   -1.8816   -3.0437    0.4999 C   0  0  0  0  0  0  0  0  0  0  0  0
   -1.0379   -3.4159    1.2953 O   0  0  0  0  0  0  0  0  0  0  0  0
   -1.7261   -1.8490   -0.1734 N   0  0  0  0  0  0  0  0  0  0  0  0
   -2.4301   -1.6193   -0.8716 H   0  0  0  0  0  0  0  0  0  0  0  0
   -0.5032   -1.0234   -0.1467 C   0  0  1  0  0  0  0  0  0  0  0  0
    0.3206   -1.6719   -0.4666 H   0  0  0  0  0  0  0  0  0  0  0  0
   -0.5671    0.1423   -1.1666 C   0  0  0  0  0  0  0  0  0  0  0  0
    0.0855    0.9520   -0.8218 H   0  0  0  0  0  0  0  0  0  0  0  0
   -0.1268   -0.2353   -2.0952 H   0  0  0  0  0  0  0  0  0  0  0  0
   -1.9242    0.7451   -1.5137 C   0  0  0  0  0  0  0  0  0  0  0  0
   -3.0141    0.7966   -0.6238 C   0  0  0  0  0  0  0  0  0  0  0  0
   -2.9189    0.4355    0.3922 H   0  0  0  0  0  0  0  0  0  0  0  0
   -4.2420    1.3400   -1.0198 C   0  0  0  0  0  0  0  0  0  0  0  0
   -5.0648    1.3742   -0.3138 H   0  0  0  0  0  0  0  0  0  0  0  0
   -4.4044    1.8405   -2.3116 C   0  0  0  0  0  0  0  0  0  0  0  0
   -5.5957    2.3741   -2.7105 O   0  0  0  0  0  0  0  0  0  0  0  0
   -6.2153    2.4069   -1.9656 H   0  0  0  0  0  0  0  0  0  0  0  0
   -3.3351    1.7990   -3.2014 C   0  0  0  0  0  0  0  0  0  0  0  0
   -3.4665    2.1933   -4.2040 H   0  0  0  0  0  0  0  0  0  0  0  0
   -2.1058    1.2600   -2.8080 C   0  0  0  0  0  0  0  0  0  0  0  0
   -1.2879    1.2426   -3.5228 H   0  0  0  0  0  0  0  0  0  0  0  0
   -0.0772   -0.5206    1.2523 C   0  0  0  0  0  0  0  0  0  0  0  0
    1.1133   -0.3558    1.4848 O   0  0  0  0  0  0  0  0  0  0  0  0
   -1.0036    0.0070    2.1338 N   0  0  0  0  0  0  0  0  0  0  0  0
   -1.9647   -0.2758    1.9805 H   0  0  0  0  0  0  0  0  0  0  0  0
   -0.6336    0.5100    3.4512 C   0  0  0  0  0  0  0  0  0  0  0  0
    0.1069    1.3121    3.3633 H   0  0  0  0  0  0  0  0  0  0  0  0
   -1.5130    0.9113    3.9636 H   0  0  0  0  0  0  0  0  0  0  0  0
   -0.2101   -0.2941    4.0623 H   0  0  0  0  0  0  0  0  0  0  0  0
  1  2  1  0  0  0  0
  2  3  1  0  0  0  0
  2  4  1  0  0  0  0
  2  5  1  0  0  0  0
  5  6  2  0  0  0  0
  5  7  1  0  0  0  0
  7  8  1  0  0  0  0
  7  9  1  0  0  0  0
  9 10  1  0  0  0  0
  9 11  1  0  0  0  0
  9 26  1  0  0  0  0
 11 12  1  0  0  0  0
 11 13  1  0  0  0  0
 11 14  1  0  0  0  0
 14 15  2  0  0  0  0
 14 24  1  0  0  0  0
 15 16  1  0  0  0  0
 15 17  1  0  0  0  0
 17 18  1  0  0  0  0
 17 19  2  0  0  0  0
 19 20  1  0  0  0  0
 19 22  1  0  0  0  0
 20 21  1  0  0  0  0
 22 23  1  0  0  0  0
 22 24  2  0  0  0  0
 24 25  1  0  0  0  0
 26 27  2  0  0  0  0
 26 28  1  0  0  0  0
 28 29  1  0  0  0  0
 28 30  1  0  0  0  0
 30 31  1  0  0  0  0
 30 32  1  0  0  0  0
 30 33  1  0  0  0  0
M  END
$$$$

  -OEChem-03222214083D

 33 33  0     1  0  0  0  0  0999 V2000
   -3.2103   -4.6841    0.8044 H   0  0  0  0  0  0  0  0  0  0  0  0
   -3.2133   -3.7656    0.2109 C   0  0  0  0  0  0  0  0  0  0  0  0
   -4.0784   -3.1633    0.4977 H   0  0  0  0  0  0  0  0  0  0  0  0
   -3.2966   -4.0308   -0.8458 H   0  0  0  0  0  0  0  0  0  0  0  0
   -1.9344   -2.9853    0.4506 C   0  0  0  0  0  0  0  0  0  0  0  0
   -1.0976   -3.4096    1.2273 O   0  0  0  0  0  0  0  0  0  0  0  0
   -1.7367   -1.7828   -0.1965 N   0  0  0  0  0  0  0  0  0  0  0  0
   -2.4489   -1.4922   -0.8631 H   0  0  0  0  0  0  0  0  0  0  0  0
   -0.4947   -0.9889   -0.1398 C   0  0  1  0  0  0  0  0  0  0  0  0
    0.3147   -1.6607   -0.4478 H   0  0  0  0  0  0  0  0  0  0  0  0
   -0.5116    0.1612   -1.1766 C   0  0  0  0  0  0  0  0  0  0  0  0
    0.1332    0.9728   -0.8226 H   0  0  0  0  0  0  0  0  0  0  0  0
   -0.0497   -0.2253   -2.0907 H   0  0  0  0  0  0  0  0  0  0  0  0
   -1.8694    0.7489   -1.5358 C   0  0  0  0  0  0  0  0  0  0  0  0
   -2.8399    1.0728   -0.5716 C   0  0  0  0  0  0  0  0  0  0  0  0
   -2.6257    0.9658    0.4835 H   0  0  0  0  0  0  0  0  0  0  0  0
   -4.0926    1.5682   -0.9514 C   0  0  0  0  0  0  0  0  0  0  0  0
   -4.8211    1.8207   -0.1884 H   0  0  0  0  0  0  0  0  0  0  0  0
   -4.3986    1.7426   -2.3013 C   0  0  0  0  0  0  0  0  0  0  0  0
   -5.6167    2.2239   -2.6856 O   0  0  0  0  0  0  0  0  0  0  0  0
   -6.1384    2.4773   -1.9084 H   0  0  0  0  0  0  0  0  0  0  0  0
   -3.4468    1.4247   -3.2663 C   0  0  0  0  0  0  0  0  0  0  0  0
   -3.6896    1.5651   -4.3149 H   0  0  0  0  0  0  0  0  0  0  0  0
   -2.1917    0.9346   -2.8903 C   0  0  0  0  0  0  0  0  0  0  0  0
   -1.4686    0.6948   -3.6649 H   0  0  0  0  0  0  0  0  0  0  0  0
   -0.0701   -0.5205    1.2710 C   0  0  0  0  0  0  0  0  0  0  0  0
    1.1210   -0.3751    1.5127 O   0  0  0  0  0  0  0  0  0  0  0  0
   -0.9924    0.0144    2.1520 N   0  0  0  0  0  0  0  0  0  0  0  0
   -1.9551   -0.2623    1.9922 H   0  0  0  0  0  0  0  0  0  0  0  0
   -0.6232    0.4897    3.4798 C   0  0  0  0  0  0  0  0  0  0  0  0
    0.1255    1.2859    3.4096 H   0  0  0  0  0  0  0  0  0  0  0  0
   -1.5014    0.8897    3.9952 H   0  0  0  0  0  0  0  0  0  0  0  0
   -0.2105   -0.3299    4.0773 H   0  0  0  0  0  0  0  0  0  0  0  0
  1  2  1  0  0  0  0
  2  3  1  0  0  0  0
  2  4  1  0  0  0  0
  2  5  1  0  0  0  0
  5  6  2  0  0  0  0
  5  7  1  0  0  0  0
  7  8  1  0  0  0  0
  7  9  1  0  0  0  0
  9 10  1  0  0  0  0
  9 11  1  0  0  0  0
  9 26  1  0  0  0  0
 11 12  1  0  0  0  0
 11 13  1  0  0  0  0
 11 14  1  0  0  0  0
 14 15  2  0  0  0  0
 14 24  1  0  0  0  0
 15 16  1  0  0  0  0
 15 17  1  0  0  0  0
 17 18  1  0  0  0  0
 17 19  2  0  0  0  0
 19 20  1  0  0  0  0
 19 22  1  0  0  0  0
 20 21  1  0  0  0  0
 22 23  1  0  0  0  0
 22 24  2  0  0  0  0
 24 25  1  0  0  0  0
 26 27  2  0  0  0  0
 26 28  1  0  0  0  0
 28 29  1  0  0  0  0
 28 30  1  0  0  0  0
 30 31  1  0  0  0  0
 30 32  1  0  0  0  0
 30 33  1  0  0  0  0
M  END
$$$$

  -OEChem-03222214083D

 33 33  0     1  0  0  0  0  0999 V2000
   -3.3093   -4.5802    0.7792 H   0  0  0  0  0  0  0  0  0  0  0  0
   -3.2746   -3.6652    0.1810 C   0  0  0  0  0  0  0  0  0  0  0  0
   -4.1095   -3.0231    0.4712 H   0  0  0  0  0  0  0  0  0  0  0  0
   -3.3775   -3.9307   -0.8739 H   0  0  0  0  0  0  0  0  0  0  0  0
   -1.9601   -2.9425    0.4069 C   0  0  0  0  0  0  0  0  0  0  0  0
   -1.1351   -3.4027    1.1758 O   0  0  0  0  0  0  0  0  0  0  0  0
   -1.7144   -1.7524   -0.2463 N   0  0  0  0  0  0  0  0  0  0  0  0
   -2.4319   -1.4139   -0.8842 H   0  0  0  0  0  0  0  0  0  0  0  0
   -0.4570   -0.9844   -0.1631 C   0  0  1  0  0  0  0  0  0  0  0  0
    0.3503   -1.6695   -0.4454 H   0  0  0  0  0  0  0  0  0  0  0  0
   -0.4364    0.1624   -1.2028 C   0  0  0  0  0  0  0  0  0  0  0  0
    0.2077    0.9710   -0.8394 H   0  0  0  0  0  0  0  0  0  0  0  0
    0.0326   -0.2225   -2.1141 H   0  0  0  0  0  0  0  0  0  0  0  0
   -1.7965    0.7399   -1.5563 C   0  0  0  0  0  0  0  0  0  0  0  0
   -2.6223    1.3338   -0.5880 C   0  0  0  0  0  0  0  0  0  0  0  0
   -2.2658    1.4736    0.4256 H   0  0  0  0  0  0  0  0  0  0  0  0
   -3.9027    1.7897   -0.9223 C   0  0  0  0  0  0  0  0  0  0  0  0
   -4.5197    2.2549   -0.1608 H   0  0  0  0  0  0  0  0  0  0  0  0
   -4.3775    1.6525   -2.2273 C   0  0  0  0  0  0  0  0  0  0  0  0
   -5.6255    2.0889   -2.5649 O   0  0  0  0  0  0  0  0  0  0  0  0
   -6.0363    2.5452   -1.8142 H   0  0  0  0  0  0  0  0  0  0  0  0
   -3.5665    1.0657   -3.1957 C   0  0  0  0  0  0  0  0  0  0  0  0
   -3.9415    0.9660   -4.2096 H   0  0  0  0  0  0  0  0  0  0  0  0
   -2.2847    0.6119   -2.8669 C   0  0  0  0  0  0  0  0  0  0  0  0
   -1.6744    0.1523   -3.6396 H   0  0  0  0  0  0  0  0  0  0  0  0
   -0.0780   -0.5164    1.2594 C   0  0  0  0  0  0  0  0  0  0  0  0
    1.1040   -0.3956    1.5527 O   0  0  0  0  0  0  0  0  0  0  0  0
   -1.0279    0.0412    2.0958 N   0  0  0  0  0  0  0  0  0  0  0  0
   -1.9908   -0.1941    1.8786 H   0  0  0  0  0  0  0  0  0  0  0  0
   -0.7137    0.5042    3.4418 C   0  0  0  0  0  0  0  0  0  0  0  0
    0.0642    1.2744    3.4116 H   0  0  0  0  0  0  0  0  0  0  0  0
   -1.6035    0.9339    3.9112 H   0  0  0  0  0  0  0  0  0  0  0  0
   -0.3611   -0.3288    4.0590 H   0  0  0  0  0  0  0  0  0  0  0  0
  1  2  1  0  0  0  0
  2  3  1  0  0  0  0
  2  4  1  0  0  0  0
  2  5  1  0  0  0  0
  5  6  2  0  0  0  0
  5  7  1  0  0  0  0
  7  8  1  0  0  0  0
  7  9  1  0  0  0  0
  9 10  1  0  0  0  0
  9 11  1  0  0  0  0
  9 26  1  0  0  0  0
 11 12  1  0  0  0  0
 11 13  1  0  0  0  0
 11 14  1  0  0  0  0
 14 15  2  0  0  0  0
 14 24  1  0  0  0  0
 15 16  1  0  0  0  0
 15 17  1  0  0  0  0
 17 18  1  0  0  0  0
 17 19  2  0  0  0  0
 19 20  1  0  0  0  0
 19 22  1  0  0  0  0
 20 21  1  0  0  0  0
 22 23  1  0  0  0  0
 22 24  2  0  0  0  0
 24 25  1  0  0  0  0
 26 27  2  0  0  0  0
 26 28  1  0  0  0  0
 28 29  1  0  0  0  0
 28 30  1  0  0  0  0
 30 31  1  0  0  0  0
 30 32  1  0  0  0  0
 30 33  1  0  0  0  0
M  END
$$$$

  -OEChem-03222214083D

 33 33  0     1  0  0  0  0  0999 V2000
   -3.3406   -4.5373    0.8074 H   0  0  0  0  0  0  0  0  0  0  0  0
   -3.2863   -3.6359    0.1903 C   0  0  0  0  0  0  0  0  0  0  0  0
   -4.0996   -2.9642    0.4750 H   0  0  0  0  0  0  0  0  0  0  0  0
   -3.4069   -3.9195   -0.8581 H   0  0  0  0  0  0  0  0  0  0  0  0
   -1.9493   -2.9472    0.3893 C   0  0  0  0  0  0  0  0  0  0  0  0
   -1.1297   -3.4171    1.1580 O   0  0  0  0  0  0  0  0  0  0  0  0
   -1.6742   -1.7812   -0.2947 N   0  0  0  0  0  0  0  0  0  0  0  0
   -2.3988   -1.4204   -0.9120 H   0  0  0  0  0  0  0  0  0  0  0  0
   -0.4148   -1.0171   -0.1971 C   0  0  1  0  0  0  0  0  0  0  0  0
    0.4057   -1.6978   -0.4504 H   0  0  0  0  0  0  0  0  0  0  0  0
   -0.3849    0.1368   -1.2274 C   0  0  0  0  0  0  0  0  0  0  0  0
    0.2612    0.9428   -0.8619 H   0  0  0  0  0  0  0  0  0  0  0  0
    0.0767   -0.2392   -2.1461 H   0  0  0  0  0  0  0  0  0  0  0  0
   -1.7526    0.6981   -1.5622 C   0  0  0  0  0  0  0  0  0  0  0  0
   -2.4279    1.5341   -0.6598 C   0  0  0  0  0  0  0  0  0  0  0  0
   -1.9459    1.8435    0.2632 H   0  0  0  0  0  0  0  0  0  0  0  0
   -3.7168    1.9974   -0.9485 C   0  0  0  0  0  0  0  0  0  0  0  0
   -4.2201    2.6492   -0.2423 H   0  0  0  0  0  0  0  0  0  0  0  0
   -4.3454    1.6263   -2.1385 C   0  0  0  0  0  0  0  0  0  0  0  0
   -5.6028    2.0688   -2.4302 O   0  0  0  0  0  0  0  0  0  0  0  0
   -5.9015    2.6988   -1.7560 H   0  0  0  0  0  0  0  0  0  0  0  0
   -3.6806    0.7967   -3.0393 C   0  0  0  0  0  0  0  0  0  0  0  0
   -4.1756    0.5172   -3.9640 H   0  0  0  0  0  0  0  0  0  0  0  0
   -2.3911    0.3339   -2.7579 C   0  0  0  0  0  0  0  0  0  0  0  0
   -1.8913   -0.3149   -3.4721 H   0  0  0  0  0  0  0  0  0  0  0  0
   -0.0979   -0.5126    1.2273 C   0  0  0  0  0  0  0  0  0  0  0  0
    1.0685   -0.3950    1.5788 O   0  0  0  0  0  0  0  0  0  0  0  0
   -1.0880    0.0697    1.9983 N   0  0  0  0  0  0  0  0  0  0  0  0
   -2.0425   -0.1282    1.7151 H   0  0  0  0  0  0  0  0  0  0  0  0
   -0.8458    0.5684    3.3462 C   0  0  0  0  0  0  0  0  0  0  0  0
   -0.0754    1.3468    3.3355 H   0  0  0  0  0  0  0  0  0  0  0  0
   -1.7624    0.9979    3.7614 H   0  0  0  0  0  0  0  0  0  0  0  0
   -0.5152   -0.2459    3.9997 H   0  0  0  0  0  0  0  0  0  0  0  0
  1  2  1  0  0  0  0
  2  3  1  0  0  0  0
  2  4  1  0  0  0  0
  2  5  1  0  0  0  0
  5  6  2  0  0  0  0
  5  7  1  0  0  0  0
  7  8  1  0  0  0  0
  7  9  1  0  0  0  0
  9 10  1  0  0  0  0
  9 11  1  0  0  0  0
  9 26  1  0  0  0  0
 11 12  1  0  0  0  0
 11 13  1  0  0  0  0
 11 14  1  0  0  0  0
 14 15  2  0  0  0  0
 14 24  1  0  0  0  0
 15 16  1  0  0  0  0
 15 17  1  0  0  0  0
 17 18  1  0  0  0  0
 17 19  2  0  0  0  0
 19 20  1  0  0  0  0
 19 22  1  0  0  0  0
 20 21  1  0  0  0  0
 22 23  1  0  0  0  0
 22 24  2  0  0  0  0
 24 25  1  0  0  0  0
 26 27  2  0  0  0  0
 26 28  1  0  0  0  0
 28 29  1  0  0  0  0
 28 30  1  0  0  0  0
 30 31  1  0  0  0  0
 30 32  1  0  0  0  0
 30 33  1  0  0  0  0
M  END
$$$$

  -OEChem-03222214083D

 33 33  0     1  0  0  0  0  0999 V2000
   -3.3040   -4.5553    0.8964 H   0  0  0  0  0  0  0  0  0  0  0  0
   -3.2587   -3.6695    0.2563 C   0  0  0  0  0  0  0  0  0  0  0  0
   -4.0549   -2.9815    0.5507 H   0  0  0  0  0  0  0  0  0  0  0  0
   -3.4165   -3.9767   -0.7804 H   0  0  0  0  0  0  0  0  0  0  0  0
   -1.9084   -2.9925    0.3968 C   0  0  0  0  0  0  0  0  0  0  0  0
   -1.0683   -3.4596    1.1449 O   0  0  0  0  0  0  0  0  0  0  0  0
   -1.6429   -1.8421   -0.3177 N   0  0  0  0  0  0  0  0  0  0  0  0
   -2.3925   -1.4686   -0.8957 H   0  0  0  0  0  0  0  0  0  0  0  0
   -0.3935   -1.0607   -0.2234 C   0  0  1  0  0  0  0  0  0  0  0  0
    0.4440   -1.7250   -0.4642 H   0  0  0  0  0  0  0  0  0  0  0  0
   -0.3790    0.1083   -1.2366 C   0  0  0  0  0  0  0  0  0  0  0  0
    0.2693    0.9137   -0.8727 H   0  0  0  0  0  0  0  0  0  0  0  0
    0.0696   -0.2530   -2.1675 H   0  0  0  0  0  0  0  0  0  0  0  0
   -1.7562    0.6548   -1.5496 C   0  0  0  0  0  0  0  0  0  0  0  0
   -2.2940    1.6986   -0.7828 C   0  0  0  0  0  0  0  0  0  0  0  0
   -1.7171    2.1263    0.0334 H   0  0  0  0  0  0  0  0  0  0  0  0
   -3.5743    2.1927   -1.0586 C   0  0  0  0  0  0  0  0  0  0  0  0
   -3.9773    2.9965   -0.4516 H   0  0  0  0  0  0  0  0  0  0  0  0
   -4.3225    1.6561   -2.1088 C   0  0  0  0  0  0  0  0  0  0  0  0
   -5.5722    2.1280   -2.3868 O   0  0  0  0  0  0  0  0  0  0  0  0
   -5.7766    2.8890   -1.8212 H   0  0  0  0  0  0  0  0  0  0  0  0
   -3.7856    0.6314   -2.8858 C   0  0  0  0  0  0  0  0  0  0  0  0
   -4.3697    0.2314   -3.7087 H   0  0  0  0  0  0  0  0  0  0  0  0
   -2.5068    0.1340   -2.6157 C   0  0  0  0  0  0  0  0  0  0  0  0
   -2.0987   -0.6578   -3.2384 H   0  0  0  0  0  0  0  0  0  0  0  0
   -0.1157   -0.5210    1.1961 C   0  0  0  0  0  0  0  0  0  0  0  0
    1.0387   -0.3892    1.5803 O   0  0  0  0  0  0  0  0  0  0  0  0
   -1.1345    0.0648    1.9268 N   0  0  0  0  0  0  0  0  0  0  0  0
   -2.0795   -0.1030    1.5962 H   0  0  0  0  0  0  0  0  0  0  0  0
   -0.9389    0.6241    3.2584 C   0  0  0  0  0  0  0  0  0  0  0  0
   -0.1724    1.4060    3.2383 H   0  0  0  0  0  0  0  0  0  0  0  0
   -1.8705    1.0662    3.6238 H   0  0  0  0  0  0  0  0  0  0  0  0
   -0.6256   -0.1576    3.9585 H   0  0  0  0  0  0  0  0  0  0  0  0
  1  2  1  0  0  0  0
  2  3  1  0  0  0  0
  2  4  1  0  0  0  0
  2  5  1  0  0  0  0
  5  6  2  0  0  0  0
  5  7  1  0  0  0  0
  7  8  1  0  0  0  0
  7  9  1  0  0  0  0
  9 10  1  0  0  0  0
  9 11  1  0  0  0  0
  9 26  1  0  0  0  0
 11 12  1  0  0  0  0
 11 13  1  0  0  0  0
 11 14  1  0  0  0  0
 14 15  2  0  0  0  0
 14 24  1  0  0  0  0
 15 16  1  0  0  0  0
 15 17  1  0  0  0  0
 17 18  1  0  0  0  0
 17 19  2  0  0  0  0
 19 20  1  0  0  0  0
 19 22  1  0  0  0  0
 20 21  1  0  0  0  0
 22 23  1  0  0  0  0
 22 24  2  0  0  0  0
 24 25  1  0  0  0  0
 26 27  2  0  0  0  0
 26 28  1  0  0  0  0
 28 29  1  0  0  0  0
 28 30  1  0  0  0  0
 30 31  1  0  0  0  0
 30 32  1  0  0  0  0
 30 33  1  0  0  0  0
M  END
$$$$

  -OEChem-03222214083D

 33 33  0     1  0  0  0  0  0999 V2000
   -3.2190   -4.6121    1.0008 H   0  0  0  0  0  0  0  0  0  0  0  0
   -3.2058   -3.7317    0.3519 C   0  0  0  0  0  0  0  0  0  0  0  0
   -3.9944   -3.0467    0.6726 H   0  0  0  0  0  0  0  0  0  0  0  0
   -3.4026   -4.0488   -0.6749 H   0  0  0  0  0  0  0  0  0  0  0  0
   -1.8557   -3.0443    0.4316 C   0  0  0  0  0  0  0  0  0  0  0  0
   -0.9807   -3.5013    1.1450 O   0  0  0  0  0  0  0  0  0  0  0  0
   -1.6291   -1.8976   -0.3024 N   0  0  0  0  0  0  0  0  0  0  0  0
   -2.4151   -1.5204   -0.8256 H   0  0  0  0  0  0  0  0  0  0  0  0
   -0.3970   -1.0874   -0.2334 C   0  0  1  0  0  0  0  0  0  0  0  0
    0.4539   -1.7326   -0.4792 H   0  0  0  0  0  0  0  0  0  0  0  0
   -0.4115    0.0915   -1.2365 C   0  0  0  0  0  0  0  0  0  0  0  0
    0.2429    0.8950   -0.8794 H   0  0  0  0  0  0  0  0  0  0  0  0
    0.0218   -0.2624   -2.1776 H   0  0  0  0  0  0  0  0  0  0  0  0
   -1.7928    0.6369   -1.5393 C   0  0  0  0  0  0  0  0  0  0  0  0
   -2.2003    1.8574   -0.9807 C   0  0  0  0  0  0  0  0  0  0  0  0
   -1.5402    2.3921   -0.3023 H   0  0  0  0  0  0  0  0  0  0  0  0
   -3.4609    2.3884   -1.2774 C   0  0  0  0  0  0  0  0  0  0  0  0
   -3.7634    3.3269   -0.8249 H   0  0  0  0  0  0  0  0  0  0  0  0
   -4.3171    1.7169   -2.1525 C   0  0  0  0  0  0  0  0  0  0  0  0
   -5.5481    2.2246   -2.4497 O   0  0  0  0  0  0  0  0  0  0  0  0
   -5.6613    3.0932   -2.0328 H   0  0  0  0  0  0  0  0  0  0  0  0
   -3.9051    0.5220   -2.7392 C   0  0  0  0  0  0  0  0  0  0  0  0
   -4.5694    0.0193   -3.4351 H   0  0  0  0  0  0  0  0  0  0  0  0
   -2.6454   -0.0112   -2.4488 C   0  0  0  0  0  0  0  0  0  0  0  0
   -2.3283   -0.9281   -2.9388 H   0  0  0  0  0  0  0  0  0  0  0  0
   -0.1254   -0.5291    1.1802 C   0  0  0  0  0  0  0  0  0  0  0  0
    1.0261   -0.3711    1.5631 O   0  0  0  0  0  0  0  0  0  0  0  0
   -1.1568    0.0375    1.9080 N   0  0  0  0  0  0  0  0  0  0  0  0
   -2.0977   -0.1234    1.5636 H   0  0  0  0  0  0  0  0  0  0  0  0
   -0.9746    0.6223    3.2299 C   0  0  0  0  0  0  0  0  0  0  0  0
   -0.2540    1.4459    3.1886 H   0  0  0  0  0  0  0  0  0  0  0  0
   -1.9250    1.0141    3.6045 H   0  0  0  0  0  0  0  0  0  0  0  0
   -0.6079   -0.1324    3.9339 H   0  0  0  0  0  0  0  0  0  0  0  0
  1  2  1  0  0  0  0
  2  3  1  0  0  0  0
  2  4  1  0  0  0  0
  2  5  1  0  0  0  0
  5  6  2  0  0  0  0
  5  7  1  0  0  0  0
  7  8  1  0  0  0  0
  7  9  1  0  0  0  0
  9 10  1  0  0  0  0
  9 11  1  0  0  0  0
  9 26  1  0  0  0  0
 11 12  1  0  0  0  0
 11 13  1  0  0  0  0
 11 14  1  0  0  0  0
 14 15  2  0  0  0  0
 14 24  1  0  0  0  0
 15 16  1  0  0  0  0
 15 17  1  0  0  0  0
 17 18  1  0  0  0  0
 17 19  2  0  0  0  0
 19 20  1  0  0  0  0
 19 22  1  0  0  0  0
 20 21  1  0  0  0  0
 22 23  1  0  0  0  0
 22 24  2  0  0  0  0
 24 25  1  0  0  0  0
 26 27  2  0  0  0  0
 26 28  1  0  0  0  0
 28 29  1  0  0  0  0
 28 30  1  0  0  0  0
 30 31  1  0  0  0  0
 30 32  1  0  0  0  0
 30 33  1  0  0  0  0
M  END
$$$$

  -OEChem-03222214083D

 33 33  0     1  0  0  0  0  0999 V2000
   -3.1041   -4.6879    1.1110 H   0  0  0  0  0  0  0  0  0  0  0  0
   -3.1409   -3.8054    0.4659 C   0  0  0  0  0  0  0  0  0  0  0  0
   -3.9209   -3.1339    0.8325 H   0  0  0  0  0  0  0  0  0  0  0  0
   -3.3894   -4.1228   -0.5497 H   0  0  0  0  0  0  0  0  0  0  0  0
   -1.7991   -3.0977    0.4734 C   0  0  0  0  0  0  0  0  0  0  0  0
   -0.8764   -3.5495    1.1276 O   0  0  0  0  0  0  0  0  0  0  0  0
   -1.6332   -1.9427   -0.2643 N   0  0  0  0  0  0  0  0  0  0  0  0
   -2.4623   -1.5626   -0.7119 H   0  0  0  0  0  0  0  0  0  0  0  0
   -0.4243   -1.0978   -0.2283 C   0  0  1  0  0  0  0  0  0  0  0  0
    0.4348   -1.7233   -0.4952 H   0  0  0  0  0  0  0  0  0  0  0  0
   -0.4717    0.0888   -1.2247 C   0  0  0  0  0  0  0  0  0  0  0  0
    0.1872    0.8902   -0.8713 H   0  0  0  0  0  0  0  0  0  0  0  0
   -0.0470   -0.2597   -2.1716 H   0  0  0  0  0  0  0  0  0  0  0  0
   -1.8523    0.6433   -1.5308 C   0  0  0  0  0  0  0  0  0  0  0  0
   -2.1383    1.9854   -1.2349 C   0  0  0  0  0  0  0  0  0  0  0  0
   -1.4022    2.5974   -0.7202 H   0  0  0  0  0  0  0  0  0  0  0  0
   -3.3751    2.5458   -1.5750 C   0  0  0  0  0  0  0  0  0  0  0  0
   -3.5824    3.5779   -1.3128 H   0  0  0  0  0  0  0  0  0  0  0  0
   -4.3279    1.7839   -2.2529 C   0  0  0  0  0  0  0  0  0  0  0  0
   -5.5376    2.3175   -2.5902 O   0  0  0  0  0  0  0  0  0  0  0  0
   -5.5771    3.2499   -2.3256 H   0  0  0  0  0  0  0  0  0  0  0  0
   -4.0305    0.4711   -2.6104 C   0  0  0  0  0  0  0  0  0  0  0  0
   -4.7633   -0.1003   -3.1715 H   0  0  0  0  0  0  0  0  0  0  0  0
   -2.7946   -0.0906   -2.2748 C   0  0  0  0  0  0  0  0  0  0  0  0
   -2.5642   -1.0959   -2.6162 H   0  0  0  0  0  0  0  0  0  0  0  0
   -0.1301   -0.5387    1.1807 C   0  0  0  0  0  0  0  0  0  0  0  0
    1.0267   -0.3645    1.5400 O   0  0  0  0  0  0  0  0  0  0  0  0
   -1.1560   -0.0057    1.9411 N   0  0  0  0  0  0  0  0  0  0  0  0
   -2.1014   -0.1507    1.6024 H   0  0  0  0  0  0  0  0  0  0  0  0
   -0.9542    0.5875    3.2565 C   0  0  0  0  0  0  0  0  0  0  0  0
   -0.2818    1.4491    3.1901 H   0  0  0  0  0  0  0  0  0  0  0  0
   -1.9093    0.9261    3.6691 H   0  0  0  0  0  0  0  0  0  0  0  0
   -0.5200   -0.1466    3.9435 H   0  0  0  0  0  0  0  0  0  0  0  0
  1  2  1  0  0  0  0
  2  3  1  0  0  0  0
  2  4  1  0  0  0  0
  2  5  1  0  0  0  0
  5  6  2  0  0  0  0
  5  7  1  0  0  0  0
  7  8  1  0  0  0  0
  7  9  1  0  0  0  0
  9 10  1  0  0  0  0
  9 11  1  0  0  0  0
  9 26  1  0  0  0  0
 11 12  1  0  0  0  0
 11 13  1  0  0  0  0
 11 14  1  0  0  0  0
 14 15  2  0  0  0  0
 14 24  1  0  0  0  0
 15 16  1  0  0  0  0
 15 17  1  0  0  0  0
 17 18  1  0  0  0  0
 17 19  2  0  0  0  0
 19 20  1  0  0  0  0
 19 22  1  0  0  0  0
 20 21  1  0  0  0  0
 22 23  1  0  0  0  0
 22 24  2  0  0  0  0
 24 25  1  0  0  0  0
 26 27  2  0  0  0  0
 26 28  1  0  0  0  0
 28 29  1  0  0  0  0
 28 30  1  0  0  0  0
 30 31  1  0  0  0  0
 30 32  1  0  0  0  0
 30 33  1  0  0  0  0
M  END
$$$$

  -OEChem-03222214083D

 33 33  0     1  0  0  0  0  0999 V2000
   -2.9336   -4.7841    1.2434 H   0  0  0  0  0  0  0  0  0  0  0  0
   -3.0409   -3.9052    0.6013 C   0  0  0  0  0  0  0  0  0  0  0  0
   -3.8110   -3.2550    1.0227 H   0  0  0  0  0  0  0  0  0  0  0  0
   -3.3529   -4.2329   -0.3931 H   0  0  0  0  0  0  0  0  0  0  0  0
   -1.7217   -3.1612    0.5113 C   0  0  0  0  0  0  0  0  0  0  0  0
   -0.7397   -3.5972    1.0848 O   0  0  0  0  0  0  0  0  0  0  0  0
   -1.6424   -1.9931   -0.2220 N   0  0  0  0  0  0  0  0  0  0  0  0
   -2.5182   -1.6186   -0.5728 H   0  0  0  0  0  0  0  0  0  0  0  0
   -0.4667   -1.1029   -0.2247 C   0  0  1  0  0  0  0  0  0  0  0  0
    0.4017   -1.7025   -0.5207 H   0  0  0  0  0  0  0  0  0  0  0  0
   -0.5540    0.0956   -1.2094 C   0  0  0  0  0  0  0  0  0  0  0  0
    0.1077    0.8939   -0.8545 H   0  0  0  0  0  0  0  0  0  0  0  0
   -0.1352   -0.2442   -2.1621 H   0  0  0  0  0  0  0  0  0  0  0  0
   -1.9285    0.6699   -1.5260 C   0  0  0  0  0  0  0  0  0  0  0  0
   -2.0892    2.0663   -1.5174 C   0  0  0  0  0  0  0  0  0  0  0  0
   -1.2761    2.7048   -1.1828 H   0  0  0  0  0  0  0  0  0  0  0  0
   -3.2962    2.6596   -1.9046 C   0  0  0  0  0  0  0  0  0  0  0  0
   -3.4012    3.7381   -1.8527 H   0  0  0  0  0  0  0  0  0  0  0  0
   -4.3485    1.8695   -2.3656 C   0  0  0  0  0  0  0  0  0  0  0  0
   -5.5307    2.4337   -2.7485 O   0  0  0  0  0  0  0  0  0  0  0  0
   -5.4878    3.3980   -2.6509 H   0  0  0  0  0  0  0  0  0  0  0  0
   -4.1748    0.4928   -2.4696 C   0  0  0  0  0  0  0  0  0  0  0  0
   -4.9789   -0.1081   -2.8825 H   0  0  0  0  0  0  0  0  0  0  0  0
   -2.9682   -0.1006   -2.0843 C   0  0  0  0  0  0  0  0  0  0  0  0
   -2.8426   -1.1616   -2.2735 H   0  0  0  0  0  0  0  0  0  0  0  0
   -0.1407   -0.5521    1.1814 C   0  0  0  0  0  0  0  0  0  0  0  0
    1.0218   -0.3440    1.5025 O   0  0  0  0  0  0  0  0  0  0  0  0
   -1.1552   -0.0701    1.9896 N   0  0  0  0  0  0  0  0  0  0  0  0
   -2.1077   -0.2133    1.6716 H   0  0  0  0  0  0  0  0  0  0  0  0
   -0.9223    0.5403    3.2919 C   0  0  0  0  0  0  0  0  0  0  0  0
   -0.2962    1.4329    3.1905 H   0  0  0  0  0  0  0  0  0  0  0  0
   -1.8725    0.8345    3.7474 H   0  0  0  0  0  0  0  0  0  0  0  0
   -0.4213   -0.1675    3.9610 H   0  0  0  0  0  0  0  0  0  0  0  0
  1  2  1  0  0  0  0
  2  3  1  0  0  0  0
  2  4  1  0  0  0  0
  2  5  1  0  0  0  0
  5  6  2  0  0  0  0
  5  7  1  0  0  0  0
  7  8  1  0  0  0  0
  7  9  1  0  0  0  0
  9 10  1  0  0  0  0
  9 11  1  0  0  0  0
  9 26  1  0  0  0  0
 11 12  1  0  0  0  0
 11 13  1  0  0  0  0
 11 14  1  0  0  0  0
 14 15  2  0  0  0  0
 14 24  1  0  0  0  0
 15 16  1  0  0  0  0
 15 17  1  0  0  0  0
 17 18  1  0  0  0  0
 17 19  2  0  0  0  0
 19 20  1  0  0  0  0
 19 22  1  0  0  0  0
 20 21  1  0  0  0  0
 22 23  1  0  0  0  0
 22 24  2  0  0  0  0
 24 25  1  0  0  0  0
 26 27  2  0  0  0  0
 26 28  1  0  0  0  0
 28 29  1  0  0  0  0
 28 30  1  0  0  0  0
 30 31  1  0  0  0  0
 30 32  1  0  0  0  0
 30 33  1  0  0  0  0
M  END
$$$$

  -OEChem-03222214083D

 33 33  0     1  0  0  0  0  0999 V2000
   -2.5588   -4.8794    1.3651 H   0  0  0  0  0  0  0  0  0  0  0  0
   -2.7864   -4.0187    0.7294 C   0  0  0  0  0  0  0  0  0  0  0  0
   -3.5328   -3.3993    1.2324 H   0  0  0  0  0  0  0  0  0  0  0  0
   -3.1982   -4.3795   -0.2163 H   0  0  0  0  0  0  0  0  0  0  0  0
   -1.5262   -3.2135    0.4728 C   0  0  0  0  0  0  0  0  0  0  0  0
   -0.4564   -3.6103    0.8983 O   0  0  0  0  0  0  0  0  0  0  0  0
   -1.6023   -2.0315   -0.2385 N   0  0  0  0  0  0  0  0  0  0  0  0
   -2.5368   -1.6885   -0.4257 H   0  0  0  0  0  0  0  0  0  0  0  0
   -0.4908   -1.0696   -0.3418 C   0  0  1  0  0  0  0  0  0  0  0  0
    0.3761   -1.6182   -0.7286 H   0  0  0  0  0  0  0  0  0  0  0  0
   -0.7118    0.1429   -1.2922 C   0  0  0  0  0  0  0  0  0  0  0  0
   -0.0472    0.9530   -0.9707 H   0  0  0  0  0  0  0  0  0  0  0  0
   -0.3501   -0.1710   -2.2765 H   0  0  0  0  0  0  0  0  0  0  0  0
   -2.1090    0.7138   -1.5311 C   0  0  0  0  0  0  0  0  0  0  0  0
   -2.1949    2.0910   -1.8097 C   0  0  0  0  0  0  0  0  0  0  0  0
   -1.3069    2.7136   -1.7402 H   0  0  0  0  0  0  0  0  0  0  0  0
   -3.4115    2.6988   -2.1400 C   0  0  0  0  0  0  0  0  0  0  0  0
   -3.4451    3.7703   -2.3055 H   0  0  0  0  0  0  0  0  0  0  0  0
   -4.5655    1.9288   -2.2644 C   0  0  0  0  0  0  0  0  0  0  0  0
   -5.7607    2.5033   -2.5865 O   0  0  0  0  0  0  0  0  0  0  0  0
   -5.6504    3.4598   -2.7028 H   0  0  0  0  0  0  0  0  0  0  0  0
   -4.4848    0.5510   -2.0977 C   0  0  0  0  0  0  0  0  0  0  0  0
   -5.3754   -0.0481   -2.2586 H   0  0  0  0  0  0  0  0  0  0  0  0
   -3.2678   -0.0565   -1.7705 C   0  0  0  0  0  0  0  0  0  0  0  0
   -3.2583   -1.1376   -1.7768 H   0  0  0  0  0  0  0  0  0  0  0  0
   -0.0579   -0.5271    1.0389 C   0  0  0  0  0  0  0  0  0  0  0  0
    1.1183   -0.2641    1.2514 O   0  0  0  0  0  0  0  0  0  0  0  0
   -1.0105   -0.1260    1.9593 N   0  0  0  0  0  0  0  0  0  0  0  0
   -1.9829   -0.2958    1.7267 H   0  0  0  0  0  0  0  0  0  0  0  0
   -0.6803    0.4715    3.2466 C   0  0  0  0  0  0  0  0  0  0  0  0
   -0.1289    1.4069    3.1057 H   0  0  0  0  0  0  0  0  0  0  0  0
   -1.5939    0.6899    3.8076 H   0  0  0  0  0  0  0  0  0  0  0  0
   -0.0653   -0.2142    3.8391 H   0  0  0  0  0  0  0  0  0  0  0  0
  1  2  1  0  0  0  0
  2  3  1  0  0  0  0
  2  4  1  0  0  0  0
  2  5  1  0  0  0  0
  5  6  2  0  0  0  0
  5  7  1  0  0  0  0
  7  8  1  0  0  0  0
  7  9  1  0  0  0  0
  9 10  1  0  0  0  0
  9 11  1  0  0  0  0
  9 26  1  0  0  0  0
 11 12  1  0  0  0  0
 11 13  1  0  0  0  0
 11 14  1  0  0  0  0
 14 15  2  0  0  0  0
 14 24  1  0  0  0  0
 15 16  1  0  0  0  0
 15 17  1  0  0  0  0
 17 18  1  0  0  0  0
 17 19  2  0  0  0  0
 19 20  1  0  0  0  0
 19 22  1  0  0  0  0
 20 21  1  0  0  0  0
 22 23  1  0  0  0  0
 22 24  2  0  0  0  0
 24 25  1  0  0  0  0
 26 27  2  0  0  0  0
 26 28  1  0  0  0  0
 28 29  1  0  0  0  0
 28 30  1  0  0  0  0
 30 31  1  0  0  0  0
 30 32  1  0  0  0  0
 30 33  1  0  0  0  0
M  END
$$$$

  -OEChem-03222214083D

 33 33  0     1  0  0  0  0  0999 V2000
   -2.4257   -5.1313    0.9743 H   0  0  0  0  0  0  0  0  0  0  0  0
   -2.6085   -4.2680    0.3279 C   0  0  0  0  0  0  0  0  0  0  0  0
   -3.5874   -3.8481    0.5711 H   0  0  0  0  0  0  0  0  0  0  0  0
   -2.6102   -4.6027   -0.7123 H   0  0  0  0  0  0  0  0  0  0  0  0
   -1.5281   -3.2230    0.5355 C   0  0  0  0  0  0  0  0  0  0  0  0
   -0.6415   -3.4242    1.3451 O   0  0  0  0  0  0  0  0  0  0  0  0
   -1.5572   -2.0579   -0.2075 N   0  0  0  0  0  0  0  0  0  0  0  0
   -2.2191   -2.0418   -0.9775 H   0  0  0  0  0  0  0  0  0  0  0  0
   -0.4655   -1.0700   -0.2466 C   0  0  1  0  0  0  0  0  0  0  0  0
    0.4447   -1.5873   -0.5705 H   0  0  0  0  0  0  0  0  0  0  0  0
   -0.7047    0.1258   -1.2122 C   0  0  0  0  0  0  0  0  0  0  0  0
   -0.0783    0.9590   -0.8721 H   0  0  0  0  0  0  0  0  0  0  0  0
   -0.2889   -0.1896   -2.1743 H   0  0  0  0  0  0  0  0  0  0  0  0
   -2.0921    0.6883   -1.5433 C   0  0  0  0  0  0  0  0  0  0  0  0
   -2.0878    1.9523   -2.1630 C   0  0  0  0  0  0  0  0  0  0  0  0
   -1.1424    2.4355   -2.3954 H   0  0  0  0  0  0  0  0  0  0  0  0
   -3.2737    2.6130   -2.4998 C   0  0  0  0  0  0  0  0  0  0  0  0
   -3.2249    3.5829   -2.9831 H   0  0  0  0  0  0  0  0  0  0  0  0
   -4.5039    2.0289   -2.2114 C   0  0  0  0  0  0  0  0  0  0  0  0
   -5.6708    2.6596   -2.5318 O   0  0  0  0  0  0  0  0  0  0  0  0
   -5.4836    3.5137   -2.9515 H   0  0  0  0  0  0  0  0  0  0  0  0
   -4.5379    0.7922   -1.5776 C   0  0  0  0  0  0  0  0  0  0  0  0
   -5.5022    0.3534   -1.3417 H   0  0  0  0  0  0  0  0  0  0  0  0
   -3.3538    0.1283   -1.2364 C   0  0  0  0  0  0  0  0  0  0  0  0
   -3.4895   -0.8066   -0.7163 H   0  0  0  0  0  0  0  0  0  0  0  0
   -0.1491   -0.4719    1.1441 C   0  0  0  0  0  0  0  0  0  0  0  0
    1.0023   -0.1594    1.4200 O   0  0  0  0  0  0  0  0  0  0  0  0
   -1.1754   -0.0662    1.9780 N   0  0  0  0  0  0  0  0  0  0  0  0
   -2.1119   -0.3624    1.7243 H   0  0  0  0  0  0  0  0  0  0  0  0
   -0.9521    0.5359    3.2857 C   0  0  0  0  0  0  0  0  0  0  0  0
   -0.3600    1.4522    3.1907 H   0  0  0  0  0  0  0  0  0  0  0  0
   -1.9080    0.7909    3.7531 H   0  0  0  0  0  0  0  0  0  0  0  0
   -0.4199   -0.1623    3.9404 H   0  0  0  0  0  0  0  0  0  0  0  0
  1  2  1  0  0  0  0
  2  3  1  0  0  0  0
  2  4  1  0  0  0  0
  2  5  1  0  0  0  0
  5  6  2  0  0  0  0
  5  7  1  0  0  0  0
  7  8  1  0  0  0  0
  7  9  1  0  0  0  0
  9 10  1  0  0  0  0
  9 11  1  0  0  0  0
  9 26  1  0  0  0  0
 11 12  1  0  0  0  0
 11 13  1  0  0  0  0
 11 14  1  0  0  0  0
 14 15  2  0  0  0  0
 14 24  1  0  0  0  0
 15 16  1  0  0  0  0
 15 17  1  0  0  0  0
 17 18  1  0  0  0  0
 17 19  2  0  0  0  0
 19 20  1  0  0  0  0
 19 22  1  0  0  0  0
 20 21  1  0  0  0  0
 22 23  1  0  0  0  0
 22 24  2  0  0  0  0
 24 25  1  0  0  0  0
 26 27  2  0  0  0  0
 26 28  1  0  0  0  0
 28 29  1  0  0  0  0
 28 30  1  0  0  0  0
 30 31  1  0  0  0  0
 30 32  1  0  0  0  0
 30 33  1  0  0  0  0
M  END
$$$$

  -OEChem-03222214083D

 33 33  0     1  0  0  0  0  0999 V2000
   -2.9154   -4.9321    0.8421 H   0  0  0  0  0  0  0  0  0  0  0  0
   -2.9978   -4.0199    0.2443 C   0  0  0  0  0  0  0  0  0  0  0  0
   -3.9063   -3.4884    0.5374 H   0  0  0  0  0  0  0  0  0  0  0  0
   -3.0694   -4.2974   -0.8099 H   0  0  0  0  0  0  0  0  0  0  0  0
   -1.7840   -3.1373    0.4677 C   0  0  0  0  0  0  0  0  0  0  0  0
   -0.9146   -3.4853    1.2460 O   0  0  0  0  0  0  0  0  0  0  0  0
   -1.6786   -1.9368   -0.2061 N   0  0  0  0  0  0  0  0  0  0  0  0
   -2.3952   -1.7321   -0.8983 H   0  0  0  0  0  0  0  0  0  0  0  0
   -0.4959   -1.0563   -0.1644 C   0  0  1  0  0  0  0  0  0  0  0  0
    0.3609   -1.6583   -0.4878 H   0  0  0  0  0  0  0  0  0  0  0  0
   -0.6205    0.1190   -1.1619 C   0  0  0  0  0  0  0  0  0  0  0  0
    0.1887    0.8272   -0.9497 H   0  0  0  0  0  0  0  0  0  0  0  0
   -0.4229   -0.2938   -2.1562 H   0  0  0  0  0  0  0  0  0  0  0  0
   -1.9215    0.9106   -1.2671 C   0  0  0  0  0  0  0  0  0  0  0  0
   -1.9421    1.9585   -2.2027 C   0  0  0  0  0  0  0  0  0  0  0  0
   -1.0679    2.1462   -2.8202 H   0  0  0  0  0  0  0  0  0  0  0  0
   -3.0715    2.7685   -2.3642 C   0  0  0  0  0  0  0  0  0  0  0  0
   -3.0573    3.5626   -3.1030 H   0  0  0  0  0  0  0  0  0  0  0  0
   -4.2016    2.5573   -1.5762 C   0  0  0  0  0  0  0  0  0  0  0  0
   -5.3107    3.3392   -1.7203 O   0  0  0  0  0  0  0  0  0  0  0  0
   -5.1528    4.0222   -2.3905 H   0  0  0  0  0  0  0  0  0  0  0  0
   -4.1911    1.5443   -0.6229 C   0  0  0  0  0  0  0  0  0  0  0  0
   -5.0690    1.4018   -0.0009 H   0  0  0  0  0  0  0  0  0  0  0  0
   -3.0632    0.7332   -0.4582 C   0  0  0  0  0  0  0  0  0  0  0  0
   -3.1094   -0.0136    0.3222 H   0  0  0  0  0  0  0  0  0  0  0  0
   -0.1065   -0.5312    1.2371 C   0  0  0  0  0  0  0  0  0  0  0  0
    1.0756   -0.3386    1.4914 O   0  0  0  0  0  0  0  0  0  0  0  0
   -1.0616   -0.0422    2.1101 N   0  0  0  0  0  0  0  0  0  0  0  0
   -2.0261   -0.2731    1.9031 H   0  0  0  0  0  0  0  0  0  0  0  0
   -0.7379    0.5053    3.4212 C   0  0  0  0  0  0  0  0  0  0  0  0
   -0.0163    1.3240    3.3291 H   0  0  0  0  0  0  0  0  0  0  0  0
   -1.6405    0.8968    3.8999 H   0  0  0  0  0  0  0  0  0  0  0  0
   -0.3099   -0.2711    4.0639 H   0  0  0  0  0  0  0  0  0  0  0  0
  1  2  1  0  0  0  0
  2  3  1  0  0  0  0
  2  4  1  0  0  0  0
  2  5  1  0  0  0  0
  5  6  2  0  0  0  0
  5  7  1  0  0  0  0
  7  8  1  0  0  0  0
  7  9  1  0  0  0  0
  9 10  1  0  0  0  0
  9 11  1  0  0  0  0
  9 26  1  0  0  0  0
 11 12  1  0  0  0  0
 11 13  1  0  0  0  0
 11 14  1  0  0  0  0
 14 15  2  0  0  0  0
 14 24  1  0  0  0  0
 15 16  1  0  0  0  0
 15 17  1  0  0  0  0
 17 18  1  0  0  0  0
 17 19  2  0  0  0  0
 19 20  1  0  0  0  0
 19 22  1  0  0  0  0
 20 21  1  0  0  0  0
 22 23  1  0  0  0  0
 22 24  2  0  0  0  0
 24 25  1  0  0  0  0
 26 27  2  0  0  0  0
 26 28  1  0  0  0  0
 28 29  1  0  0  0  0
 28 30  1  0  0  0  0
 30 31  1  0  0  0  0
 30 32  1  0  0  0  0
 30 33  1  0  0  0  0
M  END
$$$$

  -OEChem-03222214083D

 33 33  0     1  0  0  0  0  0999 V2000
   -2.9858   -4.8824    0.7733 H   0  0  0  0  0  0  0  0  0  0  0  0
   -3.0536   -3.9550    0.1976 C   0  0  0  0  0  0  0  0  0  0  0  0
   -3.9580   -3.4199    0.4969 H   0  0  0  0  0  0  0  0  0  0  0  0
   -3.1205   -4.2056   -0.8638 H   0  0  0  0  0  0  0  0  0  0  0  0
   -1.8306   -3.0933    0.4503 C   0  0  0  0  0  0  0  0  0  0  0  0
   -0.9596   -3.4782    1.2095 O   0  0  0  0  0  0  0  0  0  0  0  0
   -1.7159   -1.8682   -0.1747 N   0  0  0  0  0  0  0  0  0  0  0  0
   -2.4501   -1.6121   -0.8305 H   0  0  0  0  0  0  0  0  0  0  0  0
   -0.5220   -1.0049   -0.1122 C   0  0  1  0  0  0  0  0  0  0  0  0
    0.3169   -1.6269   -0.4453 H   0  0  0  0  0  0  0  0  0  0  0  0
   -0.6132    0.1550   -1.1299 C   0  0  0  0  0  0  0  0  0  0  0  0
    0.1889    0.8686   -0.9102 H   0  0  0  0  0  0  0  0  0  0  0  0
   -0.3929   -0.2727   -2.1134 H   0  0  0  0  0  0  0  0  0  0  0  0
   -1.9159    0.9353   -1.2589 C   0  0  0  0  0  0  0  0  0  0  0  0
   -2.0679    1.7482   -2.3947 C   0  0  0  0  0  0  0  0  0  0  0  0
   -1.2760    1.7914   -3.1376 H   0  0  0  0  0  0  0  0  0  0  0  0
   -3.2246    2.5120   -2.5898 C   0  0  0  0  0  0  0  0  0  0  0  0
   -3.3134    3.1290   -3.4774 H   0  0  0  0  0  0  0  0  0  0  0  0
   -4.2516    2.4800   -1.6471 C   0  0  0  0  0  0  0  0  0  0  0  0
   -5.3850    3.2198   -1.8216 O   0  0  0  0  0  0  0  0  0  0  0  0
   -5.3089    3.7631   -2.6214 H   0  0  0  0  0  0  0  0  0  0  0  0
   -4.1145    1.6864   -0.5124 C   0  0  0  0  0  0  0  0  0  0  0  0
   -4.9155    1.6740    0.2199 H   0  0  0  0  0  0  0  0  0  0  0  0
   -2.9585    0.9246   -0.3130 C   0  0  0  0  0  0  0  0  0  0  0  0
   -2.9017    0.3336    0.5898 H   0  0  0  0  0  0  0  0  0  0  0  0
   -0.0831   -0.5244    1.2918 C   0  0  0  0  0  0  0  0  0  0  0  0
    1.1082   -0.3322    1.4980 O   0  0  0  0  0  0  0  0  0  0  0  0
   -0.9941   -0.0453    2.2157 N   0  0  0  0  0  0  0  0  0  0  0  0
   -1.9574   -0.3292    2.0803 H   0  0  0  0  0  0  0  0  0  0  0  0
   -0.6014    0.4769    3.5187 C   0  0  0  0  0  0  0  0  0  0  0  0
    0.0971    1.3123    3.4028 H   0  0  0  0  0  0  0  0  0  0  0  0
   -1.4799    0.8388    4.0612 H   0  0  0  0  0  0  0  0  0  0  0  0
   -0.1200   -0.3055    4.1150 H   0  0  0  0  0  0  0  0  0  0  0  0
  1  2  1  0  0  0  0
  2  3  1  0  0  0  0
  2  4  1  0  0  0  0
  2  5  1  0  0  0  0
  5  6  2  0  0  0  0
  5  7  1  0  0  0  0
  7  8  1  0  0  0  0
  7  9  1  0  0  0  0
  9 10  1  0  0  0  0
  9 11  1  0  0  0  0
  9 26  1  0  0  0  0
 11 12  1  0  0  0  0
 11 13  1  0  0  0  0
 11 14  1  0  0  0  0
 14 15  2  0  0  0  0
 14 24  1  0  0  0  0
 15 16  1  0  0  0  0
 15 17  1  0  0  0  0
 17 18  1  0  0  0  0
 17 19  2  0  0  0  0
 19 20  1  0  0  0  0
 19 22  1  0  0  0  0
 20 21  1  0  0  0  0
 22 23  1  0  0  0  0
 22 24  2  0  0  0  0
 24 25  1  0  0  0  0
 26 27  2  0  0  0  0
 26 28  1  0  0  0  0
 28 29  1  0  0  0  0
 28 30  1  0  0  0  0
 30 31  1  0  0  0  0
 30 32  1  0  0  0  0
 30 33  1  0  0  0  0
M  END
$$$$

  -OEChem-03222214083D

 33 33  0     1  0  0  0  0  0999 V2000
   -3.0771   -4.7980    0.8159 H   0  0  0  0  0  0  0  0  0  0  0  0
   -3.1363   -3.8643    0.2494 C   0  0  0  0  0  0  0  0  0  0  0  0
   -4.0052   -3.2985    0.5935 H   0  0  0  0  0  0  0  0  0  0  0  0
   -3.2599   -4.1031   -0.8096 H   0  0  0  0  0  0  0  0  0  0  0  0
   -1.8732   -3.0493    0.4511 C   0  0  0  0  0  0  0  0  0  0  0  0
   -0.9729   -3.4838    1.1469 O   0  0  0  0  0  0  0  0  0  0  0  0
   -1.7564   -1.8084   -0.1409 N   0  0  0  0  0  0  0  0  0  0  0  0
   -2.5284   -1.4958   -0.7252 H   0  0  0  0  0  0  0  0  0  0  0  0
   -0.5482   -0.9659   -0.0922 C   0  0  1  0  0  0  0  0  0  0  0  0
    0.2658   -1.6132   -0.4395 H   0  0  0  0  0  0  0  0  0  0  0  0
   -0.6179    0.1658   -1.1420 C   0  0  0  0  0  0  0  0  0  0  0  0
    0.1863    0.8802   -0.9343 H   0  0  0  0  0  0  0  0  0  0  0  0
   -0.3918   -0.2896   -2.1117 H   0  0  0  0  0  0  0  0  0  0  0  0
   -1.9186    0.9458   -1.2841 C   0  0  0  0  0  0  0  0  0  0  0  0
   -2.2322    1.4711   -2.5497 C   0  0  0  0  0  0  0  0  0  0  0  0
   -1.5580    1.3109   -3.3866 H   0  0  0  0  0  0  0  0  0  0  0  0
   -3.4064    2.2035   -2.7585 C   0  0  0  0  0  0  0  0  0  0  0  0
   -3.6242    2.5926   -3.7473 H   0  0  0  0  0  0  0  0  0  0  0  0
   -4.2854    2.4330   -1.7008 C   0  0  0  0  0  0  0  0  0  0  0  0
   -5.4332    3.1470   -1.8876 O   0  0  0  0  0  0  0  0  0  0  0  0
   -5.4717    3.4858   -2.7955 H   0  0  0  0  0  0  0  0  0  0  0  0
   -3.9811    1.9346   -0.4380 C   0  0  0  0  0  0  0  0  0  0  0  0
   -4.6636    2.1305    0.3827 H   0  0  0  0  0  0  0  0  0  0  0  0
   -2.8073    1.2041   -0.2261 C   0  0  0  0  0  0  0  0  0  0  0  0
   -2.6101    0.8536    0.7748 H   0  0  0  0  0  0  0  0  0  0  0  0
   -0.0501   -0.5286    1.3065 C   0  0  0  0  0  0  0  0  0  0  0  0
    1.1504   -0.3520    1.4688 O   0  0  0  0  0  0  0  0  0  0  0  0
   -0.9146   -0.0603    2.2791 N   0  0  0  0  0  0  0  0  0  0  0  0
   -1.8823   -0.3490    2.1832 H   0  0  0  0  0  0  0  0  0  0  0  0
   -0.4578    0.4046    3.5837 C   0  0  0  0  0  0  0  0  0  0  0  0
    0.2600    1.2240    3.4706 H   0  0  0  0  0  0  0  0  0  0  0  0
   -1.3041    0.7706    4.1725 H   0  0  0  0  0  0  0  0  0  0  0  0
    0.0233   -0.4112    4.1335 H   0  0  0  0  0  0  0  0  0  0  0  0
  1  2  1  0  0  0  0
  2  3  1  0  0  0  0
  2  4  1  0  0  0  0
  2  5  1  0  0  0  0
  5  6  2  0  0  0  0
  5  7  1  0  0  0  0
  7  8  1  0  0  0  0
  7  9  1  0  0  0  0
  9 10  1  0  0  0  0
  9 11  1  0  0  0  0
  9 26  1  0  0  0  0
 11 12  1  0  0  0  0
 11 13  1  0  0  0  0
 11 14  1  0  0  0  0
 14 15  2  0  0  0  0
 14 24  1  0  0  0  0
 15 16  1  0  0  0  0
 15 17  1  0  0  0  0
 17 18  1  0  0  0  0
 17 19  2  0  0  0  0
 19 20  1  0  0  0  0
 19 22  1  0  0  0  0
 20 21  1  0  0  0  0
 22 23  1  0  0  0  0
 22 24  2  0  0  0  0
 24 25  1  0  0  0  0
 26 27  2  0  0  0  0
 26 28  1  0  0  0  0
 28 29  1  0  0  0  0
 28 30  1  0  0  0  0
 30 31  1  0  0  0  0
 30 32  1  0  0  0  0
 30 33  1  0  0  0  0
M  END
$$$$

  -OEChem-03222214083D

 33 33  0     1  0  0  0  0  0999 V2000
   -3.1262   -4.7461    0.7871 H   0  0  0  0  0  0  0  0  0  0  0  0
   -3.1698   -3.8069    0.2282 C   0  0  0  0  0  0  0  0  0  0  0  0
   -4.0107   -3.2160    0.5991 H   0  0  0  0  0  0  0  0  0  0  0  0
   -3.3303   -4.0337   -0.8285 H   0  0  0  0  0  0  0  0  0  0  0  0
   -1.8742   -3.0363    0.4010 C   0  0  0  0  0  0  0  0  0  0  0  0
   -0.9665   -3.5113    1.0600 O   0  0  0  0  0  0  0  0  0  0  0  0
   -1.7348   -1.7918   -0.1789 N   0  0  0  0  0  0  0  0  0  0  0  0
   -2.5230   -1.4336   -0.7128 H   0  0  0  0  0  0  0  0  0  0  0  0
   -0.5192   -0.9619   -0.1083 C   0  0  1  0  0  0  0  0  0  0  0  0
    0.2973   -1.6107   -0.4466 H   0  0  0  0  0  0  0  0  0  0  0  0
   -0.5747    0.1714   -1.1577 C   0  0  0  0  0  0  0  0  0  0  0  0
    0.2229    0.8891   -0.9372 H   0  0  0  0  0  0  0  0  0  0  0  0
   -0.3360   -0.2750   -2.1283 H   0  0  0  0  0  0  0  0  0  0  0  0
   -1.8845    0.9357   -1.2827 C   0  0  0  0  0  0  0  0  0  0  0  0
   -2.3918    1.1937   -2.5681 C   0  0  0  0  0  0  0  0  0  0  0  0
   -1.8727    0.8162   -3.4445 H   0  0  0  0  0  0  0  0  0  0  0  0
   -3.5734    1.9230   -2.7456 C   0  0  0  0  0  0  0  0  0  0  0  0
   -3.9521    2.0915   -3.7479 H   0  0  0  0  0  0  0  0  0  0  0  0
   -4.2528    2.4349   -1.6407 C   0  0  0  0  0  0  0  0  0  0  0  0
   -5.4069    3.1467   -1.7967 O   0  0  0  0  0  0  0  0  0  0  0  0
   -5.6081    3.2572   -2.7390 H   0  0  0  0  0  0  0  0  0  0  0  0
   -3.7332    2.2337   -0.3656 C   0  0  0  0  0  0  0  0  0  0  0  0
   -4.2483    2.6649    0.4869 H   0  0  0  0  0  0  0  0  0  0  0  0
   -2.5509    1.5077   -0.1864 C   0  0  0  0  0  0  0  0  0  0  0  0
   -2.1537    1.4316    0.8149 H   0  0  0  0  0  0  0  0  0  0  0  0
   -0.0594   -0.5558    1.3110 C   0  0  0  0  0  0  0  0  0  0  0  0
    1.1358   -0.3956    1.5207 O   0  0  0  0  0  0  0  0  0  0  0  0
   -0.9574   -0.0999    2.2588 N   0  0  0  0  0  0  0  0  0  0  0  0
   -1.9302   -0.3415    2.0994 H   0  0  0  0  0  0  0  0  0  0  0  0
   -0.5539    0.3223    3.5946 C   0  0  0  0  0  0  0  0  0  0  0  0
    0.1559    1.1541    3.5363 H   0  0  0  0  0  0  0  0  0  0  0  0
   -1.4261    0.6546    4.1655 H   0  0  0  0  0  0  0  0  0  0  0  0
   -0.0815   -0.5072    4.1310 H   0  0  0  0  0  0  0  0  0  0  0  0
  1  2  1  0  0  0  0
  2  3  1  0  0  0  0
  2  4  1  0  0  0  0
  2  5  1  0  0  0  0
  5  6  2  0  0  0  0
  5  7  1  0  0  0  0
  7  8  1  0  0  0  0
  7  9  1  0  0  0  0
  9 10  1  0  0  0  0
  9 11  1  0  0  0  0
  9 26  1  0  0  0  0
 11 12  1  0  0  0  0
 11 13  1  0  0  0  0
 11 14  1  0  0  0  0
 14 15  2  0  0  0  0
 14 24  1  0  0  0  0
 15 16  1  0  0  0  0
 15 17  1  0  0  0  0
 17 18  1  0  0  0  0
 17 19  2  0  0  0  0
 19 20  1  0  0  0  0
 19 22  1  0  0  0  0
 20 21  1  0  0  0  0
 22 23  1  0  0  0  0
 22 24  2  0  0  0  0
 24 25  1  0  0  0  0
 26 27  2  0  0  0  0
 26 28  1  0  0  0  0
 28 29  1  0  0  0  0
 28 30  1  0  0  0  0
 30 31  1  0  0  0  0
 30 32  1  0  0  0  0
 30 33  1  0  0  0  0
M  END
$$$$

  -OEChem-03222214083D

 33 33  0     1  0  0  0  0  0999 V2000
   -3.1951   -4.6641    0.8234 H   0  0  0  0  0  0  0  0  0  0  0  0
   -3.2016   -3.7404    0.2374 C   0  0  0  0  0  0  0  0  0  0  0  0
   -4.0156   -3.1042    0.5931 H   0  0  0  0  0  0  0  0  0  0  0  0
   -3.3748   -3.9905   -0.8121 H   0  0  0  0  0  0  0  0  0  0  0  0
   -1.8750   -3.0193    0.3845 C   0  0  0  0  0  0  0  0  0  0  0  0
   -0.9829   -3.5135    1.0503 O   0  0  0  0  0  0  0  0  0  0  0  0
   -1.6895   -1.7992   -0.2327 N   0  0  0  0  0  0  0  0  0  0  0  0
   -2.4765   -1.4121   -0.7477 H   0  0  0  0  0  0  0  0  0  0  0  0
   -0.4606   -0.9896   -0.1468 C   0  0  1  0  0  0  0  0  0  0  0  0
    0.3648   -1.6405   -0.4570 H   0  0  0  0  0  0  0  0  0  0  0  0
   -0.5055    0.1508   -1.1870 C   0  0  0  0  0  0  0  0  0  0  0  0
    0.2952    0.8648   -0.9647 H   0  0  0  0  0  0  0  0  0  0  0  0
   -0.2788   -0.2803   -2.1671 H   0  0  0  0  0  0  0  0  0  0  0  0
   -1.8236    0.8999   -1.2677 C   0  0  0  0  0  0  0  0  0  0  0  0
   -2.5396    0.9109   -2.4766 C   0  0  0  0  0  0  0  0  0  0  0  0
   -2.1766    0.3461   -3.3310 H   0  0  0  0  0  0  0  0  0  0  0  0
   -3.7340    1.6314   -2.5960 C   0  0  0  0  0  0  0  0  0  0  0  0
   -4.2798    1.6095   -3.5331 H   0  0  0  0  0  0  0  0  0  0  0  0
   -4.2121    2.3789   -1.5191 C   0  0  0  0  0  0  0  0  0  0  0  0
   -5.3728    3.0891   -1.6223 O   0  0  0  0  0  0  0  0  0  0  0  0
   -5.7175    3.0396   -2.5273 H   0  0  0  0  0  0  0  0  0  0  0  0
   -3.4819    2.4191   -0.3343 C   0  0  0  0  0  0  0  0  0  0  0  0
   -3.8414    3.0311    0.4870 H   0  0  0  0  0  0  0  0  0  0  0  0
   -2.2858    1.7038   -0.2137 C   0  0  0  0  0  0  0  0  0  0  0  0
   -1.7074    1.8129    0.6964 H   0  0  0  0  0  0  0  0  0  0  0  0
   -0.0701   -0.5568    1.2839 C   0  0  0  0  0  0  0  0  0  0  0  0
    1.1133   -0.4166    1.5627 O   0  0  0  0  0  0  0  0  0  0  0  0
   -1.0185   -0.0633    2.1614 N   0  0  0  0  0  0  0  0  0  0  0  0
   -1.9882   -0.2455    1.9228 H   0  0  0  0  0  0  0  0  0  0  0  0
   -0.6979    0.3877    3.5097 C   0  0  0  0  0  0  0  0  0  0  0  0
    0.0444    1.1924    3.4802 H   0  0  0  0  0  0  0  0  0  0  0  0
   -1.5963    0.7677    4.0050 H   0  0  0  0  0  0  0  0  0  0  0  0
   -0.2963   -0.4404    4.1031 H   0  0  0  0  0  0  0  0  0  0  0  0
  1  2  1  0  0  0  0
  2  3  1  0  0  0  0
  2  4  1  0  0  0  0
  2  5  1  0  0  0  0
  5  6  2  0  0  0  0
  5  7  1  0  0  0  0
  7  8  1  0  0  0  0
  7  9  1  0  0  0  0
  9 10  1  0  0  0  0
  9 11  1  0  0  0  0
  9 26  1  0  0  0  0
 11 12  1  0  0  0  0
 11 13  1  0  0  0  0
 11 14  1  0  0  0  0
 14 15  2  0  0  0  0
 14 24  1  0  0  0  0
 15 16  1  0  0  0  0
 15 17  1  0  0  0  0
 17 18  1  0  0  0  0
 17 19  2  0  0  0  0
 19 20  1  0  0  0  0
 19 22  1  0  0  0  0
 20 21  1  0  0  0  0
 22 23  1  0  0  0  0
 22 24  2  0  0  0  0
 24 25  1  0  0  0  0
 26 27  2  0  0  0  0
 26 28  1  0  0  0  0
 28 29  1  0  0  0  0
 28 30  1  0  0  0  0
 30 31  1  0  0  0  0
 30 32  1  0  0  0  0
 30 33  1  0  0  0  0
M  END
$$$$

  -OEChem-03222214083D

 33 33  0     1  0  0  0  0  0999 V2000
   -3.2662   -4.5837    0.8548 H   0  0  0  0  0  0  0  0  0  0  0  0
   -3.2436   -3.6727    0.2498 C   0  0  0  0  0  0  0  0  0  0  0  0
   -4.0262   -2.9968    0.6027 H   0  0  0  0  0  0  0  0  0  0  0  0
   -3.4408   -3.9373   -0.7917 H   0  0  0  0  0  0  0  0  0  0  0  0
   -1.8874   -3.0030    0.3650 C   0  0  0  0  0  0  0  0  0  0  0  0
   -1.0098   -3.5157    1.0359 O   0  0  0  0  0  0  0  0  0  0  0  0
   -1.6584   -1.8091   -0.2882 N   0  0  0  0  0  0  0  0  0  0  0  0
   -2.4415   -1.3933   -0.7861 H   0  0  0  0  0  0  0  0  0  0  0  0
   -0.4157   -1.0215   -0.1843 C   0  0  1  0  0  0  0  0  0  0  0  0
    0.4142   -1.6788   -0.4676 H   0  0  0  0  0  0  0  0  0  0  0  0
   -0.4359    0.1339   -1.2071 C   0  0  0  0  0  0  0  0  0  0  0  0
    0.3737    0.8348   -0.9760 H   0  0  0  0  0  0  0  0  0  0  0  0
   -0.2212   -0.2788   -2.1980 H   0  0  0  0  0  0  0  0  0  0  0  0
   -1.7517    0.8839   -1.2566 C   0  0  0  0  0  0  0  0  0  0  0  0
   -2.6379    0.6810   -2.3267 C   0  0  0  0  0  0  0  0  0  0  0  0
   -2.3909   -0.0284   -3.1120 H   0  0  0  0  0  0  0  0  0  0  0  0
   -3.8479    1.3819   -2.3909 C   0  0  0  0  0  0  0  0  0  0  0  0
   -4.5253    1.2041   -3.2194 H   0  0  0  0  0  0  0  0  0  0  0  0
   -4.1751    2.3085   -1.3991 C   0  0  0  0  0  0  0  0  0  0  0  0
   -5.3510    2.9991   -1.4502 O   0  0  0  0  0  0  0  0  0  0  0  0
   -5.8230    2.7985   -2.2732 H   0  0  0  0  0  0  0  0  0  0  0  0
   -3.2844    2.5411   -0.3535 C   0  0  0  0  0  0  0  0  0  0  0  0
   -3.5355    3.2800    0.4010 H   0  0  0  0  0  0  0  0  0  0  0  0
   -2.0733    1.8449   -0.2864 C   0  0  0  0  0  0  0  0  0  0  0  0
   -1.3778    2.0679    0.5180 H   0  0  0  0  0  0  0  0  0  0  0  0
   -0.0814   -0.5541    1.2497 C   0  0  0  0  0  0  0  0  0  0  0  0
    1.0889   -0.4397    1.5887 O   0  0  0  0  0  0  0  0  0  0  0  0
   -1.0630   -0.0164    2.0630 N   0  0  0  0  0  0  0  0  0  0  0  0
   -2.0231   -0.1283    1.7528 H   0  0  0  0  0  0  0  0  0  0  0  0
   -0.8053    0.4898    3.4049 C   0  0  0  0  0  0  0  0  0  0  0  0
   -0.0642    1.2955    3.3759 H   0  0  0  0  0  0  0  0  0  0  0  0
   -1.7269    0.8848    3.8431 H   0  0  0  0  0  0  0  0  0  0  0  0
   -0.4296   -0.3119    4.0494 H   0  0  0  0  0  0  0  0  0  0  0  0
  1  2  1  0  0  0  0
  2  3  1  0  0  0  0
  2  4  1  0  0  0  0
  2  5  1  0  0  0  0
  5  6  2  0  0  0  0
  5  7  1  0  0  0  0
  7  8  1  0  0  0  0
  7  9  1  0  0  0  0
  9 10  1  0  0  0  0
  9 11  1  0  0  0  0
  9 26  1  0  0  0  0
 11 12  1  0  0  0  0
 11 13  1  0  0  0  0
 11 14  1  0  0  0  0
 14 15  2  0  0  0  0
 14 24  1  0  0  0  0
 15 16  1  0  0  0  0
 15 17  1  0  0  0  0
 17 18  1  0  0  0  0
 17 19  2  0  0  0  0
 19 20  1  0  0  0  0
 19 22  1  0  0  0  0
 20 21  1  0  0  0  0
 22 23  1  0  0  0  0
 22 24  2  0  0  0  0
 24 25  1  0  0  0  0
 26 27  2  0  0  0  0
 26 28  1  0  0  0  0
 28 29  1  0  0  0  0
 28 30  1  0  0  0  0
 30 31  1  0  0  0  0
 30 32  1  0  0  0  0
 30 33  1  0  0  0  0
M  END
$$$$

  -OEChem-03222214083D

 33 33  0     1  0  0  0  0  0999 V2000
   -3.2959   -4.5438    0.9017 H   0  0  0  0  0  0  0  0  0  0  0  0
   -3.2636   -3.6452    0.2792 C   0  0  0  0  0  0  0  0  0  0  0  0
   -4.0199   -2.9425    0.6371 H   0  0  0  0  0  0  0  0  0  0  0  0
   -3.4925   -3.9234   -0.7523 H   0  0  0  0  0  0  0  0  0  0  0  0
   -1.8878   -3.0098    0.3515 C   0  0  0  0  0  0  0  0  0  0  0  0
   -1.0094   -3.5342    1.0124 O   0  0  0  0  0  0  0  0  0  0  0  0
   -1.6413   -1.8349   -0.3297 N   0  0  0  0  0  0  0  0  0  0  0  0
   -2.4325   -1.3948   -0.7909 H   0  0  0  0  0  0  0  0  0  0  0  0
   -0.3956   -1.0535   -0.2152 C   0  0  1  0  0  0  0  0  0  0  0  0
    0.4394   -1.7123   -0.4787 H   0  0  0  0  0  0  0  0  0  0  0  0
   -0.3911    0.1193   -1.2181 C   0  0  0  0  0  0  0  0  0  0  0  0
    0.4299    0.8037   -0.9760 H   0  0  0  0  0  0  0  0  0  0  0  0
   -0.1838   -0.2790   -2.2165 H   0  0  0  0  0  0  0  0  0  0  0  0
   -1.6988    0.8817   -1.2606 C   0  0  0  0  0  0  0  0  0  0  0  0
   -2.7187    0.5023   -2.1484 C   0  0  0  0  0  0  0  0  0  0  0  0
   -2.5638   -0.3271   -2.8332 H   0  0  0  0  0  0  0  0  0  0  0  0
   -3.9358    1.1935   -2.1682 C   0  0  0  0  0  0  0  0  0  0  0  0
   -4.7127    0.8909   -2.8625 H   0  0  0  0  0  0  0  0  0  0  0  0
   -4.1442    2.2707   -1.3044 C   0  0  0  0  0  0  0  0  0  0  0  0
   -5.3253    2.9541   -1.3142 O   0  0  0  0  0  0  0  0  0  0  0  0
   -5.8927    2.6359   -2.0334 H   0  0  0  0  0  0  0  0  0  0  0  0
   -3.1328    2.6566   -0.4270 C   0  0  0  0  0  0  0  0  0  0  0  0
   -3.3003    3.4998    0.2355 H   0  0  0  0  0  0  0  0  0  0  0  0
   -1.9132    1.9724   -0.4057 C   0  0  0  0  0  0  0  0  0  0  0  0
   -1.1332    2.2897    0.2820 H   0  0  0  0  0  0  0  0  0  0  0  0
   -0.1002   -0.5554    1.2166 C   0  0  0  0  0  0  0  0  0  0  0  0
    1.0589   -0.4532    1.5950 O   0  0  0  0  0  0  0  0  0  0  0  0
   -1.1038    0.0078    1.9850 N   0  0  0  0  0  0  0  0  0  0  0  0
   -2.0480   -0.0355    1.6146 H   0  0  0  0  0  0  0  0  0  0  0  0
   -0.8813    0.5823    3.3053 C   0  0  0  0  0  0  0  0  0  0  0  0
   -0.1535    1.3987    3.2512 H   0  0  0  0  0  0  0  0  0  0  0  0
   -1.8178    0.9808    3.7070 H   0  0  0  0  0  0  0  0  0  0  0  0
   -0.5045   -0.1809    3.9945 H   0  0  0  0  0  0  0  0  0  0  0  0
  1  2  1  0  0  0  0
  2  3  1  0  0  0  0
  2  4  1  0  0  0  0
  2  5  1  0  0  0  0
  5  6  2  0  0  0  0
  5  7  1  0  0  0  0
  7  8  1  0  0  0  0
  7  9  1  0  0  0  0
  9 10  1  0  0  0  0
  9 11  1  0  0  0  0
  9 26  1  0  0  0  0
 11 12  1  0  0  0  0
 11 13  1  0  0  0  0
 11 14  1  0  0  0  0
 14 15  2  0  0  0  0
 14 24  1  0  0  0  0
 15 16  1  0  0  0  0
 15 17  1  0  0  0  0
 17 18  1  0  0  0  0
 17 19  2  0  0  0  0
 19 20  1  0  0  0  0
 19 22  1  0  0  0  0
 20 21  1  0  0  0  0
 22 23  1  0  0  0  0
 22 24  2  0  0  0  0
 24 25  1  0  0  0  0
 26 27  2  0  0  0  0
 26 28  1  0  0  0  0
 28 29  1  0  0  0  0
 28 30  1  0  0  0  0
 30 31  1  0  0  0  0
 30 32  1  0  0  0  0
 30 33  1  0  0  0  0
M  END
$$$$

  -OEChem-03222214083D

 33 33  0     1  0  0  0  0  0999 V2000
   -3.2385   -4.5817    0.9751 H   0  0  0  0  0  0  0  0  0  0  0  0
   -3.2300   -3.6889    0.3432 C   0  0  0  0  0  0  0  0  0  0  0  0
   -3.9747   -2.9844    0.7212 H   0  0  0  0  0  0  0  0  0  0  0  0
   -3.4935   -3.9774   -0.6771 H   0  0  0  0  0  0  0  0  0  0  0  0
   -1.8537   -3.0512    0.3618 C   0  0  0  0  0  0  0  0  0  0  0  0
   -0.9537   -3.5677    0.9993 O   0  0  0  0  0  0  0  0  0  0  0  0
   -1.6302   -1.8872   -0.3464 N   0  0  0  0  0  0  0  0  0  0  0  0
   -2.4436   -1.4461   -0.7636 H   0  0  0  0  0  0  0  0  0  0  0  0
   -0.3965   -1.0860   -0.2393 C   0  0  1  0  0  0  0  0  0  0  0  0
    0.4504   -1.7348   -0.4898 H   0  0  0  0  0  0  0  0  0  0  0  0
   -0.3817    0.1033   -1.2260 C   0  0  0  0  0  0  0  0  0  0  0  0
    0.4504    0.7718   -0.9767 H   0  0  0  0  0  0  0  0  0  0  0  0
   -0.1773   -0.2881   -2.2274 H   0  0  0  0  0  0  0  0  0  0  0  0
   -1.6782    0.8883   -1.2865 C   0  0  0  0  0  0  0  0  0  0  0  0
   -2.8112    0.3882   -1.9514 C   0  0  0  0  0  0  0  0  0  0  0  0
   -2.7493   -0.5441   -2.5058 H   0  0  0  0  0  0  0  0  0  0  0  0
   -4.0178    1.0978   -1.9350 C   0  0  0  0  0  0  0  0  0  0  0  0
   -4.8796    0.7038   -2.4632 H   0  0  0  0  0  0  0  0  0  0  0  0
   -4.1090    2.3096   -1.2475 C   0  0  0  0  0  0  0  0  0  0  0  0
   -5.2797    3.0105   -1.2215 O   0  0  0  0  0  0  0  0  0  0  0  0
   -5.9380    2.5906   -1.7966 H   0  0  0  0  0  0  0  0  0  0  0  0
   -2.9920    2.8092   -0.5814 C   0  0  0  0  0  0  0  0  0  0  0  0
   -3.0711    3.7516   -0.0484 H   0  0  0  0  0  0  0  0  0  0  0  0
   -1.7828    2.1066   -0.5989 C   0  0  0  0  0  0  0  0  0  0  0  0
   -0.9262    2.5071   -0.0627 H   0  0  0  0  0  0  0  0  0  0  0  0
   -0.1301   -0.5618    1.1888 C   0  0  0  0  0  0  0  0  0  0  0  0
    1.0195   -0.4492    1.5926 O   0  0  0  0  0  0  0  0  0  0  0  0
   -1.1576   -0.0033    1.9285 N   0  0  0  0  0  0  0  0  0  0  0  0
   -2.0809    0.0019    1.5069 H   0  0  0  0  0  0  0  0  0  0  0  0
   -0.9626    0.6343    3.2238 C   0  0  0  0  0  0  0  0  0  0  0  0
   -0.2769    1.4834    3.1339 H   0  0  0  0  0  0  0  0  0  0  0  0
   -1.9177    1.0000    3.6127 H   0  0  0  0  0  0  0  0  0  0  0  0
   -0.5473   -0.0806    3.9421 H   0  0  0  0  0  0  0  0  0  0  0  0
  1  2  1  0  0  0  0
  2  3  1  0  0  0  0
  2  4  1  0  0  0  0
  2  5  1  0  0  0  0
  5  6  2  0  0  0  0
  5  7  1  0  0  0  0
  7  8  1  0  0  0  0
  7  9  1  0  0  0  0
  9 10  1  0  0  0  0
  9 11  1  0  0  0  0
  9 26  1  0  0  0  0
 11 12  1  0  0  0  0
 11 13  1  0  0  0  0
 11 14  1  0  0  0  0
 14 15  2  0  0  0  0
 14 24  1  0  0  0  0
 15 16  1  0  0  0  0
 15 17  1  0  0  0  0
 17 18  1  0  0  0  0
 17 19  2  0  0  0  0
 19 20  1  0  0  0  0
 19 22  1  0  0  0  0
 20 21  1  0  0  0  0
 22 23  1  0  0  0  0
 22 24  2  0  0  0  0
 24 25  1  0  0  0  0
 26 27  2  0  0  0  0
 26 28  1  0  0  0  0
 28 29  1  0  0  0  0
 28 30  1  0  0  0  0
 30 31  1  0  0  0  0
 30 32  1  0  0  0  0
 30 33  1  0  0  0  0
M  END
$$$$

  -OEChem-03222214083D

 33 33  0     1  0  0  0  0  0999 V2000
   -3.0931   -4.6986    1.0561 H   0  0  0  0  0  0  0  0  0  0  0  0
   -3.1408   -3.8027    0.4303 C   0  0  0  0  0  0  0  0  0  0  0  0
   -3.8838   -3.1204    0.8500 H   0  0  0  0  0  0  0  0  0  0  0  0
   -3.4485   -4.0934   -0.5770 H   0  0  0  0  0  0  0  0  0  0  0  0
   -1.7827   -3.1277    0.3832 C   0  0  0  0  0  0  0  0  0  0  0  0
   -0.8405   -3.6207    0.9769 O   0  0  0  0  0  0  0  0  0  0  0  0
   -1.6233   -1.9589   -0.3363 N   0  0  0  0  0  0  0  0  0  0  0  0
   -2.4720   -1.5352   -0.6927 H   0  0  0  0  0  0  0  0  0  0  0  0
   -0.4196   -1.1116   -0.2493 C   0  0  1  0  0  0  0  0  0  0  0  0
    0.4446   -1.7357   -0.5038 H   0  0  0  0  0  0  0  0  0  0  0  0
   -0.4193    0.0942   -1.2205 C   0  0  0  0  0  0  0  0  0  0  0  0
    0.4174    0.7541   -0.9638 H   0  0  0  0  0  0  0  0  0  0  0  0
   -0.2097   -0.2924   -2.2229 H   0  0  0  0  0  0  0  0  0  0  0  0
   -1.7063    0.9004   -1.3134 C   0  0  0  0  0  0  0  0  0  0  0  0
   -2.9321    0.3456   -1.7260 C   0  0  0  0  0  0  0  0  0  0  0  0
   -2.9753   -0.6640   -2.1212 H   0  0  0  0  0  0  0  0  0  0  0  0
   -4.1078    1.1056   -1.7031 C   0  0  0  0  0  0  0  0  0  0  0  0
   -5.0388    0.6662   -2.0449 H   0  0  0  0  0  0  0  0  0  0  0  0
   -4.0806    2.4268   -1.2551 C   0  0  0  0  0  0  0  0  0  0  0  0
   -5.2190    3.1791   -1.2272 O   0  0  0  0  0  0  0  0  0  0  0  0
   -5.9540    2.6953   -1.6344 H   0  0  0  0  0  0  0  0  0  0  0  0
   -2.8761    2.9845   -0.8358 C   0  0  0  0  0  0  0  0  0  0  0  0
   -2.8613    4.0120   -0.4860 H   0  0  0  0  0  0  0  0  0  0  0  0
   -1.6983    2.2305   -0.8624 C   0  0  0  0  0  0  0  0  0  0  0  0
   -0.7749    2.6861   -0.5143 H   0  0  0  0  0  0  0  0  0  0  0  0
   -0.1609   -0.5771    1.1766 C   0  0  0  0  0  0  0  0  0  0  0  0
    0.9868   -0.4223    1.5721 O   0  0  0  0  0  0  0  0  0  0  0  0
   -1.2051   -0.0589    1.9230 N   0  0  0  0  0  0  0  0  0  0  0  0
   -2.1198   -0.0429    1.4840 H   0  0  0  0  0  0  0  0  0  0  0  0
   -1.0172    0.6331    3.1913 C   0  0  0  0  0  0  0  0  0  0  0  0
   -0.4412    1.5525    3.0440 H   0  0  0  0  0  0  0  0  0  0  0  0
   -1.9865    0.8958    3.6253 H   0  0  0  0  0  0  0  0  0  0  0  0
   -0.4835   -0.0076    3.9013 H   0  0  0  0  0  0  0  0  0  0  0  0
  1  2  1  0  0  0  0
  2  3  1  0  0  0  0
  2  4  1  0  0  0  0
  2  5  1  0  0  0  0
  5  6  2  0  0  0  0
  5  7  1  0  0  0  0
  7  8  1  0  0  0  0
  7  9  1  0  0  0  0
  9 10  1  0  0  0  0
  9 11  1  0  0  0  0
  9 26  1  0  0  0  0
 11 12  1  0  0  0  0
 11 13  1  0  0  0  0
 11 14  1  0  0  0  0
 14 15  2  0  0  0  0
 14 24  1  0  0  0  0
 15 16  1  0  0  0  0
 15 17  1  0  0  0  0
 17 18  1  0  0  0  0
 17 19  2  0  0  0  0
 19 20  1  0  0  0  0
 19 22  1  0  0  0  0
 20 21  1  0  0  0  0
 22 23  1  0  0  0  0
 22 24  2  0  0  0  0
 24 25  1  0  0  0  0
 26 27  2  0  0  0  0
 26 28  1  0  0  0  0
 28 29  1  0  0  0  0
 28 30  1  0  0  0  0
 30 31  1  0  0  0  0
 30 32  1  0  0  0  0
 30 33  1  0  0  0  0
M  END
$$$$

  -OEChem-03222214083D

 33 33  0     1  0  0  0  0  0999 V2000
   -2.9143   -4.9321    0.9765 H   0  0  0  0  0  0  0  0  0  0  0  0
   -2.9698   -4.0688    0.3071 C   0  0  0  0  0  0  0  0  0  0  0  0
   -3.9023   -3.5334    0.5007 H   0  0  0  0  0  0  0  0  0  0  0  0
   -2.9678   -4.4254   -0.7258 H   0  0  0  0  0  0  0  0  0  0  0  0
   -1.7854   -3.1502    0.5415 C   0  0  0  0  0  0  0  0  0  0  0  0
   -0.9553   -3.4392    1.3836 O   0  0  0  0  0  0  0  0  0  0  0  0
   -1.6536   -2.0051   -0.2207 N   0  0  0  0  0  0  0  0  0  0  0  0
   -2.2798   -1.9276   -1.0131 H   0  0  0  0  0  0  0  0  0  0  0  0
   -0.4651   -1.1336   -0.2067 C   0  0  1  0  0  0  0  0  0  0  0  0
    0.4037   -1.7430   -0.4791 H   0  0  0  0  0  0  0  0  0  0  0  0
   -0.5376    0.0644   -1.1894 C   0  0  0  0  0  0  0  0  0  0  0  0
    0.3142    0.7218   -0.9814 H   0  0  0  0  0  0  0  0  0  0  0  0
   -0.3709   -0.3393   -2.1927 H   0  0  0  0  0  0  0  0  0  0  0  0
   -1.8171    0.8984   -1.2717 C   0  0  0  0  0  0  0  0  0  0  0  0
   -3.1300    0.3853   -1.3337 C   0  0  0  0  0  0  0  0  0  0  0  0
   -3.3333   -0.6727   -1.4122 H   0  0  0  0  0  0  0  0  0  0  0  0
   -4.2396    1.2397   -1.3461 C   0  0  0  0  0  0  0  0  0  0  0  0
   -5.2384    0.8203   -1.4046 H   0  0  0  0  0  0  0  0  0  0  0  0
   -4.0657    2.6217   -1.2920 C   0  0  0  0  0  0  0  0  0  0  0  0
   -5.1398    3.4639   -1.3050 O   0  0  0  0  0  0  0  0  0  0  0  0
   -5.9638    2.9581   -1.3767 H   0  0  0  0  0  0  0  0  0  0  0  0
   -2.7796    3.1453   -1.2279 C   0  0  0  0  0  0  0  0  0  0  0  0
   -2.6478    4.2217   -1.1829 H   0  0  0  0  0  0  0  0  0  0  0  0
   -1.6690    2.2962   -1.2170 C   0  0  0  0  0  0  0  0  0  0  0  0
   -0.6797    2.7410   -1.1542 H   0  0  0  0  0  0  0  0  0  0  0  0
   -0.1665   -0.5372    1.1879 C   0  0  0  0  0  0  0  0  0  0  0  0
    0.9937   -0.3460    1.5293 O   0  0  0  0  0  0  0  0  0  0  0  0
   -1.1908   -0.0078    1.9520 N   0  0  0  0  0  0  0  0  0  0  0  0
   -2.1346   -0.1195    1.5960 H   0  0  0  0  0  0  0  0  0  0  0  0
   -0.9815    0.6701    3.2239 C   0  0  0  0  0  0  0  0  0  0  0  0
   -0.3281    1.5391    3.0928 H   0  0  0  0  0  0  0  0  0  0  0  0
   -1.9373    1.0148    3.6299 H   0  0  0  0  0  0  0  0  0  0  0  0
   -0.5225   -0.0114    3.9477 H   0  0  0  0  0  0  0  0  0  0  0  0
  1  2  1  0  0  0  0
  2  3  1  0  0  0  0
  2  4  1  0  0  0  0
  2  5  1  0  0  0  0
  5  6  2  0  0  0  0
  5  7  1  0  0  0  0
  7  8  1  0  0  0  0
  7  9  1  0  0  0  0
  9 10  1  0  0  0  0
  9 11  1  0  0  0  0
  9 26  1  0  0  0  0
 11 12  1  0  0  0  0
 11 13  1  0  0  0  0
 11 14  1  0  0  0  0
 14 15  2  0  0  0  0
 14 24  1  0  0  0  0
 15 16  1  0  0  0  0
 15 17  1  0  0  0  0
 17 18  1  0  0  0  0
 17 19  2  0  0  0  0
 19 20  1  0  0  0  0
 19 22  1  0  0  0  0
 20 21  1  0  0  0  0
 22 23  1  0  0  0  0
 22 24  2  0  0  0  0
 24 25  1  0  0  0  0
 26 27  2  0  0  0  0
 26 28  1  0  0  0  0
 28 29  1  0  0  0  0
 28 30  1  0  0  0  0
 30 31  1  0  0  0  0
 30 32  1  0  0  0  0
 30 33  1  0  0  0  0
M  END
$$$$

  -OEChem-03222214083D

 33 33  0     1  0  0  0  0  0999 V2000
   -2.8341   -4.9918    0.9445 H   0  0  0  0  0  0  0  0  0  0  0  0
   -2.9194   -4.1128    0.2993 C   0  0  0  0  0  0  0  0  0  0  0  0
   -3.8572   -3.6005    0.5269 H   0  0  0  0  0  0  0  0  0  0  0  0
   -2.9339   -4.4431   -0.7421 H   0  0  0  0  0  0  0  0  0  0  0  0
   -1.7462   -3.1788    0.5317 C   0  0  0  0  0  0  0  0  0  0  0  0
   -0.8952   -3.4715    1.3515 O   0  0  0  0  0  0  0  0  0  0  0  0
   -1.6520   -2.0101   -0.1997 N   0  0  0  0  0  0  0  0  0  0  0  0
   -2.2955   -1.9218   -0.9797 H   0  0  0  0  0  0  0  0  0  0  0  0
   -0.4770   -1.1211   -0.1941 C   0  0  1  0  0  0  0  0  0  0  0  0
    0.3920   -1.7107   -0.5066 H   0  0  0  0  0  0  0  0  0  0  0  0
   -0.6022    0.0898   -1.1544 C   0  0  0  0  0  0  0  0  0  0  0  0
    0.2427    0.7573   -0.9479 H   0  0  0  0  0  0  0  0  0  0  0  0
   -0.4448   -0.2993   -2.1651 H   0  0  0  0  0  0  0  0  0  0  0  0
   -1.8832    0.9277   -1.2210 C   0  0  0  0  0  0  0  0  0  0  0  0
   -3.2021    0.4831   -0.9774 C   0  0  0  0  0  0  0  0  0  0  0  0
   -3.4459   -0.5352   -0.7177 H   0  0  0  0  0  0  0  0  0  0  0  0
   -4.2887    1.3623   -1.0666 C   0  0  0  0  0  0  0  0  0  0  0  0
   -5.2908    0.9953   -0.8730 H   0  0  0  0  0  0  0  0  0  0  0  0
   -4.0909    2.6997   -1.4032 C   0  0  0  0  0  0  0  0  0  0  0  0
   -5.1447    3.5627   -1.4910 O   0  0  0  0  0  0  0  0  0  0  0  0
   -5.9716    3.1079   -1.2698 H   0  0  0  0  0  0  0  0  0  0  0  0
   -2.8023    3.1551   -1.6525 C   0  0  0  0  0  0  0  0  0  0  0  0
   -2.6511    4.1971   -1.9157 H   0  0  0  0  0  0  0  0  0  0  0  0
   -1.7141    2.2821   -1.5631 C   0  0  0  0  0  0  0  0  0  0  0  0
   -0.7205    2.6745   -1.7624 H   0  0  0  0  0  0  0  0  0  0  0  0
   -0.1398   -0.5556    1.2047 C   0  0  0  0  0  0  0  0  0  0  0  0
    1.0290   -0.3554    1.5098 O   0  0  0  0  0  0  0  0  0  0  0  0
   -1.1423   -0.0599    2.0187 N   0  0  0  0  0  0  0  0  0  0  0  0
   -2.0980   -0.2028    1.7109 H   0  0  0  0  0  0  0  0  0  0  0  0
   -0.8929    0.5846    3.3009 C   0  0  0  0  0  0  0  0  0  0  0  0
   -0.2529    1.4634    3.1694 H   0  0  0  0  0  0  0  0  0  0  0  0
   -1.8357    0.9084    3.7516 H   0  0  0  0  0  0  0  0  0  0  0  0
   -0.4006   -0.1113    3.9881 H   0  0  0  0  0  0  0  0  0  0  0  0
  1  2  1  0  0  0  0
  2  3  1  0  0  0  0
  2  4  1  0  0  0  0
  2  5  1  0  0  0  0
  5  6  2  0  0  0  0
  5  7  1  0  0  0  0
  7  8  1  0  0  0  0
  7  9  1  0  0  0  0
  9 10  1  0  0  0  0
  9 11  1  0  0  0  0
  9 26  1  0  0  0  0
 11 12  1  0  0  0  0
 11 13  1  0  0  0  0
 11 14  1  0  0  0  0
 14 15  2  0  0  0  0
 14 24  1  0  0  0  0
 15 16  1  0  0  0  0
 15 17  1  0  0  0  0
 17 18  1  0  0  0  0
 17 19  2  0  0  0  0
 19 20  1  0  0  0  0
 19 22  1  0  0  0  0
 20 21  1  0  0  0  0
 22 23  1  0  0  0  0
 22 24  2  0  0  0  0
 24 25  1  0  0  0  0
 26 27  2  0  0  0  0
 26 28  1  0  0  0  0
 28 29  1  0  0  0  0
 28 30  1  0  0  0  0
 30 31  1  0  0  0  0
 30 32  1  0  0  0  0
 30 33  1  0  0  0  0
M  END
$$$$

  -OEChem-03222214083D

 33 33  0     1  0  0  0  0  0999 V2000
   -2.8648   -4.9725    0.8810 H   0  0  0  0  0  0  0  0  0  0  0  0
   -2.9531   -4.0714    0.2671 C   0  0  0  0  0  0  0  0  0  0  0  0
   -3.8809   -3.5575    0.5293 H   0  0  0  0  0  0  0  0  0  0  0  0
   -2.9909   -4.3659   -0.7845 H   0  0  0  0  0  0  0  0  0  0  0  0
   -1.7656   -3.1574    0.5071 C   0  0  0  0  0  0  0  0  0  0  0  0
   -0.9077   -3.4784    1.3088 O   0  0  0  0  0  0  0  0  0  0  0  0
   -1.6666   -1.9705   -0.1932 N   0  0  0  0  0  0  0  0  0  0  0  0
   -2.3406   -1.8317   -0.9409 H   0  0  0  0  0  0  0  0  0  0  0  0
   -0.4809   -1.0942   -0.1824 C   0  0  1  0  0  0  0  0  0  0  0  0
    0.3754   -1.6882   -0.5209 H   0  0  0  0  0  0  0  0  0  0  0  0
   -0.6183    0.1195   -1.1350 C   0  0  0  0  0  0  0  0  0  0  0  0
    0.2225    0.7930   -0.9315 H   0  0  0  0  0  0  0  0  0  0  0  0
   -0.4675   -0.2657   -2.1484 H   0  0  0  0  0  0  0  0  0  0  0  0
   -1.8959    0.9606   -1.1870 C   0  0  0  0  0  0  0  0  0  0  0  0
   -3.1603    0.6205   -0.6564 C   0  0  0  0  0  0  0  0  0  0  0  0
   -3.3399   -0.2844   -0.0953 H   0  0  0  0  0  0  0  0  0  0  0  0
   -4.2579    1.4780   -0.8023 C   0  0  0  0  0  0  0  0  0  0  0  0
   -5.2151    1.1977   -0.3762 H   0  0  0  0  0  0  0  0  0  0  0  0
   -4.1249    2.6863   -1.4839 C   0  0  0  0  0  0  0  0  0  0  0  0
   -5.1885    3.5292   -1.6289 O   0  0  0  0  0  0  0  0  0  0  0  0
   -5.9637    3.1748   -1.1671 H   0  0  0  0  0  0  0  0  0  0  0  0
   -2.8904    3.0348   -2.0188 C   0  0  0  0  0  0  0  0  0  0  0  0
   -2.7905    3.9762   -2.5499 H   0  0  0  0  0  0  0  0  0  0  0  0
   -1.7912    2.1837   -1.8728 C   0  0  0  0  0  0  0  0  0  0  0  0
   -0.8402    2.4840   -2.3042 H   0  0  0  0  0  0  0  0  0  0  0  0
   -0.1029   -0.5615    1.2188 C   0  0  0  0  0  0  0  0  0  0  0  0
    1.0757   -0.3807    1.4966 O   0  0  0  0  0  0  0  0  0  0  0  0
   -1.0760   -0.0693    2.0699 N   0  0  0  0  0  0  0  0  0  0  0  0
   -2.0408   -0.2333    1.8066 H   0  0  0  0  0  0  0  0  0  0  0  0
   -0.7828    0.5122    3.3731 C   0  0  0  0  0  0  0  0  0  0  0  0
   -0.1205    1.3777    3.2664 H   0  0  0  0  0  0  0  0  0  0  0  0
   -1.7070    0.8430    3.8562 H   0  0  0  0  0  0  0  0  0  0  0  0
   -0.2973   -0.2263    4.0198 H   0  0  0  0  0  0  0  0  0  0  0  0
  1  2  1  0  0  0  0
  2  3  1  0  0  0  0
  2  4  1  0  0  0  0
  2  5  1  0  0  0  0
  5  6  2  0  0  0  0
  5  7  1  0  0  0  0
  7  8  1  0  0  0  0
  7  9  1  0  0  0  0
  9 10  1  0  0  0  0
  9 11  1  0  0  0  0
  9 26  1  0  0  0  0
 11 12  1  0  0  0  0
 11 13  1  0  0  0  0
 11 14  1  0  0  0  0
 14 15  2  0  0  0  0
 14 24  1  0  0  0  0
 15 16  1  0  0  0  0
 15 17  1  0  0  0  0
 17 18  1  0  0  0  0
 17 19  2  0  0  0  0
 19 20  1  0  0  0  0
 19 22  1  0  0  0  0
 20 21  1  0  0  0  0
 22 23  1  0  0  0  0
 22 24  2  0  0  0  0
 24 25  1  0  0  0  0
 26 27  2  0  0  0  0
 26 28  1  0  0  0  0
 28 29  1  0  0  0  0
 28 30  1  0  0  0  0
 30 31  1  0  0  0  0
 30 32  1  0  0  0  0
 30 33  1  0  0  0  0
M  END
$$$$

  -OEChem-03222214083D

 33 33  0     1  0  0  0  0  0999 V2000
   -2.9550   -4.9121    0.8182 H   0  0  0  0  0  0  0  0  0  0  0  0
   -3.0268   -3.9959    0.2249 C   0  0  0  0  0  0  0  0  0  0  0  0
   -3.9440   -3.4700    0.5001 H   0  0  0  0  0  0  0  0  0  0  0  0
   -3.0724   -4.2663   -0.8329 H   0  0  0  0  0  0  0  0  0  0  0  0
   -1.8214   -3.1110    0.4831 C   0  0  0  0  0  0  0  0  0  0  0  0
   -0.9724   -3.4625    1.2817 O   0  0  0  0  0  0  0  0  0  0  0  0
   -1.6996   -1.9085   -0.1853 N   0  0  0  0  0  0  0  0  0  0  0  0
   -2.3901   -1.7162   -0.9065 H   0  0  0  0  0  0  0  0  0  0  0  0
   -0.4948   -1.0569   -0.1545 C   0  0  1  0  0  0  0  0  0  0  0  0
    0.3433   -1.6732   -0.4990 H   0  0  0  0  0  0  0  0  0  0  0  0
   -0.6057    0.1409   -1.1278 C   0  0  0  0  0  0  0  0  0  0  0  0
    0.2293    0.8201   -0.9207 H   0  0  0  0  0  0  0  0  0  0  0  0
   -0.4391   -0.2603   -2.1327 H   0  0  0  0  0  0  0  0  0  0  0  0
   -1.8823    0.9765   -1.1994 C   0  0  0  0  0  0  0  0  0  0  0  0
   -3.0502    0.7780   -0.4330 C   0  0  0  0  0  0  0  0  0  0  0  0
   -3.1158    0.0127    0.3281 H   0  0  0  0  0  0  0  0  0  0  0  0
   -4.1725    1.5980   -0.6056 C   0  0  0  0  0  0  0  0  0  0  0  0
   -5.0556    1.4314    0.0016 H   0  0  0  0  0  0  0  0  0  0  0  0
   -4.1555    2.6279   -1.5455 C   0  0  0  0  0  0  0  0  0  0  0  0
   -5.2428    3.4343   -1.7202 O   0  0  0  0  0  0  0  0  0  0  0  0
   -5.9361    3.2077   -1.0816 H   0  0  0  0  0  0  0  0  0  0  0  0
   -3.0124    2.8363   -2.3096 C   0  0  0  0  0  0  0  0  0  0  0  0
   -3.0022    3.6410   -3.0375 H   0  0  0  0  0  0  0  0  0  0  0  0
   -1.8890    2.0213   -2.1387 C   0  0  0  0  0  0  0  0  0  0  0  0
   -1.0094    2.2071   -2.7488 H   0  0  0  0  0  0  0  0  0  0  0  0
   -0.0774   -0.5542    1.2473 C   0  0  0  0  0  0  0  0  0  0  0  0
    1.1112   -0.3921    1.4921 O   0  0  0  0  0  0  0  0  0  0  0  0
   -1.0135   -0.0512    2.1329 N   0  0  0  0  0  0  0  0  0  0  0  0
   -1.9837   -0.2647    1.9349 H   0  0  0  0  0  0  0  0  0  0  0  0
   -0.6640    0.4790    3.4447 C   0  0  0  0  0  0  0  0  0  0  0  0
    0.0513    1.3028    3.3484 H   0  0  0  0  0  0  0  0  0  0  0  0
   -1.5574    0.8582    3.9495 H   0  0  0  0  0  0  0  0  0  0  0  0
   -0.2183   -0.3041    4.0669 H   0  0  0  0  0  0  0  0  0  0  0  0
  1  2  1  0  0  0  0
  2  3  1  0  0  0  0
  2  4  1  0  0  0  0
  2  5  1  0  0  0  0
  5  6  2  0  0  0  0
  5  7  1  0  0  0  0
  7  8  1  0  0  0  0
  7  9  1  0  0  0  0
  9 10  1  0  0  0  0
  9 11  1  0  0  0  0
  9 26  1  0  0  0  0
 11 12  1  0  0  0  0
 11 13  1  0  0  0  0
 11 14  1  0  0  0  0
 14 15  2  0  0  0  0
 14 24  1  0  0  0  0
 15 16  1  0  0  0  0
 15 17  1  0  0  0  0
 17 18  1  0  0  0  0
 17 19  2  0  0  0  0
 19 20  1  0  0  0  0
 19 22  1  0  0  0  0
 20 21  1  0  0  0  0
 22 23  1  0  0  0  0
 22 24  2  0  0  0  0
 24 25  1  0  0  0  0
 26 27  2  0  0  0  0
 26 28  1  0  0  0  0
 28 29  1  0  0  0  0
 28 30  1  0  0  0  0
 30 31  1  0  0  0  0
 30 32  1  0  0  0  0
 30 33  1  0  0  0  0
M  END
$$$$

  -OEChem-03222214083D

 33 33  0     1  0  0  0  0  0999 V2000
   -3.0307   -4.8463    0.7679 H   0  0  0  0  0  0  0  0  0  0  0  0
   -3.0817   -3.9221    0.1849 C   0  0  0  0  0  0  0  0  0  0  0  0
   -3.9863   -3.3779    0.4666 H   0  0  0  0  0  0  0  0  0  0  0  0
   -3.1336   -4.1792   -0.8759 H   0  0  0  0  0  0  0  0  0  0  0  0
   -1.8561   -3.0684    0.4525 C   0  0  0  0  0  0  0  0  0  0  0  0
   -1.0036   -3.4553    1.2314 O   0  0  0  0  0  0  0  0  0  0  0  0
   -1.7250   -1.8430   -0.1692 N   0  0  0  0  0  0  0  0  0  0  0  0
   -2.4359   -1.5951   -0.8533 H   0  0  0  0  0  0  0  0  0  0  0  0
   -0.5149   -1.0014   -0.1088 C   0  0  1  0  0  0  0  0  0  0  0  0
    0.3116   -1.6351   -0.4502 H   0  0  0  0  0  0  0  0  0  0  0  0
   -0.5899    0.1700   -1.1150 C   0  0  0  0  0  0  0  0  0  0  0  0
    0.2283    0.8643   -0.8936 H   0  0  0  0  0  0  0  0  0  0  0  0
   -0.3840   -0.2531   -2.1037 H   0  0  0  0  0  0  0  0  0  0  0  0
   -1.8753    0.9814   -1.2325 C   0  0  0  0  0  0  0  0  0  0  0  0
   -2.9303    0.9669   -0.2997 C   0  0  0  0  0  0  0  0  0  0  0  0
   -2.8862    0.3579    0.5924 H   0  0  0  0  0  0  0  0  0  0  0  0
   -4.0750    1.7498   -0.4954 C   0  0  0  0  0  0  0  0  0  0  0  0
   -4.8727    1.7233    0.2392 H   0  0  0  0  0  0  0  0  0  0  0  0
   -4.1876    2.5617   -1.6241 C   0  0  0  0  0  0  0  0  0  0  0  0
   -5.2961    3.3326   -1.8246 O   0  0  0  0  0  0  0  0  0  0  0  0
   -5.8894    3.2742   -1.0599 H   0  0  0  0  0  0  0  0  0  0  0  0
   -3.1532    2.5870   -2.5540 C   0  0  0  0  0  0  0  0  0  0  0  0
   -3.2445    3.2220   -3.4293 H   0  0  0  0  0  0  0  0  0  0  0  0
   -2.0078    1.8084   -2.3601 C   0  0  0  0  0  0  0  0  0  0  0  0
   -1.2116    1.8528   -3.0980 H   0  0  0  0  0  0  0  0  0  0  0  0
   -0.0644   -0.5375    1.2972 C   0  0  0  0  0  0  0  0  0  0  0  0
    1.1300   -0.3638    1.5028 O   0  0  0  0  0  0  0  0  0  0  0  0
   -0.9674   -0.0487    2.2241 N   0  0  0  0  0  0  0  0  0  0  0  0
   -1.9306   -0.3367    2.0966 H   0  0  0  0  0  0  0  0  0  0  0  0
   -0.5614    0.4512    3.5320 C   0  0  0  0  0  0  0  0  0  0  0  0
    0.1289    1.2943    3.4227 H   0  0  0  0  0  0  0  0  0  0  0  0
   -1.4352    0.7946    4.0937 H   0  0  0  0  0  0  0  0  0  0  0  0
   -0.0655   -0.3384    4.1065 H   0  0  0  0  0  0  0  0  0  0  0  0
  1  2  1  0  0  0  0
  2  3  1  0  0  0  0
  2  4  1  0  0  0  0
  2  5  1  0  0  0  0
  5  6  2  0  0  0  0
  5  7  1  0  0  0  0
  7  8  1  0  0  0  0
  7  9  1  0  0  0  0
  9 10  1  0  0  0  0
  9 11  1  0  0  0  0
  9 26  1  0  0  0  0
 11 12  1  0  0  0  0
 11 13  1  0  0  0  0
 11 14  1  0  0  0  0
 14 15  2  0  0  0  0
 14 24  1  0  0  0  0
 15 16  1  0  0  0  0
 15 17  1  0  0  0  0
 17 18  1  0  0  0  0
 17 19  2  0  0  0  0
 19 20  1  0  0  0  0
 19 22  1  0  0  0  0
 20 21  1  0  0  0  0
 22 23  1  0  0  0  0
 22 24  2  0  0  0  0
 24 25  1  0  0  0  0
 26 27  2  0  0  0  0
 26 28  1  0  0  0  0
 28 29  1  0  0  0  0
 28 30  1  0  0  0  0
 30 31  1  0  0  0  0
 30 32  1  0  0  0  0
 30 33  1  0  0  0  0
M  END
$$$$

  -OEChem-03222214083D

 33 33  0     1  0  0  0  0  0999 V2000
   -3.1359   -4.7529    0.7765 H   0  0  0  0  0  0  0  0  0  0  0  0
   -3.1723   -3.8169    0.2120 C   0  0  0  0  0  0  0  0  0  0  0  0
   -4.0458   -3.2453    0.5341 H   0  0  0  0  0  0  0  0  0  0  0  0
   -3.2699   -4.0510   -0.8507 H   0  0  0  0  0  0  0  0  0  0  0  0
   -1.9079   -3.0137    0.4508 C   0  0  0  0  0  0  0  0  0  0  0  0
   -1.0339   -3.4531    1.1763 O   0  0  0  0  0  0  0  0  0  0  0  0
   -1.7637   -1.7743   -0.1379 N   0  0  0  0  0  0  0  0  0  0  0  0
   -2.5074   -1.4670   -0.7605 H   0  0  0  0  0  0  0  0  0  0  0  0
   -0.5373   -0.9591   -0.0850 C   0  0  1  0  0  0  0  0  0  0  0  0
    0.2626   -1.6220   -0.4350 H   0  0  0  0  0  0  0  0  0  0  0  0
   -0.5844    0.1795   -1.1289 C   0  0  0  0  0  0  0  0  0  0  0  0
    0.2354    0.8747   -0.9182 H   0  0  0  0  0  0  0  0  0  0  0  0
   -0.3692   -0.2757   -2.1012 H   0  0  0  0  0  0  0  0  0  0  0  0
   -1.8667    0.9905   -1.2680 C   0  0  0  0  0  0  0  0  0  0  0  0
   -2.7698    1.2379   -0.2188 C   0  0  0  0  0  0  0  0  0  0  0  0
   -2.5859    0.8670    0.7779 H   0  0  0  0  0  0  0  0  0  0  0  0
   -3.9362    1.9825   -0.4330 C   0  0  0  0  0  0  0  0  0  0  0  0
   -4.6152    2.1607    0.3938 H   0  0  0  0  0  0  0  0  0  0  0  0
   -4.2211    2.4949   -1.6984 C   0  0  0  0  0  0  0  0  0  0  0  0
   -5.3541    3.2228   -1.9197 O   0  0  0  0  0  0  0  0  0  0  0  0
   -5.8265    3.3696   -1.0858 H   0  0  0  0  0  0  0  0  0  0  0  0
   -3.3353    2.2626   -2.7457 C   0  0  0  0  0  0  0  0  0  0  0  0
   -3.5595    2.6679   -3.7273 H   0  0  0  0  0  0  0  0  0  0  0  0
   -2.1681    1.5216   -2.5340 C   0  0  0  0  0  0  0  0  0  0  0  0
   -1.4921    1.3614   -3.3694 H   0  0  0  0  0  0  0  0  0  0  0  0
   -0.0308   -0.5363    1.3151 C   0  0  0  0  0  0  0  0  0  0  0  0
    1.1732   -0.3859    1.4784 O   0  0  0  0  0  0  0  0  0  0  0  0
   -0.8864   -0.0514    2.2878 N   0  0  0  0  0  0  0  0  0  0  0  0
   -1.8559   -0.3349    2.1968 H   0  0  0  0  0  0  0  0  0  0  0  0
   -0.4188    0.3965    3.5945 C   0  0  0  0  0  0  0  0  0  0  0  0
    0.3160    1.2013    3.4851 H   0  0  0  0  0  0  0  0  0  0  0  0
   -1.2571    0.7769    4.1857 H   0  0  0  0  0  0  0  0  0  0  0  0
    0.0452   -0.4322    4.1397 H   0  0  0  0  0  0  0  0  0  0  0  0
  1  2  1  0  0  0  0
  2  3  1  0  0  0  0
  2  4  1  0  0  0  0
  2  5  1  0  0  0  0
  5  6  2  0  0  0  0
  5  7  1  0  0  0  0
  7  8  1  0  0  0  0
  7  9  1  0  0  0  0
  9 10  1  0  0  0  0
  9 11  1  0  0  0  0
  9 26  1  0  0  0  0
 11 12  1  0  0  0  0
 11 13  1  0  0  0  0
 11 14  1  0  0  0  0
 14 15  2  0  0  0  0
 14 24  1  0  0  0  0
 15 16  1  0  0  0  0
 15 17  1  0  0  0  0
 17 18  1  0  0  0  0
 17 19  2  0  0  0  0
 19 20  1  0  0  0  0
 19 22  1  0  0  0  0
 20 21  1  0  0  0  0
 22 23  1  0  0  0  0
 22 24  2  0  0  0  0
 24 25  1  0  0  0  0
 26 27  2  0  0  0  0
 26 28  1  0  0  0  0
 28 29  1  0  0  0  0
 28 30  1  0  0  0  0
 30 31  1  0  0  0  0
 30 32  1  0  0  0  0
 30 33  1  0  0  0  0
M  END
$$$$

  -OEChem-03222214083D

 33 33  0     1  0  0  0  0  0999 V2000
   -3.2587   -4.6371    0.7187 H   0  0  0  0  0  0  0  0  0  0  0  0
   -3.2563   -3.6949    0.1633 C   0  0  0  0  0  0  0  0  0  0  0  0
   -4.0971   -3.0849    0.5017 H   0  0  0  0  0  0  0  0  0  0  0  0
   -3.3779   -3.9140   -0.9003 H   0  0  0  0  0  0  0  0  0  0  0  0
   -1.9516   -2.9557    0.3941 C   0  0  0  0  0  0  0  0  0  0  0  0
   -1.0870   -3.4497    1.0956 O   0  0  0  0  0  0  0  0  0  0  0  0
   -1.7581   -1.7140   -0.1761 N   0  0  0  0  0  0  0  0  0  0  0  0
   -2.5046   -1.3491   -0.7634 H   0  0  0  0  0  0  0  0  0  0  0  0
   -0.5094   -0.9353   -0.0944 C   0  0  1  0  0  0  0  0  0  0  0  0
    0.2795   -1.6176   -0.4317 H   0  0  0  0  0  0  0  0  0  0  0  0
   -0.5092    0.2007   -1.1424 C   0  0  0  0  0  0  0  0  0  0  0  0
    0.3161    0.8832   -0.9129 H   0  0  0  0  0  0  0  0  0  0  0  0
   -0.2785   -0.2543   -2.1112 H   0  0  0  0  0  0  0  0  0  0  0  0
   -1.7814    1.0246   -1.2837 C   0  0  0  0  0  0  0  0  0  0  0  0
   -2.5096    1.5254   -0.1915 C   0  0  0  0  0  0  0  0  0  0  0  0
   -2.1406    1.4223    0.8180 H   0  0  0  0  0  0  0  0  0  0  0  0
   -3.7103    2.2191   -0.3841 C   0  0  0  0  0  0  0  0  0  0  0  0
   -4.2459    2.6064    0.4759 H   0  0  0  0  0  0  0  0  0  0  0  0
   -4.2081    2.4190   -1.6715 C   0  0  0  0  0  0  0  0  0  0  0  0
   -5.3791    3.0906   -1.8720 O   0  0  0  0  0  0  0  0  0  0  0  0
   -5.7175    3.4317   -1.0297 H   0  0  0  0  0  0  0  0  0  0  0  0
   -3.4964    1.9314   -2.7634 C   0  0  0  0  0  0  0  0  0  0  0  0
   -3.8852    2.0939   -3.7637 H   0  0  0  0  0  0  0  0  0  0  0  0
   -2.2939    1.2427   -2.5743 C   0  0  0  0  0  0  0  0  0  0  0  0
   -1.7630    0.8714   -3.4463 H   0  0  0  0  0  0  0  0  0  0  0  0
   -0.0318   -0.5542    1.3263 C   0  0  0  0  0  0  0  0  0  0  0  0
    1.1694   -0.4395    1.5314 O   0  0  0  0  0  0  0  0  0  0  0  0
   -0.9074   -0.0653    2.2786 N   0  0  0  0  0  0  0  0  0  0  0  0
   -1.8842   -0.2989    2.1332 H   0  0  0  0  0  0  0  0  0  0  0  0
   -0.4796    0.3189    3.6185 C   0  0  0  0  0  0  0  0  0  0  0  0
    0.2783    1.1080    3.5691 H   0  0  0  0  0  0  0  0  0  0  0  0
   -1.3302    0.6965    4.1937 H   0  0  0  0  0  0  0  0  0  0  0  0
   -0.0573   -0.5430    4.1458 H   0  0  0  0  0  0  0  0  0  0  0  0
  1  2  1  0  0  0  0
  2  3  1  0  0  0  0
  2  4  1  0  0  0  0
  2  5  1  0  0  0  0
  5  6  2  0  0  0  0
  5  7  1  0  0  0  0
  7  8  1  0  0  0  0
  7  9  1  0  0  0  0
  9 10  1  0  0  0  0
  9 11  1  0  0  0  0
  9 26  1  0  0  0  0
 11 12  1  0  0  0  0
 11 13  1  0  0  0  0
 11 14  1  0  0  0  0
 14 15  2  0  0  0  0
 14 24  1  0  0  0  0
 15 16  1  0  0  0  0
 15 17  1  0  0  0  0
 17 18  1  0  0  0  0
 17 19  2  0  0  0  0
 19 20  1  0  0  0  0
 19 22  1  0  0  0  0
 20 21  1  0  0  0  0
 22 23  1  0  0  0  0
 22 24  2  0  0  0  0
 24 25  1  0  0  0  0
 26 27  2  0  0  0  0
 26 28  1  0  0  0  0
 28 29  1  0  0  0  0
 28 30  1  0  0  0  0
 30 31  1  0  0  0  0
 30 32  1  0  0  0  0
 30 33  1  0  0  0  0
M  END
$$$$

  -OEChem-03222214083D

 33 33  0     1  0  0  0  0  0999 V2000
   -3.3528   -4.5279    0.7407 H   0  0  0  0  0  0  0  0  0  0  0  0
   -3.3072   -3.6018    0.1608 C   0  0  0  0  0  0  0  0  0  0  0  0
   -4.1154   -2.9425    0.4864 H   0  0  0  0  0  0  0  0  0  0  0  0
   -3.4455   -3.8423   -0.8961 H   0  0  0  0  0  0  0  0  0  0  0  0
   -1.9661   -2.9220    0.3659 C   0  0  0  0  0  0  0  0  0  0  0  0
   -1.1220   -3.4394    1.0756 O   0  0  0  0  0  0  0  0  0  0  0  0
   -1.7155   -1.7083   -0.2411 N   0  0  0  0  0  0  0  0  0  0  0  0
   -2.4599   -1.3064   -0.8064 H   0  0  0  0  0  0  0  0  0  0  0  0
   -0.4517   -0.9559   -0.1368 C   0  0  1  0  0  0  0  0  0  0  0  0
    0.3437   -1.6491   -0.4337 H   0  0  0  0  0  0  0  0  0  0  0  0
   -0.4200    0.1768   -1.1874 C   0  0  0  0  0  0  0  0  0  0  0  0
    0.4086    0.8531   -0.9504 H   0  0  0  0  0  0  0  0  0  0  0  0
   -0.1887   -0.2731   -2.1580 H   0  0  0  0  0  0  0  0  0  0  0  0
   -1.6940    0.9944   -1.3120 C   0  0  0  0  0  0  0  0  0  0  0  0
   -2.2257    1.7268   -0.2389 C   0  0  0  0  0  0  0  0  0  0  0  0
   -1.6697    1.8295    0.6854 H   0  0  0  0  0  0  0  0  0  0  0  0
   -3.4533    2.3878   -0.3608 C   0  0  0  0  0  0  0  0  0  0  0  0
   -3.8367    2.9583    0.4783 H   0  0  0  0  0  0  0  0  0  0  0  0
   -4.1713    2.3208   -1.5553 C   0  0  0  0  0  0  0  0  0  0  0  0
   -5.3724    2.9557   -1.6838 O   0  0  0  0  0  0  0  0  0  0  0  0
   -5.5661    3.4703   -0.8848 H   0  0  0  0  0  0  0  0  0  0  0  0
   -3.6522    1.6011   -2.6284 C   0  0  0  0  0  0  0  0  0  0  0  0
   -4.2133    1.5587   -3.5565 H   0  0  0  0  0  0  0  0  0  0  0  0
   -2.4237    0.9424   -2.5116 C   0  0  0  0  0  0  0  0  0  0  0  0
   -2.0460    0.3808   -3.3616 H   0  0  0  0  0  0  0  0  0  0  0  0
   -0.0516   -0.5455    1.2980 C   0  0  0  0  0  0  0  0  0  0  0  0
    1.1354   -0.4503    1.5808 O   0  0  0  0  0  0  0  0  0  0  0  0
   -0.9808   -0.0118    2.1722 N   0  0  0  0  0  0  0  0  0  0  0  0
   -1.9539   -0.1904    1.9447 H   0  0  0  0  0  0  0  0  0  0  0  0
   -0.6431    0.4019    3.5287 C   0  0  0  0  0  0  0  0  0  0  0  0
    0.1364    1.1712    3.5139 H   0  0  0  0  0  0  0  0  0  0  0  0
   -1.5241    0.8145    4.0295 H   0  0  0  0  0  0  0  0  0  0  0  0
   -0.2814   -0.4536    4.1084 H   0  0  0  0  0  0  0  0  0  0  0  0
  1  2  1  0  0  0  0
  2  3  1  0  0  0  0
  2  4  1  0  0  0  0
  2  5  1  0  0  0  0
  5  6  2  0  0  0  0
  5  7  1  0  0  0  0
  7  8  1  0  0  0  0
  7  9  1  0  0  0  0
  9 10  1  0  0  0  0
  9 11  1  0  0  0  0
  9 26  1  0  0  0  0
 11 12  1  0  0  0  0
 11 13  1  0  0  0  0
 11 14  1  0  0  0  0
 14 15  2  0  0  0  0
 14 24  1  0  0  0  0
 15 16  1  0  0  0  0
 15 17  1  0  0  0  0
 17 18  1  0  0  0  0
 17 19  2  0  0  0  0
 19 20  1  0  0  0  0
 19 22  1  0  0  0  0
 20 21  1  0  0  0  0
 22 23  1  0  0  0  0
 22 24  2  0  0  0  0
 24 25  1  0  0  0  0
 26 27  2  0  0  0  0
 26 28  1  0  0  0  0
 28 29  1  0  0  0  0
 28 30  1  0  0  0  0
 30 31  1  0  0  0  0
 30 32  1  0  0  0  0
 30 33  1  0  0  0  0
M  END
$$$$

  -OEChem-03222214083D

 33 33  0     1  0  0  0  0  0999 V2000
   -3.3634   -4.4974    0.7982 H   0  0  0  0  0  0  0  0  0  0  0  0
   -3.3054   -3.5892    0.1916 C   0  0  0  0  0  0  0  0  0  0  0  0
   -4.0912   -2.9011    0.5119 H   0  0  0  0  0  0  0  0  0  0  0  0
   -3.4678   -3.8547   -0.8557 H   0  0  0  0  0  0  0  0  0  0  0  0
   -1.9451   -2.9377    0.3556 C   0  0  0  0  0  0  0  0  0  0  0  0
   -1.1041   -3.4543    1.0695 O   0  0  0  0  0  0  0  0  0  0  0  0
   -1.6709   -1.7548   -0.3002 N   0  0  0  0  0  0  0  0  0  0  0  0
   -2.4231   -1.3373   -0.8429 H   0  0  0  0  0  0  0  0  0  0  0  0
   -0.4088   -1.0007   -0.1819 C   0  0  1  0  0  0  0  0  0  0  0  0
    0.4049   -1.6869   -0.4430 H   0  0  0  0  0  0  0  0  0  0  0  0
   -0.3722    0.1401   -1.2216 C   0  0  0  0  0  0  0  0  0  0  0  0
    0.4531    0.8192   -0.9811 H   0  0  0  0  0  0  0  0  0  0  0  0
   -0.1471   -0.2941   -2.2009 H   0  0  0  0  0  0  0  0  0  0  0  0
   -1.6608    0.9325   -1.3166 C   0  0  0  0  0  0  0  0  0  0  0  0
   -2.0152    1.8654   -0.3305 C   0  0  0  0  0  0  0  0  0  0  0  0
   -1.3296    2.0874    0.4824 H   0  0  0  0  0  0  0  0  0  0  0  0
   -3.2393    2.5405   -0.3956 C   0  0  0  0  0  0  0  0  0  0  0  0
   -3.4909    3.2625    0.3739 H   0  0  0  0  0  0  0  0  0  0  0  0
   -4.1240    2.2891   -1.4456 C   0  0  0  0  0  0  0  0  0  0  0  0
   -5.3218    2.9387   -1.5182 O   0  0  0  0  0  0  0  0  0  0  0  0
   -5.3851    3.6034   -0.8147 H   0  0  0  0  0  0  0  0  0  0  0  0
   -3.7778    1.3680   -2.4320 C   0  0  0  0  0  0  0  0  0  0  0  0
   -4.4692    1.1843   -3.2482 H   0  0  0  0  0  0  0  0  0  0  0  0
   -2.5536    0.6936   -2.3734 C   0  0  0  0  0  0  0  0  0  0  0  0
   -2.3034   -0.0207   -3.1530 H   0  0  0  0  0  0  0  0  0  0  0  0
   -0.0823   -0.5323    1.2531 C   0  0  0  0  0  0  0  0  0  0  0  0
    1.0864   -0.4374    1.6036 O   0  0  0  0  0  0  0  0  0  0  0  0
   -1.0600    0.0377    2.0489 N   0  0  0  0  0  0  0  0  0  0  0  0
   -2.0197   -0.0872    1.7420 H   0  0  0  0  0  0  0  0  0  0  0  0
   -0.8065    0.5173    3.4013 C   0  0  0  0  0  0  0  0  0  0  0  0
   -0.0337    1.2932    3.3950 H   0  0  0  0  0  0  0  0  0  0  0  0
   -1.7190    0.9430    3.8292 H   0  0  0  0  0  0  0  0  0  0  0  0
   -0.4734   -0.3067    4.0410 H   0  0  0  0  0  0  0  0  0  0  0  0
  1  2  1  0  0  0  0
  2  3  1  0  0  0  0
  2  4  1  0  0  0  0
  2  5  1  0  0  0  0
  5  6  2  0  0  0  0
  5  7  1  0  0  0  0
  7  8  1  0  0  0  0
  7  9  1  0  0  0  0
  9 10  1  0  0  0  0
  9 11  1  0  0  0  0
  9 26  1  0  0  0  0
 11 12  1  0  0  0  0
 11 13  1  0  0  0  0
 11 14  1  0  0  0  0
 14 15  2  0  0  0  0
 14 24  1  0  0  0  0
 15 16  1  0  0  0  0
 15 17  1  0  0  0  0
 17 18  1  0  0  0  0
 17 19  2  0  0  0  0
 19 20  1  0  0  0  0
 19 22  1  0  0  0  0
 20 21  1  0  0  0  0
 22 23  1  0  0  0  0
 22 24  2  0  0  0  0
 24 25  1  0  0  0  0
 26 27  2  0  0  0  0
 26 28  1  0  0  0  0
 28 29  1  0  0  0  0
 28 30  1  0  0  0  0
 30 31  1  0  0  0  0
 30 32  1  0  0  0  0
 30 33  1  0  0  0  0
M  END
$$$$

  -OEChem-03222214083D

 33 33  0     1  0  0  0  0  0999 V2000
   -3.3242   -4.5226    0.8735 H   0  0  0  0  0  0  0  0  0  0  0  0
   -3.2777   -3.6274    0.2469 C   0  0  0  0  0  0  0  0  0  0  0  0
   -4.0487   -2.9269    0.5766 H   0  0  0  0  0  0  0  0  0  0  0  0
   -3.4727   -3.9130   -0.7896 H   0  0  0  0  0  0  0  0  0  0  0  0
   -1.9081   -2.9845    0.3585 C   0  0  0  0  0  0  0  0  0  0  0  0
   -1.0519   -3.4936    1.0593 O   0  0  0  0  0  0  0  0  0  0  0  0
   -1.6421   -1.8193   -0.3318 N   0  0  0  0  0  0  0  0  0  0  0  0
   -2.4155   -1.3946   -0.8368 H   0  0  0  0  0  0  0  0  0  0  0  0
   -0.3909   -1.0462   -0.2140 C   0  0  1  0  0  0  0  0  0  0  0  0
    0.4411   -1.7150   -0.4612 H   0  0  0  0  0  0  0  0  0  0  0  0
   -0.3671    0.1140   -1.2308 C   0  0  0  0  0  0  0  0  0  0  0  0
    0.4572    0.7943   -0.9888 H   0  0  0  0  0  0  0  0  0  0  0  0
   -0.1533   -0.2975   -2.2226 H   0  0  0  0  0  0  0  0  0  0  0  0
   -1.6689    0.8849   -1.2939 C   0  0  0  0  0  0  0  0  0  0  0  0
   -1.8797    1.9940   -0.4614 C   0  0  0  0  0  0  0  0  0  0  0  0
   -1.1025    2.3091    0.2307 H   0  0  0  0  0  0  0  0  0  0  0  0
   -3.0882    2.6983   -0.5105 C   0  0  0  0  0  0  0  0  0  0  0  0
   -3.2346    3.5509    0.1442 H   0  0  0  0  0  0  0  0  0  0  0  0
   -4.0930    2.3067   -1.3974 C   0  0  0  0  0  0  0  0  0  0  0  0
   -5.2749    2.9859   -1.4550 O   0  0  0  0  0  0  0  0  0  0  0  0
   -5.2419    3.7649   -0.8781 H   0  0  0  0  0  0  0  0  0  0  0  0
   -3.8841    1.2149   -2.2380 C   0  0  0  0  0  0  0  0  0  0  0  0
   -4.6676    0.9270   -2.9319 H   0  0  0  0  0  0  0  0  0  0  0  0
   -2.6771    0.5094   -2.1959 C   0  0  0  0  0  0  0  0  0  0  0  0
   -2.5251   -0.3290   -2.8703 H   0  0  0  0  0  0  0  0  0  0  0  0
   -0.1059   -0.5344    1.2150 C   0  0  0  0  0  0  0  0  0  0  0  0
    1.0504   -0.4244    1.6003 O   0  0  0  0  0  0  0  0  0  0  0  0
   -1.1141    0.0445    1.9653 N   0  0  0  0  0  0  0  0  0  0  0  0
   -2.0594   -0.0431    1.6057 H   0  0  0  0  0  0  0  0  0  0  0  0
   -0.9069    0.6009    3.2960 C   0  0  0  0  0  0  0  0  0  0  0  0
   -0.1663    1.4068    3.2640 H   0  0  0  0  0  0  0  0  0  0  0  0
   -1.8442    1.0092    3.6855 H   0  0  0  0  0  0  0  0  0  0  0  0
   -0.5538   -0.1752    3.9831 H   0  0  0  0  0  0  0  0  0  0  0  0
  1  2  1  0  0  0  0
  2  3  1  0  0  0  0
  2  4  1  0  0  0  0
  2  5  1  0  0  0  0
  5  6  2  0  0  0  0
  5  7  1  0  0  0  0
  7  8  1  0  0  0  0
  7  9  1  0  0  0  0
  9 10  1  0  0  0  0
  9 11  1  0  0  0  0
  9 26  1  0  0  0  0
 11 12  1  0  0  0  0
 11 13  1  0  0  0  0
 11 14  1  0  0  0  0
 14 15  2  0  0  0  0
 14 24  1  0  0  0  0
 15 16  1  0  0  0  0
 15 17  1  0  0  0  0
 17 18  1  0  0  0  0
 17 19  2  0  0  0  0
 19 20  1  0  0  0  0
 19 22  1  0  0  0  0
 20 21  1  0  0  0  0
 22 23  1  0  0  0  0
 22 24  2  0  0  0  0
 24 25  1  0  0  0  0
 26 27  2  0  0  0  0
 26 28  1  0  0  0  0
 28 29  1  0  0  0  0
 28 30  1  0  0  0  0
 30 31  1  0  0  0  0
 30 32  1  0  0  0  0
 30 33  1  0  0  0  0
M  END
$$$$

  -OEChem-03222214083D

 33 33  0     1  0  0  0  0  0999 V2000
   -3.2362   -4.5915    0.9683 H   0  0  0  0  0  0  0  0  0  0  0  0
   -3.2251   -3.7014    0.3327 C   0  0  0  0  0  0  0  0  0  0  0  0
   -3.9872   -3.0050    0.6907 H   0  0  0  0  0  0  0  0  0  0  0  0
   -3.4629   -3.9981   -0.6917 H   0  0  0  0  0  0  0  0  0  0  0  0
   -1.8575   -3.0460    0.3778 C   0  0  0  0  0  0  0  0  0  0  0  0
   -0.9667   -3.5438    1.0428 O   0  0  0  0  0  0  0  0  0  0  0  0
   -1.6317   -1.8837   -0.3326 N   0  0  0  0  0  0  0  0  0  0  0  0
   -2.4365   -1.4598   -0.7844 H   0  0  0  0  0  0  0  0  0  0  0  0
   -0.3980   -1.0810   -0.2318 C   0  0  1  0  0  0  0  0  0  0  0  0
    0.4487   -1.7294   -0.4838 H   0  0  0  0  0  0  0  0  0  0  0  0
   -0.3950    0.1020   -1.2240 C   0  0  0  0  0  0  0  0  0  0  0  0
    0.4324    0.7784   -0.9819 H   0  0  0  0  0  0  0  0  0  0  0  0
   -0.1939   -0.2907   -2.2259 H   0  0  0  0  0  0  0  0  0  0  0  0
   -1.7016    0.8691   -1.2676 C   0  0  0  0  0  0  0  0  0  0  0  0
   -1.7954    2.1260   -0.6514 C   0  0  0  0  0  0  0  0  0  0  0  0
   -0.9454    2.5279   -0.1056 H   0  0  0  0  0  0  0  0  0  0  0  0
   -2.9839    2.8624   -0.7144 C   0  0  0  0  0  0  0  0  0  0  0  0
   -3.0419    3.8246   -0.2170 H   0  0  0  0  0  0  0  0  0  0  0  0
   -4.0821    2.3633   -1.4171 C   0  0  0  0  0  0  0  0  0  0  0  0
   -5.2461    3.0721   -1.4859 O   0  0  0  0  0  0  0  0  0  0  0  0
   -5.1439    3.9271   -1.0392 H   0  0  0  0  0  0  0  0  0  0  0  0
   -3.9838    1.1352   -2.0680 C   0  0  0  0  0  0  0  0  0  0  0  0
   -4.8349    0.7703   -2.6345 H   0  0  0  0  0  0  0  0  0  0  0  0
   -2.7978    0.3959   -2.0085 C   0  0  0  0  0  0  0  0  0  0  0  0
   -2.7274   -0.5402   -2.5552 H   0  0  0  0  0  0  0  0  0  0  0  0
   -0.1251   -0.5502    1.1927 C   0  0  0  0  0  0  0  0  0  0  0  0
    1.0272   -0.4173    1.5829 O   0  0  0  0  0  0  0  0  0  0  0  0
   -1.1493    0.0108    1.9352 N   0  0  0  0  0  0  0  0  0  0  0  0
   -2.0859   -0.0499    1.5489 H   0  0  0  0  0  0  0  0  0  0  0  0
   -0.9540    0.6247    3.2419 C   0  0  0  0  0  0  0  0  0  0  0  0
   -0.2600    1.4685    3.1689 H   0  0  0  0  0  0  0  0  0  0  0  0
   -1.9070    0.9933    3.6332 H   0  0  0  0  0  0  0  0  0  0  0  0
   -0.5482   -0.1056    3.9498 H   0  0  0  0  0  0  0  0  0  0  0  0
  1  2  1  0  0  0  0
  2  3  1  0  0  0  0
  2  4  1  0  0  0  0
  2  5  1  0  0  0  0
  5  6  2  0  0  0  0
  5  7  1  0  0  0  0
  7  8  1  0  0  0  0
  7  9  1  0  0  0  0
  9 10  1  0  0  0  0
  9 11  1  0  0  0  0
  9 26  1  0  0  0  0
 11 12  1  0  0  0  0
 11 13  1  0  0  0  0
 11 14  1  0  0  0  0
 14 15  2  0  0  0  0
 14 24  1  0  0  0  0
 15 16  1  0  0  0  0
 15 17  1  0  0  0  0
 17 18  1  0  0  0  0
 17 19  2  0  0  0  0
 19 20  1  0  0  0  0
 19 22  1  0  0  0  0
 20 21  1  0  0  0  0
 22 23  1  0  0  0  0
 22 24  2  0  0  0  0
 24 25  1  0  0  0  0
 26 27  2  0  0  0  0
 26 28  1  0  0  0  0
 28 29  1  0  0  0  0
 28 30  1  0  0  0  0
 30 31  1  0  0  0  0
 30 32  1  0  0  0  0
 30 33  1  0  0  0  0
M  END
$$$$

  -OEChem-03222214083D

 33 33  0     1  0  0  0  0  0999 V2000
   -3.1144   -4.6818    1.0529 H   0  0  0  0  0  0  0  0  0  0  0  0
   -3.1516   -3.7878    0.4240 C   0  0  0  0  0  0  0  0  0  0  0  0
   -3.9073   -3.1078    0.8242 H   0  0  0  0  0  0  0  0  0  0  0  0
   -3.4347   -4.0826   -0.5892 H   0  0  0  0  0  0  0  0  0  0  0  0
   -1.7962   -3.1069    0.4055 C   0  0  0  0  0  0  0  0  0  0  0  0
   -0.8617   -3.5955    1.0149 O   0  0  0  0  0  0  0  0  0  0  0  0
   -1.6311   -1.9351   -0.3061 N   0  0  0  0  0  0  0  0  0  0  0  0
   -2.4724   -1.5187   -0.6903 H   0  0  0  0  0  0  0  0  0  0  0  0
   -0.4210   -1.0958   -0.2336 C   0  0  1  0  0  0  0  0  0  0  0  0
    0.4364   -1.7208   -0.5082 H   0  0  0  0  0  0  0  0  0  0  0  0
   -0.4505    0.1061   -1.2060 C   0  0  0  0  0  0  0  0  0  0  0  0
    0.3816    0.7778   -0.9672 H   0  0  0  0  0  0  0  0  0  0  0  0
   -0.2621   -0.2745   -2.2151 H   0  0  0  0  0  0  0  0  0  0  0  0
   -1.7554    0.8831   -1.2459 C   0  0  0  0  0  0  0  0  0  0  0  0
   -1.7535    2.2448   -0.9025 C   0  0  0  0  0  0  0  0  0  0  0  0
   -0.8444    2.7119   -0.5328 H   0  0  0  0  0  0  0  0  0  0  0  0
   -2.9199    3.0118   -1.0021 C   0  0  0  0  0  0  0  0  0  0  0  0
   -2.8985    4.0547   -0.7047 H   0  0  0  0  0  0  0  0  0  0  0  0
   -4.0955    2.4400   -1.4890 C   0  0  0  0  0  0  0  0  0  0  0  0
   -5.2392    3.1765   -1.5946 O   0  0  0  0  0  0  0  0  0  0  0  0
   -5.0720    4.0943   -1.3287 H   0  0  0  0  0  0  0  0  0  0  0  0
   -4.0935    1.1093   -1.8978 C   0  0  0  0  0  0  0  0  0  0  0  0
   -5.0024    0.6874   -2.3146 H   0  0  0  0  0  0  0  0  0  0  0  0
   -2.9291    0.3408   -1.8009 C   0  0  0  0  0  0  0  0  0  0  0  0
   -2.9420   -0.6699   -2.1958 H   0  0  0  0  0  0  0  0  0  0  0  0
   -0.1318   -0.5673    1.1886 C   0  0  0  0  0  0  0  0  0  0  0  0
    1.0241   -0.4156    1.5608 O   0  0  0  0  0  0  0  0  0  0  0  0
   -1.1569   -0.0441    1.9570 N   0  0  0  0  0  0  0  0  0  0  0  0
   -2.0936   -0.0871    1.5691 H   0  0  0  0  0  0  0  0  0  0  0  0
   -0.9500    0.5875    3.2536 C   0  0  0  0  0  0  0  0  0  0  0  0
   -0.3179    1.4758    3.1514 H   0  0  0  0  0  0  0  0  0  0  0  0
   -1.9093    0.8919    3.6827 H   0  0  0  0  0  0  0  0  0  0  0  0
   -0.4677   -0.1106    3.9460 H   0  0  0  0  0  0  0  0  0  0  0  0
  1  2  1  0  0  0  0
  2  3  1  0  0  0  0
  2  4  1  0  0  0  0
  2  5  1  0  0  0  0
  5  6  2  0  0  0  0
  5  7  1  0  0  0  0
  7  8  1  0  0  0  0
  7  9  1  0  0  0  0
  9 10  1  0  0  0  0
  9 11  1  0  0  0  0
  9 26  1  0  0  0  0
 11 12  1  0  0  0  0
 11 13  1  0  0  0  0
 11 14  1  0  0  0  0
 14 15  2  0  0  0  0
 14 24  1  0  0  0  0
 15 16  1  0  0  0  0
 15 17  1  0  0  0  0
 17 18  1  0  0  0  0
 17 19  2  0  0  0  0
 19 20  1  0  0  0  0
 19 22  1  0  0  0  0
 20 21  1  0  0  0  0
 22 23  1  0  0  0  0
 22 24  2  0  0  0  0
 24 25  1  0  0  0  0
 26 27  2  0  0  0  0
 26 28  1  0  0  0  0
 28 29  1  0  0  0  0
 28 30  1  0  0  0  0
 30 31  1  0  0  0  0
 30 32  1  0  0  0  0
 30 33  1  0  0  0  0
M  END
$$$$

  -OEChem-03222214083D

 33 33  0     1  0  0  0  0  0999 V2000
   -2.9284   -4.8994    1.0192 H   0  0  0  0  0  0  0  0  0  0  0  0
   -2.9947   -4.0311    0.3573 C   0  0  0  0  0  0  0  0  0  0  0  0
   -3.9079   -3.4793    0.5925 H   0  0  0  0  0  0  0  0  0  0  0  0
   -3.0433   -4.3815   -0.6765 H   0  0  0  0  0  0  0  0  0  0  0  0
   -1.7839   -3.1365    0.5482 C   0  0  0  0  0  0  0  0  0  0  0  0
   -0.9280   -3.4437    1.3577 O   0  0  0  0  0  0  0  0  0  0  0  0
   -1.6604   -1.9863   -0.2077 N   0  0  0  0  0  0  0  0  0  0  0  0
   -2.3288   -1.8733   -0.9595 H   0  0  0  0  0  0  0  0  0  0  0  0
   -0.4714   -1.1143   -0.2067 C   0  0  1  0  0  0  0  0  0  0  0  0
    0.3928   -1.7247   -0.4919 H   0  0  0  0  0  0  0  0  0  0  0  0
   -0.5507    0.0852   -1.1869 C   0  0  0  0  0  0  0  0  0  0  0  0
    0.2985    0.7475   -0.9831 H   0  0  0  0  0  0  0  0  0  0  0  0
   -0.3937   -0.3123   -2.1943 H   0  0  0  0  0  0  0  0  0  0  0  0
   -1.8373    0.9055   -1.2399 C   0  0  0  0  0  0  0  0  0  0  0  0
   -1.7131    2.3068   -1.2466 C   0  0  0  0  0  0  0  0  0  0  0  0
   -0.7338    2.7666   -1.1438 H   0  0  0  0  0  0  0  0  0  0  0  0
   -2.8341    3.1376   -1.3540 C   0  0  0  0  0  0  0  0  0  0  0  0
   -2.7042    4.2144   -1.3275 H   0  0  0  0  0  0  0  0  0  0  0  0
   -4.1039    2.5826   -1.4999 C   0  0  0  0  0  0  0  0  0  0  0  0
   -5.2080    3.3775   -1.6048 O   0  0  0  0  0  0  0  0  0  0  0  0
   -4.9523    4.3117   -1.5514 H   0  0  0  0  0  0  0  0  0  0  0  0
   -4.2419    1.2000   -1.5609 C   0  0  0  0  0  0  0  0  0  0  0  0
   -5.2312    0.7796   -1.7109 H   0  0  0  0  0  0  0  0  0  0  0  0
   -3.1228    0.3673   -1.4532 C   0  0  0  0  0  0  0  0  0  0  0  0
   -3.2933   -0.6925   -1.5745 H   0  0  0  0  0  0  0  0  0  0  0  0
   -0.1543   -0.5280    1.1877 C   0  0  0  0  0  0  0  0  0  0  0  0
    1.0102   -0.3323    1.5120 O   0  0  0  0  0  0  0  0  0  0  0  0
   -1.1680   -0.0051    1.9703 N   0  0  0  0  0  0  0  0  0  0  0  0
   -2.1192   -0.1595    1.6516 H   0  0  0  0  0  0  0  0  0  0  0  0
   -0.9415    0.6243    3.2639 C   0  0  0  0  0  0  0  0  0  0  0  0
   -0.2722    1.4846    3.1600 H   0  0  0  0  0  0  0  0  0  0  0  0
   -1.8886    0.9733    3.6860 H   0  0  0  0  0  0  0  0  0  0  0  0
   -0.4925   -0.0903    3.9615 H   0  0  0  0  0  0  0  0  0  0  0  0
  1  2  1  0  0  0  0
  2  3  1  0  0  0  0
  2  4  1  0  0  0  0
  2  5  1  0  0  0  0
  5  6  2  0  0  0  0
  5  7  1  0  0  0  0
  7  8  1  0  0  0  0
  7  9  1  0  0  0  0
  9 10  1  0  0  0  0
  9 11  1  0  0  0  0
  9 26  1  0  0  0  0
 11 12  1  0  0  0  0
 11 13  1  0  0  0  0
 11 14  1  0  0  0  0
 14 15  2  0  0  0  0
 14 24  1  0  0  0  0
 15 16  1  0  0  0  0
 15 17  1  0  0  0  0
 17 18  1  0  0  0  0
 17 19  2  0  0  0  0
 19 20  1  0  0  0  0
 19 22  1  0  0  0  0
 20 21  1  0  0  0  0
 22 23  1  0  0  0  0
 22 24  2  0  0  0  0
 24 25  1  0  0  0  0
 26 27  2  0  0  0  0
 26 28  1  0  0  0  0
 28 29  1  0  0  0  0
 28 30  1  0  0  0  0
 30 31  1  0  0  0  0
 30 32  1  0  0  0  0
 30 33  1  0  0  0  0
M  END
$$$$

  -OEChem-03222214083D

 33 33  0     1  0  0  0  0  0999 V2000
   -2.8207   -4.9874    0.9788 H   0  0  0  0  0  0  0  0  0  0  0  0
   -2.9100   -4.1152    0.3249 C   0  0  0  0  0  0  0  0  0  0  0  0
   -3.8481   -3.6022    0.5501 H   0  0  0  0  0  0  0  0  0  0  0  0
   -2.9276   -4.4556   -0.7133 H   0  0  0  0  0  0  0  0  0  0  0  0
   -1.7388   -3.1759    0.5438 C   0  0  0  0  0  0  0  0  0  0  0  0
   -0.8831   -3.4578    1.3625 O   0  0  0  0  0  0  0  0  0  0  0  0
   -1.6502   -2.0161   -0.2020 N   0  0  0  0  0  0  0  0  0  0  0  0
   -2.3017   -1.9346   -0.9760 H   0  0  0  0  0  0  0  0  0  0  0  0
   -0.4819   -1.1187   -0.2058 C   0  0  1  0  0  0  0  0  0  0  0  0
    0.3920   -1.7065   -0.5084 H   0  0  0  0  0  0  0  0  0  0  0  0
   -0.6096    0.0817   -1.1790 C   0  0  0  0  0  0  0  0  0  0  0  0
    0.2305    0.7560   -0.9762 H   0  0  0  0  0  0  0  0  0  0  0  0
   -0.4473   -0.3162   -2.1852 H   0  0  0  0  0  0  0  0  0  0  0  0
   -1.8954    0.9106   -1.2556 C   0  0  0  0  0  0  0  0  0  0  0  0
   -1.7367    2.2639   -1.6085 C   0  0  0  0  0  0  0  0  0  0  0  0
   -0.7427    2.6633   -1.7919 H   0  0  0  0  0  0  0  0  0  0  0  0
   -2.8329    3.1251   -1.7265 C   0  0  0  0  0  0  0  0  0  0  0  0
   -2.6687    4.1635   -1.9937 H   0  0  0  0  0  0  0  0  0  0  0  0
   -4.1222    2.6489   -1.5029 C   0  0  0  0  0  0  0  0  0  0  0  0
   -5.2028    3.4747   -1.6146 O   0  0  0  0  0  0  0  0  0  0  0  0
   -4.9142    4.3701   -1.8507 H   0  0  0  0  0  0  0  0  0  0  0  0
   -4.3069    1.3126   -1.1675 C   0  0  0  0  0  0  0  0  0  0  0  0
   -5.3168    0.9511   -1.0032 H   0  0  0  0  0  0  0  0  0  0  0  0
   -3.2137    0.4473   -1.0479 C   0  0  0  0  0  0  0  0  0  0  0  0
   -3.4534   -0.5737   -0.7948 H   0  0  0  0  0  0  0  0  0  0  0  0
   -0.1553   -0.5350    1.1874 C   0  0  0  0  0  0  0  0  0  0  0  0
    1.0101   -0.3166    1.4935 O   0  0  0  0  0  0  0  0  0  0  0  0
   -1.1673   -0.0390    1.9889 N   0  0  0  0  0  0  0  0  0  0  0  0
   -2.1196   -0.2098    1.6838 H   0  0  0  0  0  0  0  0  0  0  0  0
   -0.9341    0.6007    3.2761 C   0  0  0  0  0  0  0  0  0  0  0  0
   -0.2930    1.4803    3.1566 H   0  0  0  0  0  0  0  0  0  0  0  0
   -1.8830    0.9224    3.7157 H   0  0  0  0  0  0  0  0  0  0  0  0
   -0.4502   -0.0982    3.9663 H   0  0  0  0  0  0  0  0  0  0  0  0
  1  2  1  0  0  0  0
  2  3  1  0  0  0  0
  2  4  1  0  0  0  0
  2  5  1  0  0  0  0
  5  6  2  0  0  0  0
  5  7  1  0  0  0  0
  7  8  1  0  0  0  0
  7  9  1  0  0  0  0
  9 10  1  0  0  0  0
  9 11  1  0  0  0  0
  9 26  1  0  0  0  0
 11 12  1  0  0  0  0
 11 13  1  0  0  0  0
 11 14  1  0  0  0  0
 14 15  2  0  0  0  0
 14 24  1  0  0  0  0
 15 16  1  0  0  0  0
 15 17  1  0  0  0  0
 17 18  1  0  0  0  0
 17 19  2  0  0  0  0
 19 20  1  0  0  0  0
 19 22  1  0  0  0  0
 20 21  1  0  0  0  0
 22 23  1  0  0  0  0
 22 24  2  0  0  0  0
 24 25  1  0  0  0  0
 26 27  2  0  0  0  0
 26 28  1  0  0  0  0
 28 29  1  0  0  0  0
 28 30  1  0  0  0  0
 30 31  1  0  0  0  0
 30 32  1  0  0  0  0
 30 33  1  0  0  0  0
M  END
$$$$

  -OEChem-03222214083D

 33 33  0     1  0  0  0  0  0999 V2000
   -2.8245   -4.9918    0.9027 H   0  0  0  0  0  0  0  0  0  0  0  0
   -2.9246   -4.0960    0.2831 C   0  0  0  0  0  0  0  0  0  0  0  0
   -3.8511   -3.5836    0.5530 H   0  0  0  0  0  0  0  0  0  0  0  0
   -2.9743   -4.3992   -0.7655 H   0  0  0  0  0  0  0  0  0  0  0  0
   -1.7385   -3.1754    0.5013 C   0  0  0  0  0  0  0  0  0  0  0  0
   -0.8753   -3.4798    1.3040 O   0  0  0  0  0  0  0  0  0  0  0  0
   -1.6479   -1.9985   -0.2165 N   0  0  0  0  0  0  0  0  0  0  0  0
   -2.3332   -1.8631   -0.9545 H   0  0  0  0  0  0  0  0  0  0  0  0
   -0.4798   -1.0993   -0.1992 C   0  0  1  0  0  0  0  0  0  0  0  0
    0.3935   -1.6828   -0.5108 H   0  0  0  0  0  0  0  0  0  0  0  0
   -0.6244    0.0909   -1.1792 C   0  0  0  0  0  0  0  0  0  0  0  0
    0.1981    0.7863   -0.9746 H   0  0  0  0  0  0  0  0  0  0  0  0
   -0.4470   -0.3122   -2.1810 H   0  0  0  0  0  0  0  0  0  0  0  0
   -1.9195    0.9011   -1.2713 C   0  0  0  0  0  0  0  0  0  0  0  0
   -1.8236    2.1326   -1.9434 C   0  0  0  0  0  0  0  0  0  0  0  0
   -0.8753    2.4359   -2.3790 H   0  0  0  0  0  0  0  0  0  0  0  0
   -2.9260    2.9839   -2.0746 C   0  0  0  0  0  0  0  0  0  0  0  0
   -2.8162    3.9211   -2.6094 H   0  0  0  0  0  0  0  0  0  0  0  0
   -4.1520    2.6296   -1.5167 C   0  0  0  0  0  0  0  0  0  0  0  0
   -5.2368    3.4493   -1.6320 O   0  0  0  0  0  0  0  0  0  0  0  0
   -4.9956    4.2560   -2.1134 H   0  0  0  0  0  0  0  0  0  0  0  0
   -4.2643    1.4305   -0.8220 C   0  0  0  0  0  0  0  0  0  0  0  0
   -5.2189    1.1735   -0.3742 H   0  0  0  0  0  0  0  0  0  0  0  0
   -3.1646    0.5757   -0.6889 C   0  0  0  0  0  0  0  0  0  0  0  0
   -3.3306   -0.3165   -0.1035 H   0  0  0  0  0  0  0  0  0  0  0  0
   -0.1376   -0.5357    1.1986 C   0  0  0  0  0  0  0  0  0  0  0  0
    1.0323   -0.3282    1.4937 O   0  0  0  0  0  0  0  0  0  0  0  0
   -1.1351   -0.0483    2.0233 N   0  0  0  0  0  0  0  0  0  0  0  0
   -2.0920   -0.2325    1.7440 H   0  0  0  0  0  0  0  0  0  0  0  0
   -0.8791    0.5556    3.3236 C   0  0  0  0  0  0  0  0  0  0  0  0
   -0.2054    1.4132    3.2232 H   0  0  0  0  0  0  0  0  0  0  0  0
   -1.8161    0.9039    3.7683 H   0  0  0  0  0  0  0  0  0  0  0  0
   -0.4230   -0.1750    3.9999 H   0  0  0  0  0  0  0  0  0  0  0  0
  1  2  1  0  0  0  0
  2  3  1  0  0  0  0
  2  4  1  0  0  0  0
  2  5  1  0  0  0  0
  5  6  2  0  0  0  0
  5  7  1  0  0  0  0
  7  8  1  0  0  0  0
  7  9  1  0  0  0  0
  9 10  1  0  0  0  0
  9 11  1  0  0  0  0
  9 26  1  0  0  0  0
 11 12  1  0  0  0  0
 11 13  1  0  0  0  0
 11 14  1  0  0  0  0
 14 15  2  0  0  0  0
 14 24  1  0  0  0  0
 15 16  1  0  0  0  0
 15 17  1  0  0  0  0
 17 18  1  0  0  0  0
 17 19  2  0  0  0  0
 19 20  1  0  0  0  0
 19 22  1  0  0  0  0
 20 21  1  0  0  0  0
 22 23  1  0  0  0  0
 22 24  2  0  0  0  0
 24 25  1  0  0  0  0
 26 27  2  0  0  0  0
 26 28  1  0  0  0  0
 28 29  1  0  0  0  0
 28 30  1  0  0  0  0
 30 31  1  0  0  0  0
 30 32  1  0  0  0  0
 30 33  1  0  0  0  0
M  END
$$$$

  -OEChem-03222214083D

 33 33  0     1  0  0  0  0  0999 V2000
   -3.0334   -4.8500    0.7080 H   0  0  0  0  0  0  0  0  0  0  0  0
   -3.0865   -3.9124    0.1472 C   0  0  0  0  0  0  0  0  0  0  0  0
   -3.9791   -3.3661    0.4608 H   0  0  0  0  0  0  0  0  0  0  0  0
   -3.1638   -4.1439   -0.9179 H   0  0  0  0  0  0  0  0  0  0  0  0
   -1.8471   -3.0773    0.4081 C   0  0  0  0  0  0  0  0  0  0  0  0
   -0.9736   -3.4986    1.1447 O   0  0  0  0  0  0  0  0  0  0  0  0
   -1.7230   -1.8336   -0.1778 N   0  0  0  0  0  0  0  0  0  0  0  0
   -2.4557   -1.5509   -0.8236 H   0  0  0  0  0  0  0  0  0  0  0  0
   -0.5200   -0.9859   -0.0856 C   0  0  1  0  0  0  0  0  0  0  0  0
    0.3056   -1.6174   -0.4335 H   0  0  0  0  0  0  0  0  0  0  0  0
   -0.5841    0.1846   -1.0891 C   0  0  0  0  0  0  0  0  0  0  0  0
    0.3558    0.7411   -1.0042 H   0  0  0  0  0  0  0  0  0  0  0  0
   -0.6066   -0.2493   -2.0939 H   0  0  0  0  0  0  0  0  0  0  0  0
   -1.7252    1.1893   -1.0011 C   0  0  0  0  0  0  0  0  0  0  0  0
   -1.7270    2.2332   -1.9411 C   0  0  0  0  0  0  0  0  0  0  0  0
   -0.9188    2.3093   -2.6635 H   0  0  0  0  0  0  0  0  0  0  0  0
   -2.7488    3.1891   -1.9618 C   0  0  0  0  0  0  0  0  0  0  0  0
   -2.7172    3.9881   -2.6946 H   0  0  0  0  0  0  0  0  0  0  0  0
   -3.7975    3.1115   -1.0463 C   0  0  0  0  0  0  0  0  0  0  0  0
   -4.7996    4.0378   -1.0521 O   0  0  0  0  0  0  0  0  0  0  0  0
   -4.6108    4.7290   -1.7058 H   0  0  0  0  0  0  0  0  0  0  0  0
   -3.8224    2.0731   -0.1201 C   0  0  0  0  0  0  0  0  0  0  0  0
   -4.6464    2.0177    0.5839 H   0  0  0  0  0  0  0  0  0  0  0  0
   -2.8021    1.1160   -0.0969 C   0  0  0  0  0  0  0  0  0  0  0  0
   -2.8823    0.3221    0.6321 H   0  0  0  0  0  0  0  0  0  0  0  0
   -0.0639   -0.5479    1.3273 C   0  0  0  0  0  0  0  0  0  0  0  0
    1.1329   -0.3903    1.5326 O   0  0  0  0  0  0  0  0  0  0  0  0
   -0.9566   -0.0821    2.2754 N   0  0  0  0  0  0  0  0  0  0  0  0
   -1.9320   -0.3129    2.1284 H   0  0  0  0  0  0  0  0  0  0  0  0
   -0.5433    0.3941    3.5894 C   0  0  0  0  0  0  0  0  0  0  0  0
    0.1281    1.2537    3.4917 H   0  0  0  0  0  0  0  0  0  0  0  0
   -1.4168    0.7047    4.1706 H   0  0  0  0  0  0  0  0  0  0  0  0
   -0.0239   -0.3989    4.1379 H   0  0  0  0  0  0  0  0  0  0  0  0
  1  2  1  0  0  0  0
  2  3  1  0  0  0  0
  2  4  1  0  0  0  0
  2  5  1  0  0  0  0
  5  6  2  0  0  0  0
  5  7  1  0  0  0  0
  7  8  1  0  0  0  0
  7  9  1  0  0  0  0
  9 10  1  0  0  0  0
  9 11  1  0  0  0  0
  9 26  1  0  0  0  0
 11 12  1  0  0  0  0
 11 13  1  0  0  0  0
 11 14  1  0  0  0  0
 14 15  2  0  0  0  0
 14 24  1  0  0  0  0
 15 16  1  0  0  0  0
 15 17  1  0  0  0  0
 17 18  1  0  0  0  0
 17 19  2  0  0  0  0
 19 20  1  0  0  0  0
 19 22  1  0  0  0  0
 20 21  1  0  0  0  0
 22 23  1  0  0  0  0
 22 24  2  0  0  0  0
 24 25  1  0  0  0  0
 26 27  2  0  0  0  0
 26 28  1  0  0  0  0
 28 29  1  0  0  0  0
 28 30  1  0  0  0  0
 30 31  1  0  0  0  0
 30 32  1  0  0  0  0
 30 33  1  0  0  0  0
M  END
$$$$

  -OEChem-03222214083D

 33 33  0     1  0  0  0  0  0999 V2000
   -3.2012   -4.7836    0.8075 H   0  0  0  0  0  0  0  0  0  0  0  0
   -3.2491   -3.8347    0.2653 C   0  0  0  0  0  0  0  0  0  0  0  0
   -4.1057   -3.2635    0.6311 H   0  0  0  0  0  0  0  0  0  0  0  0
   -3.3863   -4.0447   -0.7984 H   0  0  0  0  0  0  0  0  0  0  0  0
   -1.9693   -3.0477    0.4773 C   0  0  0  0  0  0  0  0  0  0  0  0
   -1.0708   -3.5172    1.1523 O   0  0  0  0  0  0  0  0  0  0  0  0
   -1.8339   -1.7930   -0.0818 N   0  0  0  0  0  0  0  0  0  0  0  0
   -2.6018   -1.4541   -0.6559 H   0  0  0  0  0  0  0  0  0  0  0  0
   -0.6012   -0.9869   -0.0333 C   0  0  1  0  0  0  0  0  0  0  0  0
    0.1762   -1.6658   -0.4028 H   0  0  0  0  0  0  0  0  0  0  0  0
   -0.6259    0.1434   -1.0840 C   0  0  0  0  0  0  0  0  0  0  0  0
    0.3330    0.6702   -1.0260 H   0  0  0  0  0  0  0  0  0  0  0  0
   -0.6656   -0.3357   -2.0678 H   0  0  0  0  0  0  0  0  0  0  0  0
   -1.7266    1.1935   -1.0390 C   0  0  0  0  0  0  0  0  0  0  0  0
   -1.8901    1.9942   -2.1823 C   0  0  0  0  0  0  0  0  0  0  0  0
   -1.2179    1.8719   -3.0273 H   0  0  0  0  0  0  0  0  0  0  0  0
   -2.8974    2.9631   -2.2524 C   0  0  0  0  0  0  0  0  0  0  0  0
   -2.9895    3.5747   -3.1435 H   0  0  0  0  0  0  0  0  0  0  0  0
   -3.7737    3.1382   -1.1824 C   0  0  0  0  0  0  0  0  0  0  0  0
   -4.7610    4.0787   -1.2352 O   0  0  0  0  0  0  0  0  0  0  0  0
   -4.6887    4.5910   -2.0554 H   0  0  0  0  0  0  0  0  0  0  0  0
   -3.6417    2.3375   -0.0519 C   0  0  0  0  0  0  0  0  0  0  0  0
   -4.3337    2.4744    0.7726 H   0  0  0  0  0  0  0  0  0  0  0  0
   -2.6336    1.3697    0.0211 C   0  0  0  0  0  0  0  0  0  0  0  0
   -2.5930    0.7613    0.9107 H   0  0  0  0  0  0  0  0  0  0  0  0
   -0.0390   -0.5916    1.3546 C   0  0  0  0  0  0  0  0  0  0  0  0
    1.1724   -0.4579    1.4720 O   0  0  0  0  0  0  0  0  0  0  0  0
   -0.8448   -0.1169    2.3736 N   0  0  0  0  0  0  0  0  0  0  0  0
   -1.8263   -0.3651    2.3160 H   0  0  0  0  0  0  0  0  0  0  0  0
   -0.3165    0.3314    3.6568 C   0  0  0  0  0  0  0  0  0  0  0  0
    0.3721    1.1712    3.5149 H   0  0  0  0  0  0  0  0  0  0  0  0
   -1.1319    0.6624    4.3068 H   0  0  0  0  0  0  0  0  0  0  0  0
    0.2189   -0.4829    4.1565 H   0  0  0  0  0  0  0  0  0  0  0  0
  1  2  1  0  0  0  0
  2  3  1  0  0  0  0
  2  4  1  0  0  0  0
  2  5  1  0  0  0  0
  5  6  2  0  0  0  0
  5  7  1  0  0  0  0
  7  8  1  0  0  0  0
  7  9  1  0  0  0  0
  9 10  1  0  0  0  0
  9 11  1  0  0  0  0
  9 26  1  0  0  0  0
 11 12  1  0  0  0  0
 11 13  1  0  0  0  0
 11 14  1  0  0  0  0
 14 15  2  0  0  0  0
 14 24  1  0  0  0  0
 15 16  1  0  0  0  0
 15 17  1  0  0  0  0
 17 18  1  0  0  0  0
 17 19  2  0  0  0  0
 19 20  1  0  0  0  0
 19 22  1  0  0  0  0
 20 21  1  0  0  0  0
 22 23  1  0  0  0  0
 22 24  2  0  0  0  0
 24 25  1  0  0  0  0
 26 27  2  0  0  0  0
 26 28  1  0  0  0  0
 28 29  1  0  0  0  0
 28 30  1  0  0  0  0
 30 31  1  0  0  0  0
 30 32  1  0  0  0  0
 30 33  1  0  0  0  0
M  END
$$$$

  -OEChem-03222214083D

 33 33  0     1  0  0  0  0  0999 V2000
   -3.0651   -4.8068    0.6972 H   0  0  0  0  0  0  0  0  0  0  0  0
   -3.1475   -3.8388    0.1946 C   0  0  0  0  0  0  0  0  0  0  0  0
   -3.9940   -3.2937    0.6190 H   0  0  0  0  0  0  0  0  0  0  0  0
   -3.3288   -4.0091   -0.8695 H   0  0  0  0  0  0  0  0  0  0  0  0
   -1.8684   -3.0440    0.3809 C   0  0  0  0  0  0  0  0  0  0  0  0
   -0.9287   -3.5349    0.9806 O   0  0  0  0  0  0  0  0  0  0  0  0
   -1.7819   -1.7577   -0.1126 N   0  0  0  0  0  0  0  0  0  0  0  0
   -2.5942   -1.3902   -0.6016 H   0  0  0  0  0  0  0  0  0  0  0  0
   -0.5765   -0.9132   -0.0492 C   0  0  1  0  0  0  0  0  0  0  0  0
    0.2172   -1.5581   -0.4449 H   0  0  0  0  0  0  0  0  0  0  0  0
   -0.6434    0.2244   -1.0931 C   0  0  0  0  0  0  0  0  0  0  0  0
    0.2940    0.7873   -1.0275 H   0  0  0  0  0  0  0  0  0  0  0  0
   -0.6565   -0.2519   -2.0788 H   0  0  0  0  0  0  0  0  0  0  0  0
   -1.7827    1.2336   -1.0414 C   0  0  0  0  0  0  0  0  0  0  0  0
   -2.1964    1.8016   -2.2601 C   0  0  0  0  0  0  0  0  0  0  0  0
   -1.7137    1.5071   -3.1880 H   0  0  0  0  0  0  0  0  0  0  0  0
   -3.2285    2.7457   -2.3093 C   0  0  0  0  0  0  0  0  0  0  0  0
   -3.5295    3.1588   -3.2661 H   0  0  0  0  0  0  0  0  0  0  0  0
   -3.8590    3.1534   -1.1349 C   0  0  0  0  0  0  0  0  0  0  0  0
   -4.8657    4.0745   -1.1641 O   0  0  0  0  0  0  0  0  0  0  0  0
   -4.9908    4.4046   -2.0673 H   0  0  0  0  0  0  0  0  0  0  0  0
   -3.4446    2.6219    0.0821 C   0  0  0  0  0  0  0  0  0  0  0  0
   -3.9262    2.9579    0.9947 H   0  0  0  0  0  0  0  0  0  0  0  0
   -2.4112    1.6801    0.1330 C   0  0  0  0  0  0  0  0  0  0  0  0
   -2.1111    1.3320    1.1065 H   0  0  0  0  0  0  0  0  0  0  0  0
   -0.0152   -0.5854    1.3553 C   0  0  0  0  0  0  0  0  0  0  0  0
    1.1914   -0.4183    1.4781 O   0  0  0  0  0  0  0  0  0  0  0  0
   -0.8337   -0.2048    2.4030 N   0  0  0  0  0  0  0  0  0  0  0  0
   -1.8109   -0.4643    2.3165 H   0  0  0  0  0  0  0  0  0  0  0  0
   -0.3193    0.1313    3.7251 C   0  0  0  0  0  0  0  0  0  0  0  0
    0.3574    0.9905    3.6669 H   0  0  0  0  0  0  0  0  0  0  0  0
   -1.1434    0.3883    4.3971 H   0  0  0  0  0  0  0  0  0  0  0  0
    0.2247   -0.7187    4.1509 H   0  0  0  0  0  0  0  0  0  0  0  0
  1  2  1  0  0  0  0
  2  3  1  0  0  0  0
  2  4  1  0  0  0  0
  2  5  1  0  0  0  0
  5  6  2  0  0  0  0
  5  7  1  0  0  0  0
  7  8  1  0  0  0  0
  7  9  1  0  0  0  0
  9 10  1  0  0  0  0
  9 11  1  0  0  0  0
  9 26  1  0  0  0  0
 11 12  1  0  0  0  0
 11 13  1  0  0  0  0
 11 14  1  0  0  0  0
 14 15  2  0  0  0  0
 14 24  1  0  0  0  0
 15 16  1  0  0  0  0
 15 17  1  0  0  0  0
 17 18  1  0  0  0  0
 17 19  2  0  0  0  0
 19 20  1  0  0  0  0
 19 22  1  0  0  0  0
 20 21  1  0  0  0  0
 22 23  1  0  0  0  0
 22 24  2  0  0  0  0
 24 25  1  0  0  0  0
 26 27  2  0  0  0  0
 26 28  1  0  0  0  0
 28 29  1  0  0  0  0
 28 30  1  0  0  0  0
 30 31  1  0  0  0  0
 30 32  1  0  0  0  0
 30 33  1  0  0  0  0
M  END
$$$$

  -OEChem-03222214083D

 33 33  0     1  0  0  0  0  0999 V2000
   -3.1278   -4.7470    0.7303 H   0  0  0  0  0  0  0  0  0  0  0  0
   -3.1722   -3.7956    0.1926 C   0  0  0  0  0  0  0  0  0  0  0  0
   -3.9927   -3.2001    0.5997 H   0  0  0  0  0  0  0  0  0  0  0  0
   -3.3652   -3.9973   -0.8638 H   0  0  0  0  0  0  0  0  0  0  0  0
   -1.8606   -3.0486    0.3454 C   0  0  0  0  0  0  0  0  0  0  0  0
   -0.9340   -3.5643    0.9444 O   0  0  0  0  0  0  0  0  0  0  0  0
   -1.7261   -1.7826   -0.1889 N   0  0  0  0  0  0  0  0  0  0  0  0
   -2.5362   -1.3851   -0.6571 H   0  0  0  0  0  0  0  0  0  0  0  0
   -0.5091   -0.9570   -0.0949 C   0  0  1  0  0  0  0  0  0  0  0  0
    0.3053   -1.5970   -0.4541 H   0  0  0  0  0  0  0  0  0  0  0  0
   -0.5733    0.1880   -1.1315 C   0  0  0  0  0  0  0  0  0  0  0  0
    0.3591    0.7584   -1.0587 H   0  0  0  0  0  0  0  0  0  0  0  0
   -0.5838   -0.2717   -2.1249 H   0  0  0  0  0  0  0  0  0  0  0  0
   -1.7271    1.1731   -1.0308 C   0  0  0  0  0  0  0  0  0  0  0  0
   -2.4103    1.5296   -2.2073 C   0  0  0  0  0  0  0  0  0  0  0  0
   -2.1627    1.0475   -3.1488 H   0  0  0  0  0  0  0  0  0  0  0  0
   -3.4306    2.4878   -2.1905 C   0  0  0  0  0  0  0  0  0  0  0  0
   -3.9596    2.7223   -3.1080 H   0  0  0  0  0  0  0  0  0  0  0  0
   -3.7545    3.1438   -1.0035 C   0  0  0  0  0  0  0  0  0  0  0  0
   -4.7443    4.0828   -0.9713 O   0  0  0  0  0  0  0  0  0  0  0  0
   -5.1026    4.2218   -1.8615 H   0  0  0  0  0  0  0  0  0  0  0  0
   -3.0338    2.8594    0.1521 C   0  0  0  0  0  0  0  0  0  0  0  0
   -3.2554    3.4090    1.0611 H   0  0  0  0  0  0  0  0  0  0  0  0
   -2.0118    1.9046    0.1345 C   0  0  0  0  0  0  0  0  0  0  0  0
   -1.4183    1.7895    1.0308 H   0  0  0  0  0  0  0  0  0  0  0  0
   -0.0576   -0.6170    1.3442 C   0  0  0  0  0  0  0  0  0  0  0  0
    1.1357   -0.4729    1.5744 O   0  0  0  0  0  0  0  0  0  0  0  0
   -0.9656   -0.2057    2.3041 N   0  0  0  0  0  0  0  0  0  0  0  0
   -1.9453   -0.3762    2.1008 H   0  0  0  0  0  0  0  0  0  0  0  0
   -0.5816    0.1625    3.6614 C   0  0  0  0  0  0  0  0  0  0  0  0
    0.1318    0.9934    3.6469 H   0  0  0  0  0  0  0  0  0  0  0  0
   -1.4615    0.4753    4.2313 H   0  0  0  0  0  0  0  0  0  0  0  0
   -0.1206   -0.6891    4.1729 H   0  0  0  0  0  0  0  0  0  0  0  0
  1  2  1  0  0  0  0
  2  3  1  0  0  0  0
  2  4  1  0  0  0  0
  2  5  1  0  0  0  0
  5  6  2  0  0  0  0
  5  7  1  0  0  0  0
  7  8  1  0  0  0  0
  7  9  1  0  0  0  0
  9 10  1  0  0  0  0
  9 11  1  0  0  0  0
  9 26  1  0  0  0  0
 11 12  1  0  0  0  0
 11 13  1  0  0  0  0
 11 14  1  0  0  0  0
 14 15  2  0  0  0  0
 14 24  1  0  0  0  0
 15 16  1  0  0  0  0
 15 17  1  0  0  0  0
 17 18  1  0  0  0  0
 17 19  2  0  0  0  0
 19 20  1  0  0  0  0
 19 22  1  0  0  0  0
 20 21  1  0  0  0  0
 22 23  1  0  0  0  0
 22 24  2  0  0  0  0
 24 25  1  0  0  0  0
 26 27  2  0  0  0  0
 26 28  1  0  0  0  0
 28 29  1  0  0  0  0
 28 30  1  0  0  0  0
 30 31  1  0  0  0  0
 30 32  1  0  0  0  0
 30 33  1  0  0  0  0
M  END
$$$$

  -OEChem-03222214083D

 33 33  0     1  0  0  0  0  0999 V2000
   -3.2105   -4.6653    0.7609 H   0  0  0  0  0  0  0  0  0  0  0  0
   -3.2179   -3.7245    0.2031 C   0  0  0  0  0  0  0  0  0  0  0  0
   -4.0130   -3.0882    0.5987 H   0  0  0  0  0  0  0  0  0  0  0  0
   -3.4213   -3.9404   -0.8485 H   0  0  0  0  0  0  0  0  0  0  0  0
   -1.8775   -3.0270    0.3382 C   0  0  0  0  0  0  0  0  0  0  0  0
   -0.9766   -3.5572    0.9631 O   0  0  0  0  0  0  0  0  0  0  0  0
   -1.6873   -1.7908   -0.2462 N   0  0  0  0  0  0  0  0  0  0  0  0
   -2.4841   -1.3715   -0.7176 H   0  0  0  0  0  0  0  0  0  0  0  0
   -0.4533   -0.9928   -0.1335 C   0  0  1  0  0  0  0  0  0  0  0  0
    0.3666   -1.6447   -0.4568 H   0  0  0  0  0  0  0  0  0  0  0  0
   -0.4924    0.1579   -1.1616 C   0  0  0  0  0  0  0  0  0  0  0  0
    0.4439    0.7209   -1.0811 H   0  0  0  0  0  0  0  0  0  0  0  0
   -0.5101   -0.2809   -2.1643 H   0  0  0  0  0  0  0  0  0  0  0  0
   -1.6470    1.1314   -1.0149 C   0  0  0  0  0  0  0  0  0  0  0  0
   -2.5572    1.2890   -2.0739 C   0  0  0  0  0  0  0  0  0  0  0  0
   -2.4714    0.6723   -2.9642 H   0  0  0  0  0  0  0  0  0  0  0  0
   -3.5938    2.2268   -1.9957 C   0  0  0  0  0  0  0  0  0  0  0  0
   -4.2985    2.3148   -2.8157 H   0  0  0  0  0  0  0  0  0  0  0  0
   -3.7116    3.0497   -0.8750 C   0  0  0  0  0  0  0  0  0  0  0  0
   -4.7165    3.9689   -0.7863 O   0  0  0  0  0  0  0  0  0  0  0  0
   -5.2422    3.9703   -1.6011 H   0  0  0  0  0  0  0  0  0  0  0  0
   -2.7764    2.9477    0.1514 C   0  0  0  0  0  0  0  0  0  0  0  0
   -2.8500    3.6174    1.0023 H   0  0  0  0  0  0  0  0  0  0  0  0
   -1.7384    2.0131    0.0744 C   0  0  0  0  0  0  0  0  0  0  0  0
   -0.9872    2.0053    0.8578 H   0  0  0  0  0  0  0  0  0  0  0  0
   -0.0682   -0.6056    1.3118 C   0  0  0  0  0  0  0  0  0  0  0  0
    1.1140   -0.4912    1.6066 O   0  0  0  0  0  0  0  0  0  0  0  0
   -1.0182   -0.1316    2.1993 N   0  0  0  0  0  0  0  0  0  0  0  0
   -1.9903   -0.2228    1.9214 H   0  0  0  0  0  0  0  0  0  0  0  0
   -0.7047    0.3042    3.5542 C   0  0  0  0  0  0  0  0  0  0  0  0
    0.0067    1.1366    3.5353 H   0  0  0  0  0  0  0  0  0  0  0  0
   -1.6129    0.6399    4.0634 H   0  0  0  0  0  0  0  0  0  0  0  0
   -0.2682   -0.5199    4.1284 H   0  0  0  0  0  0  0  0  0  0  0  0
  1  2  1  0  0  0  0
  2  3  1  0  0  0  0
  2  4  1  0  0  0  0
  2  5  1  0  0  0  0
  5  6  2  0  0  0  0
  5  7  1  0  0  0  0
  7  8  1  0  0  0  0
  7  9  1  0  0  0  0
  9 10  1  0  0  0  0
  9 11  1  0  0  0  0
  9 26  1  0  0  0  0
 11 12  1  0  0  0  0
 11 13  1  0  0  0  0
 11 14  1  0  0  0  0
 14 15  2  0  0  0  0
 14 24  1  0  0  0  0
 15 16  1  0  0  0  0
 15 17  1  0  0  0  0
 17 18  1  0  0  0  0
 17 19  2  0  0  0  0
 19 20  1  0  0  0  0
 19 22  1  0  0  0  0
 20 21  1  0  0  0  0
 22 23  1  0  0  0  0
 22 24  2  0  0  0  0
 24 25  1  0  0  0  0
 26 27  2  0  0  0  0
 26 28  1  0  0  0  0
 28 29  1  0  0  0  0
 28 30  1  0  0  0  0
 30 31  1  0  0  0  0
 30 32  1  0  0  0  0
 30 33  1  0  0  0  0
M  END
$$$$

  -OEChem-03222214083D

 33 33  0     1  0  0  0  0  0999 V2000
   -3.2861   -4.5852    0.7914 H   0  0  0  0  0  0  0  0  0  0  0  0
   -3.2626   -3.6591    0.2097 C   0  0  0  0  0  0  0  0  0  0  0  0
   -4.0334   -2.9852    0.5911 H   0  0  0  0  0  0  0  0  0  0  0  0
   -3.4771   -3.8951   -0.8354 H   0  0  0  0  0  0  0  0  0  0  0  0
   -1.8977   -3.0064    0.3240 C   0  0  0  0  0  0  0  0  0  0  0  0
   -1.0149   -3.5511    0.9622 O   0  0  0  0  0  0  0  0  0  0  0  0
   -1.6644   -1.7954   -0.2964 N   0  0  0  0  0  0  0  0  0  0  0  0
   -2.4538   -1.3508   -0.7560 H   0  0  0  0  0  0  0  0  0  0  0  0
   -0.4176   -1.0202   -0.1646 C   0  0  1  0  0  0  0  0  0  0  0  0
    0.4028   -1.6842   -0.4594 H   0  0  0  0  0  0  0  0  0  0  0  0
   -0.4242    0.1366   -1.1831 C   0  0  0  0  0  0  0  0  0  0  0  0
    0.5184    0.6877   -1.0938 H   0  0  0  0  0  0  0  0  0  0  0  0
   -0.4495   -0.2850   -2.1928 H   0  0  0  0  0  0  0  0  0  0  0  0
   -1.5754    1.1049   -1.0092 C   0  0  0  0  0  0  0  0  0  0  0  0
   -2.6598    1.0741   -1.9006 C   0  0  0  0  0  0  0  0  0  0  0  0
   -2.6872    0.3411   -2.7017 H   0  0  0  0  0  0  0  0  0  0  0  0
   -3.7163    1.9829   -1.7681 C   0  0  0  0  0  0  0  0  0  0  0  0
   -4.5509    1.9382   -2.4596 H   0  0  0  0  0  0  0  0  0  0  0  0
   -3.6897    2.9463   -0.7579 C   0  0  0  0  0  0  0  0  0  0  0  0
   -4.7119    3.8398   -0.6192 O   0  0  0  0  0  0  0  0  0  0  0  0
   -5.3496    3.7359   -1.3422 H   0  0  0  0  0  0  0  0  0  0  0  0
   -2.5999    3.0061    0.1080 C   0  0  0  0  0  0  0  0  0  0  0  0
   -2.5763    3.7701    0.8785 H   0  0  0  0  0  0  0  0  0  0  0  0
   -1.5404    2.1028   -0.0233 C   0  0  0  0  0  0  0  0  0  0  0  0
   -0.6861    2.1842    0.6443 H   0  0  0  0  0  0  0  0  0  0  0  0
   -0.0754   -0.5912    1.2800 C   0  0  0  0  0  0  0  0  0  0  0  0
    1.0972   -0.5022    1.6187 O   0  0  0  0  0  0  0  0  0  0  0  0
   -1.0463   -0.0653    2.1139 N   0  0  0  0  0  0  0  0  0  0  0  0
   -2.0022   -0.0743    1.7724 H   0  0  0  0  0  0  0  0  0  0  0  0
   -0.7695    0.4538    3.4471 C   0  0  0  0  0  0  0  0  0  0  0  0
   -0.0583    1.2847    3.3952 H   0  0  0  0  0  0  0  0  0  0  0  0
   -1.6913    0.8166    3.9115 H   0  0  0  0  0  0  0  0  0  0  0  0
   -0.3474   -0.3321    4.0823 H   0  0  0  0  0  0  0  0  0  0  0  0
  1  2  1  0  0  0  0
  2  3  1  0  0  0  0
  2  4  1  0  0  0  0
  2  5  1  0  0  0  0
  5  6  2  0  0  0  0
  5  7  1  0  0  0  0
  7  8  1  0  0  0  0
  7  9  1  0  0  0  0
  9 10  1  0  0  0  0
  9 11  1  0  0  0  0
  9 26  1  0  0  0  0
 11 12  1  0  0  0  0
 11 13  1  0  0  0  0
 11 14  1  0  0  0  0
 14 15  2  0  0  0  0
 14 24  1  0  0  0  0
 15 16  1  0  0  0  0
 15 17  1  0  0  0  0
 17 18  1  0  0  0  0
 17 19  2  0  0  0  0
 19 20  1  0  0  0  0
 19 22  1  0  0  0  0
 20 21  1  0  0  0  0
 22 23  1  0  0  0  0
 22 24  2  0  0  0  0
 24 25  1  0  0  0  0
 26 27  2  0  0  0  0
 26 28  1  0  0  0  0
 28 29  1  0  0  0  0
 28 30  1  0  0  0  0
 30 31  1  0  0  0  0
 30 32  1  0  0  0  0
 30 33  1  0  0  0  0
M  END
$$$$

  -OEChem-03222214083D

 33 33  0     1  0  0  0  0  0999 V2000
   -3.3224   -4.5470    0.8253 H   0  0  0  0  0  0  0  0  0  0  0  0
   -3.2875   -3.6283    0.2323 C   0  0  0  0  0  0  0  0  0  0  0  0
   -4.0348   -2.9316    0.6197 H   0  0  0  0  0  0  0  0  0  0  0  0
   -3.5264   -3.8707   -0.8060 H   0  0  0  0  0  0  0  0  0  0  0  0
   -1.9056   -3.0074    0.3141 C   0  0  0  0  0  0  0  0  0  0  0  0
   -1.0258   -3.5646    0.9457 O   0  0  0  0  0  0  0  0  0  0  0  0
   -1.6521   -1.8157   -0.3352 N   0  0  0  0  0  0  0  0  0  0  0  0
   -2.4447   -1.3524   -0.7681 H   0  0  0  0  0  0  0  0  0  0  0  0
   -0.4012   -1.0492   -0.1909 C   0  0  1  0  0  0  0  0  0  0  0  0
    0.4223   -1.7193   -0.4624 H   0  0  0  0  0  0  0  0  0  0  0  0
   -0.3768    0.1176   -1.1972 C   0  0  0  0  0  0  0  0  0  0  0  0
    0.5740    0.6524   -1.0960 H   0  0  0  0  0  0  0  0  0  0  0  0
   -0.4047   -0.2890   -2.2131 H   0  0  0  0  0  0  0  0  0  0  0  0
   -1.5218    1.0914   -1.0165 C   0  0  0  0  0  0  0  0  0  0  0  0
   -2.7337    0.9021   -1.6999 C   0  0  0  0  0  0  0  0  0  0  0  0
   -2.8493    0.0664   -2.3840 H   0  0  0  0  0  0  0  0  0  0  0  0
   -3.7975    1.7939   -1.5193 C   0  0  0  0  0  0  0  0  0  0  0  0
   -4.7268    1.6354   -2.0559 H   0  0  0  0  0  0  0  0  0  0  0  0
   -3.6590    2.8861   -0.6602 C   0  0  0  0  0  0  0  0  0  0  0  0
   -4.6887    3.7623   -0.4751 O   0  0  0  0  0  0  0  0  0  0  0  0
   -5.4289    3.5415   -1.0613 H   0  0  0  0  0  0  0  0  0  0  0  0
   -2.4546    3.0867    0.0113 C   0  0  0  0  0  0  0  0  0  0  0  0
   -2.3522    3.9422    0.6717 H   0  0  0  0  0  0  0  0  0  0  0  0
   -1.3873    2.2006   -0.1680 C   0  0  0  0  0  0  0  0  0  0  0  0
   -0.4547    2.3720    0.3641 H   0  0  0  0  0  0  0  0  0  0  0  0
   -0.0934   -0.5858    1.2509 C   0  0  0  0  0  0  0  0  0  0  0  0
    1.0691   -0.5140    1.6266 O   0  0  0  0  0  0  0  0  0  0  0  0
   -1.0833   -0.0280    2.0408 N   0  0  0  0  0  0  0  0  0  0  0  0
   -2.0114    0.0402    1.6358 H   0  0  0  0  0  0  0  0  0  0  0  0
   -0.8295    0.5792    3.3407 C   0  0  0  0  0  0  0  0  0  0  0  0
   -0.1570    1.4373    3.2387 H   0  0  0  0  0  0  0  0  0  0  0  0
   -1.7671    0.9245    3.7864 H   0  0  0  0  0  0  0  0  0  0  0  0
   -0.3723   -0.1487    4.0193 H   0  0  0  0  0  0  0  0  0  0  0  0
  1  2  1  0  0  0  0
  2  3  1  0  0  0  0
  2  4  1  0  0  0  0
  2  5  1  0  0  0  0
  5  6  2  0  0  0  0
  5  7  1  0  0  0  0
  7  8  1  0  0  0  0
  7  9  1  0  0  0  0
  9 10  1  0  0  0  0
  9 11  1  0  0  0  0
  9 26  1  0  0  0  0
 11 12  1  0  0  0  0
 11 13  1  0  0  0  0
 11 14  1  0  0  0  0
 14 15  2  0  0  0  0
 14 24  1  0  0  0  0
 15 16  1  0  0  0  0
 15 17  1  0  0  0  0
 17 18  1  0  0  0  0
 17 19  2  0  0  0  0
 19 20  1  0  0  0  0
 19 22  1  0  0  0  0
 20 21  1  0  0  0  0
 22 23  1  0  0  0  0
 22 24  2  0  0  0  0
 24 25  1  0  0  0  0
 26 27  2  0  0  0  0
 26 28  1  0  0  0  0
 28 29  1  0  0  0  0
 28 30  1  0  0  0  0
 30 31  1  0  0  0  0
 30 32  1  0  0  0  0
 30 33  1  0  0  0  0
M  END
$$$$

  -OEChem-03222214083D

 33 33  0     1  0  0  0  0  0999 V2000
   -3.2894   -4.5807    0.8695 H   0  0  0  0  0  0  0  0  0  0  0  0
   -3.2670   -3.6673    0.2684 C   0  0  0  0  0  0  0  0  0  0  0  0
   -4.0132   -2.9714    0.6591 H   0  0  0  0  0  0  0  0  0  0  0  0
   -3.5178   -3.9203   -0.7646 H   0  0  0  0  0  0  0  0  0  0  0  0
   -1.8873   -3.0390    0.3281 C   0  0  0  0  0  0  0  0  0  0  0  0
   -1.0013   -3.5779    0.9667 O   0  0  0  0  0  0  0  0  0  0  0  0
   -1.6436   -1.8610   -0.3501 N   0  0  0  0  0  0  0  0  0  0  0  0
   -2.4432   -1.4123   -0.7825 H   0  0  0  0  0  0  0  0  0  0  0  0
   -0.4018   -1.0779   -0.2128 C   0  0  1  0  0  0  0  0  0  0  0  0
    0.4318   -1.7419   -0.4680 H   0  0  0  0  0  0  0  0  0  0  0  0
   -0.3640    0.1008   -1.2076 C   0  0  0  0  0  0  0  0  0  0  0  0
    0.5942    0.6213   -1.1017 H   0  0  0  0  0  0  0  0  0  0  0  0
   -0.3950   -0.2991   -2.2261 H   0  0  0  0  0  0  0  0  0  0  0  0
   -1.5019    1.0887   -1.0395 C   0  0  0  0  0  0  0  0  0  0  0  0
   -2.8047    0.7914   -1.4742 C   0  0  0  0  0  0  0  0  0  0  0  0
   -3.0047   -0.1271   -2.0169 H   0  0  0  0  0  0  0  0  0  0  0  0
   -3.8535    1.6908   -1.2483 C   0  0  0  0  0  0  0  0  0  0  0  0
   -4.8516    1.4511   -1.5994 H   0  0  0  0  0  0  0  0  0  0  0  0
   -3.6148    2.8938   -0.5812 C   0  0  0  0  0  0  0  0  0  0  0  0
   -4.6285    3.7789   -0.3540 O   0  0  0  0  0  0  0  0  0  0  0  0
   -5.4436    3.4769   -0.7837 H   0  0  0  0  0  0  0  0  0  0  0  0
   -2.3266    3.1946   -0.1448 C   0  0  0  0  0  0  0  0  0  0  0  0
   -2.1485    4.1309    0.3745 H   0  0  0  0  0  0  0  0  0  0  0  0
   -1.2745    2.3013   -0.3710 C   0  0  0  0  0  0  0  0  0  0  0  0
   -0.2796    2.5483   -0.0090 H   0  0  0  0  0  0  0  0  0  0  0  0
   -0.1217   -0.5803    1.2233 C   0  0  0  0  0  0  0  0  0  0  0  0
    1.0327   -0.4929    1.6201 O   0  0  0  0  0  0  0  0  0  0  0  0
   -1.1348   -0.0174    1.9801 N   0  0  0  0  0  0  0  0  0  0  0  0
   -2.0392    0.0789    1.5295 H   0  0  0  0  0  0  0  0  0  0  0  0
   -0.9029    0.6676    3.2451 C   0  0  0  0  0  0  0  0  0  0  0  0
   -0.2950    1.5647    3.0886 H   0  0  0  0  0  0  0  0  0  0  0  0
   -1.8555    0.9662    3.6932 H   0  0  0  0  0  0  0  0  0  0  0  0
   -0.3839    0.0080    3.9488 H   0  0  0  0  0  0  0  0  0  0  0  0
  1  2  1  0  0  0  0
  2  3  1  0  0  0  0
  2  4  1  0  0  0  0
  2  5  1  0  0  0  0
  5  6  2  0  0  0  0
  5  7  1  0  0  0  0
  7  8  1  0  0  0  0
  7  9  1  0  0  0  0
  9 10  1  0  0  0  0
  9 11  1  0  0  0  0
  9 26  1  0  0  0  0
 11 12  1  0  0  0  0
 11 13  1  0  0  0  0
 11 14  1  0  0  0  0
 14 15  2  0  0  0  0
 14 24  1  0  0  0  0
 15 16  1  0  0  0  0
 15 17  1  0  0  0  0
 17 18  1  0  0  0  0
 17 19  2  0  0  0  0
 19 20  1  0  0  0  0
 19 22  1  0  0  0  0
 20 21  1  0  0  0  0
 22 23  1  0  0  0  0
 22 24  2  0  0  0  0
 24 25  1  0  0  0  0
 26 27  2  0  0  0  0
 26 28  1  0  0  0  0
 28 29  1  0  0  0  0
 28 30  1  0  0  0  0
 30 31  1  0  0  0  0
 30 32  1  0  0  0  0
 30 33  1  0  0  0  0
M  END
$$$$

  -OEChem-03222214083D

 33 33  0     1  0  0  0  0  0999 V2000
   -3.1608   -4.7751    0.8163 H   0  0  0  0  0  0  0  0  0  0  0  0
   -3.1611   -3.8771    0.1917 C   0  0  0  0  0  0  0  0  0  0  0  0
   -4.0406   -3.2780    0.4385 H   0  0  0  0  0  0  0  0  0  0  0  0
   -3.2148   -4.1792   -0.8569 H   0  0  0  0  0  0  0  0  0  0  0  0
   -1.8992   -3.0712    0.4368 C   0  0  0  0  0  0  0  0  0  0  0  0
   -1.0820   -3.4616    1.2504 O   0  0  0  0  0  0  0  0  0  0  0  0
   -1.6797   -1.9109   -0.2804 N   0  0  0  0  0  0  0  0  0  0  0  0
   -2.3342   -1.7057   -1.0263 H   0  0  0  0  0  0  0  0  0  0  0  0
   -0.4483   -1.1041   -0.1932 C   0  0  1  0  0  0  0  0  0  0  0  0
    0.3907   -1.7592   -0.4527 H   0  0  0  0  0  0  0  0  0  0  0  0
   -0.4415    0.0779   -1.1886 C   0  0  0  0  0  0  0  0  0  0  0  0
    0.5265    0.5851   -1.1086 H   0  0  0  0  0  0  0  0  0  0  0  0
   -0.4980   -0.3289   -2.2030 H   0  0  0  0  0  0  0  0  0  0  0  0
   -1.5640    1.0937   -1.0284 C   0  0  0  0  0  0  0  0  0  0  0  0
   -2.9278    0.7647   -1.1429 C   0  0  0  0  0  0  0  0  0  0  0  0
   -3.2420   -0.2289   -1.4370 H   0  0  0  0  0  0  0  0  0  0  0  0
   -3.9190    1.7283   -0.9189 C   0  0  0  0  0  0  0  0  0  0  0  0
   -4.9641    1.4580   -1.0248 H   0  0  0  0  0  0  0  0  0  0  0  0
   -3.5662    3.0314   -0.5665 C   0  0  0  0  0  0  0  0  0  0  0  0
   -4.5227    3.9789   -0.3420 O   0  0  0  0  0  0  0  0  0  0  0  0
   -5.4056    3.6097   -0.4966 H   0  0  0  0  0  0  0  0  0  0  0  0
   -2.2215    3.3673   -0.4427 C   0  0  0  0  0  0  0  0  0  0  0  0
   -1.9514    4.3808   -0.1635 H   0  0  0  0  0  0  0  0  0  0  0  0
   -1.2280    2.4097   -0.6694 C   0  0  0  0  0  0  0  0  0  0  0  0
   -0.1867    2.6968   -0.5493 H   0  0  0  0  0  0  0  0  0  0  0  0
   -0.1452   -0.5550    1.2198 C   0  0  0  0  0  0  0  0  0  0  0  0
    1.0182   -0.4338    1.5821 O   0  0  0  0  0  0  0  0  0  0  0  0
   -1.1492    0.0171    1.9807 N   0  0  0  0  0  0  0  0  0  0  0  0
   -2.0766    0.0421    1.5691 H   0  0  0  0  0  0  0  0  0  0  0  0
   -0.9064    0.7285    3.2281 C   0  0  0  0  0  0  0  0  0  0  0  0
   -0.2556    1.5919    3.0564 H   0  0  0  0  0  0  0  0  0  0  0  0
   -1.8507    1.0848    3.6500 H   0  0  0  0  0  0  0  0  0  0  0  0
   -0.4291    0.0664    3.9581 H   0  0  0  0  0  0  0  0  0  0  0  0
  1  2  1  0  0  0  0
  2  3  1  0  0  0  0
  2  4  1  0  0  0  0
  2  5  1  0  0  0  0
  5  6  2  0  0  0  0
  5  7  1  0  0  0  0
  7  8  1  0  0  0  0
  7  9  1  0  0  0  0
  9 10  1  0  0  0  0
  9 11  1  0  0  0  0
  9 26  1  0  0  0  0
 11 12  1  0  0  0  0
 11 13  1  0  0  0  0
 11 14  1  0  0  0  0
 14 15  2  0  0  0  0
 14 24  1  0  0  0  0
 15 16  1  0  0  0  0
 15 17  1  0  0  0  0
 17 18  1  0  0  0  0
 17 19  2  0  0  0  0
 19 20  1  0  0  0  0
 19 22  1  0  0  0  0
 20 21  1  0  0  0  0
 22 23  1  0  0  0  0
 22 24  2  0  0  0  0
 24 25  1  0  0  0  0
 26 27  2  0  0  0  0
 26 28  1  0  0  0  0
 28 29  1  0  0  0  0
 28 30  1  0  0  0  0
 30 31  1  0  0  0  0
 30 32  1  0  0  0  0
 30 33  1  0  0  0  0
M  END
$$$$

  -OEChem-03222214083D

 33 33  0     1  0  0  0  0  0999 V2000
   -3.0692   -4.8641    0.8026 H   0  0  0  0  0  0  0  0  0  0  0  0
   -3.0865   -3.9714    0.1707 C   0  0  0  0  0  0  0  0  0  0  0  0
   -3.9988   -3.4090    0.3825 H   0  0  0  0  0  0  0  0  0  0  0  0
   -3.0914   -4.2831   -0.8764 H   0  0  0  0  0  0  0  0  0  0  0  0
   -1.8690   -3.1105    0.4511 C   0  0  0  0  0  0  0  0  0  0  0  0
   -1.0589   -3.4653    1.2876 O   0  0  0  0  0  0  0  0  0  0  0  0
   -1.6862   -1.9375   -0.2560 N   0  0  0  0  0  0  0  0  0  0  0  0
   -2.3085   -1.7875   -1.0433 H   0  0  0  0  0  0  0  0  0  0  0  0
   -0.4680   -1.1101   -0.1802 C   0  0  1  0  0  0  0  0  0  0  0  0
    0.3768   -1.7466   -0.4666 H   0  0  0  0  0  0  0  0  0  0  0  0
   -0.5022    0.0889   -1.1561 C   0  0  0  0  0  0  0  0  0  0  0  0
    0.4650    0.5983   -1.0811 H   0  0  0  0  0  0  0  0  0  0  0  0
   -0.5667   -0.3094   -2.1734 H   0  0  0  0  0  0  0  0  0  0  0  0
   -1.6227    1.1148   -0.9961 C   0  0  0  0  0  0  0  0  0  0  0  0
   -2.9822    0.7967   -0.7976 C   0  0  0  0  0  0  0  0  0  0  0  0
   -3.3395   -0.2233   -0.7939 H   0  0  0  0  0  0  0  0  0  0  0  0
   -3.9393    1.8033   -0.6223 C   0  0  0  0  0  0  0  0  0  0  0  0
   -4.9799    1.5335   -0.4785 H   0  0  0  0  0  0  0  0  0  0  0  0
   -3.5615    3.1452   -0.6373 C   0  0  0  0  0  0  0  0  0  0  0  0
   -4.4869    4.1339   -0.4675 O   0  0  0  0  0  0  0  0  0  0  0  0
   -5.3695    3.7518   -0.3466 H   0  0  0  0  0  0  0  0  0  0  0  0
   -2.2244    3.4765   -0.8286 C   0  0  0  0  0  0  0  0  0  0  0  0
   -1.9335    4.5222   -0.8357 H   0  0  0  0  0  0  0  0  0  0  0  0
   -1.2648    2.4746   -1.0053 C   0  0  0  0  0  0  0  0  0  0  0  0
   -0.2276    2.7680   -1.1423 H   0  0  0  0  0  0  0  0  0  0  0  0
   -0.1420   -0.5705    1.2314 C   0  0  0  0  0  0  0  0  0  0  0  0
    1.0279   -0.4408    1.5690 O   0  0  0  0  0  0  0  0  0  0  0  0
   -1.1349   -0.0227    2.0235 N   0  0  0  0  0  0  0  0  0  0  0  0
   -2.0765   -0.0256    1.6460 H   0  0  0  0  0  0  0  0  0  0  0  0
   -0.8722    0.6686    3.2782 C   0  0  0  0  0  0  0  0  0  0  0  0
   -0.2454    1.5496    3.1055 H   0  0  0  0  0  0  0  0  0  0  0  0
   -1.8115    0.9951    3.7341 H   0  0  0  0  0  0  0  0  0  0  0  0
   -0.3599    0.0027    3.9806 H   0  0  0  0  0  0  0  0  0  0  0  0
  1  2  1  0  0  0  0
  2  3  1  0  0  0  0
  2  4  1  0  0  0  0
  2  5  1  0  0  0  0
  5  6  2  0  0  0  0
  5  7  1  0  0  0  0
  7  8  1  0  0  0  0
  7  9  1  0  0  0  0
  9 10  1  0  0  0  0
  9 11  1  0  0  0  0
  9 26  1  0  0  0  0
 11 12  1  0  0  0  0
 11 13  1  0  0  0  0
 11 14  1  0  0  0  0
 14 15  2  0  0  0  0
 14 24  1  0  0  0  0
 15 16  1  0  0  0  0
 15 17  1  0  0  0  0
 17 18  1  0  0  0  0
 17 19  2  0  0  0  0
 19 20  1  0  0  0  0
 19 22  1  0  0  0  0
 20 21  1  0  0  0  0
 22 23  1  0  0  0  0
 22 24  2  0  0  0  0
 24 25  1  0  0  0  0
 26 27  2  0  0  0  0
 26 28  1  0  0  0  0
 28 29  1  0  0  0  0
 28 30  1  0  0  0  0
 30 31  1  0  0  0  0
 30 32  1  0  0  0  0
 30 33  1  0  0  0  0
M  END
$$$$

  -OEChem-03222214083D

 33 33  0     1  0  0  0  0  0999 V2000
   -3.0304   -4.8954    0.7454 H   0  0  0  0  0  0  0  0  0  0  0  0
   -3.0664   -3.9820    0.1448 C   0  0  0  0  0  0  0  0  0  0  0  0
   -3.9806   -3.4361    0.3896 H   0  0  0  0  0  0  0  0  0  0  0  0
   -3.0852   -4.2581   -0.9123 H   0  0  0  0  0  0  0  0  0  0  0  0
   -1.8522   -3.1194    0.4350 C   0  0  0  0  0  0  0  0  0  0  0  0
   -1.0296   -3.4884    1.2527 O   0  0  0  0  0  0  0  0  0  0  0  0
   -1.6899   -1.9229   -0.2360 N   0  0  0  0  0  0  0  0  0  0  0  0
   -2.3386   -1.7398   -0.9957 H   0  0  0  0  0  0  0  0  0  0  0  0
   -0.4761   -1.0887   -0.1588 C   0  0  1  0  0  0  0  0  0  0  0  0
    0.3648   -1.7143   -0.4783 H   0  0  0  0  0  0  0  0  0  0  0  0
   -0.5425    0.1182   -1.1214 C   0  0  0  0  0  0  0  0  0  0  0  0
    0.4187    0.6399   -1.0462 H   0  0  0  0  0  0  0  0  0  0  0  0
   -0.6069   -0.2747   -2.1407 H   0  0  0  0  0  0  0  0  0  0  0  0
   -1.6623    1.1457   -0.9620 C   0  0  0  0  0  0  0  0  0  0  0  0
   -2.9570    0.8822   -0.4656 C   0  0  0  0  0  0  0  0  0  0  0  0
   -3.2683   -0.1023   -0.1472 H   0  0  0  0  0  0  0  0  0  0  0  0
   -3.9088    1.9038   -0.3605 C   0  0  0  0  0  0  0  0  0  0  0  0
   -4.8965    1.6776    0.0265 H   0  0  0  0  0  0  0  0  0  0  0  0
   -3.5942    3.2045   -0.7518 C   0  0  0  0  0  0  0  0  0  0  0  0
   -4.5154    4.2073   -0.6547 O   0  0  0  0  0  0  0  0  0  0  0  0
   -5.3383    3.8723   -0.2672 H   0  0  0  0  0  0  0  0  0  0  0  0
   -2.3250    3.4797   -1.2482 C   0  0  0  0  0  0  0  0  0  0  0  0
   -2.0835    4.4932   -1.5519 H   0  0  0  0  0  0  0  0  0  0  0  0
   -1.3704    2.4639   -1.3527 C   0  0  0  0  0  0  0  0  0  0  0  0
   -0.3874    2.7125   -1.7430 H   0  0  0  0  0  0  0  0  0  0  0  0
   -0.1110   -0.5842    1.2562 C   0  0  0  0  0  0  0  0  0  0  0  0
    1.0683   -0.4618    1.5618 O   0  0  0  0  0  0  0  0  0  0  0  0
   -1.0774   -0.0623    2.0971 N   0  0  0  0  0  0  0  0  0  0  0  0
   -2.0380   -0.0991    1.7759 H   0  0  0  0  0  0  0  0  0  0  0  0
   -0.7771    0.5572    3.3809 C   0  0  0  0  0  0  0  0  0  0  0  0
   -0.1323    1.4314    3.2424 H   0  0  0  0  0  0  0  0  0  0  0  0
   -1.7004    0.8823    3.8695 H   0  0  0  0  0  0  0  0  0  0  0  0
   -0.2692   -0.1557    4.0388 H   0  0  0  0  0  0  0  0  0  0  0  0
  1  2  1  0  0  0  0
  2  3  1  0  0  0  0
  2  4  1  0  0  0  0
  2  5  1  0  0  0  0
  5  6  2  0  0  0  0
  5  7  1  0  0  0  0
  7  8  1  0  0  0  0
  7  9  1  0  0  0  0
  9 10  1  0  0  0  0
  9 11  1  0  0  0  0
  9 26  1  0  0  0  0
 11 12  1  0  0  0  0
 11 13  1  0  0  0  0
 11 14  1  0  0  0  0
 14 15  2  0  0  0  0
 14 24  1  0  0  0  0
 15 16  1  0  0  0  0
 15 17  1  0  0  0  0
 17 18  1  0  0  0  0
 17 19  2  0  0  0  0
 19 20  1  0  0  0  0
 19 22  1  0  0  0  0
 20 21  1  0  0  0  0
 22 23  1  0  0  0  0
 22 24  2  0  0  0  0
 24 25  1  0  0  0  0
 26 27  2  0  0  0  0
 26 28  1  0  0  0  0
 28 29  1  0  0  0  0
 28 30  1  0  0  0  0
 30 31  1  0  0  0  0
 30 32  1  0  0  0  0
 30 33  1  0  0  0  0
M  END
$$$$

  -OEChem-03222214083D

 33 33  0     1  0  0  0  0  0999 V2000
   -3.0549   -4.8665    0.7015 H   0  0  0  0  0  0  0  0  0  0  0  0
   -3.0910   -3.9394    0.1220 C   0  0  0  0  0  0  0  0  0  0  0  0
   -3.9978   -3.3926    0.3908 H   0  0  0  0  0  0  0  0  0  0  0  0
   -3.1254   -4.1910   -0.9407 H   0  0  0  0  0  0  0  0  0  0  0  0
   -1.8665   -3.0925    0.4155 C   0  0  0  0  0  0  0  0  0  0  0  0
   -1.0344   -3.4859    1.2121 O   0  0  0  0  0  0  0  0  0  0  0  0
   -1.7105   -1.8727   -0.2131 N   0  0  0  0  0  0  0  0  0  0  0  0
   -2.3878   -1.6418   -0.9350 H   0  0  0  0  0  0  0  0  0  0  0  0
   -0.4926   -1.0441   -0.1272 C   0  0  1  0  0  0  0  0  0  0  0  0
    0.3355   -1.6771   -0.4664 H   0  0  0  0  0  0  0  0  0  0  0  0
   -0.5574    0.1509   -1.1030 C   0  0  0  0  0  0  0  0  0  0  0  0
    0.3973    0.6833   -1.0245 H   0  0  0  0  0  0  0  0  0  0  0  0
   -0.6096   -0.2559   -2.1177 H   0  0  0  0  0  0  0  0  0  0  0  0
   -1.6781    1.1777   -0.9693 C   0  0  0  0  0  0  0  0  0  0  0  0
   -2.8608    1.0079   -0.2200 C   0  0  0  0  0  0  0  0  0  0  0  0
   -3.0593    0.1060    0.3423 H   0  0  0  0  0  0  0  0  0  0  0  0
   -3.8310    2.0165   -0.1688 C   0  0  0  0  0  0  0  0  0  0  0  0
   -4.7302    1.8646    0.4184 H   0  0  0  0  0  0  0  0  0  0  0  0
   -3.6442    3.2095   -0.8665 C   0  0  0  0  0  0  0  0  0  0  0  0
   -4.5824    4.1998   -0.8227 O   0  0  0  0  0  0  0  0  0  0  0  0
   -5.3012    3.9546   -0.2202 H   0  0  0  0  0  0  0  0  0  0  0  0
   -2.4854    3.3898   -1.6144 C   0  0  0  0  0  0  0  0  0  0  0  0
   -2.3442    4.3201   -2.1550 H   0  0  0  0  0  0  0  0  0  0  0  0
   -1.5129    2.3864   -1.6660 C   0  0  0  0  0  0  0  0  0  0  0  0
   -0.6166    2.5552   -2.2565 H   0  0  0  0  0  0  0  0  0  0  0  0
   -0.0769   -0.5779    1.2884 C   0  0  0  0  0  0  0  0  0  0  0  0
    1.1139   -0.4545    1.5453 O   0  0  0  0  0  0  0  0  0  0  0  0
   -1.0025   -0.0734    2.1841 N   0  0  0  0  0  0  0  0  0  0  0  0
   -1.9803   -0.2129    1.9599 H   0  0  0  0  0  0  0  0  0  0  0  0
   -0.6454    0.4495    3.4964 C   0  0  0  0  0  0  0  0  0  0  0  0
    0.0439    1.2945    3.3973 H   0  0  0  0  0  0  0  0  0  0  0  0
   -1.5400    0.7955    4.0227 H   0  0  0  0  0  0  0  0  0  0  0  0
   -0.1662   -0.3286    4.0998 H   0  0  0  0  0  0  0  0  0  0  0  0
  1  2  1  0  0  0  0
  2  3  1  0  0  0  0
  2  4  1  0  0  0  0
  2  5  1  0  0  0  0
  5  6  2  0  0  0  0
  5  7  1  0  0  0  0
  7  8  1  0  0  0  0
  7  9  1  0  0  0  0
  9 10  1  0  0  0  0
  9 11  1  0  0  0  0
  9 26  1  0  0  0  0
 11 12  1  0  0  0  0
 11 13  1  0  0  0  0
 11 14  1  0  0  0  0
 14 15  2  0  0  0  0
 14 24  1  0  0  0  0
 15 16  1  0  0  0  0
 15 17  1  0  0  0  0
 17 18  1  0  0  0  0
 17 19  2  0  0  0  0
 19 20  1  0  0  0  0
 19 22  1  0  0  0  0
 20 21  1  0  0  0  0
 22 23  1  0  0  0  0
 22 24  2  0  0  0  0
 24 25  1  0  0  0  0
 26 27  2  0  0  0  0
 26 28  1  0  0  0  0
 28 29  1  0  0  0  0
 28 30  1  0  0  0  0
 30 31  1  0  0  0  0
 30 32  1  0  0  0  0
 30 33  1  0  0  0  0
M  END
$$$$

  -OEChem-03222214083D

 33 33  0     1  0  0  0  0  0999 V2000
   -3.0406   -4.8613    0.6630 H   0  0  0  0  0  0  0  0  0  0  0  0
   -3.0912   -3.9199    0.1082 C   0  0  0  0  0  0  0  0  0  0  0  0
   -4.0011   -3.3893    0.3986 H   0  0  0  0  0  0  0  0  0  0  0  0
   -3.1323   -4.1443   -0.9605 H   0  0  0  0  0  0  0  0  0  0  0  0
   -1.8722   -3.0695    0.4129 C   0  0  0  0  0  0  0  0  0  0  0  0
   -1.0243   -3.4781    1.1856 O   0  0  0  0  0  0  0  0  0  0  0  0
   -1.7405   -1.8241   -0.1682 N   0  0  0  0  0  0  0  0  0  0  0  0
   -2.4429   -1.5602   -0.8544 H   0  0  0  0  0  0  0  0  0  0  0  0
   -0.5284   -0.9890   -0.0736 C   0  0  1  0  0  0  0  0  0  0  0  0
    0.2891   -1.6307   -0.4221 H   0  0  0  0  0  0  0  0  0  0  0  0
   -0.5758    0.1800   -1.0803 C   0  0  0  0  0  0  0  0  0  0  0  0
    0.3704    0.7258   -0.9932 H   0  0  0  0  0  0  0  0  0  0  0  0
   -0.5996   -0.2557   -2.0842 H   0  0  0  0  0  0  0  0  0  0  0  0
   -1.7058    1.1977   -1.0004 C   0  0  0  0  0  0  0  0  0  0  0  0
   -2.7545    1.1739   -0.0612 C   0  0  0  0  0  0  0  0  0  0  0  0
   -2.8404    0.3834    0.6710 H   0  0  0  0  0  0  0  0  0  0  0  0
   -3.7389    2.1699   -0.0575 C   0  0  0  0  0  0  0  0  0  0  0  0
   -4.5372    2.1305    0.6755 H   0  0  0  0  0  0  0  0  0  0  0  0
   -3.6949    3.2064   -0.9896 C   0  0  0  0  0  0  0  0  0  0  0  0
   -4.6480    4.1835   -0.9940 O   0  0  0  0  0  0  0  0  0  0  0  0
   -5.2581    4.0597   -0.2508 H   0  0  0  0  0  0  0  0  0  0  0  0
   -2.6653    3.2424   -1.9247 C   0  0  0  0  0  0  0  0  0  0  0  0
   -2.6338    4.0527   -2.6460 H   0  0  0  0  0  0  0  0  0  0  0  0
   -1.6796    2.2503   -1.9300 C   0  0  0  0  0  0  0  0  0  0  0  0
   -0.8812    2.3057   -2.6650 H   0  0  0  0  0  0  0  0  0  0  0  0
   -0.0605   -0.5610    1.3387 C   0  0  0  0  0  0  0  0  0  0  0  0
    1.1386   -0.4074    1.5332 O   0  0  0  0  0  0  0  0  0  0  0  0
   -0.9436   -0.0902    2.2935 N   0  0  0  0  0  0  0  0  0  0  0  0
   -1.9144   -0.3526    2.1695 H   0  0  0  0  0  0  0  0  0  0  0  0
   -0.5131    0.3842    3.6028 C   0  0  0  0  0  0  0  0  0  0  0  0
    0.1666    1.2361    3.4965 H   0  0  0  0  0  0  0  0  0  0  0  0
   -1.3770    0.7059    4.1916 H   0  0  0  0  0  0  0  0  0  0  0  0
    0.0029   -0.4128    4.1483 H   0  0  0  0  0  0  0  0  0  0  0  0
  1  2  1  0  0  0  0
  2  3  1  0  0  0  0
  2  4  1  0  0  0  0
  2  5  1  0  0  0  0
  5  6  2  0  0  0  0
  5  7  1  0  0  0  0
  7  8  1  0  0  0  0
  7  9  1  0  0  0  0
  9 10  1  0  0  0  0
  9 11  1  0  0  0  0
  9 26  1  0  0  0  0
 11 12  1  0  0  0  0
 11 13  1  0  0  0  0
 11 14  1  0  0  0  0
 14 15  2  0  0  0  0
 14 24  1  0  0  0  0
 15 16  1  0  0  0  0
 15 17  1  0  0  0  0
 17 18  1  0  0  0  0
 17 19  2  0  0  0  0
 19 20  1  0  0  0  0
 19 22  1  0  0  0  0
 20 21  1  0  0  0  0
 22 23  1  0  0  0  0
 22 24  2  0  0  0  0
 24 25  1  0  0  0  0
 26 27  2  0  0  0  0
 26 28  1  0  0  0  0
 28 29  1  0  0  0  0
 28 30  1  0  0  0  0
 30 31  1  0  0  0  0
 30 32  1  0  0  0  0
 30 33  1  0  0  0  0
M  END
$$$$

  -OEChem-03222214083D

 33 33  0     1  0  0  0  0  0999 V2000
   -3.2050   -4.7805    0.8253 H   0  0  0  0  0  0  0  0  0  0  0  0
   -3.2495   -3.8328    0.2809 C   0  0  0  0  0  0  0  0  0  0  0  0
   -4.1181   -3.2682    0.6277 H   0  0  0  0  0  0  0  0  0  0  0  0
   -3.3629   -4.0456   -0.7849 H   0  0  0  0  0  0  0  0  0  0  0  0
   -1.9807   -3.0350    0.5176 C   0  0  0  0  0  0  0  0  0  0  0  0
   -1.0996   -3.4886    1.2255 O   0  0  0  0  0  0  0  0  0  0  0  0
   -1.8381   -1.7863   -0.0530 N   0  0  0  0  0  0  0  0  0  0  0  0
   -2.5865   -1.4685   -0.6638 H   0  0  0  0  0  0  0  0  0  0  0  0
   -0.5998   -0.9881   -0.0155 C   0  0  1  0  0  0  0  0  0  0  0  0
    0.1719   -1.6775   -0.3775 H   0  0  0  0  0  0  0  0  0  0  0  0
   -0.6218    0.1227   -1.0872 C   0  0  0  0  0  0  0  0  0  0  0  0
    0.3396    0.6457   -1.0399 H   0  0  0  0  0  0  0  0  0  0  0  0
   -0.6643   -0.3736   -2.0623 H   0  0  0  0  0  0  0  0  0  0  0  0
   -1.7181    1.1782   -1.0615 C   0  0  0  0  0  0  0  0  0  0  0  0
   -2.5748    1.4319    0.0241 C   0  0  0  0  0  0  0  0  0  0  0  0
   -2.5259    0.8493    0.9299 H   0  0  0  0  0  0  0  0  0  0  0  0
   -3.5436    2.4409   -0.0431 C   0  0  0  0  0  0  0  0  0  0  0  0
   -4.1938    2.6141    0.8073 H   0  0  0  0  0  0  0  0  0  0  0  0
   -3.6735    3.2167   -1.1945 C   0  0  0  0  0  0  0  0  0  0  0  0
   -4.6133    4.2035   -1.2702 O   0  0  0  0  0  0  0  0  0  0  0  0
   -5.0681    4.2985   -0.4192 H   0  0  0  0  0  0  0  0  0  0  0  0
   -2.8323    2.9791   -2.2767 C   0  0  0  0  0  0  0  0  0  0  0  0
   -2.9340    3.5877   -3.1695 H   0  0  0  0  0  0  0  0  0  0  0  0
   -1.8625    1.9734   -2.2109 C   0  0  0  0  0  0  0  0  0  0  0  0
   -1.2110    1.8162   -3.0661 H   0  0  0  0  0  0  0  0  0  0  0  0
   -0.0292   -0.5834    1.3667 C   0  0  0  0  0  0  0  0  0  0  0  0
    1.1836   -0.4565    1.4775 O   0  0  0  0  0  0  0  0  0  0  0  0
   -0.8267   -0.0939    2.3854 N   0  0  0  0  0  0  0  0  0  0  0  0
   -1.8064   -0.3518    2.3393 H   0  0  0  0  0  0  0  0  0  0  0  0
   -0.2860    0.3400    3.6683 C   0  0  0  0  0  0  0  0  0  0  0  0
    0.4238    1.1619    3.5266 H   0  0  0  0  0  0  0  0  0  0  0  0
   -1.0920    0.6913    4.3194 H   0  0  0  0  0  0  0  0  0  0  0  0
    0.2295   -0.4882    4.1664 H   0  0  0  0  0  0  0  0  0  0  0  0
  1  2  1  0  0  0  0
  2  3  1  0  0  0  0
  2  4  1  0  0  0  0
  2  5  1  0  0  0  0
  5  6  2  0  0  0  0
  5  7  1  0  0  0  0
  7  8  1  0  0  0  0
  7  9  1  0  0  0  0
  9 10  1  0  0  0  0
  9 11  1  0  0  0  0
  9 26  1  0  0  0  0
 11 12  1  0  0  0  0
 11 13  1  0  0  0  0
 11 14  1  0  0  0  0
 14 15  2  0  0  0  0
 14 24  1  0  0  0  0
 15 16  1  0  0  0  0
 15 17  1  0  0  0  0
 17 18  1  0  0  0  0
 17 19  2  0  0  0  0
 19 20  1  0  0  0  0
 19 22  1  0  0  0  0
 20 21  1  0  0  0  0
 22 23  1  0  0  0  0
 22 24  2  0  0  0  0
 24 25  1  0  0  0  0
 26 27  2  0  0  0  0
 26 28  1  0  0  0  0
 28 29  1  0  0  0  0
 28 30  1  0  0  0  0
 30 31  1  0  0  0  0
 30 32  1  0  0  0  0
 30 33  1  0  0  0  0
M  END
$$$$

  -OEChem-03222214083D

 33 33  0     1  0  0  0  0  0999 V2000
   -3.1459   -4.7393    0.6741 H   0  0  0  0  0  0  0  0  0  0  0  0
   -3.1962   -3.7713    0.1673 C   0  0  0  0  0  0  0  0  0  0  0  0
   -4.0438   -3.2091    0.5664 H   0  0  0  0  0  0  0  0  0  0  0  0
   -3.3504   -3.9413   -0.9010 H   0  0  0  0  0  0  0  0  0  0  0  0
   -1.9087   -2.9999    0.3878 C   0  0  0  0  0  0  0  0  0  0  0  0
   -0.9962   -3.5044    1.0174 O   0  0  0  0  0  0  0  0  0  0  0  0
   -1.7856   -1.7174   -0.1069 N   0  0  0  0  0  0  0  0  0  0  0  0
   -2.5696   -1.3480   -0.6389 H   0  0  0  0  0  0  0  0  0  0  0  0
   -0.5565   -0.9081   -0.0441 C   0  0  1  0  0  0  0  0  0  0  0  0
    0.2187   -1.5745   -0.4407 H   0  0  0  0  0  0  0  0  0  0  0  0
   -0.5966    0.2305   -1.0881 C   0  0  0  0  0  0  0  0  0  0  0  0
    0.3559    0.7678   -1.0259 H   0  0  0  0  0  0  0  0  0  0  0  0
   -0.6247   -0.2467   -2.0732 H   0  0  0  0  0  0  0  0  0  0  0  0
   -1.7069    1.2721   -1.0364 C   0  0  0  0  0  0  0  0  0  0  0  0
   -2.3614    1.7003    0.1313 C   0  0  0  0  0  0  0  0  0  0  0  0
   -2.0785    1.3360    1.1042 H   0  0  0  0  0  0  0  0  0  0  0  0
   -3.3934    2.6454    0.0756 C   0  0  0  0  0  0  0  0  0  0  0  0
   -3.8756    2.9631    0.9938 H   0  0  0  0  0  0  0  0  0  0  0  0
   -3.7928    3.1804   -1.1483 C   0  0  0  0  0  0  0  0  0  0  0  0
   -4.7960    4.1036   -1.2142 O   0  0  0  0  0  0  0  0  0  0  0  0
   -5.0803    4.3524   -0.3213 H   0  0  0  0  0  0  0  0  0  0  0  0
   -3.1531    2.7710   -2.3133 C   0  0  0  0  0  0  0  0  0  0  0  0
   -3.4627    3.1949   -3.2633 H   0  0  0  0  0  0  0  0  0  0  0  0
   -2.1199    1.8302   -2.2595 C   0  0  0  0  0  0  0  0  0  0  0  0
   -1.6369    1.5340   -3.1864 H   0  0  0  0  0  0  0  0  0  0  0  0
    0.0153   -0.5945    1.3598 C   0  0  0  0  0  0  0  0  0  0  0  0
    1.2258   -0.4578    1.4810 O   0  0  0  0  0  0  0  0  0  0  0  0
   -0.7915   -0.1889    2.4075 N   0  0  0  0  0  0  0  0  0  0  0  0
   -1.7712   -0.4414    2.3280 H   0  0  0  0  0  0  0  0  0  0  0  0
   -0.2647    0.1305    3.7292 C   0  0  0  0  0  0  0  0  0  0  0  0
    0.4557    0.9532    3.6675 H   0  0  0  0  0  0  0  0  0  0  0  0
   -1.0767    0.4349    4.3964 H   0  0  0  0  0  0  0  0  0  0  0  0
    0.2341   -0.7426    4.1632 H   0  0  0  0  0  0  0  0  0  0  0  0
  1  2  1  0  0  0  0
  2  3  1  0  0  0  0
  2  4  1  0  0  0  0
  2  5  1  0  0  0  0
  5  6  2  0  0  0  0
  5  7  1  0  0  0  0
  7  8  1  0  0  0  0
  7  9  1  0  0  0  0
  9 10  1  0  0  0  0
  9 11  1  0  0  0  0
  9 26  1  0  0  0  0
 11 12  1  0  0  0  0
 11 13  1  0  0  0  0
 11 14  1  0  0  0  0
 14 15  2  0  0  0  0
 14 24  1  0  0  0  0
 15 16  1  0  0  0  0
 15 17  1  0  0  0  0
 17 18  1  0  0  0  0
 17 19  2  0  0  0  0
 19 20  1  0  0  0  0
 19 22  1  0  0  0  0
 20 21  1  0  0  0  0
 22 23  1  0  0  0  0
 22 24  2  0  0  0  0
 24 25  1  0  0  0  0
 26 27  2  0  0  0  0
 26 28  1  0  0  0  0
 28 29  1  0  0  0  0
 28 30  1  0  0  0  0
 30 31  1  0  0  0  0
 30 32  1  0  0  0  0
 30 33  1  0  0  0  0
M  END
$$$$

  -OEChem-03222214083D

 33 33  0     1  0  0  0  0  0999 V2000
   -3.2970   -4.5972    0.6720 H   0  0  0  0  0  0  0  0  0  0  0  0
   -3.2870   -3.6377    0.1468 C   0  0  0  0  0  0  0  0  0  0  0  0
   -4.0975   -3.0163    0.5350 H   0  0  0  0  0  0  0  0  0  0  0  0
   -3.4526   -3.8176   -0.9182 H   0  0  0  0  0  0  0  0  0  0  0  0
   -1.9537   -2.9435    0.3528 C   0  0  0  0  0  0  0  0  0  0  0  0
   -1.0734   -3.4927    0.9907 O   0  0  0  0  0  0  0  0  0  0  0  0
   -1.7511   -1.6820   -0.1695 N   0  0  0  0  0  0  0  0  0  0  0  0
   -2.5192   -1.2639   -0.6885 H   0  0  0  0  0  0  0  0  0  0  0  0
   -0.4925   -0.9224   -0.0729 C   0  0  1  0  0  0  0  0  0  0  0  0
    0.2818   -1.6119   -0.4294 H   0  0  0  0  0  0  0  0  0  0  0  0
   -0.4807    0.2121   -1.1233 C   0  0  0  0  0  0  0  0  0  0  0  0
    0.4821    0.7277   -1.0411 H   0  0  0  0  0  0  0  0  0  0  0  0
   -0.4985   -0.2608   -2.1107 H   0  0  0  0  0  0  0  0  0  0  0  0
   -1.5719    1.2723   -1.0659 C   0  0  0  0  0  0  0  0  0  0  0  0
   -1.9905    1.9063    0.1155 C   0  0  0  0  0  0  0  0  0  0  0  0
   -1.4531    1.7682    1.0419 H   0  0  0  0  0  0  0  0  0  0  0  0
   -3.0641    2.8046    0.1125 C   0  0  0  0  0  0  0  0  0  0  0  0
   -3.3525    3.2920    1.0377 H   0  0  0  0  0  0  0  0  0  0  0  0
   -3.7453    3.0812   -1.0722 C   0  0  0  0  0  0  0  0  0  0  0  0
   -4.7940    3.9545   -1.0878 O   0  0  0  0  0  0  0  0  0  0  0  0
   -4.8995    4.3657   -0.2159 H   0  0  0  0  0  0  0  0  0  0  0  0
   -3.3423    2.4643   -2.2524 C   0  0  0  0  0  0  0  0  0  0  0  0
   -3.8732    2.6868   -3.1724 H   0  0  0  0  0  0  0  0  0  0  0  0
   -2.2668    1.5699   -2.2520 C   0  0  0  0  0  0  0  0  0  0  0  0
   -1.9818    1.0998   -3.1890 H   0  0  0  0  0  0  0  0  0  0  0  0
   -0.0078   -0.6133    1.3624 C   0  0  0  0  0  0  0  0  0  0  0  0
    1.1941   -0.5243    1.5754 O   0  0  0  0  0  0  0  0  0  0  0  0
   -0.8796   -0.1600    2.3363 N   0  0  0  0  0  0  0  0  0  0  0  0
   -1.8650   -0.3302    2.1616 H   0  0  0  0  0  0  0  0  0  0  0  0
   -0.4540    0.1499    3.6958 C   0  0  0  0  0  0  0  0  0  0  0  0
    0.3002    0.9438    3.6906 H   0  0  0  0  0  0  0  0  0  0  0  0
   -1.3066    0.4900    4.2910 H   0  0  0  0  0  0  0  0  0  0  0  0
   -0.0274   -0.7384    4.1739 H   0  0  0  0  0  0  0  0  0  0  0  0
  1  2  1  0  0  0  0
  2  3  1  0  0  0  0
  2  4  1  0  0  0  0
  2  5  1  0  0  0  0
  5  6  2  0  0  0  0
  5  7  1  0  0  0  0
  7  8  1  0  0  0  0
  7  9  1  0  0  0  0
  9 10  1  0  0  0  0
  9 11  1  0  0  0  0
  9 26  1  0  0  0  0
 11 12  1  0  0  0  0
 11 13  1  0  0  0  0
 11 14  1  0  0  0  0
 14 15  2  0  0  0  0
 14 24  1  0  0  0  0
 15 16  1  0  0  0  0
 15 17  1  0  0  0  0
 17 18  1  0  0  0  0
 17 19  2  0  0  0  0
 19 20  1  0  0  0  0
 19 22  1  0  0  0  0
 20 21  1  0  0  0  0
 22 23  1  0  0  0  0
 22 24  2  0  0  0  0
 24 25  1  0  0  0  0
 26 27  2  0  0  0  0
 26 28  1  0  0  0  0
 28 29  1  0  0  0  0
 28 30  1  0  0  0  0
 30 31  1  0  0  0  0
 30 32  1  0  0  0  0
 30 33  1  0  0  0  0
M  END
$$$$

  -OEChem-03222214083D

 33 33  0     1  0  0  0  0  0999 V2000
   -3.3590   -4.5160    0.7195 H   0  0  0  0  0  0  0  0  0  0  0  0
   -3.3148   -3.5778    0.1589 C   0  0  0  0  0  0  0  0  0  0  0  0
   -4.1006   -2.9125    0.5243 H   0  0  0  0  0  0  0  0  0  0  0  0
   -3.4898   -3.7918   -0.8982 H   0  0  0  0  0  0  0  0  0  0  0  0
   -1.9561   -2.9268    0.3374 C   0  0  0  0  0  0  0  0  0  0  0  0
   -1.0969   -3.4833    0.9972 O   0  0  0  0  0  0  0  0  0  0  0  0
   -1.7028   -1.7004   -0.2433 N   0  0  0  0  0  0  0  0  0  0  0  0
   -2.4637   -1.2611   -0.7549 H   0  0  0  0  0  0  0  0  0  0  0  0
   -0.4348   -0.9587   -0.1231 C   0  0  1  0  0  0  0  0  0  0  0  0
    0.3539   -1.6551   -0.4303 H   0  0  0  0  0  0  0  0  0  0  0  0
   -0.4026    0.1690   -1.1781 C   0  0  0  0  0  0  0  0  0  0  0  0
    0.5578    0.6881   -1.0902 H   0  0  0  0  0  0  0  0  0  0  0  0
   -0.4180   -0.2955   -2.1693 H   0  0  0  0  0  0  0  0  0  0  0  0
   -1.5058    1.2084   -1.0931 C   0  0  0  0  0  0  0  0  0  0  0  0
   -1.6960    2.0171    0.0385 C   0  0  0  0  0  0  0  0  0  0  0  0
   -0.9749    2.0057    0.8488 H   0  0  0  0  0  0  0  0  0  0  0  0
   -2.7793    2.8995    0.1161 C   0  0  0  0  0  0  0  0  0  0  0  0
   -2.8951    3.5240    0.9954 H   0  0  0  0  0  0  0  0  0  0  0  0
   -3.6938    2.9812   -0.9343 C   0  0  0  0  0  0  0  0  0  0  0  0
   -4.7552    3.8363   -0.8700 O   0  0  0  0  0  0  0  0  0  0  0  0
   -4.7012    4.3758   -0.0658 H   0  0  0  0  0  0  0  0  0  0  0  0
   -3.5164    2.1849   -2.0627 C   0  0  0  0  0  0  0  0  0  0  0  0
   -4.2295    2.2576   -2.8778 H   0  0  0  0  0  0  0  0  0  0  0  0
   -2.4322    1.3052   -2.1450 C   0  0  0  0  0  0  0  0  0  0  0  0
   -2.3212    0.6916   -3.0345 H   0  0  0  0  0  0  0  0  0  0  0  0
   -0.0377   -0.5879    1.3238 C   0  0  0  0  0  0  0  0  0  0  0  0
    1.1477   -0.5179    1.6200 O   0  0  0  0  0  0  0  0  0  0  0  0
   -0.9683   -0.0717    2.2083 N   0  0  0  0  0  0  0  0  0  0  0  0
   -1.9435   -0.1643    1.9418 H   0  0  0  0  0  0  0  0  0  0  0  0
   -0.6418    0.3187    3.5741 C   0  0  0  0  0  0  0  0  0  0  0  0
    0.1177    1.1077    3.5763 H   0  0  0  0  0  0  0  0  0  0  0  0
   -1.5338    0.6970    4.0825 H   0  0  0  0  0  0  0  0  0  0  0  0
   -0.2594   -0.5403    4.1358 H   0  0  0  0  0  0  0  0  0  0  0  0
  1  2  1  0  0  0  0
  2  3  1  0  0  0  0
  2  4  1  0  0  0  0
  2  5  1  0  0  0  0
  5  6  2  0  0  0  0
  5  7  1  0  0  0  0
  7  8  1  0  0  0  0
  7  9  1  0  0  0  0
  9 10  1  0  0  0  0
  9 11  1  0  0  0  0
  9 26  1  0  0  0  0
 11 12  1  0  0  0  0
 11 13  1  0  0  0  0
 11 14  1  0  0  0  0
 14 15  2  0  0  0  0
 14 24  1  0  0  0  0
 15 16  1  0  0  0  0
 15 17  1  0  0  0  0
 17 18  1  0  0  0  0
 17 19  2  0  0  0  0
 19 20  1  0  0  0  0
 19 22  1  0  0  0  0
 20 21  1  0  0  0  0
 22 23  1  0  0  0  0
 22 24  2  0  0  0  0
 24 25  1  0  0  0  0
 26 27  2  0  0  0  0
 26 28  1  0  0  0  0
 28 29  1  0  0  0  0
 28 30  1  0  0  0  0
 30 31  1  0  0  0  0
 30 32  1  0  0  0  0
 30 33  1  0  0  0  0
M  END
$$$$

  -OEChem-03222214083D

 33 33  0     1  0  0  0  0  0999 V2000
   -3.3746   -4.4873    0.7813 H   0  0  0  0  0  0  0  0  0  0  0  0
   -3.3142   -3.5737    0.1830 C   0  0  0  0  0  0  0  0  0  0  0  0
   -4.0839   -2.8780    0.5256 H   0  0  0  0  0  0  0  0  0  0  0  0
   -3.4991   -3.8258   -0.8639 H   0  0  0  0  0  0  0  0  0  0  0  0
   -1.9412   -2.9449    0.3285 C   0  0  0  0  0  0  0  0  0  0  0  0
   -1.0888   -3.4939    1.0035 O   0  0  0  0  0  0  0  0  0  0  0  0
   -1.6664   -1.7490   -0.3036 N   0  0  0  0  0  0  0  0  0  0  0  0
   -2.4306   -1.3013   -0.8021 H   0  0  0  0  0  0  0  0  0  0  0  0
   -0.4023   -1.0035   -0.1664 C   0  0  1  0  0  0  0  0  0  0  0  0
    0.4043   -1.6949   -0.4360 H   0  0  0  0  0  0  0  0  0  0  0  0
   -0.3613    0.1306   -1.2107 C   0  0  0  0  0  0  0  0  0  0  0  0
    0.5945    0.6571   -1.1151 H   0  0  0  0  0  0  0  0  0  0  0  0
   -0.3773   -0.3145   -2.2107 H   0  0  0  0  0  0  0  0  0  0  0  0
   -1.4856    1.1389   -1.0884 C   0  0  0  0  0  0  0  0  0  0  0  0
   -1.4915    2.1079   -0.0731 C   0  0  0  0  0  0  0  0  0  0  0  0
   -0.6505    2.1839    0.6116 H   0  0  0  0  0  0  0  0  0  0  0  0
   -2.5668    2.9933    0.0613 C   0  0  0  0  0  0  0  0  0  0  0  0
   -2.5492    3.7354    0.8524 H   0  0  0  0  0  0  0  0  0  0  0  0
   -3.6486    2.9213   -0.8178 C   0  0  0  0  0  0  0  0  0  0  0  0
   -4.7043    3.7773   -0.6951 O   0  0  0  0  0  0  0  0  0  0  0  0
   -4.5298    4.4251    0.0055 H   0  0  0  0  0  0  0  0  0  0  0  0
   -3.6481    1.9674   -1.8334 C   0  0  0  0  0  0  0  0  0  0  0  0
   -4.4908    1.9247   -2.5159 H   0  0  0  0  0  0  0  0  0  0  0  0
   -2.5745    1.0812   -1.9726 C   0  0  0  0  0  0  0  0  0  0  0  0
   -2.5930    0.3472   -2.7732 H   0  0  0  0  0  0  0  0  0  0  0  0
   -0.0709   -0.5649    1.2775 C   0  0  0  0  0  0  0  0  0  0  0  0
    1.0983   -0.4894    1.6308 O   0  0  0  0  0  0  0  0  0  0  0  0
   -1.0430   -0.0057    2.0877 N   0  0  0  0  0  0  0  0  0  0  0  0
   -1.9988   -0.0416    1.7475 H   0  0  0  0  0  0  0  0  0  0  0  0
   -0.7817    0.4948    3.4307 C   0  0  0  0  0  0  0  0  0  0  0  0
   -0.0173    1.2785    3.4065 H   0  0  0  0  0  0  0  0  0  0  0  0
   -1.6944    0.9163    3.8620 H   0  0  0  0  0  0  0  0  0  0  0  0
   -0.4338   -0.3169    4.0780 H   0  0  0  0  0  0  0  0  0  0  0  0
  1  2  1  0  0  0  0
  2  3  1  0  0  0  0
  2  4  1  0  0  0  0
  2  5  1  0  0  0  0
  5  6  2  0  0  0  0
  5  7  1  0  0  0  0
  7  8  1  0  0  0  0
  7  9  1  0  0  0  0
  9 10  1  0  0  0  0
  9 11  1  0  0  0  0
  9 26  1  0  0  0  0
 11 12  1  0  0  0  0
 11 13  1  0  0  0  0
 11 14  1  0  0  0  0
 14 15  2  0  0  0  0
 14 24  1  0  0  0  0
 15 16  1  0  0  0  0
 15 17  1  0  0  0  0
 17 18  1  0  0  0  0
 17 19  2  0  0  0  0
 19 20  1  0  0  0  0
 19 22  1  0  0  0  0
 20 21  1  0  0  0  0
 22 23  1  0  0  0  0
 22 24  2  0  0  0  0
 24 25  1  0  0  0  0
 26 27  2  0  0  0  0
 26 28  1  0  0  0  0
 28 29  1  0  0  0  0
 28 30  1  0  0  0  0
 30 31  1  0  0  0  0
 30 32  1  0  0  0  0
 30 33  1  0  0  0  0
M  END
$$$$

  -OEChem-03222214083D

 33 33  0     1  0  0  0  0  0999 V2000
   -3.3469   -4.5136    0.8250 H   0  0  0  0  0  0  0  0  0  0  0  0
   -3.2960   -3.6047    0.2186 C   0  0  0  0  0  0  0  0  0  0  0  0
   -4.0533   -2.9022    0.5744 H   0  0  0  0  0  0  0  0  0  0  0  0
   -3.5081   -3.8636   -0.8215 H   0  0  0  0  0  0  0  0  0  0  0  0
   -1.9168   -2.9819    0.3268 C   0  0  0  0  0  0  0  0  0  0  0  0
   -1.0565   -3.5224    0.9986 O   0  0  0  0  0  0  0  0  0  0  0  0
   -1.6456   -1.8024   -0.3376 N   0  0  0  0  0  0  0  0  0  0  0  0
   -2.4227   -1.3531   -0.8127 H   0  0  0  0  0  0  0  0  0  0  0  0
   -0.3910   -1.0409   -0.1951 C   0  0  1  0  0  0  0  0  0  0  0  0
    0.4316   -1.7193   -0.4481 H   0  0  0  0  0  0  0  0  0  0  0  0
   -0.3534    0.1091   -1.2201 C   0  0  0  0  0  0  0  0  0  0  0  0
    0.5996    0.6406   -1.1218 H   0  0  0  0  0  0  0  0  0  0  0  0
   -0.3770   -0.3142   -2.2296 H   0  0  0  0  0  0  0  0  0  0  0  0
   -1.4945    1.0912   -1.0630 C   0  0  0  0  0  0  0  0  0  0  0  0
   -1.3609    2.2104   -0.2273 C   0  0  0  0  0  0  0  0  0  0  0  0
   -0.4316    2.3771    0.3124 H   0  0  0  0  0  0  0  0  0  0  0  0
   -2.4204    3.1114   -0.0725 C   0  0  0  0  0  0  0  0  0  0  0  0
   -2.2991    3.9676    0.5826 H   0  0  0  0  0  0  0  0  0  0  0  0
   -3.6198    2.9080   -0.7577 C   0  0  0  0  0  0  0  0  0  0  0  0
   -4.6590    3.7809   -0.6171 O   0  0  0  0  0  0  0  0  0  0  0  0
   -4.3925    4.5307   -0.0624 H   0  0  0  0  0  0  0  0  0  0  0  0
   -3.7549    1.8066   -1.6006 C   0  0  0  0  0  0  0  0  0  0  0  0
   -4.6878    1.6656   -2.1372 H   0  0  0  0  0  0  0  0  0  0  0  0
   -2.6979    0.9044   -1.7612 C   0  0  0  0  0  0  0  0  0  0  0  0
   -2.8161    0.0631   -2.4378 H   0  0  0  0  0  0  0  0  0  0  0  0
   -0.0971   -0.5576    1.2430 C   0  0  0  0  0  0  0  0  0  0  0  0
    1.0616   -0.4719    1.6277 O   0  0  0  0  0  0  0  0  0  0  0  0
   -1.0950    0.0164    2.0113 N   0  0  0  0  0  0  0  0  0  0  0  0
   -2.0299    0.0314    1.6157 H   0  0  0  0  0  0  0  0  0  0  0  0
   -0.8670    0.6027    3.3255 C   0  0  0  0  0  0  0  0  0  0  0  0
   -0.1563    1.4328    3.2572 H   0  0  0  0  0  0  0  0  0  0  0  0
   -1.8062    0.9841    3.7372 H   0  0  0  0  0  0  0  0  0  0  0  0
   -0.4669   -0.1485    4.0146 H   0  0  0  0  0  0  0  0  0  0  0  0
  1  2  1  0  0  0  0
  2  3  1  0  0  0  0
  2  4  1  0  0  0  0
  2  5  1  0  0  0  0
  5  6  2  0  0  0  0
  5  7  1  0  0  0  0
  7  8  1  0  0  0  0
  7  9  1  0  0  0  0
  9 10  1  0  0  0  0
  9 11  1  0  0  0  0
  9 26  1  0  0  0  0
 11 12  1  0  0  0  0
 11 13  1  0  0  0  0
 11 14  1  0  0  0  0
 14 15  2  0  0  0  0
 14 24  1  0  0  0  0
 15 16  1  0  0  0  0
 15 17  1  0  0  0  0
 17 18  1  0  0  0  0
 17 19  2  0  0  0  0
 19 20  1  0  0  0  0
 19 22  1  0  0  0  0
 20 21  1  0  0  0  0
 22 23  1  0  0  0  0
 22 24  2  0  0  0  0
 24 25  1  0  0  0  0
 26 27  2  0  0  0  0
 26 28  1  0  0  0  0
 28 29  1  0  0  0  0
 28 30  1  0  0  0  0
 30 31  1  0  0  0  0
 30 32  1  0  0  0  0
 30 33  1  0  0  0  0
M  END
$$$$

  -OEChem-03222214083D

 33 33  0     1  0  0  0  0  0999 V2000
   -3.2852   -4.5807    0.8748 H   0  0  0  0  0  0  0  0  0  0  0  0
   -3.2584   -3.6726    0.2658 C   0  0  0  0  0  0  0  0  0  0  0  0
   -4.0156   -2.9783    0.6380 H   0  0  0  0  0  0  0  0  0  0  0  0
   -3.4907   -3.9365   -0.7687 H   0  0  0  0  0  0  0  0  0  0  0  0
   -1.8844   -3.0334    0.3414 C   0  0  0  0  0  0  0  0  0  0  0  0
   -1.0048   -3.5575    1.0010 O   0  0  0  0  0  0  0  0  0  0  0  0
   -1.6401   -1.8584   -0.3414 N   0  0  0  0  0  0  0  0  0  0  0  0
   -2.4340   -1.4231   -0.7987 H   0  0  0  0  0  0  0  0  0  0  0  0
   -0.3997   -1.0723   -0.2097 C   0  0  1  0  0  0  0  0  0  0  0  0
    0.4354   -1.7347   -0.4645 H   0  0  0  0  0  0  0  0  0  0  0  0
   -0.3725    0.1009   -1.2097 C   0  0  0  0  0  0  0  0  0  0  0  0
    0.5828    0.6279   -1.1094 H   0  0  0  0  0  0  0  0  0  0  0  0
   -0.4061   -0.3011   -2.2273 H   0  0  0  0  0  0  0  0  0  0  0  0
   -1.5187    1.0759   -1.0300 C   0  0  0  0  0  0  0  0  0  0  0  0
   -1.2877    2.3235   -0.4303 C   0  0  0  0  0  0  0  0  0  0  0  0
   -0.2963    2.5733   -0.0606 H   0  0  0  0  0  0  0  0  0  0  0  0
   -2.3301    3.2453   -0.2805 C   0  0  0  0  0  0  0  0  0  0  0  0
   -2.1330    4.1971    0.2009 H   0  0  0  0  0  0  0  0  0  0  0  0
   -3.6090    2.9409   -0.7500 C   0  0  0  0  0  0  0  0  0  0  0  0
   -4.6337    3.8313   -0.6113 O   0  0  0  0  0  0  0  0  0  0  0  0
   -4.3112    4.6506   -0.2042 H   0  0  0  0  0  0  0  0  0  0  0  0
   -3.8383    1.7204   -1.3813 C   0  0  0  0  0  0  0  0  0  0  0  0
   -4.8308    1.5064   -1.7650 H   0  0  0  0  0  0  0  0  0  0  0  0
   -2.7996    0.7961   -1.5347 C   0  0  0  0  0  0  0  0  0  0  0  0
   -2.9931   -0.1299   -2.0666 H   0  0  0  0  0  0  0  0  0  0  0  0
   -0.1176   -0.5664    1.2228 C   0  0  0  0  0  0  0  0  0  0  0  0
    1.0380   -0.4636    1.6131 O   0  0  0  0  0  0  0  0  0  0  0  0
   -1.1302   -0.0016    1.9783 N   0  0  0  0  0  0  0  0  0  0  0  0
   -2.0506    0.0430    1.5523 H   0  0  0  0  0  0  0  0  0  0  0  0
   -0.9084    0.6498    3.2621 C   0  0  0  0  0  0  0  0  0  0  0  0
   -0.2644    1.5266    3.1404 H   0  0  0  0  0  0  0  0  0  0  0  0
   -1.8612    0.9747    3.6904 H   0  0  0  0  0  0  0  0  0  0  0  0
   -0.4329   -0.0428    3.9646 H   0  0  0  0  0  0  0  0  0  0  0  0
  1  2  1  0  0  0  0
  2  3  1  0  0  0  0
  2  4  1  0  0  0  0
  2  5  1  0  0  0  0
  5  6  2  0  0  0  0
  5  7  1  0  0  0  0
  7  8  1  0  0  0  0
  7  9  1  0  0  0  0
  9 10  1  0  0  0  0
  9 11  1  0  0  0  0
  9 26  1  0  0  0  0
 11 12  1  0  0  0  0
 11 13  1  0  0  0  0
 11 14  1  0  0  0  0
 14 15  2  0  0  0  0
 14 24  1  0  0  0  0
 15 16  1  0  0  0  0
 15 17  1  0  0  0  0
 17 18  1  0  0  0  0
 17 19  2  0  0  0  0
 19 20  1  0  0  0  0
 19 22  1  0  0  0  0
 20 21  1  0  0  0  0
 22 23  1  0  0  0  0
 22 24  2  0  0  0  0
 24 25  1  0  0  0  0
 26 27  2  0  0  0  0
 26 28  1  0  0  0  0
 28 29  1  0  0  0  0
 28 30  1  0  0  0  0
 30 31  1  0  0  0  0
 30 32  1  0  0  0  0
 30 33  1  0  0  0  0
M  END
$$$$

  -OEChem-03222214083D

 33 33  0     1  0  0  0  0  0999 V2000
   -3.1757   -4.7383    0.8536 H   0  0  0  0  0  0  0  0  0  0  0  0
   -3.1731   -3.8402    0.2292 C   0  0  0  0  0  0  0  0  0  0  0  0
   -4.0263   -3.2169    0.5076 H   0  0  0  0  0  0  0  0  0  0  0  0
   -3.2729   -4.1397   -0.8168 H   0  0  0  0  0  0  0  0  0  0  0  0
   -1.8810   -3.0704    0.4272 C   0  0  0  0  0  0  0  0  0  0  0  0
   -1.0379   -3.4894    1.1992 O   0  0  0  0  0  0  0  0  0  0  0  0
   -1.6675   -1.9027   -0.2788 N   0  0  0  0  0  0  0  0  0  0  0  0
   -2.3694   -1.6458   -0.9627 H   0  0  0  0  0  0  0  0  0  0  0  0
   -0.4391   -1.0913   -0.1944 C   0  0  1  0  0  0  0  0  0  0  0  0
    0.4001   -1.7415   -0.4648 H   0  0  0  0  0  0  0  0  0  0  0  0
   -0.4450    0.0942   -1.1849 C   0  0  0  0  0  0  0  0  0  0  0  0
    0.5182    0.6106   -1.1072 H   0  0  0  0  0  0  0  0  0  0  0  0
   -0.5050   -0.3058   -2.2018 H   0  0  0  0  0  0  0  0  0  0  0  0
   -1.5778    1.0921   -1.0004 C   0  0  0  0  0  0  0  0  0  0  0  0
   -1.2640    2.4312   -0.7136 C   0  0  0  0  0  0  0  0  0  0  0  0
   -0.2287    2.7286   -0.5693 H   0  0  0  0  0  0  0  0  0  0  0  0
   -2.2716    3.3943   -0.5832 C   0  0  0  0  0  0  0  0  0  0  0  0
   -2.0030    4.4168   -0.3401 H   0  0  0  0  0  0  0  0  0  0  0  0
   -3.6079    3.0396   -0.7678 C   0  0  0  0  0  0  0  0  0  0  0  0
   -4.6014    3.9670   -0.6458 O   0  0  0  0  0  0  0  0  0  0  0  0
   -4.2231    4.8361   -0.4402 H   0  0  0  0  0  0  0  0  0  0  0  0
   -3.9295    1.7265   -1.0983 C   0  0  0  0  0  0  0  0  0  0  0  0
   -4.9701    1.4687   -1.2674 H   0  0  0  0  0  0  0  0  0  0  0  0
   -2.9258    0.7615   -1.2304 C   0  0  0  0  0  0  0  0  0  0  0  0
   -3.2178   -0.2343   -1.5387 H   0  0  0  0  0  0  0  0  0  0  0  0
   -0.1292   -0.5546    1.2213 C   0  0  0  0  0  0  0  0  0  0  0  0
    1.0353   -0.4285    1.5780 O   0  0  0  0  0  0  0  0  0  0  0  0
   -1.1312    0.0047    1.9939 N   0  0  0  0  0  0  0  0  0  0  0  0
   -2.0686   -0.0014    1.6045 H   0  0  0  0  0  0  0  0  0  0  0  0
   -0.8917    0.6705    3.2669 C   0  0  0  0  0  0  0  0  0  0  0  0
   -0.2507    1.5470    3.1264 H   0  0  0  0  0  0  0  0  0  0  0  0
   -1.8387    0.9995    3.7045 H   0  0  0  0  0  0  0  0  0  0  0  0
   -0.4056   -0.0139    3.9702 H   0  0  0  0  0  0  0  0  0  0  0  0
  1  2  1  0  0  0  0
  2  3  1  0  0  0  0
  2  4  1  0  0  0  0
  2  5  1  0  0  0  0
  5  6  2  0  0  0  0
  5  7  1  0  0  0  0
  7  8  1  0  0  0  0
  7  9  1  0  0  0  0
  9 10  1  0  0  0  0
  9 11  1  0  0  0  0
  9 26  1  0  0  0  0
 11 12  1  0  0  0  0
 11 13  1  0  0  0  0
 11 14  1  0  0  0  0
 14 15  2  0  0  0  0
 14 24  1  0  0  0  0
 15 16  1  0  0  0  0
 15 17  1  0  0  0  0
 17 18  1  0  0  0  0
 17 19  2  0  0  0  0
 19 20  1  0  0  0  0
 19 22  1  0  0  0  0
 20 21  1  0  0  0  0
 22 23  1  0  0  0  0
 22 24  2  0  0  0  0
 24 25  1  0  0  0  0
 26 27  2  0  0  0  0
 26 28  1  0  0  0  0
 28 29  1  0  0  0  0
 28 30  1  0  0  0  0
 30 31  1  0  0  0  0
 30 32  1  0  0  0  0
 30 33  1  0  0  0  0
M  END
$$$$

  -OEChem-03222214083D

 33 33  0     1  0  0  0  0  0999 V2000
   -3.0508   -4.8549    0.8287 H   0  0  0  0  0  0  0  0  0  0  0  0
   -3.0804   -3.9594    0.2014 C   0  0  0  0  0  0  0  0  0  0  0  0
   -3.9877   -3.3972    0.4348 H   0  0  0  0  0  0  0  0  0  0  0  0
   -3.1077   -4.2664   -0.8468 H   0  0  0  0  0  0  0  0  0  0  0  0
   -1.8565   -3.1009    0.4606 C   0  0  0  0  0  0  0  0  0  0  0  0
   -1.0329   -3.4563    1.2838 O   0  0  0  0  0  0  0  0  0  0  0  0
   -1.6816   -1.9303   -0.2524 N   0  0  0  0  0  0  0  0  0  0  0  0
   -2.3209   -1.7735   -1.0245 H   0  0  0  0  0  0  0  0  0  0  0  0
   -0.4670   -1.0973   -0.1864 C   0  0  1  0  0  0  0  0  0  0  0  0
    0.3800   -1.7309   -0.4729 H   0  0  0  0  0  0  0  0  0  0  0  0
   -0.5096    0.0974   -1.1669 C   0  0  0  0  0  0  0  0  0  0  0  0
    0.4546    0.6128   -1.0976 H   0  0  0  0  0  0  0  0  0  0  0  0
   -0.5771   -0.3035   -2.1829 H   0  0  0  0  0  0  0  0  0  0  0  0
   -1.6358    1.1139   -0.9985 C   0  0  0  0  0  0  0  0  0  0  0  0
   -1.2990    2.4779   -1.0557 C   0  0  0  0  0  0  0  0  0  0  0  0
   -0.2617    2.7783   -1.1747 H   0  0  0  0  0  0  0  0  0  0  0  0
   -2.2764    3.4725   -0.9422 C   0  0  0  0  0  0  0  0  0  0  0  0
   -1.9812    4.5159   -0.9752 H   0  0  0  0  0  0  0  0  0  0  0  0
   -3.6168    3.1222   -0.7904 C   0  0  0  0  0  0  0  0  0  0  0  0
   -4.5807    4.0811   -0.6753 O   0  0  0  0  0  0  0  0  0  0  0  0
   -4.1763    4.9626   -0.6887 H   0  0  0  0  0  0  0  0  0  0  0  0
   -3.9743    1.7780   -0.7673 C   0  0  0  0  0  0  0  0  0  0  0  0
   -5.0230    1.5169   -0.6687 H   0  0  0  0  0  0  0  0  0  0  0  0
   -3.0003    0.7802   -0.8809 C   0  0  0  0  0  0  0  0  0  0  0  0
   -3.3477   -0.2432   -0.8872 H   0  0  0  0  0  0  0  0  0  0  0  0
   -0.1418   -0.5525    1.2230 C   0  0  0  0  0  0  0  0  0  0  0  0
    1.0273   -0.4163    1.5611 O   0  0  0  0  0  0  0  0  0  0  0  0
   -1.1380   -0.0084    2.0135 N   0  0  0  0  0  0  0  0  0  0  0  0
   -2.0842   -0.0383    1.6473 H   0  0  0  0  0  0  0  0  0  0  0  0
   -0.8864    0.6449    3.2905 C   0  0  0  0  0  0  0  0  0  0  0  0
   -0.2154    1.4999    3.1580 H   0  0  0  0  0  0  0  0  0  0  0  0
   -1.8250    1.0052    3.7221 H   0  0  0  0  0  0  0  0  0  0  0  0
   -0.4280   -0.0577    3.9944 H   0  0  0  0  0  0  0  0  0  0  0  0
  1  2  1  0  0  0  0
  2  3  1  0  0  0  0
  2  4  1  0  0  0  0
  2  5  1  0  0  0  0
  5  6  2  0  0  0  0
  5  7  1  0  0  0  0
  7  8  1  0  0  0  0
  7  9  1  0  0  0  0
  9 10  1  0  0  0  0
  9 11  1  0  0  0  0
  9 26  1  0  0  0  0
 11 12  1  0  0  0  0
 11 13  1  0  0  0  0
 11 14  1  0  0  0  0
 14 15  2  0  0  0  0
 14 24  1  0  0  0  0
 15 16  1  0  0  0  0
 15 17  1  0  0  0  0
 17 18  1  0  0  0  0
 17 19  2  0  0  0  0
 19 20  1  0  0  0  0
 19 22  1  0  0  0  0
 20 21  1  0  0  0  0
 22 23  1  0  0  0  0
 22 24  2  0  0  0  0
 24 25  1  0  0  0  0
 26 27  2  0  0  0  0
 26 28  1  0  0  0  0
 28 29  1  0  0  0  0
 28 30  1  0  0  0  0
 30 31  1  0  0  0  0
 30 32  1  0  0  0  0
 30 33  1  0  0  0  0
M  END
$$$$

  -OEChem-03222214083D

 33 33  0     1  0  0  0  0  0999 V2000
   -2.9876   -4.9084    0.7737 H   0  0  0  0  0  0  0  0  0  0  0  0
   -3.0446   -3.9926    0.1785 C   0  0  0  0  0  0  0  0  0  0  0  0
   -3.9563   -3.4544    0.4481 H   0  0  0  0  0  0  0  0  0  0  0  0
   -3.0873   -4.2641   -0.8790 H   0  0  0  0  0  0  0  0  0  0  0  0
   -1.8301   -3.1226    0.4428 C   0  0  0  0  0  0  0  0  0  0  0  0
   -0.9921   -3.4829    1.2492 O   0  0  0  0  0  0  0  0  0  0  0  0
   -1.6799   -1.9334   -0.2441 N   0  0  0  0  0  0  0  0  0  0  0  0
   -2.3464   -1.7511   -0.9887 H   0  0  0  0  0  0  0  0  0  0  0  0
   -0.4775   -1.0829   -0.1746 C   0  0  1  0  0  0  0  0  0  0  0  0
    0.3730   -1.7022   -0.4817 H   0  0  0  0  0  0  0  0  0  0  0  0
   -0.5524    0.1127   -1.1502 C   0  0  0  0  0  0  0  0  0  0  0  0
    0.4031    0.6448   -1.0772 H   0  0  0  0  0  0  0  0  0  0  0  0
   -0.6097   -0.2921   -2.1653 H   0  0  0  0  0  0  0  0  0  0  0  0
   -1.6842    1.1289   -1.0041 C   0  0  0  0  0  0  0  0  0  0  0  0
   -1.4052    2.4491   -1.3991 C   0  0  0  0  0  0  0  0  0  0  0  0
   -0.4184    2.7062   -1.7743 H   0  0  0  0  0  0  0  0  0  0  0  0
   -2.3733    3.4554   -1.3139 C   0  0  0  0  0  0  0  0  0  0  0  0
   -2.1208    4.4647   -1.6209 H   0  0  0  0  0  0  0  0  0  0  0  0
   -3.6486    3.1599   -0.8368 C   0  0  0  0  0  0  0  0  0  0  0  0
   -4.6032    4.1304   -0.7445 O   0  0  0  0  0  0  0  0  0  0  0  0
   -4.2367    4.9850   -1.0202 H   0  0  0  0  0  0  0  0  0  0  0  0
   -3.9501    1.8577   -0.4528 C   0  0  0  0  0  0  0  0  0  0  0  0
   -4.9483    1.6395   -0.0871 H   0  0  0  0  0  0  0  0  0  0  0  0
   -2.9856    0.8476   -0.5362 C   0  0  0  0  0  0  0  0  0  0  0  0
   -3.2948   -0.1388   -0.2218 H   0  0  0  0  0  0  0  0  0  0  0  0
   -0.1292   -0.5568    1.2368 C   0  0  0  0  0  0  0  0  0  0  0  0
    1.0459   -0.4154    1.5506 O   0  0  0  0  0  0  0  0  0  0  0  0
   -1.1103   -0.0386    2.0629 N   0  0  0  0  0  0  0  0  0  0  0  0
   -2.0682   -0.0963    1.7354 H   0  0  0  0  0  0  0  0  0  0  0  0
   -0.8356    0.5751    3.3549 C   0  0  0  0  0  0  0  0  0  0  0  0
   -0.1442    1.4168    3.2416 H   0  0  0  0  0  0  0  0  0  0  0  0
   -1.7628    0.9479    3.8005 H   0  0  0  0  0  0  0  0  0  0  0  0
   -0.3920   -0.1575    4.0373 H   0  0  0  0  0  0  0  0  0  0  0  0
  1  2  1  0  0  0  0
  2  3  1  0  0  0  0
  2  4  1  0  0  0  0
  2  5  1  0  0  0  0
  5  6  2  0  0  0  0
  5  7  1  0  0  0  0
  7  8  1  0  0  0  0
  7  9  1  0  0  0  0
  9 10  1  0  0  0  0
  9 11  1  0  0  0  0
  9 26  1  0  0  0  0
 11 12  1  0  0  0  0
 11 13  1  0  0  0  0
 11 14  1  0  0  0  0
 14 15  2  0  0  0  0
 14 24  1  0  0  0  0
 15 16  1  0  0  0  0
 15 17  1  0  0  0  0
 17 18  1  0  0  0  0
 17 19  2  0  0  0  0
 19 20  1  0  0  0  0
 19 22  1  0  0  0  0
 20 21  1  0  0  0  0
 22 23  1  0  0  0  0
 22 24  2  0  0  0  0
 24 25  1  0  0  0  0
 26 27  2  0  0  0  0
 26 28  1  0  0  0  0
 28 29  1  0  0  0  0
 28 30  1  0  0  0  0
 30 31  1  0  0  0  0
 30 32  1  0  0  0  0
 30 33  1  0  0  0  0
M  END
$$$$

  -OEChem-03222214083D

 33 33  0     1  0  0  0  0  0999 V2000
   -3.0171   -4.8881    0.7248 H   0  0  0  0  0  0  0  0  0  0  0  0
   -3.0699   -3.9597    0.1487 C   0  0  0  0  0  0  0  0  0  0  0  0
   -3.9715   -3.4157    0.4404 H   0  0  0  0  0  0  0  0  0  0  0  0
   -3.1291   -4.2095   -0.9134 H   0  0  0  0  0  0  0  0  0  0  0  0
   -1.8407   -3.1104    0.4139 C   0  0  0  0  0  0  0  0  0  0  0  0
   -0.9863   -3.5036    1.1872 O   0  0  0  0  0  0  0  0  0  0  0  0
   -1.6988   -1.8944   -0.2248 N   0  0  0  0  0  0  0  0  0  0  0  0
   -2.3994   -1.6568   -0.9218 H   0  0  0  0  0  0  0  0  0  0  0  0
   -0.4950   -1.0463   -0.1406 C   0  0  1  0  0  0  0  0  0  0  0  0
    0.3447   -1.6687   -0.4698 H   0  0  0  0  0  0  0  0  0  0  0  0
   -0.5732    0.1409   -1.1243 C   0  0  0  0  0  0  0  0  0  0  0  0
    0.3735    0.6874   -1.0448 H   0  0  0  0  0  0  0  0  0  0  0  0
   -0.6156   -0.2730   -2.1368 H   0  0  0  0  0  0  0  0  0  0  0  0
   -1.7103    1.1509   -1.0005 C   0  0  0  0  0  0  0  0  0  0  0  0
   -1.5562    2.3642   -1.6923 C   0  0  0  0  0  0  0  0  0  0  0  0
   -0.6531    2.5458   -2.2686 H   0  0  0  0  0  0  0  0  0  0  0  0
   -2.5442    3.3544   -1.6528 C   0  0  0  0  0  0  0  0  0  0  0  0
   -2.3920    4.2816   -2.1948 H   0  0  0  0  0  0  0  0  0  0  0  0
   -3.7123    3.1477   -0.9210 C   0  0  0  0  0  0  0  0  0  0  0  0
   -4.6838    4.1048   -0.8705 O   0  0  0  0  0  0  0  0  0  0  0  0
   -4.4001    4.8927   -1.3598 H   0  0  0  0  0  0  0  0  0  0  0  0
   -3.8870    1.9502   -0.2345 C   0  0  0  0  0  0  0  0  0  0  0  0
   -4.8002    1.8007    0.3327 H   0  0  0  0  0  0  0  0  0  0  0  0
   -2.9015    0.9578   -0.2708 C   0  0  0  0  0  0  0  0  0  0  0  0
   -3.0987    0.0534    0.2879 H   0  0  0  0  0  0  0  0  0  0  0  0
   -0.0970   -0.5614    1.2733 C   0  0  0  0  0  0  0  0  0  0  0  0
    1.0899   -0.4204    1.5389 O   0  0  0  0  0  0  0  0  0  0  0  0
   -1.0371   -0.0637    2.1574 N   0  0  0  0  0  0  0  0  0  0  0  0
   -2.0120   -0.1939    1.9148 H   0  0  0  0  0  0  0  0  0  0  0  0
   -0.7004    0.4896    3.4626 C   0  0  0  0  0  0  0  0  0  0  0  0
    0.0102    1.3161    3.3572 H   0  0  0  0  0  0  0  0  0  0  0  0
   -1.6001    0.8709    3.9548 H   0  0  0  0  0  0  0  0  0  0  0  0
   -0.2538   -0.2807    4.0998 H   0  0  0  0  0  0  0  0  0  0  0  0
  1  2  1  0  0  0  0
  2  3  1  0  0  0  0
  2  4  1  0  0  0  0
  2  5  1  0  0  0  0
  5  6  2  0  0  0  0
  5  7  1  0  0  0  0
  7  8  1  0  0  0  0
  7  9  1  0  0  0  0
  9 10  1  0  0  0  0
  9 11  1  0  0  0  0
  9 26  1  0  0  0  0
 11 12  1  0  0  0  0
 11 13  1  0  0  0  0
 11 14  1  0  0  0  0
 14 15  2  0  0  0  0
 14 24  1  0  0  0  0
 15 16  1  0  0  0  0
 15 17  1  0  0  0  0
 17 18  1  0  0  0  0
 17 19  2  0  0  0  0
 19 20  1  0  0  0  0
 19 22  1  0  0  0  0
 20 21  1  0  0  0  0
 22 23  1  0  0  0  0
 22 24  2  0  0  0  0
 24 25  1  0  0  0  0
 26 27  2  0  0  0  0
 26 28  1  0  0  0  0
 28 29  1  0  0  0  0
 28 30  1  0  0  0  0
 30 31  1  0  0  0  0
 30 32  1  0  0  0  0
 30 33  1  0  0  0  0
M  END
$$$$

  -OEChem-03222214083D

 33 33  0     1  0  0  0  0  0999 V2000
   -3.3207   -4.7339    0.7013 H   0  0  0  0  0  0  0  0  0  0  0  0
   -3.3414   -3.7666    0.1911 C   0  0  0  0  0  0  0  0  0  0  0  0
   -4.1811   -3.1843    0.5777 H   0  0  0  0  0  0  0  0  0  0  0  0
   -3.4854   -3.9368   -0.8787 H   0  0  0  0  0  0  0  0  0  0  0  0
   -2.0395   -3.0241    0.4276 C   0  0  0  0  0  0  0  0  0  0  0  0
   -1.1582   -3.5384    1.0924 O   0  0  0  0  0  0  0  0  0  0  0  0
   -1.8669   -1.7576   -0.0942 N   0  0  0  0  0  0  0  0  0  0  0  0
   -2.6200   -1.3855   -0.6664 H   0  0  0  0  0  0  0  0  0  0  0  0
   -0.6116   -0.9894   -0.0167 C   0  0  1  0  0  0  0  0  0  0  0  0
    0.1397   -1.6912   -0.3975 H   0  0  0  0  0  0  0  0  0  0  0  0
   -0.5814    0.1546   -1.0524 C   0  0  0  0  0  0  0  0  0  0  0  0
    0.4619    0.4784   -1.1379 H   0  0  0  0  0  0  0  0  0  0  0  0
   -0.8651   -0.2654   -2.0228 H   0  0  0  0  0  0  0  0  0  0  0  0
   -1.4167    1.4035   -0.8221 C   0  0  0  0  0  0  0  0  0  0  0  0
   -1.3426    2.4118   -1.7972 C   0  0  0  0  0  0  0  0  0  0  0  0
   -0.6480    2.3095   -2.6262 H   0  0  0  0  0  0  0  0  0  0  0  0
   -2.1335    3.5630   -1.7123 C   0  0  0  0  0  0  0  0  0  0  0  0
   -2.0366    4.3339   -2.4690 H   0  0  0  0  0  0  0  0  0  0  0  0
   -3.0415    3.7120   -0.6652 C   0  0  0  0  0  0  0  0  0  0  0  0
   -3.8198    4.8290   -0.5703 O   0  0  0  0  0  0  0  0  0  0  0  0
   -3.5809    5.4608   -1.2663 H   0  0  0  0  0  0  0  0  0  0  0  0
   -3.1666    2.6988    0.2804 C   0  0  0  0  0  0  0  0  0  0  0  0
   -3.8938    2.8112    1.0779 H   0  0  0  0  0  0  0  0  0  0  0  0
   -2.3761    1.5472    0.1963 C   0  0  0  0  0  0  0  0  0  0  0  0
   -2.5520    0.7678    0.9226 H   0  0  0  0  0  0  0  0  0  0  0  0
   -0.0386   -0.6479    1.3812 C   0  0  0  0  0  0  0  0  0  0  0  0
    1.1770   -0.5691    1.5060 O   0  0  0  0  0  0  0  0  0  0  0  0
   -0.8299   -0.1774    2.4137 N   0  0  0  0  0  0  0  0  0  0  0  0
   -1.8224   -0.3701    2.3394 H   0  0  0  0  0  0  0  0  0  0  0  0
   -0.2913    0.1963    3.7157 C   0  0  0  0  0  0  0  0  0  0  0  0
    0.4391    1.0056    3.6105 H   0  0  0  0  0  0  0  0  0  0  0  0
   -1.0948    0.5421    4.3727 H   0  0  0  0  0  0  0  0  0  0  0  0
    0.1988   -0.6622    4.1872 H   0  0  0  0  0  0  0  0  0  0  0  0
  1  2  1  0  0  0  0
  2  3  1  0  0  0  0
  2  4  1  0  0  0  0
  2  5  1  0  0  0  0
  5  6  2  0  0  0  0
  5  7  1  0  0  0  0
  7  8  1  0  0  0  0
  7  9  1  0  0  0  0
  9 10  1  0  0  0  0
  9 11  1  0  0  0  0
  9 26  1  0  0  0  0
 11 12  1  0  0  0  0
 11 13  1  0  0  0  0
 11 14  1  0  0  0  0
 14 15  2  0  0  0  0
 14 24  1  0  0  0  0
 15 16  1  0  0  0  0
 15 17  1  0  0  0  0
 17 18  1  0  0  0  0
 17 19  2  0  0  0  0
 19 20  1  0  0  0  0
 19 22  1  0  0  0  0
 20 21  1  0  0  0  0
 22 23  1  0  0  0  0
 22 24  2  0  0  0  0
 24 25  1  0  0  0  0
 26 27  2  0  0  0  0
 26 28  1  0  0  0  0
 28 29  1  0  0  0  0
 28 30  1  0  0  0  0
 30 31  1  0  0  0  0
 30 32  1  0  0  0  0
 30 33  1  0  0  0  0
M  END
$$$$

  -OEChem-03222214083D

 33 33  0     1  0  0  0  0  0999 V2000
   -3.2056   -4.7916    0.2359 H   0  0  0  0  0  0  0  0  0  0  0  0
   -3.2391   -3.7766   -0.1703 C   0  0  0  0  0  0  0  0  0  0  0  0
   -4.1039   -3.2582    0.2506 H   0  0  0  0  0  0  0  0  0  0  0  0
   -3.3503   -3.8359   -1.2557 H   0  0  0  0  0  0  0  0  0  0  0  0
   -1.9638   -3.0328    0.1797 C   0  0  0  0  0  0  0  0  0  0  0  0
   -1.0770   -3.6001    0.7923 O   0  0  0  0  0  0  0  0  0  0  0  0
   -1.8223   -1.7071   -0.1788 N   0  0  0  0  0  0  0  0  0  0  0  0
   -2.5895   -1.2800   -0.6910 H   0  0  0  0  0  0  0  0  0  0  0  0
   -0.6032   -0.9075    0.0324 C   0  0  1  0  0  0  0  0  0  0  0  0
    0.1827   -1.5602   -0.3665 H   0  0  0  0  0  0  0  0  0  0  0  0
   -0.5337    0.2943   -0.9375 C   0  0  0  0  0  0  0  0  0  0  0  0
    0.5035    0.6470   -0.9251 H   0  0  0  0  0  0  0  0  0  0  0  0
   -0.7233   -0.0943   -1.9435 H   0  0  0  0  0  0  0  0  0  0  0  0
   -1.4074    1.5253   -0.7429 C   0  0  0  0  0  0  0  0  0  0  0  0
   -1.5053    2.4046   -1.8356 C   0  0  0  0  0  0  0  0  0  0  0  0
   -0.9384    2.2060   -2.7409 H   0  0  0  0  0  0  0  0  0  0  0  0
   -2.3113    3.5471   -1.7814 C   0  0  0  0  0  0  0  0  0  0  0  0
   -2.3551    4.2113   -2.6378 H   0  0  0  0  0  0  0  0  0  0  0  0
   -3.0507    3.8259   -0.6332 C   0  0  0  0  0  0  0  0  0  0  0  0
   -3.8423    4.9355   -0.5643 O   0  0  0  0  0  0  0  0  0  0  0  0
   -3.7406    5.4675   -1.3686 H   0  0  0  0  0  0  0  0  0  0  0  0
   -2.9822    2.9565    0.4506 C   0  0  0  0  0  0  0  0  0  0  0  0
   -3.5659    3.1770    1.3384 H   0  0  0  0  0  0  0  0  0  0  0  0
   -2.1748    1.8146    0.3982 C   0  0  0  0  0  0  0  0  0  0  0  0
   -2.1812    1.1722    1.2614 H   0  0  0  0  0  0  0  0  0  0  0  0
   -0.0929   -0.7206    1.4822 C   0  0  0  0  0  0  0  0  0  0  0  0
    1.1118   -0.5991    1.6637 O   0  0  0  0  0  0  0  0  0  0  0  0
   -0.9405   -0.4130    2.5311 N   0  0  0  0  0  0  0  0  0  0  0  0
   -1.9184   -0.6456    2.3930 H   0  0  0  0  0  0  0  0  0  0  0  0
   -0.4659   -0.1932    3.8920 C   0  0  0  0  0  0  0  0  0  0  0  0
    0.2385    0.6448    3.9221 H   0  0  0  0  0  0  0  0  0  0  0  0
   -1.3063    0.0409    4.5522 H   0  0  0  0  0  0  0  0  0  0  0  0
    0.0363   -1.0897    4.2710 H   0  0  0  0  0  0  0  0  0  0  0  0
  1  2  1  0  0  0  0
  2  3  1  0  0  0  0
  2  4  1  0  0  0  0
  2  5  1  0  0  0  0
  5  6  2  0  0  0  0
  5  7  1  0  0  0  0
  7  8  1  0  0  0  0
  7  9  1  0  0  0  0
  9 10  1  0  0  0  0
  9 11  1  0  0  0  0
  9 26  1  0  0  0  0
 11 12  1  0  0  0  0
 11 13  1  0  0  0  0
 11 14  1  0  0  0  0
 14 15  2  0  0  0  0
 14 24  1  0  0  0  0
 15 16  1  0  0  0  0
 15 17  1  0  0  0  0
 17 18  1  0  0  0  0
 17 19  2  0  0  0  0
 19 20  1  0  0  0  0
 19 22  1  0  0  0  0
 20 21  1  0  0  0  0
 22 23  1  0  0  0  0
 22 24  2  0  0  0  0
 24 25  1  0  0  0  0
 26 27  2  0  0  0  0
 26 28  1  0  0  0  0
 28 29  1  0  0  0  0
 28 30  1  0  0  0  0
 30 31  1  0  0  0  0
 30 32  1  0  0  0  0
 30 33  1  0  0  0  0
M  END
$$$$

  -OEChem-03222214083D

 33 33  0     1  0  0  0  0  0999 V2000
   -3.1104   -4.8008    0.6030 H   0  0  0  0  0  0  0  0  0  0  0  0
   -3.1792   -3.8204    0.1229 C   0  0  0  0  0  0  0  0  0  0  0  0
   -4.0012   -3.2636    0.5789 H   0  0  0  0  0  0  0  0  0  0  0  0
   -3.3888   -3.9634   -0.9399 H   0  0  0  0  0  0  0  0  0  0  0  0
   -1.8760   -3.0629    0.2959 C   0  0  0  0  0  0  0  0  0  0  0  0
   -0.9254   -3.6051    0.8304 O   0  0  0  0  0  0  0  0  0  0  0  0
   -1.7754   -1.7586   -0.1468 N   0  0  0  0  0  0  0  0  0  0  0  0
   -2.6028   -1.3447   -0.5677 H   0  0  0  0  0  0  0  0  0  0  0  0
   -0.5620   -0.9281   -0.0407 C   0  0  1  0  0  0  0  0  0  0  0  0
    0.2339   -1.5610   -0.4513 H   0  0  0  0  0  0  0  0  0  0  0  0
   -0.6239    0.2417   -1.0538 C   0  0  0  0  0  0  0  0  0  0  0  0
    0.3946    0.6347   -1.1389 H   0  0  0  0  0  0  0  0  0  0  0  0
   -0.8746   -0.1932   -2.0269 H   0  0  0  0  0  0  0  0  0  0  0  0
   -1.5247    1.4470   -0.8186 C   0  0  0  0  0  0  0  0  0  0  0  0
   -2.0347    2.0987   -1.9570 C   0  0  0  0  0  0  0  0  0  0  0  0
   -1.8393    1.6949   -2.9465 H   0  0  0  0  0  0  0  0  0  0  0  0
   -2.8112    3.2581   -1.8489 C   0  0  0  0  0  0  0  0  0  0  0  0
   -3.2077    3.7215   -2.7459 H   0  0  0  0  0  0  0  0  0  0  0  0
   -3.0612    3.8168   -0.5971 C   0  0  0  0  0  0  0  0  0  0  0  0
   -3.8128    4.9492   -0.4740 O   0  0  0  0  0  0  0  0  0  0  0  0
   -4.0593    5.2835   -1.3501 H   0  0  0  0  0  0  0  0  0  0  0  0
   -2.5078    3.2268    0.5342 C   0  0  0  0  0  0  0  0  0  0  0  0
   -2.6663    3.6911    1.5022 H   0  0  0  0  0  0  0  0  0  0  0  0
   -1.7264    2.0712    0.4250 C   0  0  0  0  0  0  0  0  0  0  0  0
   -1.2496    1.7203    1.3256 H   0  0  0  0  0  0  0  0  0  0  0  0
   -0.0496   -0.6893    1.3980 C   0  0  0  0  0  0  0  0  0  0  0  0
    1.1515   -0.5490    1.5862 O   0  0  0  0  0  0  0  0  0  0  0  0
   -0.9181   -0.3610    2.4245 N   0  0  0  0  0  0  0  0  0  0  0  0
   -1.9024   -0.5428    2.2564 H   0  0  0  0  0  0  0  0  0  0  0  0
   -0.4740   -0.1021    3.7886 C   0  0  0  0  0  0  0  0  0  0  0  0
    0.2289    0.7374    3.8108 H   0  0  0  0  0  0  0  0  0  0  0  0
   -1.3287    0.1484    4.4242 H   0  0  0  0  0  0  0  0  0  0  0  0
    0.0207   -0.9868    4.2035 H   0  0  0  0  0  0  0  0  0  0  0  0
  1  2  1  0  0  0  0
  2  3  1  0  0  0  0
  2  4  1  0  0  0  0
  2  5  1  0  0  0  0
  5  6  2  0  0  0  0
  5  7  1  0  0  0  0
  7  8  1  0  0  0  0
  7  9  1  0  0  0  0
  9 10  1  0  0  0  0
  9 11  1  0  0  0  0
  9 26  1  0  0  0  0
 11 12  1  0  0  0  0
 11 13  1  0  0  0  0
 11 14  1  0  0  0  0
 14 15  2  0  0  0  0
 14 24  1  0  0  0  0
 15 16  1  0  0  0  0
 15 17  1  0  0  0  0
 17 18  1  0  0  0  0
 17 19  2  0  0  0  0
 19 20  1  0  0  0  0
 19 22  1  0  0  0  0
 20 21  1  0  0  0  0
 22 23  1  0  0  0  0
 22 24  2  0  0  0  0
 24 25  1  0  0  0  0
 26 27  2  0  0  0  0
 26 28  1  0  0  0  0
 28 29  1  0  0  0  0
 28 30  1  0  0  0  0
 30 31  1  0  0  0  0
 30 32  1  0  0  0  0
 30 33  1  0  0  0  0
M  END
$$$$

  -OEChem-03222214083D

 33 33  0     1  0  0  0  0  0999 V2000
   -3.1926   -4.7196    0.6580 H   0  0  0  0  0  0  0  0  0  0  0  0
   -3.2140   -3.7570    0.1388 C   0  0  0  0  0  0  0  0  0  0  0  0
   -4.0160   -3.1475    0.5620 H   0  0  0  0  0  0  0  0  0  0  0  0
   -3.4174   -3.9333   -0.9202 H   0  0  0  0  0  0  0  0  0  0  0  0
   -1.8820   -3.0486    0.2983 C   0  0  0  0  0  0  0  0  0  0  0  0
   -0.9660   -3.6018    0.8799 O   0  0  0  0  0  0  0  0  0  0  0  0
   -1.7155   -1.7783   -0.2173 N   0  0  0  0  0  0  0  0  0  0  0  0
   -2.5199   -1.3499   -0.6665 H   0  0  0  0  0  0  0  0  0  0  0  0
   -0.4839   -0.9782   -0.0892 C   0  0  1  0  0  0  0  0  0  0  0  0
    0.3254   -1.6228   -0.4516 H   0  0  0  0  0  0  0  0  0  0  0  0
   -0.5340    0.1894   -1.1039 C   0  0  0  0  0  0  0  0  0  0  0  0
    0.4829    0.5873   -1.1875 H   0  0  0  0  0  0  0  0  0  0  0  0
   -0.7872   -0.2282   -2.0836 H   0  0  0  0  0  0  0  0  0  0  0  0
   -1.4438    1.3705   -0.8065 C   0  0  0  0  0  0  0  0  0  0  0  0
   -2.2540    1.8732   -1.8405 C   0  0  0  0  0  0  0  0  0  0  0  0
   -2.2910    1.3647   -2.7996 H   0  0  0  0  0  0  0  0  0  0  0  0
   -3.0422    3.0151   -1.6542 C   0  0  0  0  0  0  0  0  0  0  0  0
   -3.6813    3.3612   -2.4594 H   0  0  0  0  0  0  0  0  0  0  0  0
   -2.9937    3.7090   -0.4460 C   0  0  0  0  0  0  0  0  0  0  0  0
   -3.7554    4.8243   -0.2492 O   0  0  0  0  0  0  0  0  0  0  0  0
   -4.2535    5.0367   -1.0535 H   0  0  0  0  0  0  0  0  0  0  0  0
   -2.1305    3.2757    0.5555 C   0  0  0  0  0  0  0  0  0  0  0  0
   -2.0565    3.8482    1.4744 H   0  0  0  0  0  0  0  0  0  0  0  0
   -1.3406    2.1367    0.3681 C   0  0  0  0  0  0  0  0  0  0  0  0
   -0.6159    1.8943    1.1368 H   0  0  0  0  0  0  0  0  0  0  0  0
   -0.0709   -0.6776    1.3692 C   0  0  0  0  0  0  0  0  0  0  0  0
    1.1159   -0.5723    1.6480 O   0  0  0  0  0  0  0  0  0  0  0  0
   -1.0082   -0.2677    2.3023 N   0  0  0  0  0  0  0  0  0  0  0  0
   -1.9843   -0.3455    2.0355 H   0  0  0  0  0  0  0  0  0  0  0  0
   -0.6739    0.0830    3.6770 C   0  0  0  0  0  0  0  0  0  0  0  0
    0.0471    0.9069    3.6991 H   0  0  0  0  0  0  0  0  0  0  0  0
   -1.5727    0.3977    4.2157 H   0  0  0  0  0  0  0  0  0  0  0  0
   -0.2413   -0.7787    4.1966 H   0  0  0  0  0  0  0  0  0  0  0  0
  1  2  1  0  0  0  0
  2  3  1  0  0  0  0
  2  4  1  0  0  0  0
  2  5  1  0  0  0  0
  5  6  2  0  0  0  0
  5  7  1  0  0  0  0
  7  8  1  0  0  0  0
  7  9  1  0  0  0  0
  9 10  1  0  0  0  0
  9 11  1  0  0  0  0
  9 26  1  0  0  0  0
 11 12  1  0  0  0  0
 11 13  1  0  0  0  0
 11 14  1  0  0  0  0
 14 15  2  0  0  0  0
 14 24  1  0  0  0  0
 15 16  1  0  0  0  0
 15 17  1  0  0  0  0
 17 18  1  0  0  0  0
 17 19  2  0  0  0  0
 19 20  1  0  0  0  0
 19 22  1  0  0  0  0
 20 21  1  0  0  0  0
 22 23  1  0  0  0  0
 22 24  2  0  0  0  0
 24 25  1  0  0  0  0
 26 27  2  0  0  0  0
 26 28  1  0  0  0  0
 28 29  1  0  0  0  0
 28 30  1  0  0  0  0
 30 31  1  0  0  0  0
 30 32  1  0  0  0  0
 30 33  1  0  0  0  0
M  END
$$$$

  -OEChem-03222214083D

 33 33  0     1  0  0  0  0  0999 V2000
   -3.2592   -4.6523    0.6999 H   0  0  0  0  0  0  0  0  0  0  0  0
   -3.2502   -3.7056    0.1517 C   0  0  0  0  0  0  0  0  0  0  0  0
   -4.0351   -3.0600    0.5533 H   0  0  0  0  0  0  0  0  0  0  0  0
   -3.4561   -3.9079   -0.9022 H   0  0  0  0  0  0  0  0  0  0  0  0
   -1.8980   -3.0325    0.2961 C   0  0  0  0  0  0  0  0  0  0  0  0
   -1.0044   -3.5907    0.9070 O   0  0  0  0  0  0  0  0  0  0  0  0
   -1.6884   -1.7877   -0.2641 N   0  0  0  0  0  0  0  0  0  0  0  0
   -2.4786   -1.3474   -0.7260 H   0  0  0  0  0  0  0  0  0  0  0  0
   -0.4446   -1.0093   -0.1206 C   0  0  1  0  0  0  0  0  0  0  0  0
    0.3663   -1.6692   -0.4502 H   0  0  0  0  0  0  0  0  0  0  0  0
   -0.4633    0.1565   -1.1342 C   0  0  0  0  0  0  0  0  0  0  0  0
    0.5575    0.5472   -1.2092 H   0  0  0  0  0  0  0  0  0  0  0  0
   -0.7184   -0.2431   -2.1209 H   0  0  0  0  0  0  0  0  0  0  0  0
   -1.3728    1.3235   -0.7985 C   0  0  0  0  0  0  0  0  0  0  0  0
   -2.4114    1.6657   -1.6808 C   0  0  0  0  0  0  0  0  0  0  0  0
   -2.6016    1.0596   -2.5618 H   0  0  0  0  0  0  0  0  0  0  0  0
   -3.2223    2.7805   -1.4368 C   0  0  0  0  0  0  0  0  0  0  0  0
   -4.0313    3.0140   -2.1206 H   0  0  0  0  0  0  0  0  0  0  0  0
   -2.9823    3.5929   -0.3279 C   0  0  0  0  0  0  0  0  0  0  0  0
   -3.7643    4.6838   -0.0802 O   0  0  0  0  0  0  0  0  0  0  0  0
   -4.4158    4.7973   -0.7895 H   0  0  0  0  0  0  0  0  0  0  0  0
   -1.9171    3.2992    0.5195 C   0  0  0  0  0  0  0  0  0  0  0  0
   -1.7135    3.9529    1.3617 H   0  0  0  0  0  0  0  0  0  0  0  0
   -1.1035    2.1876    0.2765 C   0  0  0  0  0  0  0  0  0  0  0  0
   -0.2493    2.0150    0.9256 H   0  0  0  0  0  0  0  0  0  0  0  0
   -0.0720   -0.6552    1.3366 C   0  0  0  0  0  0  0  0  0  0  0  0
    1.1075   -0.5676    1.6514 O   0  0  0  0  0  0  0  0  0  0  0  0
   -1.0292   -0.1843    2.2186 N   0  0  0  0  0  0  0  0  0  0  0  0
   -1.9926   -0.1877    1.8998 H   0  0  0  0  0  0  0  0  0  0  0  0
   -0.7269    0.2777    3.5671 C   0  0  0  0  0  0  0  0  0  0  0  0
   -0.0216    1.1150    3.5376 H   0  0  0  0  0  0  0  0  0  0  0  0
   -1.6412    0.6144    4.0648 H   0  0  0  0  0  0  0  0  0  0  0  0
   -0.2880   -0.5325    4.1588 H   0  0  0  0  0  0  0  0  0  0  0  0
  1  2  1  0  0  0  0
  2  3  1  0  0  0  0
  2  4  1  0  0  0  0
  2  5  1  0  0  0  0
  5  6  2  0  0  0  0
  5  7  1  0  0  0  0
  7  8  1  0  0  0  0
  7  9  1  0  0  0  0
  9 10  1  0  0  0  0
  9 11  1  0  0  0  0
  9 26  1  0  0  0  0
 11 12  1  0  0  0  0
 11 13  1  0  0  0  0
 11 14  1  0  0  0  0
 14 15  2  0  0  0  0
 14 24  1  0  0  0  0
 15 16  1  0  0  0  0
 15 17  1  0  0  0  0
 17 18  1  0  0  0  0
 17 19  2  0  0  0  0
 19 20  1  0  0  0  0
 19 22  1  0  0  0  0
 20 21  1  0  0  0  0
 22 23  1  0  0  0  0
 22 24  2  0  0  0  0
 24 25  1  0  0  0  0
 26 27  2  0  0  0  0
 26 28  1  0  0  0  0
 28 29  1  0  0  0  0
 28 30  1  0  0  0  0
 30 31  1  0  0  0  0
 30 32  1  0  0  0  0
 30 33  1  0  0  0  0
M  END
$$$$

  -OEChem-03222214083D

 33 33  0     1  0  0  0  0  0999 V2000
   -3.3192   -4.5832    0.7399 H   0  0  0  0  0  0  0  0  0  0  0  0
   -3.2844   -3.6532    0.1650 C   0  0  0  0  0  0  0  0  0  0  0  0
   -4.0517   -2.9759    0.5473 H   0  0  0  0  0  0  0  0  0  0  0  0
   -3.4948   -3.8793   -0.8831 H   0  0  0  0  0  0  0  0  0  0  0  0
   -1.9146   -3.0137    0.2932 C   0  0  0  0  0  0  0  0  0  0  0  0
   -1.0380   -3.5788    0.9221 O   0  0  0  0  0  0  0  0  0  0  0  0
   -1.6691   -1.7936   -0.3049 N   0  0  0  0  0  0  0  0  0  0  0  0
   -2.4508   -1.3399   -0.7672 H   0  0  0  0  0  0  0  0  0  0  0  0
   -0.4161   -1.0330   -0.1493 C   0  0  1  0  0  0  0  0  0  0  0  0
    0.3951   -1.7066   -0.4484 H   0  0  0  0  0  0  0  0  0  0  0  0
   -0.4012    0.1288   -1.1638 C   0  0  0  0  0  0  0  0  0  0  0  0
    0.6244    0.5078   -1.2312 H   0  0  0  0  0  0  0  0  0  0  0  0
   -0.6596   -0.2554   -2.1556 H   0  0  0  0  0  0  0  0  0  0  0  0
   -1.3077    1.2867   -0.8044 C   0  0  0  0  0  0  0  0  0  0  0  0
   -2.5203    1.4688   -1.4876 C   0  0  0  0  0  0  0  0  0  0  0  0
   -2.8233    0.7667   -2.2588 H   0  0  0  0  0  0  0  0  0  0  0  0
   -3.3519    2.5537   -1.1849 C   0  0  0  0  0  0  0  0  0  0  0  0
   -4.2901    2.6732   -1.7158 H   0  0  0  0  0  0  0  0  0  0  0  0
   -2.9715    3.4796   -0.2116 C   0  0  0  0  0  0  0  0  0  0  0  0
   -3.7744    4.5402    0.0935 O   0  0  0  0  0  0  0  0  0  0  0  0
   -4.5500    4.5523   -0.4882 H   0  0  0  0  0  0  0  0  0  0  0  0
   -1.7533    3.3252    0.4460 C   0  0  0  0  0  0  0  0  0  0  0  0
   -1.4550    4.0568    1.1902 H   0  0  0  0  0  0  0  0  0  0  0  0
   -0.9176    2.2453    0.1442 C   0  0  0  0  0  0  0  0  0  0  0  0
    0.0366    2.1519    0.6572 H   0  0  0  0  0  0  0  0  0  0  0  0
   -0.0774   -0.6319    1.3047 C   0  0  0  0  0  0  0  0  0  0  0  0
    1.0942   -0.5622    1.6522 O   0  0  0  0  0  0  0  0  0  0  0  0
   -1.0498   -0.1102    2.1404 N   0  0  0  0  0  0  0  0  0  0  0  0
   -1.9874   -0.0304    1.7605 H   0  0  0  0  0  0  0  0  0  0  0  0
   -0.7651    0.4577    3.4518 C   0  0  0  0  0  0  0  0  0  0  0  0
   -0.0671    1.2968    3.3634 H   0  0  0  0  0  0  0  0  0  0  0  0
   -1.6872    0.8221    3.9144 H   0  0  0  0  0  0  0  0  0  0  0  0
   -0.3246   -0.3002    4.1081 H   0  0  0  0  0  0  0  0  0  0  0  0
  1  2  1  0  0  0  0
  2  3  1  0  0  0  0
  2  4  1  0  0  0  0
  2  5  1  0  0  0  0
  5  6  2  0  0  0  0
  5  7  1  0  0  0  0
  7  8  1  0  0  0  0
  7  9  1  0  0  0  0
  9 10  1  0  0  0  0
  9 11  1  0  0  0  0
  9 26  1  0  0  0  0
 11 12  1  0  0  0  0
 11 13  1  0  0  0  0
 11 14  1  0  0  0  0
 14 15  2  0  0  0  0
 14 24  1  0  0  0  0
 15 16  1  0  0  0  0
 15 17  1  0  0  0  0
 17 18  1  0  0  0  0
 17 19  2  0  0  0  0
 19 20  1  0  0  0  0
 19 22  1  0  0  0  0
 20 21  1  0  0  0  0
 22 23  1  0  0  0  0
 22 24  2  0  0  0  0
 24 25  1  0  0  0  0
 26 27  2  0  0  0  0
 26 28  1  0  0  0  0
 28 29  1  0  0  0  0
 28 30  1  0  0  0  0
 30 31  1  0  0  0  0
 30 32  1  0  0  0  0
 30 33  1  0  0  0  0
M  END
$$$$

  -OEChem-03222214083D

 33 33  0     1  0  0  0  0  0999 V2000
   -3.3547   -4.5566    0.7537 H   0  0  0  0  0  0  0  0  0  0  0  0
   -3.3078   -3.6305    0.1736 C   0  0  0  0  0  0  0  0  0  0  0  0
   -4.0703   -2.9434    0.5478 H   0  0  0  0  0  0  0  0  0  0  0  0
   -3.5148   -3.8608   -0.8741 H   0  0  0  0  0  0  0  0  0  0  0  0
   -1.9325   -3.0029    0.3049 C   0  0  0  0  0  0  0  0  0  0  0  0
   -1.0719   -3.5590    0.9632 O   0  0  0  0  0  0  0  0  0  0  0  0
   -1.6647   -1.8036   -0.3255 N   0  0  0  0  0  0  0  0  0  0  0  0
   -2.4331   -1.3586   -0.8158 H   0  0  0  0  0  0  0  0  0  0  0  0
   -0.4076   -1.0500   -0.1671 C   0  0  1  0  0  0  0  0  0  0  0  0
    0.4031   -1.7347   -0.4414 H   0  0  0  0  0  0  0  0  0  0  0  0
   -0.3635    0.1066   -1.1853 C   0  0  0  0  0  0  0  0  0  0  0  0
    0.6678    0.4706   -1.2478 H   0  0  0  0  0  0  0  0  0  0  0  0
   -0.6253   -0.2708   -2.1788 H   0  0  0  0  0  0  0  0  0  0  0  0
   -1.2662    1.2651   -0.8217 C   0  0  0  0  0  0  0  0  0  0  0  0
   -2.5958    1.3005   -1.2697 C   0  0  0  0  0  0  0  0  0  0  0  0
   -2.9809    0.5060   -1.9013 H   0  0  0  0  0  0  0  0  0  0  0  0
   -3.4345    2.3654   -0.9194 C   0  0  0  0  0  0  0  0  0  0  0  0
   -4.4593    2.3801   -1.2744 H   0  0  0  0  0  0  0  0  0  0  0  0
   -2.9526    3.4056   -0.1219 C   0  0  0  0  0  0  0  0  0  0  0  0
   -3.7608    4.4482    0.2283 O   0  0  0  0  0  0  0  0  0  0  0  0
   -4.6261    4.3627   -0.2003 H   0  0  0  0  0  0  0  0  0  0  0  0
   -1.6310    3.3803    0.3186 C   0  0  0  0  0  0  0  0  0  0  0  0
   -1.2622    4.1929    0.9363 H   0  0  0  0  0  0  0  0  0  0  0  0
   -0.7873    2.3214   -0.0316 C   0  0  0  0  0  0  0  0  0  0  0  0
    0.2392    2.3142    0.3268 H   0  0  0  0  0  0  0  0  0  0  0  0
   -0.0860   -0.6037    1.2780 C   0  0  0  0  0  0  0  0  0  0  0  0
    1.0812   -0.5405    1.6420 O   0  0  0  0  0  0  0  0  0  0  0  0
   -1.0653   -0.0438    2.0802 N   0  0  0  0  0  0  0  0  0  0  0  0
   -1.9844    0.0700    1.6655 H   0  0  0  0  0  0  0  0  0  0  0  0
   -0.7843    0.5969    3.3583 C   0  0  0  0  0  0  0  0  0  0  0  0
   -0.1252    1.4599    3.2178 H   0  0  0  0  0  0  0  0  0  0  0  0
   -1.7134    0.9425    3.8213 H   0  0  0  0  0  0  0  0  0  0  0  0
   -0.3005   -0.1100    4.0406 H   0  0  0  0  0  0  0  0  0  0  0  0
  1  2  1  0  0  0  0
  2  3  1  0  0  0  0
  2  4  1  0  0  0  0
  2  5  1  0  0  0  0
  5  6  2  0  0  0  0
  5  7  1  0  0  0  0
  7  8  1  0  0  0  0
  7  9  1  0  0  0  0
  9 10  1  0  0  0  0
  9 11  1  0  0  0  0
  9 26  1  0  0  0  0
 11 12  1  0  0  0  0
 11 13  1  0  0  0  0
 11 14  1  0  0  0  0
 14 15  2  0  0  0  0
 14 24  1  0  0  0  0
 15 16  1  0  0  0  0
 15 17  1  0  0  0  0
 17 18  1  0  0  0  0
 17 19  2  0  0  0  0
 19 20  1  0  0  0  0
 19 22  1  0  0  0  0
 20 21  1  0  0  0  0
 22 23  1  0  0  0  0
 22 24  2  0  0  0  0
 24 25  1  0  0  0  0
 26 27  2  0  0  0  0
 26 28  1  0  0  0  0
 28 29  1  0  0  0  0
 28 30  1  0  0  0  0
 30 31  1  0  0  0  0
 30 32  1  0  0  0  0
 30 33  1  0  0  0  0
M  END
$$$$

  -OEChem-03222214083D

 33 33  0     1  0  0  0  0  0999 V2000
   -3.3393   -4.6151    0.7260 H   0  0  0  0  0  0  0  0  0  0  0  0
   -3.2932   -3.6915    0.1417 C   0  0  0  0  0  0  0  0  0  0  0  0
   -4.1048   -3.0329    0.4604 H   0  0  0  0  0  0  0  0  0  0  0  0
   -3.4234   -3.9378   -0.9149 H   0  0  0  0  0  0  0  0  0  0  0  0
   -1.9556   -3.0073    0.3538 C   0  0  0  0  0  0  0  0  0  0  0  0
   -1.1294   -3.5065    1.0962 O   0  0  0  0  0  0  0  0  0  0  0  0
   -1.6797   -1.8277   -0.3092 N   0  0  0  0  0  0  0  0  0  0  0  0
   -2.3940   -1.4688   -0.9327 H   0  0  0  0  0  0  0  0  0  0  0  0
   -0.4223   -1.0706   -0.1675 C   0  0  1  0  0  0  0  0  0  0  0  0
    0.3890   -1.7601   -0.4271 H   0  0  0  0  0  0  0  0  0  0  0  0
   -0.3705    0.0831   -1.1893 C   0  0  0  0  0  0  0  0  0  0  0  0
    0.6655    0.4319   -1.2599 H   0  0  0  0  0  0  0  0  0  0  0  0
   -0.6449   -0.2951   -2.1792 H   0  0  0  0  0  0  0  0  0  0  0  0
   -1.2640    1.2536   -0.8315 C   0  0  0  0  0  0  0  0  0  0  0  0
   -2.6573    1.1847   -0.9960 C   0  0  0  0  0  0  0  0  0  0  0  0
   -3.1154    0.3067   -1.4377 H   0  0  0  0  0  0  0  0  0  0  0  0
   -3.4729    2.2553   -0.6104 C   0  0  0  0  0  0  0  0  0  0  0  0
   -4.5465    2.1901   -0.7512 H   0  0  0  0  0  0  0  0  0  0  0  0
   -2.9072    3.4034   -0.0522 C   0  0  0  0  0  0  0  0  0  0  0  0
   -3.6916    4.4525    0.3313 O   0  0  0  0  0  0  0  0  0  0  0  0
   -4.6199    4.2760    0.1152 H   0  0  0  0  0  0  0  0  0  0  0  0
   -1.5265    3.4784    0.1154 C   0  0  0  0  0  0  0  0  0  0  0  0
   -1.0931    4.3723    0.5527 H   0  0  0  0  0  0  0  0  0  0  0  0
   -0.7064    2.4131   -0.2705 C   0  0  0  0  0  0  0  0  0  0  0  0
    0.3671    2.4851   -0.1149 H   0  0  0  0  0  0  0  0  0  0  0  0
   -0.1040   -0.5799    1.2640 C   0  0  0  0  0  0  0  0  0  0  0  0
    1.0627   -0.5117    1.6293 O   0  0  0  0  0  0  0  0  0  0  0  0
   -1.0865    0.0062    2.0430 N   0  0  0  0  0  0  0  0  0  0  0  0
   -1.9967    0.1213    1.6098 H   0  0  0  0  0  0  0  0  0  0  0  0
   -0.8053    0.7134    3.2850 C   0  0  0  0  0  0  0  0  0  0  0  0
   -0.1885    1.5970    3.0906 H   0  0  0  0  0  0  0  0  0  0  0  0
   -1.7390    1.0368    3.7547 H   0  0  0  0  0  0  0  0  0  0  0  0
   -0.2756    0.0595    3.9860 H   0  0  0  0  0  0  0  0  0  0  0  0
  1  2  1  0  0  0  0
  2  3  1  0  0  0  0
  2  4  1  0  0  0  0
  2  5  1  0  0  0  0
  5  6  2  0  0  0  0
  5  7  1  0  0  0  0
  7  8  1  0  0  0  0
  7  9  1  0  0  0  0
  9 10  1  0  0  0  0
  9 11  1  0  0  0  0
  9 26  1  0  0  0  0
 11 12  1  0  0  0  0
 11 13  1  0  0  0  0
 11 14  1  0  0  0  0
 14 15  2  0  0  0  0
 14 24  1  0  0  0  0
 15 16  1  0  0  0  0
 15 17  1  0  0  0  0
 17 18  1  0  0  0  0
 17 19  2  0  0  0  0
 19 20  1  0  0  0  0
 19 22  1  0  0  0  0
 20 21  1  0  0  0  0
 22 23  1  0  0  0  0
 22 24  2  0  0  0  0
 24 25  1  0  0  0  0
 26 27  2  0  0  0  0
 26 28  1  0  0  0  0
 28 29  1  0  0  0  0
 28 30  1  0  0  0  0
 30 31  1  0  0  0  0
 30 32  1  0  0  0  0
 30 33  1  0  0  0  0
M  END
$$$$

  -OEChem-03222214083D

 33 33  0     1  0  0  0  0  0999 V2000
   -3.2717   -4.7160    0.6891 H   0  0  0  0  0  0  0  0  0  0  0  0
   -3.2369   -3.8021    0.0890 C   0  0  0  0  0  0  0  0  0  0  0  0
   -4.1154   -3.1955    0.3214 H   0  0  0  0  0  0  0  0  0  0  0  0
   -3.2592   -4.0760   -0.9686 H   0  0  0  0  0  0  0  0  0  0  0  0
   -1.9717   -3.0238    0.3982 C   0  0  0  0  0  0  0  0  0  0  0  0
   -1.1886   -3.4472    1.2286 O   0  0  0  0  0  0  0  0  0  0  0  0
   -1.7127   -1.8479   -0.2785 N   0  0  0  0  0  0  0  0  0  0  0  0
   -2.3379   -1.6176   -1.0433 H   0  0  0  0  0  0  0  0  0  0  0  0
   -0.4578   -1.0823   -0.1529 C   0  0  1  0  0  0  0  0  0  0  0  0
    0.3542   -1.7680   -0.4203 H   0  0  0  0  0  0  0  0  0  0  0  0
   -0.4203    0.0781   -1.1697 C   0  0  0  0  0  0  0  0  0  0  0  0
    0.6184    0.4163   -1.2523 H   0  0  0  0  0  0  0  0  0  0  0  0
   -0.7079   -0.2991   -2.1558 H   0  0  0  0  0  0  0  0  0  0  0  0
   -1.3042    1.2636   -0.8212 C   0  0  0  0  0  0  0  0  0  0  0  0
   -2.6980    1.1444   -0.6751 C   0  0  0  0  0  0  0  0  0  0  0  0
   -3.1973    0.2012   -0.8612 H   0  0  0  0  0  0  0  0  0  0  0  0
   -3.4743    2.2476   -0.3011 C   0  0  0  0  0  0  0  0  0  0  0  0
   -4.5485    2.1379   -0.1988 H   0  0  0  0  0  0  0  0  0  0  0  0
   -2.8704    3.4829   -0.0636 C   0  0  0  0  0  0  0  0  0  0  0  0
   -3.6164    4.5657    0.3024 O   0  0  0  0  0  0  0  0  0  0  0  0
   -4.5563    4.3307    0.3398 H   0  0  0  0  0  0  0  0  0  0  0  0
   -1.4908    3.6104   -0.1995 C   0  0  0  0  0  0  0  0  0  0  0  0
   -1.0256    4.5719   -0.0069 H   0  0  0  0  0  0  0  0  0  0  0  0
   -0.7108    2.5116   -0.5730 C   0  0  0  0  0  0  0  0  0  0  0  0
    0.3658    2.6345   -0.6550 H   0  0  0  0  0  0  0  0  0  0  0  0
   -0.1196   -0.5739    1.2685 C   0  0  0  0  0  0  0  0  0  0  0  0
    1.0532   -0.5056    1.6142 O   0  0  0  0  0  0  0  0  0  0  0  0
   -1.0882    0.0178    2.0602 N   0  0  0  0  0  0  0  0  0  0  0  0
   -2.0125    0.1094    1.6525 H   0  0  0  0  0  0  0  0  0  0  0  0
   -0.7880    0.7311    3.2941 C   0  0  0  0  0  0  0  0  0  0  0  0
   -0.1717    1.6118    3.0858 H   0  0  0  0  0  0  0  0  0  0  0  0
   -1.7138    1.0601    3.7754 H   0  0  0  0  0  0  0  0  0  0  0  0
   -0.2501    0.0800    3.9912 H   0  0  0  0  0  0  0  0  0  0  0  0
  1  2  1  0  0  0  0
  2  3  1  0  0  0  0
  2  4  1  0  0  0  0
  2  5  1  0  0  0  0
  5  6  2  0  0  0  0
  5  7  1  0  0  0  0
  7  8  1  0  0  0  0
  7  9  1  0  0  0  0
  9 10  1  0  0  0  0
  9 11  1  0  0  0  0
  9 26  1  0  0  0  0
 11 12  1  0  0  0  0
 11 13  1  0  0  0  0
 11 14  1  0  0  0  0
 14 15  2  0  0  0  0
 14 24  1  0  0  0  0
 15 16  1  0  0  0  0
 15 17  1  0  0  0  0
 17 18  1  0  0  0  0
 17 19  2  0  0  0  0
 19 20  1  0  0  0  0
 19 22  1  0  0  0  0
 20 21  1  0  0  0  0
 22 23  1  0  0  0  0
 22 24  2  0  0  0  0
 24 25  1  0  0  0  0
 26 27  2  0  0  0  0
 26 28  1  0  0  0  0
 28 29  1  0  0  0  0
 28 30  1  0  0  0  0
 30 31  1  0  0  0  0
 30 32  1  0  0  0  0
 30 33  1  0  0  0  0
M  END
$$$$

  -OEChem-03222214083D

 33 33  0     1  0  0  0  0  0999 V2000
   -3.2108   -4.7768    0.6557 H   0  0  0  0  0  0  0  0  0  0  0  0
   -3.1966   -3.8528    0.0708 C   0  0  0  0  0  0  0  0  0  0  0  0
   -4.0878   -3.2695    0.3141 H   0  0  0  0  0  0  0  0  0  0  0  0
   -3.2144   -4.1098   -0.9908 H   0  0  0  0  0  0  0  0  0  0  0  0
   -1.9478   -3.0526    0.3909 C   0  0  0  0  0  0  0  0  0  0  0  0
   -1.1536   -3.4733    1.2120 O   0  0  0  0  0  0  0  0  0  0  0  0
   -1.7198   -1.8546   -0.2580 N   0  0  0  0  0  0  0  0  0  0  0  0
   -2.3520   -1.6232   -1.0178 H   0  0  0  0  0  0  0  0  0  0  0  0
   -0.4756   -1.0715   -0.1325 C   0  0  1  0  0  0  0  0  0  0  0  0
    0.3388   -1.7439   -0.4253 H   0  0  0  0  0  0  0  0  0  0  0  0
   -0.4598    0.1022   -1.1346 C   0  0  0  0  0  0  0  0  0  0  0  0
    0.5775    0.4461   -1.2111 H   0  0  0  0  0  0  0  0  0  0  0  0
   -0.7414   -0.2735   -2.1230 H   0  0  0  0  0  0  0  0  0  0  0  0
   -1.3459    1.2957   -0.8047 C   0  0  0  0  0  0  0  0  0  0  0  0
   -2.6780    1.1723   -0.3642 C   0  0  0  0  0  0  0  0  0  0  0  0
   -3.1530    0.2040   -0.2709 H   0  0  0  0  0  0  0  0  0  0  0  0
   -3.4363    2.3056   -0.0471 C   0  0  0  0  0  0  0  0  0  0  0  0
   -4.4614    2.1880    0.2867 H   0  0  0  0  0  0  0  0  0  0  0  0
   -2.8787    3.5793   -0.1632 C   0  0  0  0  0  0  0  0  0  0  0  0
   -3.6079    4.6924    0.1410 O   0  0  0  0  0  0  0  0  0  0  0  0
   -4.4984    4.4425    0.4311 H   0  0  0  0  0  0  0  0  0  0  0  0
   -1.5630    3.7148   -0.5959 C   0  0  0  0  0  0  0  0  0  0  0  0
   -1.1332    4.7077   -0.6816 H   0  0  0  0  0  0  0  0  0  0  0  0
   -0.8013    2.5858   -0.9128 C   0  0  0  0  0  0  0  0  0  0  0  0
    0.2261    2.7220   -1.2386 H   0  0  0  0  0  0  0  0  0  0  0  0
   -0.1072   -0.5884    1.2900 C   0  0  0  0  0  0  0  0  0  0  0  0
    1.0731   -0.5230    1.6093 O   0  0  0  0  0  0  0  0  0  0  0  0
   -1.0565   -0.0277    2.1253 N   0  0  0  0  0  0  0  0  0  0  0  0
   -2.0032    0.0333    1.7678 H   0  0  0  0  0  0  0  0  0  0  0  0
   -0.7321    0.6181    3.3899 C   0  0  0  0  0  0  0  0  0  0  0  0
   -0.0822    1.4833    3.2219 H   0  0  0  0  0  0  0  0  0  0  0  0
   -1.6456    0.9607    3.8848 H   0  0  0  0  0  0  0  0  0  0  0  0
   -0.2203   -0.0843    4.0564 H   0  0  0  0  0  0  0  0  0  0  0  0
  1  2  1  0  0  0  0
  2  3  1  0  0  0  0
  2  4  1  0  0  0  0
  2  5  1  0  0  0  0
  5  6  2  0  0  0  0
  5  7  1  0  0  0  0
  7  8  1  0  0  0  0
  7  9  1  0  0  0  0
  9 10  1  0  0  0  0
  9 11  1  0  0  0  0
  9 26  1  0  0  0  0
 11 12  1  0  0  0  0
 11 13  1  0  0  0  0
 11 14  1  0  0  0  0
 14 15  2  0  0  0  0
 14 24  1  0  0  0  0
 15 16  1  0  0  0  0
 15 17  1  0  0  0  0
 17 18  1  0  0  0  0
 17 19  2  0  0  0  0
 19 20  1  0  0  0  0
 19 22  1  0  0  0  0
 20 21  1  0  0  0  0
 22 23  1  0  0  0  0
 22 24  2  0  0  0  0
 24 25  1  0  0  0  0
 26 27  2  0  0  0  0
 26 28  1  0  0  0  0
 28 29  1  0  0  0  0
 28 30  1  0  0  0  0
 30 31  1  0  0  0  0
 30 32  1  0  0  0  0
 30 33  1  0  0  0  0
M  END
$$$$

  -OEChem-03222214083D

 33 33  0     1  0  0  0  0  0999 V2000
   -3.1666   -4.8126    0.5889 H   0  0  0  0  0  0  0  0  0  0  0  0
   -3.1725   -3.8681    0.0373 C   0  0  0  0  0  0  0  0  0  0  0  0
   -4.0719   -3.3093    0.3066 H   0  0  0  0  0  0  0  0  0  0  0  0
   -3.1935   -4.0874   -1.0328 H   0  0  0  0  0  0  0  0  0  0  0  0
   -1.9354   -3.0578    0.3763 C   0  0  0  0  0  0  0  0  0  0  0  0
   -1.1269   -3.4908    1.1769 O   0  0  0  0  0  0  0  0  0  0  0  0
   -1.7364   -1.8308   -0.2254 N   0  0  0  0  0  0  0  0  0  0  0  0
   -2.3960   -1.5672   -0.9518 H   0  0  0  0  0  0  0  0  0  0  0  0
   -0.4995   -1.0370   -0.0954 C   0  0  1  0  0  0  0  0  0  0  0  0
    0.3089   -1.7047   -0.4147 H   0  0  0  0  0  0  0  0  0  0  0  0
   -0.4924    0.1362   -1.0979 C   0  0  0  0  0  0  0  0  0  0  0  0
    0.5429    0.4889   -1.1643 H   0  0  0  0  0  0  0  0  0  0  0  0
   -0.7602   -0.2497   -2.0865 H   0  0  0  0  0  0  0  0  0  0  0  0
   -1.3811    1.3367   -0.8030 C   0  0  0  0  0  0  0  0  0  0  0  0
   -2.5992    1.2607   -0.0998 C   0  0  0  0  0  0  0  0  0  0  0  0
   -2.9859    0.3146    0.2571 H   0  0  0  0  0  0  0  0  0  0  0  0
   -3.3567    2.4116    0.1496 C   0  0  0  0  0  0  0  0  0  0  0  0
   -4.2921    2.3301    0.6924 H   0  0  0  0  0  0  0  0  0  0  0  0
   -2.9132    3.6561   -0.2983 C   0  0  0  0  0  0  0  0  0  0  0  0
   -3.6413    4.7854   -0.0579 O   0  0  0  0  0  0  0  0  0  0  0  0
   -4.4218    4.5743    0.4770 H   0  0  0  0  0  0  0  0  0  0  0  0
   -1.7141    3.7449   -0.9986 C   0  0  0  0  0  0  0  0  0  0  0  0
   -1.3730    4.7159   -1.3436 H   0  0  0  0  0  0  0  0  0  0  0  0
   -0.9542    2.5980   -1.2499 C   0  0  0  0  0  0  0  0  0  0  0  0
   -0.0188    2.6971   -1.7936 H   0  0  0  0  0  0  0  0  0  0  0  0
   -0.0840   -0.5980    1.3293 C   0  0  0  0  0  0  0  0  0  0  0  0
    1.1079   -0.5161    1.5973 O   0  0  0  0  0  0  0  0  0  0  0  0
   -0.9995   -0.0770    2.2257 N   0  0  0  0  0  0  0  0  0  0  0  0
   -1.9782   -0.1310    1.9708 H   0  0  0  0  0  0  0  0  0  0  0  0
   -0.6321    0.4730    3.5235 C   0  0  0  0  0  0  0  0  0  0  0  0
    0.0613    1.3115    3.4010 H   0  0  0  0  0  0  0  0  0  0  0  0
   -1.5219    0.8350    4.0469 H   0  0  0  0  0  0  0  0  0  0  0  0
   -0.1536   -0.2935    4.1418 H   0  0  0  0  0  0  0  0  0  0  0  0
  1  2  1  0  0  0  0
  2  3  1  0  0  0  0
  2  4  1  0  0  0  0
  2  5  1  0  0  0  0
  5  6  2  0  0  0  0
  5  7  1  0  0  0  0
  7  8  1  0  0  0  0
  7  9  1  0  0  0  0
  9 10  1  0  0  0  0
  9 11  1  0  0  0  0
  9 26  1  0  0  0  0
 11 12  1  0  0  0  0
 11 13  1  0  0  0  0
 11 14  1  0  0  0  0
 14 15  2  0  0  0  0
 14 24  1  0  0  0  0
 15 16  1  0  0  0  0
 15 17  1  0  0  0  0
 17 18  1  0  0  0  0
 17 19  2  0  0  0  0
 19 20  1  0  0  0  0
 19 22  1  0  0  0  0
 20 21  1  0  0  0  0
 22 23  1  0  0  0  0
 22 24  2  0  0  0  0
 24 25  1  0  0  0  0
 26 27  2  0  0  0  0
 26 28  1  0  0  0  0
 28 29  1  0  0  0  0
 28 30  1  0  0  0  0
 30 31  1  0  0  0  0
 30 32  1  0  0  0  0
 30 33  1  0  0  0  0
M  END
$$$$

  -OEChem-03222214083D

 33 33  0     1  0  0  0  0  0999 V2000
   -3.1112   -4.8274    0.5673 H   0  0  0  0  0  0  0  0  0  0  0  0
   -3.1397   -3.8718    0.0357 C   0  0  0  0  0  0  0  0  0  0  0  0
   -4.0420   -3.3317    0.3326 H   0  0  0  0  0  0  0  0  0  0  0  0
   -3.1769   -4.0691   -1.0383 H   0  0  0  0  0  0  0  0  0  0  0  0
   -1.9073   -3.0521    0.3696 C   0  0  0  0  0  0  0  0  0  0  0  0
   -1.0700   -3.4977    1.1334 O   0  0  0  0  0  0  0  0  0  0  0  0
   -1.7513   -1.7939   -0.1773 N   0  0  0  0  0  0  0  0  0  0  0  0
   -2.4464   -1.5004   -0.8582 H   0  0  0  0  0  0  0  0  0  0  0  0
   -0.5294   -0.9788   -0.0445 C   0  0  1  0  0  0  0  0  0  0  0  0
    0.2746   -1.6421   -0.3841 H   0  0  0  0  0  0  0  0  0  0  0  0
   -0.5199    0.1803   -1.0636 C   0  0  0  0  0  0  0  0  0  0  0  0
    0.5110    0.5488   -1.1127 H   0  0  0  0  0  0  0  0  0  0  0  0
   -0.7586   -0.2290   -2.0502 H   0  0  0  0  0  0  0  0  0  0  0  0
   -1.4208    1.3817   -0.8240 C   0  0  0  0  0  0  0  0  0  0  0  0
   -2.4911    1.4030    0.0890 C   0  0  0  0  0  0  0  0  0  0  0  0
   -2.7620    0.5211    0.6542 H   0  0  0  0  0  0  0  0  0  0  0  0
   -3.2574    2.5605    0.2707 C   0  0  0  0  0  0  0  0  0  0  0  0
   -4.0778    2.5535    0.9798 H   0  0  0  0  0  0  0  0  0  0  0  0
   -2.9706    3.7148   -0.4577 C   0  0  0  0  0  0  0  0  0  0  0  0
   -3.7095    4.8494   -0.2861 O   0  0  0  0  0  0  0  0  0  0  0  0
   -4.3582    4.7217    0.4228 H   0  0  0  0  0  0  0  0  0  0  0  0
   -1.9200    3.7056   -1.3702 C   0  0  0  0  0  0  0  0  0  0  0  0
   -1.7010    4.6064   -1.9342 H   0  0  0  0  0  0  0  0  0  0  0  0
   -1.1507    2.5517   -1.5522 C   0  0  0  0  0  0  0  0  0  0  0  0
   -0.3299    2.5724   -2.2638 H   0  0  0  0  0  0  0  0  0  0  0  0
   -0.0644   -0.5874    1.3799 C   0  0  0  0  0  0  0  0  0  0  0  0
    1.1359   -0.4666    1.5885 O   0  0  0  0  0  0  0  0  0  0  0  0
   -0.9441   -0.1239    2.3416 N   0  0  0  0  0  0  0  0  0  0  0  0
   -1.9234   -0.3386    2.1951 H   0  0  0  0  0  0  0  0  0  0  0  0
   -0.5159    0.3167    3.6634 C   0  0  0  0  0  0  0  0  0  0  0  0
    0.1600    1.1743    3.5802 H   0  0  0  0  0  0  0  0  0  0  0  0
   -1.3819    0.6174    4.2606 H   0  0  0  0  0  0  0  0  0  0  0  0
    0.0038   -0.4926    4.1873 H   0  0  0  0  0  0  0  0  0  0  0  0
  1  2  1  0  0  0  0
  2  3  1  0  0  0  0
  2  4  1  0  0  0  0
  2  5  1  0  0  0  0
  5  6  2  0  0  0  0
  5  7  1  0  0  0  0
  7  8  1  0  0  0  0
  7  9  1  0  0  0  0
  9 10  1  0  0  0  0
  9 11  1  0  0  0  0
  9 26  1  0  0  0  0
 11 12  1  0  0  0  0
 11 13  1  0  0  0  0
 11 14  1  0  0  0  0
 14 15  2  0  0  0  0
 14 24  1  0  0  0  0
 15 16  1  0  0  0  0
 15 17  1  0  0  0  0
 17 18  1  0  0  0  0
 17 19  2  0  0  0  0
 19 20  1  0  0  0  0
 19 22  1  0  0  0  0
 20 21  1  0  0  0  0
 22 23  1  0  0  0  0
 22 24  2  0  0  0  0
 24 25  1  0  0  0  0
 26 27  2  0  0  0  0
 26 28  1  0  0  0  0
 28 29  1  0  0  0  0
 28 30  1  0  0  0  0
 30 31  1  0  0  0  0
 30 32  1  0  0  0  0
 30 33  1  0  0  0  0
M  END
$$$$

  -OEChem-03222214083D

 33 33  0     1  0  0  0  0  0999 V2000
   -3.2622   -4.7850    0.7462 H   0  0  0  0  0  0  0  0  0  0  0  0
   -3.3047   -3.8202    0.2326 C   0  0  0  0  0  0  0  0  0  0  0  0
   -4.1614   -3.2576    0.6112 H   0  0  0  0  0  0  0  0  0  0  0  0
   -3.4369   -3.9981   -0.8374 H   0  0  0  0  0  0  0  0  0  0  0  0
   -2.0240   -3.0436    0.4744 C   0  0  0  0  0  0  0  0  0  0  0  0
   -1.1381   -3.5286    1.1549 O   0  0  0  0  0  0  0  0  0  0  0  0
   -1.8793   -1.7762   -0.0534 N   0  0  0  0  0  0  0  0  0  0  0  0
   -2.6312   -1.4354   -0.6465 H   0  0  0  0  0  0  0  0  0  0  0  0
   -0.6345   -0.9890    0.0015 C   0  0  1  0  0  0  0  0  0  0  0  0
    0.1199   -1.6897   -0.3761 H   0  0  0  0  0  0  0  0  0  0  0  0
   -0.6216    0.1281   -1.0644 C   0  0  0  0  0  0  0  0  0  0  0  0
    0.4184    0.4600   -1.1601 H   0  0  0  0  0  0  0  0  0  0  0  0
   -0.8995   -0.3229   -2.0223 H   0  0  0  0  0  0  0  0  0  0  0  0
   -1.4684    1.3771   -0.8799 C   0  0  0  0  0  0  0  0  0  0  0  0
   -2.3096    1.6307    0.2171 C   0  0  0  0  0  0  0  0  0  0  0  0
   -2.4639    0.8929    0.9892 H   0  0  0  0  0  0  0  0  0  0  0  0
   -3.0165    2.8352    0.3185 C   0  0  0  0  0  0  0  0  0  0  0  0
   -3.6629    3.0050    1.1724 H   0  0  0  0  0  0  0  0  0  0  0  0
   -2.8944    3.8081   -0.6733 C   0  0  0  0  0  0  0  0  0  0  0  0
   -3.5752    4.9877   -0.5831 O   0  0  0  0  0  0  0  0  0  0  0  0
   -4.0432    5.0394    0.2644 H   0  0  0  0  0  0  0  0  0  0  0  0
   -2.0691    3.5694   -1.7676 C   0  0  0  0  0  0  0  0  0  0  0  0
   -1.9763    4.3295   -2.5366 H   0  0  0  0  0  0  0  0  0  0  0  0
   -1.3606    2.3682   -1.8692 C   0  0  0  0  0  0  0  0  0  0  0  0
   -0.7114    2.2118   -2.7262 H   0  0  0  0  0  0  0  0  0  0  0  0
   -0.0432   -0.6350    1.3891 C   0  0  0  0  0  0  0  0  0  0  0  0
    1.1724   -0.5311    1.4922 O   0  0  0  0  0  0  0  0  0  0  0  0
   -0.8245   -0.1744    2.4339 N   0  0  0  0  0  0  0  0  0  0  0  0
   -1.8088   -0.4141    2.3855 H   0  0  0  0  0  0  0  0  0  0  0  0
   -0.2672    0.1980    3.7290 C   0  0  0  0  0  0  0  0  0  0  0  0
    0.4542    1.0143    3.6163 H   0  0  0  0  0  0  0  0  0  0  0  0
   -1.0625    0.5339    4.4009 H   0  0  0  0  0  0  0  0  0  0  0  0
    0.2386   -0.6583    4.1880 H   0  0  0  0  0  0  0  0  0  0  0  0
  1  2  1  0  0  0  0
  2  3  1  0  0  0  0
  2  4  1  0  0  0  0
  2  5  1  0  0  0  0
  5  6  2  0  0  0  0
  5  7  1  0  0  0  0
  7  8  1  0  0  0  0
  7  9  1  0  0  0  0
  9 10  1  0  0  0  0
  9 11  1  0  0  0  0
  9 26  1  0  0  0  0
 11 12  1  0  0  0  0
 11 13  1  0  0  0  0
 11 14  1  0  0  0  0
 14 15  2  0  0  0  0
 14 24  1  0  0  0  0
 15 16  1  0  0  0  0
 15 17  1  0  0  0  0
 17 18  1  0  0  0  0
 17 19  2  0  0  0  0
 19 20  1  0  0  0  0
 19 22  1  0  0  0  0
 20 21  1  0  0  0  0
 22 23  1  0  0  0  0
 22 24  2  0  0  0  0
 24 25  1  0  0  0  0
 26 27  2  0  0  0  0
 26 28  1  0  0  0  0
 28 29  1  0  0  0  0
 28 30  1  0  0  0  0
 30 31  1  0  0  0  0
 30 32  1  0  0  0  0
 30 33  1  0  0  0  0
M  END
$$$$

  -OEChem-03222214083D

 33 33  0     1  0  0  0  0  0999 V2000
   -3.2212   -4.7886    0.2327 H   0  0  0  0  0  0  0  0  0  0  0  0
   -3.2448   -3.7718   -0.1694 C   0  0  0  0  0  0  0  0  0  0  0  0
   -4.1225   -3.2566    0.2281 H   0  0  0  0  0  0  0  0  0  0  0  0
   -3.3238   -3.8271   -1.2578 H   0  0  0  0  0  0  0  0  0  0  0  0
   -1.9820   -3.0271    0.2214 C   0  0  0  0  0  0  0  0  0  0  0  0
   -1.1254   -3.5870    0.8819 O   0  0  0  0  0  0  0  0  0  0  0  0
   -1.8190   -1.7083   -0.1534 N   0  0  0  0  0  0  0  0  0  0  0  0
   -2.5533   -1.2954   -0.7225 H   0  0  0  0  0  0  0  0  0  0  0  0
   -0.5928   -0.9212    0.0661 C   0  0  1  0  0  0  0  0  0  0  0  0
    0.1922   -1.5879   -0.3105 H   0  0  0  0  0  0  0  0  0  0  0  0
   -0.4971    0.2644   -0.9219 C   0  0  0  0  0  0  0  0  0  0  0  0
    0.5443    0.6039   -0.9005 H   0  0  0  0  0  0  0  0  0  0  0  0
   -0.6768   -0.1391   -1.9238 H   0  0  0  0  0  0  0  0  0  0  0  0
   -1.3572    1.5108   -0.7639 C   0  0  0  0  0  0  0  0  0  0  0  0
   -2.0801    1.8746    0.3854 C   0  0  0  0  0  0  0  0  0  0  0  0
   -2.0919    1.2620    1.2698 H   0  0  0  0  0  0  0  0  0  0  0  0
   -2.8326    3.0552    0.4213 C   0  0  0  0  0  0  0  0  0  0  0  0
   -3.3795    3.3098    1.3226 H   0  0  0  0  0  0  0  0  0  0  0  0
   -2.8789    3.8961   -0.6900 C   0  0  0  0  0  0  0  0  0  0  0  0
   -3.6099    5.0484   -0.6659 O   0  0  0  0  0  0  0  0  0  0  0  0
   -3.9921    5.1828    0.2149 H   0  0  0  0  0  0  0  0  0  0  0  0
   -2.1682    3.5530   -1.8348 C   0  0  0  0  0  0  0  0  0  0  0  0
   -2.2027    4.2124   -2.6961 H   0  0  0  0  0  0  0  0  0  0  0  0
   -1.4132    2.3764   -1.8705 C   0  0  0  0  0  0  0  0  0  0  0  0
   -0.8607    2.1387   -2.7752 H   0  0  0  0  0  0  0  0  0  0  0  0
   -0.1081   -0.7243    1.5234 C   0  0  0  0  0  0  0  0  0  0  0  0
    1.0940   -0.6148    1.7283 O   0  0  0  0  0  0  0  0  0  0  0  0
   -0.9734   -0.3939    2.5510 N   0  0  0  0  0  0  0  0  0  0  0  0
   -1.9489   -0.6261    2.3954 H   0  0  0  0  0  0  0  0  0  0  0  0
   -0.5230   -0.1756    3.9207 C   0  0  0  0  0  0  0  0  0  0  0  0
    0.1820    0.6614    3.9641 H   0  0  0  0  0  0  0  0  0  0  0  0
   -1.3746    0.0587    4.5663 H   0  0  0  0  0  0  0  0  0  0  0  0
   -0.0287   -1.0728    4.3084 H   0  0  0  0  0  0  0  0  0  0  0  0
  1  2  1  0  0  0  0
  2  3  1  0  0  0  0
  2  4  1  0  0  0  0
  2  5  1  0  0  0  0
  5  6  2  0  0  0  0
  5  7  1  0  0  0  0
  7  8  1  0  0  0  0
  7  9  1  0  0  0  0
  9 10  1  0  0  0  0
  9 11  1  0  0  0  0
  9 26  1  0  0  0  0
 11 12  1  0  0  0  0
 11 13  1  0  0  0  0
 11 14  1  0  0  0  0
 14 15  2  0  0  0  0
 14 24  1  0  0  0  0
 15 16  1  0  0  0  0
 15 17  1  0  0  0  0
 17 18  1  0  0  0  0
 17 19  2  0  0  0  0
 19 20  1  0  0  0  0
 19 22  1  0  0  0  0
 20 21  1  0  0  0  0
 22 23  1  0  0  0  0
 22 24  2  0  0  0  0
 24 25  1  0  0  0  0
 26 27  2  0  0  0  0
 26 28  1  0  0  0  0
 28 29  1  0  0  0  0
 28 30  1  0  0  0  0
 30 31  1  0  0  0  0
 30 32  1  0  0  0  0
 30 33  1  0  0  0  0
M  END
$$$$

  -OEChem-03222214083D

 33 33  0     1  0  0  0  0  0999 V2000
   -3.2527   -4.6795    0.5792 H   0  0  0  0  0  0  0  0  0  0  0  0
   -3.2732   -3.6922    0.1088 C   0  0  0  0  0  0  0  0  0  0  0  0
   -4.0865   -3.1104    0.5493 H   0  0  0  0  0  0  0  0  0  0  0  0
   -3.4596   -3.8160   -0.9608 H   0  0  0  0  0  0  0  0  0  0  0  0
   -1.9489   -2.9837    0.3234 C   0  0  0  0  0  0  0  0  0  0  0  0
   -1.0374   -3.5571    0.8924 O   0  0  0  0  0  0  0  0  0  0  0  0
   -1.7901   -1.6831   -0.1120 N   0  0  0  0  0  0  0  0  0  0  0  0
   -2.5821   -1.2508   -0.5804 H   0  0  0  0  0  0  0  0  0  0  0  0
   -0.5391   -0.9095   -0.0164 C   0  0  1  0  0  0  0  0  0  0  0  0
    0.2169   -1.5869   -0.4310 H   0  0  0  0  0  0  0  0  0  0  0  0
   -0.5403    0.2482   -1.0451 C   0  0  0  0  0  0  0  0  0  0  0  0
    0.4974    0.5886   -1.1300 H   0  0  0  0  0  0  0  0  0  0  0  0
   -0.8048   -0.1891   -2.0134 H   0  0  0  0  0  0  0  0  0  0  0  0
   -1.3787    1.5043   -0.8397 C   0  0  0  0  0  0  0  0  0  0  0  0
   -1.7259    2.0630    0.4025 C   0  0  0  0  0  0  0  0  0  0  0  0
   -1.3263    1.6831    1.3274 H   0  0  0  0  0  0  0  0  0  0  0  0
   -2.5540    3.1893    0.4836 C   0  0  0  0  0  0  0  0  0  0  0  0
   -2.7906    3.6063    1.4566 H   0  0  0  0  0  0  0  0  0  0  0  0
   -3.0571    3.7791   -0.6748 C   0  0  0  0  0  0  0  0  0  0  0  0
   -3.8647    4.8773   -0.6068 O   0  0  0  0  0  0  0  0  0  0  0  0
   -3.9522    5.1706    0.3133 H   0  0  0  0  0  0  0  0  0  0  0  0
   -2.7208    3.2439   -1.9133 C   0  0  0  0  0  0  0  0  0  0  0  0
   -3.1084    3.7096   -2.8136 H   0  0  0  0  0  0  0  0  0  0  0  0
   -1.8900    2.1219   -1.9958 C   0  0  0  0  0  0  0  0  0  0  0  0
   -1.6472    1.7285   -2.9789 H   0  0  0  0  0  0  0  0  0  0  0  0
    0.0178   -0.6923    1.4100 C   0  0  0  0  0  0  0  0  0  0  0  0
    1.2283   -0.5980    1.5648 O   0  0  0  0  0  0  0  0  0  0  0  0
   -0.8055   -0.3253    2.4602 N   0  0  0  0  0  0  0  0  0  0  0  0
   -1.7954   -0.5067    2.3292 H   0  0  0  0  0  0  0  0  0  0  0  0
   -0.3092   -0.1134    3.8148 C   0  0  0  0  0  0  0  0  0  0  0  0
    0.4407    0.6844    3.8296 H   0  0  0  0  0  0  0  0  0  0  0  0
   -1.1302    0.1750    4.4781 H   0  0  0  0  0  0  0  0  0  0  0  0
    0.1457   -1.0311    4.2023 H   0  0  0  0  0  0  0  0  0  0  0  0
  1  2  1  0  0  0  0
  2  3  1  0  0  0  0
  2  4  1  0  0  0  0
  2  5  1  0  0  0  0
  5  6  2  0  0  0  0
  5  7  1  0  0  0  0
  7  8  1  0  0  0  0
  7  9  1  0  0  0  0
  9 10  1  0  0  0  0
  9 11  1  0  0  0  0
  9 26  1  0  0  0  0
 11 12  1  0  0  0  0
 11 13  1  0  0  0  0
 11 14  1  0  0  0  0
 14 15  2  0  0  0  0
 14 24  1  0  0  0  0
 15 16  1  0  0  0  0
 15 17  1  0  0  0  0
 17 18  1  0  0  0  0
 17 19  2  0  0  0  0
 19 20  1  0  0  0  0
 19 22  1  0  0  0  0
 20 21  1  0  0  0  0
 22 23  1  0  0  0  0
 22 24  2  0  0  0  0
 24 25  1  0  0  0  0
 26 27  2  0  0  0  0
 26 28  1  0  0  0  0
 28 29  1  0  0  0  0
 28 30  1  0  0  0  0
 30 31  1  0  0  0  0
 30 32  1  0  0  0  0
 30 33  1  0  0  0  0
M  END
$$$$

  -OEChem-03222214083D

 33 33  0     1  0  0  0  0  0999 V2000
   -3.3583   -4.5558    0.6358 H   0  0  0  0  0  0  0  0  0  0  0  0
   -3.3243   -3.5920    0.1200 C   0  0  0  0  0  0  0  0  0  0  0  0
   -4.1072   -2.9479    0.5272 H   0  0  0  0  0  0  0  0  0  0  0  0
   -3.5126   -3.7558   -0.9439 H   0  0  0  0  0  0  0  0  0  0  0  0
   -1.9655   -2.9451    0.3120 C   0  0  0  0  0  0  0  0  0  0  0  0
   -1.0911   -3.5362    0.9196 O   0  0  0  0  0  0  0  0  0  0  0  0
   -1.7314   -1.6819   -0.1943 N   0  0  0  0  0  0  0  0  0  0  0  0
   -2.5022   -1.2226   -0.6719 H   0  0  0  0  0  0  0  0  0  0  0  0
   -0.4583   -0.9487   -0.0721 C   0  0  1  0  0  0  0  0  0  0  0  0
    0.3086   -1.6458   -0.4296 H   0  0  0  0  0  0  0  0  0  0  0  0
   -0.4293    0.1984   -1.1119 C   0  0  0  0  0  0  0  0  0  0  0  0
    0.6119    0.5297   -1.1873 H   0  0  0  0  0  0  0  0  0  0  0  0
   -0.6883   -0.2323   -2.0844 H   0  0  0  0  0  0  0  0  0  0  0  0
   -1.2616    1.4519   -0.8805 C   0  0  0  0  0  0  0  0  0  0  0  0
   -1.3313    2.1383    0.3438 C   0  0  0  0  0  0  0  0  0  0  0  0
   -0.6657    1.8901    1.1604 H   0  0  0  0  0  0  0  0  0  0  0  0
   -2.1960    3.2256    0.5150 C   0  0  0  0  0  0  0  0  0  0  0  0
   -2.2139    3.7454    1.4670 H   0  0  0  0  0  0  0  0  0  0  0  0
   -3.0129    3.6454   -0.5340 C   0  0  0  0  0  0  0  0  0  0  0  0
   -3.8589    4.7053   -0.3803 O   0  0  0  0  0  0  0  0  0  0  0  0
   -3.7288    5.1128    0.4900 H   0  0  0  0  0  0  0  0  0  0  0  0
   -2.9540    2.9802   -1.7546 C   0  0  0  0  0  0  0  0  0  0  0  0
   -3.5879    3.3152   -2.5693 H   0  0  0  0  0  0  0  0  0  0  0  0
   -2.0886    1.8951   -1.9282 C   0  0  0  0  0  0  0  0  0  0  0  0
   -2.0732    1.3928   -2.8909 H   0  0  0  0  0  0  0  0  0  0  0  0
   -0.0115   -0.6781    1.3820 C   0  0  0  0  0  0  0  0  0  0  0  0
    1.1833   -0.6212    1.6403 O   0  0  0  0  0  0  0  0  0  0  0  0
   -0.9122   -0.2260    2.3311 N   0  0  0  0  0  0  0  0  0  0  0  0
   -1.8959   -0.3186    2.0985 H   0  0  0  0  0  0  0  0  0  0  0  0
   -0.5378    0.0610    3.7101 C   0  0  0  0  0  0  0  0  0  0  0  0
    0.2328    0.8382    3.7463 H   0  0  0  0  0  0  0  0  0  0  0  0
   -1.4075    0.4129    4.2727 H   0  0  0  0  0  0  0  0  0  0  0  0
   -0.1508   -0.8413    4.1950 H   0  0  0  0  0  0  0  0  0  0  0  0
  1  2  1  0  0  0  0
  2  3  1  0  0  0  0
  2  4  1  0  0  0  0
  2  5  1  0  0  0  0
  5  6  2  0  0  0  0
  5  7  1  0  0  0  0
  7  8  1  0  0  0  0
  7  9  1  0  0  0  0
  9 10  1  0  0  0  0
  9 11  1  0  0  0  0
  9 26  1  0  0  0  0
 11 12  1  0  0  0  0
 11 13  1  0  0  0  0
 11 14  1  0  0  0  0
 14 15  2  0  0  0  0
 14 24  1  0  0  0  0
 15 16  1  0  0  0  0
 15 17  1  0  0  0  0
 17 18  1  0  0  0  0
 17 19  2  0  0  0  0
 19 20  1  0  0  0  0
 19 22  1  0  0  0  0
 20 21  1  0  0  0  0
 22 23  1  0  0  0  0
 22 24  2  0  0  0  0
 24 25  1  0  0  0  0
 26 27  2  0  0  0  0
 26 28  1  0  0  0  0
 28 29  1  0  0  0  0
 28 30  1  0  0  0  0
 30 31  1  0  0  0  0
 30 32  1  0  0  0  0
 30 33  1  0  0  0  0
M  END
$$$$

  -OEChem-03222214083D

 33 33  0     1  0  0  0  0  0999 V2000
   -3.3754   -4.5199    0.6931 H   0  0  0  0  0  0  0  0  0  0  0  0
   -3.3239   -3.5753    0.1440 C   0  0  0  0  0  0  0  0  0  0  0  0
   -4.0985   -2.9052    0.5245 H   0  0  0  0  0  0  0  0  0  0  0  0
   -3.5095   -3.7735   -0.9143 H   0  0  0  0  0  0  0  0  0  0  0  0
   -1.9562   -2.9429    0.3202 C   0  0  0  0  0  0  0  0  0  0  0  0
   -1.0997   -3.5164    0.9689 O   0  0  0  0  0  0  0  0  0  0  0  0
   -1.6926   -1.7140   -0.2514 N   0  0  0  0  0  0  0  0  0  0  0  0
   -2.4521   -1.2628   -0.7533 H   0  0  0  0  0  0  0  0  0  0  0  0
   -0.4200   -0.9824   -0.1165 C   0  0  1  0  0  0  0  0  0  0  0  0
    0.3635   -1.6837   -0.4258 H   0  0  0  0  0  0  0  0  0  0  0  0
   -0.3816    0.1507   -1.1682 C   0  0  0  0  0  0  0  0  0  0  0  0
    0.6557    0.4944   -1.2406 H   0  0  0  0  0  0  0  0  0  0  0  0
   -0.6367   -0.2750   -2.1439 H   0  0  0  0  0  0  0  0  0  0  0  0
   -1.2387    1.3760   -0.9050 C   0  0  0  0  0  0  0  0  0  0  0  0
   -1.0705    2.1877    0.2291 C   0  0  0  0  0  0  0  0  0  0  0  0
   -0.2458    2.0119    0.9137 H   0  0  0  0  0  0  0  0  0  0  0  0
   -1.9298    3.2646    0.4749 C   0  0  0  0  0  0  0  0  0  0  0  0
   -1.7709    3.8813    1.3530 H   0  0  0  0  0  0  0  0  0  0  0  0
   -2.9739    3.5445   -0.4068 C   0  0  0  0  0  0  0  0  0  0  0  0
   -3.8195    4.5906   -0.1765 O   0  0  0  0  0  0  0  0  0  0  0  0
   -3.5337    5.0827    0.6089 H   0  0  0  0  0  0  0  0  0  0  0  0
   -3.1499    2.7497   -1.5364 C   0  0  0  0  0  0  0  0  0  0  0  0
   -3.9607    2.9777   -2.2207 H   0  0  0  0  0  0  0  0  0  0  0  0
   -2.2913    1.6741   -1.7866 C   0  0  0  0  0  0  0  0  0  0  0  0
   -2.4544    1.0695   -2.6738 H   0  0  0  0  0  0  0  0  0  0  0  0
   -0.0387   -0.6289    1.3387 C   0  0  0  0  0  0  0  0  0  0  0  0
    1.1424   -0.5694    1.6540 O   0  0  0  0  0  0  0  0  0  0  0  0
   -0.9812   -0.1145    2.2123 N   0  0  0  0  0  0  0  0  0  0  0  0
   -1.9498   -0.1494    1.9105 H   0  0  0  0  0  0  0  0  0  0  0  0
   -0.6762    0.2870    3.5794 C   0  0  0  0  0  0  0  0  0  0  0  0
    0.0689    1.0894    3.5869 H   0  0  0  0  0  0  0  0  0  0  0  0
   -1.5805    0.6504    4.0766 H   0  0  0  0  0  0  0  0  0  0  0  0
   -0.2847   -0.5628    4.1484 H   0  0  0  0  0  0  0  0  0  0  0  0
  1  2  1  0  0  0  0
  2  3  1  0  0  0  0
  2  4  1  0  0  0  0
  2  5  1  0  0  0  0
  5  6  2  0  0  0  0
  5  7  1  0  0  0  0
  7  8  1  0  0  0  0
  7  9  1  0  0  0  0
  9 10  1  0  0  0  0
  9 11  1  0  0  0  0
  9 26  1  0  0  0  0
 11 12  1  0  0  0  0
 11 13  1  0  0  0  0
 11 14  1  0  0  0  0
 14 15  2  0  0  0  0
 14 24  1  0  0  0  0
 15 16  1  0  0  0  0
 15 17  1  0  0  0  0
 17 18  1  0  0  0  0
 17 19  2  0  0  0  0
 19 20  1  0  0  0  0
 19 22  1  0  0  0  0
 20 21  1  0  0  0  0
 22 23  1  0  0  0  0
 22 24  2  0  0  0  0
 24 25  1  0  0  0  0
 26 27  2  0  0  0  0
 26 28  1  0  0  0  0
 28 29  1  0  0  0  0
 28 30  1  0  0  0  0
 30 31  1  0  0  0  0
 30 32  1  0  0  0  0
 30 33  1  0  0  0  0
M  END
$$$$

  -OEChem-03222214083D

 33 33  0     1  0  0  0  0  0999 V2000
   -3.3799   -4.5080    0.7371 H   0  0  0  0  0  0  0  0  0  0  0  0
   -3.3203   -3.5813    0.1595 C   0  0  0  0  0  0  0  0  0  0  0  0
   -4.0873   -2.8922    0.5208 H   0  0  0  0  0  0  0  0  0  0  0  0
   -3.5098   -3.8099   -0.8919 H   0  0  0  0  0  0  0  0  0  0  0  0
   -1.9461   -2.9572    0.3144 C   0  0  0  0  0  0  0  0  0  0  0  0
   -1.0943   -3.5188    0.9797 O   0  0  0  0  0  0  0  0  0  0  0  0
   -1.6678   -1.7541   -0.3034 N   0  0  0  0  0  0  0  0  0  0  0  0
   -2.4301   -1.3016   -0.7990 H   0  0  0  0  0  0  0  0  0  0  0  0
   -0.4016   -1.0148   -0.1516 C   0  0  1  0  0  0  0  0  0  0  0  0
    0.3979   -1.7136   -0.4234 H   0  0  0  0  0  0  0  0  0  0  0  0
   -0.3501    0.1157   -1.2005 C   0  0  0  0  0  0  0  0  0  0  0  0
    0.6843    0.4702   -1.2632 H   0  0  0  0  0  0  0  0  0  0  0  0
   -0.6007   -0.2954   -2.1838 H   0  0  0  0  0  0  0  0  0  0  0  0
   -1.2334    1.3080   -0.9001 C   0  0  0  0  0  0  0  0  0  0  0  0
   -0.8826    2.2465    0.0837 C   0  0  0  0  0  0  0  0  0  0  0  0
    0.0588    2.1473    0.6191 H   0  0  0  0  0  0  0  0  0  0  0  0
   -1.7330    3.3161    0.3838 C   0  0  0  0  0  0  0  0  0  0  0  0
   -1.4411    4.0289    1.1474 H   0  0  0  0  0  0  0  0  0  0  0  0
   -2.9435    3.4609   -0.2952 C   0  0  0  0  0  0  0  0  0  0  0  0
   -3.7816    4.4993   -0.0107 O   0  0  0  0  0  0  0  0  0  0  0  0
   -3.3714    5.0893    0.6409 H   0  0  0  0  0  0  0  0  0  0  0  0
   -3.2986    2.5364   -1.2753 C   0  0  0  0  0  0  0  0  0  0  0  0
   -4.2397    2.6615   -1.8012 H   0  0  0  0  0  0  0  0  0  0  0  0
   -2.4508    1.4661   -1.5803 C   0  0  0  0  0  0  0  0  0  0  0  0
   -2.7466    0.7602   -2.3508 H   0  0  0  0  0  0  0  0  0  0  0  0
   -0.0712   -0.5935    1.2983 C   0  0  0  0  0  0  0  0  0  0  0  0
    1.0977   -0.5289    1.6556 O   0  0  0  0  0  0  0  0  0  0  0  0
   -1.0427   -0.0389    2.1135 N   0  0  0  0  0  0  0  0  0  0  0  0
   -1.9868    0.0032    1.7431 H   0  0  0  0  0  0  0  0  0  0  0  0
   -0.7741    0.4930    3.4426 C   0  0  0  0  0  0  0  0  0  0  0  0
   -0.0595    1.3207    3.3874 H   0  0  0  0  0  0  0  0  0  0  0  0
   -1.6985    0.8631    3.8955 H   0  0  0  0  0  0  0  0  0  0  0  0
   -0.3604   -0.2882    4.0889 H   0  0  0  0  0  0  0  0  0  0  0  0
  1  2  1  0  0  0  0
  2  3  1  0  0  0  0
  2  4  1  0  0  0  0
  2  5  1  0  0  0  0
  5  6  2  0  0  0  0
  5  7  1  0  0  0  0
  7  8  1  0  0  0  0
  7  9  1  0  0  0  0
  9 10  1  0  0  0  0
  9 11  1  0  0  0  0
  9 26  1  0  0  0  0
 11 12  1  0  0  0  0
 11 13  1  0  0  0  0
 11 14  1  0  0  0  0
 14 15  2  0  0  0  0
 14 24  1  0  0  0  0
 15 16  1  0  0  0  0
 15 17  1  0  0  0  0
 17 18  1  0  0  0  0
 17 19  2  0  0  0  0
 19 20  1  0  0  0  0
 19 22  1  0  0  0  0
 20 21  1  0  0  0  0
 22 23  1  0  0  0  0
 22 24  2  0  0  0  0
 24 25  1  0  0  0  0
 26 27  2  0  0  0  0
 26 28  1  0  0  0  0
 28 29  1  0  0  0  0
 28 30  1  0  0  0  0
 30 31  1  0  0  0  0
 30 32  1  0  0  0  0
 30 33  1  0  0  0  0
M  END
$$$$

  -OEChem-03222214083D

 33 33  0     1  0  0  0  0  0999 V2000
   -3.3663   -4.5344    0.7546 H   0  0  0  0  0  0  0  0  0  0  0  0
   -3.3114   -3.6111    0.1709 C   0  0  0  0  0  0  0  0  0  0  0  0
   -4.0790   -2.9217    0.5303 H   0  0  0  0  0  0  0  0  0  0  0  0
   -3.5034   -3.8468   -0.8787 H   0  0  0  0  0  0  0  0  0  0  0  0
   -1.9384   -2.9827    0.3180 C   0  0  0  0  0  0  0  0  0  0  0  0
   -1.0903   -3.5274    1.0017 O   0  0  0  0  0  0  0  0  0  0  0  0
   -1.6575   -1.7959   -0.3296 N   0  0  0  0  0  0  0  0  0  0  0  0
   -2.4185   -1.3563   -0.8367 H   0  0  0  0  0  0  0  0  0  0  0  0
   -0.3992   -1.0446   -0.1715 C   0  0  1  0  0  0  0  0  0  0  0  0
    0.4120   -1.7367   -0.4247 H   0  0  0  0  0  0  0  0  0  0  0  0
   -0.3414    0.0938   -1.2089 C   0  0  0  0  0  0  0  0  0  0  0  0
    0.6916    0.4532   -1.2694 H   0  0  0  0  0  0  0  0  0  0  0  0
   -0.5966   -0.3005   -2.1977 H   0  0  0  0  0  0  0  0  0  0  0  0
   -1.2429    1.2615   -0.8739 C   0  0  0  0  0  0  0  0  0  0  0  0
   -0.7660    2.3295   -0.0974 C   0  0  0  0  0  0  0  0  0  0  0  0
    0.2576    2.3198    0.2700 H   0  0  0  0  0  0  0  0  0  0  0  0
   -1.6046    3.4017    0.2265 C   0  0  0  0  0  0  0  0  0  0  0  0
   -1.2185    4.2135    0.8337 H   0  0  0  0  0  0  0  0  0  0  0  0
   -2.9248    3.4209   -0.2266 C   0  0  0  0  0  0  0  0  0  0  0  0
   -3.7528    4.4595    0.0860 O   0  0  0  0  0  0  0  0  0  0  0  0
   -3.2683    5.1313    0.5911 H   0  0  0  0  0  0  0  0  0  0  0  0
   -3.4014    2.3700   -1.0082 C   0  0  0  0  0  0  0  0  0  0  0  0
   -4.4267    2.4012   -1.3631 H   0  0  0  0  0  0  0  0  0  0  0  0
   -2.5671    1.2962   -1.3370 C   0  0  0  0  0  0  0  0  0  0  0  0
   -2.9546    0.4957   -1.9597 H   0  0  0  0  0  0  0  0  0  0  0  0
   -0.0958   -0.5766    1.2704 C   0  0  0  0  0  0  0  0  0  0  0  0
    1.0665   -0.5014    1.6474 O   0  0  0  0  0  0  0  0  0  0  0  0
   -1.0855   -0.0014    2.0488 N   0  0  0  0  0  0  0  0  0  0  0  0
   -2.0053    0.0861    1.6285 H   0  0  0  0  0  0  0  0  0  0  0  0
   -0.8302    0.6355    3.3337 C   0  0  0  0  0  0  0  0  0  0  0  0
   -0.1760    1.5039    3.2069 H   0  0  0  0  0  0  0  0  0  0  0  0
   -1.7701    0.9704    3.7822 H   0  0  0  0  0  0  0  0  0  0  0  0
   -0.3518   -0.0700    4.0211 H   0  0  0  0  0  0  0  0  0  0  0  0
  1  2  1  0  0  0  0
  2  3  1  0  0  0  0
  2  4  1  0  0  0  0
  2  5  1  0  0  0  0
  5  6  2  0  0  0  0
  5  7  1  0  0  0  0
  7  8  1  0  0  0  0
  7  9  1  0  0  0  0
  9 10  1  0  0  0  0
  9 11  1  0  0  0  0
  9 26  1  0  0  0  0
 11 12  1  0  0  0  0
 11 13  1  0  0  0  0
 11 14  1  0  0  0  0
 14 15  2  0  0  0  0
 14 24  1  0  0  0  0
 15 16  1  0  0  0  0
 15 17  1  0  0  0  0
 17 18  1  0  0  0  0
 17 19  2  0  0  0  0
 19 20  1  0  0  0  0
 19 22  1  0  0  0  0
 20 21  1  0  0  0  0
 22 23  1  0  0  0  0
 22 24  2  0  0  0  0
 24 25  1  0  0  0  0
 26 27  2  0  0  0  0
 26 28  1  0  0  0  0
 28 29  1  0  0  0  0
 28 30  1  0  0  0  0
 30 31  1  0  0  0  0
 30 32  1  0  0  0  0
 30 33  1  0  0  0  0
M  END
$$$$

  -OEChem-03222214083D

 33 33  0     1  0  0  0  0  0999 V2000
   -3.3301   -4.6076    0.7444 H   0  0  0  0  0  0  0  0  0  0  0  0
   -3.2855   -3.6885    0.1529 C   0  0  0  0  0  0  0  0  0  0  0  0
   -4.0935   -3.0260    0.4720 H   0  0  0  0  0  0  0  0  0  0  0  0
   -3.4232   -3.9423   -0.9010 H   0  0  0  0  0  0  0  0  0  0  0  0
   -1.9453   -3.0059    0.3517 C   0  0  0  0  0  0  0  0  0  0  0  0
   -1.1150   -3.5023    1.0915 O   0  0  0  0  0  0  0  0  0  0  0  0
   -1.6716   -1.8290   -0.3169 N   0  0  0  0  0  0  0  0  0  0  0  0
   -2.3943   -1.4644   -0.9275 H   0  0  0  0  0  0  0  0  0  0  0  0
   -0.4186   -1.0654   -0.1720 C   0  0  1  0  0  0  0  0  0  0  0  0
    0.3969   -1.7530   -0.4232 H   0  0  0  0  0  0  0  0  0  0  0  0
   -0.3643    0.0836   -1.1980 C   0  0  0  0  0  0  0  0  0  0  0  0
    0.6707    0.4361   -1.2642 H   0  0  0  0  0  0  0  0  0  0  0  0
   -0.6322   -0.2982   -2.1880 H   0  0  0  0  0  0  0  0  0  0  0  0
   -1.2661    1.2481   -0.8447 C   0  0  0  0  0  0  0  0  0  0  0  0
   -0.7146    2.4344   -0.3359 C   0  0  0  0  0  0  0  0  0  0  0  0
    0.3576    2.5107   -0.1741 H   0  0  0  0  0  0  0  0  0  0  0  0
   -1.5373    3.5180   -0.0080 C   0  0  0  0  0  0  0  0  0  0  0  0
   -1.0917    4.4203    0.3971 H   0  0  0  0  0  0  0  0  0  0  0  0
   -2.9173    3.4340   -0.1989 C   0  0  0  0  0  0  0  0  0  0  0  0
   -3.7299    4.4827    0.1192 O   0  0  0  0  0  0  0  0  0  0  0  0
   -3.2005    5.2288    0.4415 H   0  0  0  0  0  0  0  0  0  0  0  0
   -3.4703    2.2693   -0.7267 C   0  0  0  0  0  0  0  0  0  0  0  0
   -4.5428    2.2224   -0.8858 H   0  0  0  0  0  0  0  0  0  0  0  0
   -2.6527    1.1832   -1.0564 C   0  0  0  0  0  0  0  0  0  0  0  0
   -3.1058    0.2974   -1.4876 H   0  0  0  0  0  0  0  0  0  0  0  0
   -0.1129   -0.5659    1.2592 C   0  0  0  0  0  0  0  0  0  0  0  0
    1.0508   -0.4859    1.6316 O   0  0  0  0  0  0  0  0  0  0  0  0
   -1.1030    0.0195    2.0292 N   0  0  0  0  0  0  0  0  0  0  0  0
   -2.0175    0.1138    1.5988 H   0  0  0  0  0  0  0  0  0  0  0  0
   -0.8394    0.7085    3.2851 C   0  0  0  0  0  0  0  0  0  0  0  0
   -0.2197    1.5945    3.1126 H   0  0  0  0  0  0  0  0  0  0  0  0
   -1.7794    1.0253    3.7467 H   0  0  0  0  0  0  0  0  0  0  0  0
   -0.3198    0.0444    3.9840 H   0  0  0  0  0  0  0  0  0  0  0  0
  1  2  1  0  0  0  0
  2  3  1  0  0  0  0
  2  4  1  0  0  0  0
  2  5  1  0  0  0  0
  5  6  2  0  0  0  0
  5  7  1  0  0  0  0
  7  8  1  0  0  0  0
  7  9  1  0  0  0  0
  9 10  1  0  0  0  0
  9 11  1  0  0  0  0
  9 26  1  0  0  0  0
 11 12  1  0  0  0  0
 11 13  1  0  0  0  0
 11 14  1  0  0  0  0
 14 15  2  0  0  0  0
 14 24  1  0  0  0  0
 15 16  1  0  0  0  0
 15 17  1  0  0  0  0
 17 18  1  0  0  0  0
 17 19  2  0  0  0  0
 19 20  1  0  0  0  0
 19 22  1  0  0  0  0
 20 21  1  0  0  0  0
 22 23  1  0  0  0  0
 22 24  2  0  0  0  0
 24 25  1  0  0  0  0
 26 27  2  0  0  0  0
 26 28  1  0  0  0  0
 28 29  1  0  0  0  0
 28 30  1  0  0  0  0
 30 31  1  0  0  0  0
 30 32  1  0  0  0  0
 30 33  1  0  0  0  0
M  END
$$$$

  -OEChem-03222214083D

 33 33  0     1  0  0  0  0  0999 V2000
   -3.2609   -4.7035    0.7133 H   0  0  0  0  0  0  0  0  0  0  0  0
   -3.2316   -3.7879    0.1154 C   0  0  0  0  0  0  0  0  0  0  0  0
   -4.0966   -3.1722    0.3731 H   0  0  0  0  0  0  0  0  0  0  0  0
   -3.2853   -4.0578   -0.9419 H   0  0  0  0  0  0  0  0  0  0  0  0
   -1.9501   -3.0241    0.3929 C   0  0  0  0  0  0  0  0  0  0  0  0
   -1.1483   -3.4585    1.1999 O   0  0  0  0  0  0  0  0  0  0  0  0
   -1.6971   -1.8465   -0.2833 N   0  0  0  0  0  0  0  0  0  0  0  0
   -2.3485   -1.5925   -1.0182 H   0  0  0  0  0  0  0  0  0  0  0  0
   -0.4479   -1.0721   -0.1579 C   0  0  1  0  0  0  0  0  0  0  0  0
    0.3692   -1.7522   -0.4238 H   0  0  0  0  0  0  0  0  0  0  0  0
   -0.4174    0.0877   -1.1748 C   0  0  0  0  0  0  0  0  0  0  0  0
    0.6186    0.4345   -1.2550 H   0  0  0  0  0  0  0  0  0  0  0  0
   -0.7015   -0.2909   -2.1615 H   0  0  0  0  0  0  0  0  0  0  0  0
   -1.3113    1.2638   -0.8219 C   0  0  0  0  0  0  0  0  0  0  0  0
   -0.7411    2.5334   -0.6333 C   0  0  0  0  0  0  0  0  0  0  0  0
    0.3351    2.6654   -0.7063 H   0  0  0  0  0  0  0  0  0  0  0  0
   -1.5421    3.6395   -0.3271 C   0  0  0  0  0  0  0  0  0  0  0  0
   -1.0761    4.6065   -0.1712 H   0  0  0  0  0  0  0  0  0  0  0  0
   -2.9260    3.4962   -0.2237 C   0  0  0  0  0  0  0  0  0  0  0  0
   -3.7181    4.5661    0.0765 O   0  0  0  0  0  0  0  0  0  0  0  0
   -3.1749    5.3620    0.1880 H   0  0  0  0  0  0  0  0  0  0  0  0
   -3.5056    2.2484   -0.4371 C   0  0  0  0  0  0  0  0  0  0  0  0
   -4.5846    2.1527   -0.3702 H   0  0  0  0  0  0  0  0  0  0  0  0
   -2.7097    1.1397   -0.7432 C   0  0  0  0  0  0  0  0  0  0  0  0
   -3.1990    0.1904   -0.9248 H   0  0  0  0  0  0  0  0  0  0  0  0
   -0.1175   -0.5627    1.2645 C   0  0  0  0  0  0  0  0  0  0  0  0
    1.0530   -0.4875    1.6166 O   0  0  0  0  0  0  0  0  0  0  0  0
   -1.0935    0.0205    2.0530 N   0  0  0  0  0  0  0  0  0  0  0  0
   -2.0213    0.0966    1.6489 H   0  0  0  0  0  0  0  0  0  0  0  0
   -0.8115    0.6951    3.3124 C   0  0  0  0  0  0  0  0  0  0  0  0
   -0.1454    1.5486    3.1491 H   0  0  0  0  0  0  0  0  0  0  0  0
   -1.7400    1.0602    3.7610 H   0  0  0  0  0  0  0  0  0  0  0  0
   -0.3352    0.0047    4.0164 H   0  0  0  0  0  0  0  0  0  0  0  0
  1  2  1  0  0  0  0
  2  3  1  0  0  0  0
  2  4  1  0  0  0  0
  2  5  1  0  0  0  0
  5  6  2  0  0  0  0
  5  7  1  0  0  0  0
  7  8  1  0  0  0  0
  7  9  1  0  0  0  0
  9 10  1  0  0  0  0
  9 11  1  0  0  0  0
  9 26  1  0  0  0  0
 11 12  1  0  0  0  0
 11 13  1  0  0  0  0
 11 14  1  0  0  0  0
 14 15  2  0  0  0  0
 14 24  1  0  0  0  0
 15 16  1  0  0  0  0
 15 17  1  0  0  0  0
 17 18  1  0  0  0  0
 17 19  2  0  0  0  0
 19 20  1  0  0  0  0
 19 22  1  0  0  0  0
 20 21  1  0  0  0  0
 22 23  1  0  0  0  0
 22 24  2  0  0  0  0
 24 25  1  0  0  0  0
 26 27  2  0  0  0  0
 26 28  1  0  0  0  0
 28 29  1  0  0  0  0
 28 30  1  0  0  0  0
 30 31  1  0  0  0  0
 30 32  1  0  0  0  0
 30 33  1  0  0  0  0
M  END
$$$$

  -OEChem-03222214083D

 33 33  0     1  0  0  0  0  0999 V2000
   -3.1961   -4.7694    0.6829 H   0  0  0  0  0  0  0  0  0  0  0  0
   -3.1902   -3.8447    0.0986 C   0  0  0  0  0  0  0  0  0  0  0  0
   -4.0731   -3.2572    0.3614 H   0  0  0  0  0  0  0  0  0  0  0  0
   -3.2320   -4.1005   -0.9628 H   0  0  0  0  0  0  0  0  0  0  0  0
   -1.9312   -3.0504    0.3927 C   0  0  0  0  0  0  0  0  0  0  0  0
   -1.1204   -3.4762    1.1950 O   0  0  0  0  0  0  0  0  0  0  0  0
   -1.7088   -1.8547   -0.2621 N   0  0  0  0  0  0  0  0  0  0  0  0
   -2.3602   -1.6117   -1.0019 H   0  0  0  0  0  0  0  0  0  0  0  0
   -0.4693   -1.0644   -0.1403 C   0  0  1  0  0  0  0  0  0  0  0  0
    0.3496   -1.7326   -0.4296 H   0  0  0  0  0  0  0  0  0  0  0  0
   -0.4608    0.1077   -1.1443 C   0  0  0  0  0  0  0  0  0  0  0  0
    0.5743    0.4581   -1.2218 H   0  0  0  0  0  0  0  0  0  0  0  0
   -0.7416   -0.2696   -2.1323 H   0  0  0  0  0  0  0  0  0  0  0  0
   -1.3545    1.2928   -0.8078 C   0  0  0  0  0  0  0  0  0  0  0  0
   -0.8355    2.5911   -0.9458 C   0  0  0  0  0  0  0  0  0  0  0  0
    0.1973    2.7362   -1.2502 H   0  0  0  0  0  0  0  0  0  0  0  0
   -1.6265    3.7146   -0.6807 C   0  0  0  0  0  0  0  0  0  0  0  0
   -1.1954    4.7047   -0.7825 H   0  0  0  0  0  0  0  0  0  0  0  0
   -2.9564    3.5593   -0.2906 C   0  0  0  0  0  0  0  0  0  0  0  0
   -3.7383    4.6457   -0.0253 O   0  0  0  0  0  0  0  0  0  0  0  0
   -3.2202    5.4599   -0.1216 H   0  0  0  0  0  0  0  0  0  0  0  0
   -3.4939    2.2804   -0.1799 C   0  0  0  0  0  0  0  0  0  0  0  0
   -4.5345    2.1727    0.1088 H   0  0  0  0  0  0  0  0  0  0  0  0
   -2.7078    1.1544   -0.4443 C   0  0  0  0  0  0  0  0  0  0  0  0
   -3.1780    0.1827   -0.3640 H   0  0  0  0  0  0  0  0  0  0  0  0
   -0.1116   -0.5754    1.2829 C   0  0  0  0  0  0  0  0  0  0  0  0
    1.0666   -0.5018    1.6090 O   0  0  0  0  0  0  0  0  0  0  0  0
   -1.0700   -0.0186    2.1108 N   0  0  0  0  0  0  0  0  0  0  0  0
   -2.0154    0.0375    1.7476 H   0  0  0  0  0  0  0  0  0  0  0  0
   -0.7602    0.6150    3.3853 C   0  0  0  0  0  0  0  0  0  0  0  0
   -0.0868    1.4655    3.2363 H   0  0  0  0  0  0  0  0  0  0  0  0
   -1.6769    0.9777    3.8596 H   0  0  0  0  0  0  0  0  0  0  0  0
   -0.2810   -0.1013    4.0613 H   0  0  0  0  0  0  0  0  0  0  0  0
  1  2  1  0  0  0  0
  2  3  1  0  0  0  0
  2  4  1  0  0  0  0
  2  5  1  0  0  0  0
  5  6  2  0  0  0  0
  5  7  1  0  0  0  0
  7  8  1  0  0  0  0
  7  9  1  0  0  0  0
  9 10  1  0  0  0  0
  9 11  1  0  0  0  0
  9 26  1  0  0  0  0
 11 12  1  0  0  0  0
 11 13  1  0  0  0  0
 11 14  1  0  0  0  0
 14 15  2  0  0  0  0
 14 24  1  0  0  0  0
 15 16  1  0  0  0  0
 15 17  1  0  0  0  0
 17 18  1  0  0  0  0
 17 19  2  0  0  0  0
 19 20  1  0  0  0  0
 19 22  1  0  0  0  0
 20 21  1  0  0  0  0
 22 23  1  0  0  0  0
 22 24  2  0  0  0  0
 24 25  1  0  0  0  0
 26 27  2  0  0  0  0
 26 28  1  0  0  0  0
 28 29  1  0  0  0  0
 28 30  1  0  0  0  0
 30 31  1  0  0  0  0
 30 32  1  0  0  0  0
 30 33  1  0  0  0  0
M  END
$$$$

  -OEChem-03222214083D

 33 33  0     1  0  0  0  0  0999 V2000
   -3.1652   -4.7998    0.6259 H   0  0  0  0  0  0  0  0  0  0  0  0
   -3.1741   -3.8576    0.0704 C   0  0  0  0  0  0  0  0  0  0  0  0
   -4.0601   -3.2873    0.3593 H   0  0  0  0  0  0  0  0  0  0  0  0
   -3.2236   -4.0806   -0.9982 H   0  0  0  0  0  0  0  0  0  0  0  0
   -1.9203   -3.0602    0.3765 C   0  0  0  0  0  0  0  0  0  0  0  0
   -1.0957   -3.5009    1.1563 O   0  0  0  0  0  0  0  0  0  0  0  0
   -1.7227   -1.8382   -0.2355 N   0  0  0  0  0  0  0  0  0  0  0  0
   -2.3980   -1.5668   -0.9441 H   0  0  0  0  0  0  0  0  0  0  0  0
   -0.4893   -1.0389   -0.1106 C   0  0  1  0  0  0  0  0  0  0  0  0
    0.3242   -1.7005   -0.4292 H   0  0  0  0  0  0  0  0  0  0  0  0
   -0.4946    0.1387   -1.1075 C   0  0  0  0  0  0  0  0  0  0  0  0
    0.5379    0.4984   -1.1789 H   0  0  0  0  0  0  0  0  0  0  0  0
   -0.7677   -0.2421   -2.0964 H   0  0  0  0  0  0  0  0  0  0  0  0
   -1.3895    1.3291   -0.7918 C   0  0  0  0  0  0  0  0  0  0  0  0
   -0.9860    2.5980   -1.2397 C   0  0  0  0  0  0  0  0  0  0  0  0
   -0.0351    2.7159   -1.7518 H   0  0  0  0  0  0  0  0  0  0  0  0
   -1.7854    3.7270   -1.0277 C   0  0  0  0  0  0  0  0  0  0  0  0
   -1.4415    4.6963   -1.3719 H   0  0  0  0  0  0  0  0  0  0  0  0
   -3.0149    3.6033   -0.3815 C   0  0  0  0  0  0  0  0  0  0  0  0
   -3.8048    4.6955   -0.1682 O   0  0  0  0  0  0  0  0  0  0  0  0
   -3.3604    5.4956   -0.4893 H   0  0  0  0  0  0  0  0  0  0  0  0
   -3.4445    2.3485    0.0402 C   0  0  0  0  0  0  0  0  0  0  0  0
   -4.4088    2.2615    0.5302 H   0  0  0  0  0  0  0  0  0  0  0  0
   -2.6487    1.2177   -0.1704 C   0  0  0  0  0  0  0  0  0  0  0  0
   -3.0382    0.2630    0.1586 H   0  0  0  0  0  0  0  0  0  0  0  0
   -0.0852   -0.5889    1.3135 C   0  0  0  0  0  0  0  0  0  0  0  0
    1.1045   -0.5052    1.5914 O   0  0  0  0  0  0  0  0  0  0  0  0
   -1.0104   -0.0656    2.1985 N   0  0  0  0  0  0  0  0  0  0  0  0
   -1.9845   -0.0921    1.9205 H   0  0  0  0  0  0  0  0  0  0  0  0
   -0.6563    0.5015    3.4926 C   0  0  0  0  0  0  0  0  0  0  0  0
    0.0496    1.3295    3.3685 H   0  0  0  0  0  0  0  0  0  0  0  0
   -1.5500    0.8830    3.9949 H   0  0  0  0  0  0  0  0  0  0  0  0
   -0.1976   -0.2611    4.1306 H   0  0  0  0  0  0  0  0  0  0  0  0
  1  2  1  0  0  0  0
  2  3  1  0  0  0  0
  2  4  1  0  0  0  0
  2  5  1  0  0  0  0
  5  6  2  0  0  0  0
  5  7  1  0  0  0  0
  7  8  1  0  0  0  0
  7  9  1  0  0  0  0
  9 10  1  0  0  0  0
  9 11  1  0  0  0  0
  9 26  1  0  0  0  0
 11 12  1  0  0  0  0
 11 13  1  0  0  0  0
 11 14  1  0  0  0  0
 14 15  2  0  0  0  0
 14 24  1  0  0  0  0
 15 16  1  0  0  0  0
 15 17  1  0  0  0  0
 17 18  1  0  0  0  0
 17 19  2  0  0  0  0
 19 20  1  0  0  0  0
 19 22  1  0  0  0  0
 20 21  1  0  0  0  0
 22 23  1  0  0  0  0
 22 24  2  0  0  0  0
 24 25  1  0  0  0  0
 26 27  2  0  0  0  0
 26 28  1  0  0  0  0
 28 29  1  0  0  0  0
 28 30  1  0  0  0  0
 30 31  1  0  0  0  0
 30 32  1  0  0  0  0
 30 33  1  0  0  0  0
M  END
$$$$

  -OEChem-03222214083D

 33 33  0     1  0  0  0  0  0999 V2000
   -3.1265   -4.8084    0.6080 H   0  0  0  0  0  0  0  0  0  0  0  0
   -3.1518   -3.8555    0.0715 C   0  0  0  0  0  0  0  0  0  0  0  0
   -4.0388   -3.2996    0.3848 H   0  0  0  0  0  0  0  0  0  0  0  0
   -3.2158   -4.0581   -1.0004 H   0  0  0  0  0  0  0  0  0  0  0  0
   -1.9002   -3.0526    0.3736 C   0  0  0  0  0  0  0  0  0  0  0  0
   -1.0518   -3.5070    1.1197 O   0  0  0  0  0  0  0  0  0  0  0  0
   -1.7357   -1.8024   -0.1888 N   0  0  0  0  0  0  0  0  0  0  0  0
   -2.4444   -1.4988   -0.8508 H   0  0  0  0  0  0  0  0  0  0  0  0
   -0.5110   -0.9896   -0.0631 C   0  0  1  0  0  0  0  0  0  0  0  0
    0.2954   -1.6487   -0.4051 H   0  0  0  0  0  0  0  0  0  0  0  0
   -0.5156    0.1810   -1.0688 C   0  0  0  0  0  0  0  0  0  0  0  0
    0.5139    0.5511   -1.1302 H   0  0  0  0  0  0  0  0  0  0  0  0
   -0.7716   -0.2157   -2.0563 H   0  0  0  0  0  0  0  0  0  0  0  0
   -1.4157    1.3757   -0.7925 C   0  0  0  0  0  0  0  0  0  0  0  0
   -1.1772    2.5547   -1.5179 C   0  0  0  0  0  0  0  0  0  0  0  0
   -0.3323    2.6081   -2.1989 H   0  0  0  0  0  0  0  0  0  0  0  0
   -2.0014    3.6759   -1.3674 C   0  0  0  0  0  0  0  0  0  0  0  0
   -1.7804    4.5787   -1.9262 H   0  0  0  0  0  0  0  0  0  0  0  0
   -3.0987    3.6274   -0.5080 C   0  0  0  0  0  0  0  0  0  0  0  0
   -3.9116    4.7122   -0.3500 O   0  0  0  0  0  0  0  0  0  0  0  0
   -3.5627    5.4654   -0.8514 H   0  0  0  0  0  0  0  0  0  0  0  0
   -3.3758    2.4521    0.1838 C   0  0  0  0  0  0  0  0  0  0  0  0
   -4.2433    2.4173    0.8349 H   0  0  0  0  0  0  0  0  0  0  0  0
   -2.5534    1.3304    0.0351 C   0  0  0  0  0  0  0  0  0  0  0  0
   -2.8303    0.4297    0.5665 H   0  0  0  0  0  0  0  0  0  0  0  0
   -0.0556   -0.5841    1.3600 C   0  0  0  0  0  0  0  0  0  0  0  0
    1.1435   -0.4691    1.5799 O   0  0  0  0  0  0  0  0  0  0  0  0
   -0.9440   -0.1070    2.3068 N   0  0  0  0  0  0  0  0  0  0  0  0
   -1.9291   -0.2640    2.1294 H   0  0  0  0  0  0  0  0  0  0  0  0
   -0.5336    0.3748    3.6193 C   0  0  0  0  0  0  0  0  0  0  0  0
    0.1375    1.2342    3.5181 H   0  0  0  0  0  0  0  0  0  0  0  0
   -1.4086    0.6871    4.1970 H   0  0  0  0  0  0  0  0  0  0  0  0
   -0.0153   -0.4154    4.1726 H   0  0  0  0  0  0  0  0  0  0  0  0
  1  2  1  0  0  0  0
  2  3  1  0  0  0  0
  2  4  1  0  0  0  0
  2  5  1  0  0  0  0
  5  6  2  0  0  0  0
  5  7  1  0  0  0  0
  7  8  1  0  0  0  0
  7  9  1  0  0  0  0
  9 10  1  0  0  0  0
  9 11  1  0  0  0  0
  9 26  1  0  0  0  0
 11 12  1  0  0  0  0
 11 13  1  0  0  0  0
 11 14  1  0  0  0  0
 14 15  2  0  0  0  0
 14 24  1  0  0  0  0
 15 16  1  0  0  0  0
 15 17  1  0  0  0  0
 17 18  1  0  0  0  0
 17 19  2  0  0  0  0
 19 20  1  0  0  0  0
 19 22  1  0  0  0  0
 20 21  1  0  0  0  0
 22 23  1  0  0  0  0
 22 24  2  0  0  0  0
 24 25  1  0  0  0  0
 26 27  2  0  0  0  0
 26 28  1  0  0  0  0
 28 29  1  0  0  0  0
 28 30  1  0  0  0  0
 30 31  1  0  0  0  0
 30 32  1  0  0  0  0
 30 33  1  0  0  0  0
M  END
$$$$

  -OEChem-03222214083D

 33 33  0     1  0  0  0  0  0999 V2000
   -3.1819   -4.7763    0.2715 H   0  0  0  0  0  0  0  0  0  0  0  0
   -3.2129   -3.7610   -0.1340 C   0  0  0  0  0  0  0  0  0  0  0  0
   -4.0803   -3.2431    0.2820 H   0  0  0  0  0  0  0  0  0  0  0  0
   -3.3177   -3.8198   -1.2201 H   0  0  0  0  0  0  0  0  0  0  0  0
   -1.9403   -3.0170    0.2256 C   0  0  0  0  0  0  0  0  0  0  0  0
   -1.0654   -3.5800    0.8589 O   0  0  0  0  0  0  0  0  0  0  0  0
   -1.7893   -1.6959   -0.1471 N   0  0  0  0  0  0  0  0  0  0  0  0
   -2.5419   -1.2797   -0.6886 H   0  0  0  0  0  0  0  0  0  0  0  0
   -0.5669   -0.9004    0.0672 C   0  0  1  0  0  0  0  0  0  0  0  0
    0.2111   -1.5740   -0.3124 H   0  0  0  0  0  0  0  0  0  0  0  0
   -0.4613    0.2787   -0.9292 C   0  0  0  0  0  0  0  0  0  0  0  0
    0.6097    0.4478   -1.0881 H   0  0  0  0  0  0  0  0  0  0  0  0
   -0.8735   -0.0548   -1.8871 H   0  0  0  0  0  0  0  0  0  0  0  0
   -1.0570    1.6418   -0.6145 C   0  0  0  0  0  0  0  0  0  0  0  0
   -0.8961    2.6416   -1.5896 C   0  0  0  0  0  0  0  0  0  0  0  0
   -0.2946    2.4402   -2.4716 H   0  0  0  0  0  0  0  0  0  0  0  0
   -1.4779    3.9056   -1.4405 C   0  0  0  0  0  0  0  0  0  0  0  0
   -1.3137    4.6626   -2.1997 H   0  0  0  0  0  0  0  0  0  0  0  0
   -2.2666    4.1836   -0.3254 C   0  0  0  0  0  0  0  0  0  0  0  0
   -2.8430    5.4104   -0.1654 O   0  0  0  0  0  0  0  0  0  0  0  0
   -2.5563    6.0078   -0.8732 H   0  0  0  0  0  0  0  0  0  0  0  0
   -2.4844    3.1879    0.6217 C   0  0  0  0  0  0  0  0  0  0  0  0
   -3.1223    3.4016    1.4730 H   0  0  0  0  0  0  0  0  0  0  0  0
   -1.9033    1.9237    0.4720 C   0  0  0  0  0  0  0  0  0  0  0  0
   -2.1605    1.1751    1.2033 H   0  0  0  0  0  0  0  0  0  0  0  0
   -0.0625   -0.6950    1.5173 C   0  0  0  0  0  0  0  0  0  0  0  0
    1.1431   -0.5967    1.7074 O   0  0  0  0  0  0  0  0  0  0  0  0
   -0.9141   -0.3672    2.5575 N   0  0  0  0  0  0  0  0  0  0  0  0
   -1.8952   -0.5816    2.4142 H   0  0  0  0  0  0  0  0  0  0  0  0
   -0.4459   -0.1304    3.9178 C   0  0  0  0  0  0  0  0  0  0  0  0
    0.2446    0.7194    3.9426 H   0  0  0  0  0  0  0  0  0  0  0  0
   -1.2912    0.0940    4.5752 H   0  0  0  0  0  0  0  0  0  0  0  0
    0.0706   -1.0154    4.3045 H   0  0  0  0  0  0  0  0  0  0  0  0
  1  2  1  0  0  0  0
  2  3  1  0  0  0  0
  2  4  1  0  0  0  0
  2  5  1  0  0  0  0
  5  6  2  0  0  0  0
  5  7  1  0  0  0  0
  7  8  1  0  0  0  0
  7  9  1  0  0  0  0
  9 10  1  0  0  0  0
  9 11  1  0  0  0  0
  9 26  1  0  0  0  0
 11 12  1  0  0  0  0
 11 13  1  0  0  0  0
 11 14  1  0  0  0  0
 14 15  2  0  0  0  0
 14 24  1  0  0  0  0
 15 16  1  0  0  0  0
 15 17  1  0  0  0  0
 17 18  1  0  0  0  0
 17 19  2  0  0  0  0
 19 20  1  0  0  0  0
 19 22  1  0  0  0  0
 20 21  1  0  0  0  0
 22 23  1  0  0  0  0
 22 24  2  0  0  0  0
 24 25  1  0  0  0  0
 26 27  2  0  0  0  0
 26 28  1  0  0  0  0
 28 29  1  0  0  0  0
 28 30  1  0  0  0  0
 30 31  1  0  0  0  0
 30 32  1  0  0  0  0
 30 33  1  0  0  0  0
M  END
$$$$

  -OEChem-03222214083D

 33 33  0     1  0  0  0  0  0999 V2000
   -3.2635   -4.7532    0.3994 H   0  0  0  0  0  0  0  0  0  0  0  0
   -3.3004   -3.7407   -0.0130 C   0  0  0  0  0  0  0  0  0  0  0  0
   -4.1125   -3.1936    0.4719 H   0  0  0  0  0  0  0  0  0  0  0  0
   -3.5014   -3.8050   -1.0850 H   0  0  0  0  0  0  0  0  0  0  0  0
   -1.9798   -3.0326    0.2252 C   0  0  0  0  0  0  0  0  0  0  0  0
   -1.0559   -3.6311    0.7461 O   0  0  0  0  0  0  0  0  0  0  0  0
   -1.8382   -1.7058   -0.1318 N   0  0  0  0  0  0  0  0  0  0  0  0
   -2.6424   -1.2512   -0.5555 H   0  0  0  0  0  0  0  0  0  0  0  0
   -0.6018   -0.9186    0.0311 C   0  0  1  0  0  0  0  0  0  0  0  0
    0.1648   -1.5769   -0.3951 H   0  0  0  0  0  0  0  0  0  0  0  0
   -0.5717    0.2764   -0.9586 C   0  0  0  0  0  0  0  0  0  0  0  0
    0.4878    0.4478   -1.1787 H   0  0  0  0  0  0  0  0  0  0  0  0
   -1.0310   -0.0691   -1.8904 H   0  0  0  0  0  0  0  0  0  0  0  0
   -1.1366    1.6574   -0.6445 C   0  0  0  0  0  0  0  0  0  0  0  0
   -1.3242    2.5111   -1.7474 C   0  0  0  0  0  0  0  0  0  0  0  0
   -1.0874    2.1608   -2.7480 H   0  0  0  0  0  0  0  0  0  0  0  0
   -1.8179    3.8111   -1.5925 C   0  0  0  0  0  0  0  0  0  0  0  0
   -1.9593    4.4366   -2.4671 H   0  0  0  0  0  0  0  0  0  0  0  0
   -2.1189    4.2962   -0.3219 C   0  0  0  0  0  0  0  0  0  0  0  0
   -2.5999    5.5622   -0.1529 O   0  0  0  0  0  0  0  0  0  0  0  0
   -2.6321    6.0226   -1.0056 H   0  0  0  0  0  0  0  0  0  0  0  0
   -1.9091    3.4810    0.7850 C   0  0  0  0  0  0  0  0  0  0  0  0
   -2.1214    3.8723    1.7746 H   0  0  0  0  0  0  0  0  0  0  0  0
   -1.4125    2.1813    0.6311 C   0  0  0  0  0  0  0  0  0  0  0  0
   -1.2343    1.6295    1.5364 H   0  0  0  0  0  0  0  0  0  0  0  0
   -0.0769   -0.7786    1.4785 C   0  0  0  0  0  0  0  0  0  0  0  0
    1.1285   -0.6830    1.6668 O   0  0  0  0  0  0  0  0  0  0  0  0
   -0.9305   -0.4881    2.5288 N   0  0  0  0  0  0  0  0  0  0  0  0
   -1.9183   -0.6501    2.3615 H   0  0  0  0  0  0  0  0  0  0  0  0
   -0.4701   -0.3238    3.9024 C   0  0  0  0  0  0  0  0  0  0  0  0
    0.2622    0.4879    3.9672 H   0  0  0  0  0  0  0  0  0  0  0  0
   -1.3122   -0.0799    4.5569 H   0  0  0  0  0  0  0  0  0  0  0  0
   -0.0051   -1.2477    4.2622 H   0  0  0  0  0  0  0  0  0  0  0  0
  1  2  1  0  0  0  0
  2  3  1  0  0  0  0
  2  4  1  0  0  0  0
  2  5  1  0  0  0  0
  5  6  2  0  0  0  0
  5  7  1  0  0  0  0
  7  8  1  0  0  0  0
  7  9  1  0  0  0  0
  9 10  1  0  0  0  0
  9 11  1  0  0  0  0
  9 26  1  0  0  0  0
 11 12  1  0  0  0  0
 11 13  1  0  0  0  0
 11 14  1  0  0  0  0
 14 15  2  0  0  0  0
 14 24  1  0  0  0  0
 15 16  1  0  0  0  0
 15 17  1  0  0  0  0
 17 18  1  0  0  0  0
 17 19  2  0  0  0  0
 19 20  1  0  0  0  0
 19 22  1  0  0  0  0
 20 21  1  0  0  0  0
 22 23  1  0  0  0  0
 22 24  2  0  0  0  0
 24 25  1  0  0  0  0
 26 27  2  0  0  0  0
 26 28  1  0  0  0  0
 28 29  1  0  0  0  0
 28 30  1  0  0  0  0
 30 31  1  0  0  0  0
 30 32  1  0  0  0  0
 30 33  1  0  0  0  0
M  END
$$$$

  -OEChem-03222214083D

 33 33  0     1  0  0  0  0  0999 V2000
   -3.2433   -4.7184    0.5376 H   0  0  0  0  0  0  0  0  0  0  0  0
   -3.2518   -3.7401    0.0480 C   0  0  0  0  0  0  0  0  0  0  0  0
   -4.0545   -3.1382    0.4807 H   0  0  0  0  0  0  0  0  0  0  0  0
   -3.4451   -3.8826   -1.0179 H   0  0  0  0  0  0  0  0  0  0  0  0
   -1.9157   -3.0475    0.2438 C   0  0  0  0  0  0  0  0  0  0  0  0
   -1.0044   -3.6352    0.7981 O   0  0  0  0  0  0  0  0  0  0  0  0
   -1.7404   -1.7532   -0.2070 N   0  0  0  0  0  0  0  0  0  0  0  0
   -2.5407   -1.3011   -0.6398 H   0  0  0  0  0  0  0  0  0  0  0  0
   -0.5005   -0.9692   -0.0449 C   0  0  1  0  0  0  0  0  0  0  0  0
    0.2984   -1.6120   -0.4330 H   0  0  0  0  0  0  0  0  0  0  0  0
   -0.5341    0.2318   -1.0294 C   0  0  0  0  0  0  0  0  0  0  0  0
    0.5103    0.4433   -1.2830 H   0  0  0  0  0  0  0  0  0  0  0  0
   -1.0122   -0.1105   -1.9530 H   0  0  0  0  0  0  0  0  0  0  0  0
   -1.1313    1.5778   -0.6344 C   0  0  0  0  0  0  0  0  0  0  0  0
   -1.7148    2.3463   -1.6593 C   0  0  0  0  0  0  0  0  0  0  0  0
   -1.8078    1.9345   -2.6601 H   0  0  0  0  0  0  0  0  0  0  0  0
   -2.2080    3.6338   -1.4194 C   0  0  0  0  0  0  0  0  0  0  0  0
   -2.6824    4.1839   -2.2249 H   0  0  0  0  0  0  0  0  0  0  0  0
   -2.0765    4.2074   -0.1565 C   0  0  0  0  0  0  0  0  0  0  0  0
   -2.5498    5.4626    0.0946 O   0  0  0  0  0  0  0  0  0  0  0  0
   -2.9259    5.8450   -0.7130 H   0  0  0  0  0  0  0  0  0  0  0  0
   -1.4192    3.5022    0.8455 C   0  0  0  0  0  0  0  0  0  0  0  0
   -1.2679    3.9738    1.8113 H   0  0  0  0  0  0  0  0  0  0  0  0
   -0.9232    2.2166    0.6036 C   0  0  0  0  0  0  0  0  0  0  0  0
   -0.3317    1.7707    1.3914 H   0  0  0  0  0  0  0  0  0  0  0  0
   -0.0887   -0.7536    1.4276 C   0  0  0  0  0  0  0  0  0  0  0  0
    1.0975   -0.6772    1.7184 O   0  0  0  0  0  0  0  0  0  0  0  0
   -1.0303   -0.3886    2.3755 N   0  0  0  0  0  0  0  0  0  0  0  0
   -2.0047   -0.4634    2.1026 H   0  0  0  0  0  0  0  0  0  0  0  0
   -0.7037   -0.1401    3.7740 C   0  0  0  0  0  0  0  0  0  0  0  0
    0.0567    0.6432    3.8592 H   0  0  0  0  0  0  0  0  0  0  0  0
   -1.5951    0.1868    4.3178 H   0  0  0  0  0  0  0  0  0  0  0  0
   -0.3237   -1.0530    4.2445 H   0  0  0  0  0  0  0  0  0  0  0  0
  1  2  1  0  0  0  0
  2  3  1  0  0  0  0
  2  4  1  0  0  0  0
  2  5  1  0  0  0  0
  5  6  2  0  0  0  0
  5  7  1  0  0  0  0
  7  8  1  0  0  0  0
  7  9  1  0  0  0  0
  9 10  1  0  0  0  0
  9 11  1  0  0  0  0
  9 26  1  0  0  0  0
 11 12  1  0  0  0  0
 11 13  1  0  0  0  0
 11 14  1  0  0  0  0
 14 15  2  0  0  0  0
 14 24  1  0  0  0  0
 15 16  1  0  0  0  0
 15 17  1  0  0  0  0
 17 18  1  0  0  0  0
 17 19  2  0  0  0  0
 19 20  1  0  0  0  0
 19 22  1  0  0  0  0
 20 21  1  0  0  0  0
 22 23  1  0  0  0  0
 22 24  2  0  0  0  0
 24 25  1  0  0  0  0
 26 27  2  0  0  0  0
 26 28  1  0  0  0  0
 28 29  1  0  0  0  0
 28 30  1  0  0  0  0
 30 31  1  0  0  0  0
 30 32  1  0  0  0  0
 30 33  1  0  0  0  0
M  END
$$$$

  -OEChem-03222214083D

 33 33  0     1  0  0  0  0  0999 V2000
   -3.2823   -4.6671    0.6058 H   0  0  0  0  0  0  0  0  0  0  0  0
   -3.2666   -3.7059    0.0839 C   0  0  0  0  0  0  0  0  0  0  0  0
   -4.0567   -3.0718    0.4929 H   0  0  0  0  0  0  0  0  0  0  0  0
   -3.4584   -3.8792   -0.9778 H   0  0  0  0  0  0  0  0  0  0  0  0
   -1.9165   -3.0379    0.2639 C   0  0  0  0  0  0  0  0  0  0  0  0
   -1.0269   -3.6206    0.8574 O   0  0  0  0  0  0  0  0  0  0  0  0
   -1.7044   -1.7722   -0.2471 N   0  0  0  0  0  0  0  0  0  0  0  0
   -2.4897   -1.3205   -0.7064 H   0  0  0  0  0  0  0  0  0  0  0  0
   -0.4548   -1.0057   -0.0818 C   0  0  1  0  0  0  0  0  0  0  0  0
    0.3482   -1.6634   -0.4342 H   0  0  0  0  0  0  0  0  0  0  0  0
   -0.4758    0.1828   -1.0787 C   0  0  0  0  0  0  0  0  0  0  0  0
    0.5678    0.3950   -1.3340 H   0  0  0  0  0  0  0  0  0  0  0  0
   -0.9562   -0.1504   -2.0041 H   0  0  0  0  0  0  0  0  0  0  0  0
   -1.0770    1.5092   -0.6369 C   0  0  0  0  0  0  0  0  0  0  0  0
   -1.9521    2.1741   -1.5149 C   0  0  0  0  0  0  0  0  0  0  0  0
   -2.2554    1.7014   -2.4446 H   0  0  0  0  0  0  0  0  0  0  0  0
   -2.4649    3.4399   -1.2070 C   0  0  0  0  0  0  0  0  0  0  0  0
   -3.1609    3.9156   -1.8891 H   0  0  0  0  0  0  0  0  0  0  0  0
   -2.0728    4.0892   -0.0371 C   0  0  0  0  0  0  0  0  0  0  0  0
   -2.5653    5.3231    0.2762 O   0  0  0  0  0  0  0  0  0  0  0  0
   -3.1580    5.6346   -0.4248 H   0  0  0  0  0  0  0  0  0  0  0  0
   -1.1452    3.4811    0.8024 C   0  0  0  0  0  0  0  0  0  0  0  0
   -0.8078    4.0076    1.6895 H   0  0  0  0  0  0  0  0  0  0  0  0
   -0.6297    2.2178    0.4945 C   0  0  0  0  0  0  0  0  0  0  0  0
    0.1466    1.8206    1.1402 H   0  0  0  0  0  0  0  0  0  0  0  0
   -0.0842   -0.7213    1.3903 C   0  0  0  0  0  0  0  0  0  0  0  0
    1.0936   -0.6722    1.7198 O   0  0  0  0  0  0  0  0  0  0  0  0
   -1.0457   -0.2871    2.2868 N   0  0  0  0  0  0  0  0  0  0  0  0
   -2.0077   -0.2796    1.9646 H   0  0  0  0  0  0  0  0  0  0  0  0
   -0.7542    0.0812    3.6663 C   0  0  0  0  0  0  0  0  0  0  0  0
   -0.0162    0.8893    3.7011 H   0  0  0  0  0  0  0  0  0  0  0  0
   -1.6646    0.4253    4.1659 H   0  0  0  0  0  0  0  0  0  0  0  0
   -0.3607   -0.7802    4.2161 H   0  0  0  0  0  0  0  0  0  0  0  0
  1  2  1  0  0  0  0
  2  3  1  0  0  0  0
  2  4  1  0  0  0  0
  2  5  1  0  0  0  0
  5  6  2  0  0  0  0
  5  7  1  0  0  0  0
  7  8  1  0  0  0  0
  7  9  1  0  0  0  0
  9 10  1  0  0  0  0
  9 11  1  0  0  0  0
  9 26  1  0  0  0  0
 11 12  1  0  0  0  0
 11 13  1  0  0  0  0
 11 14  1  0  0  0  0
 14 15  2  0  0  0  0
 14 24  1  0  0  0  0
 15 16  1  0  0  0  0
 15 17  1  0  0  0  0
 17 18  1  0  0  0  0
 17 19  2  0  0  0  0
 19 20  1  0  0  0  0
 19 22  1  0  0  0  0
 20 21  1  0  0  0  0
 22 23  1  0  0  0  0
 22 24  2  0  0  0  0
 24 25  1  0  0  0  0
 26 27  2  0  0  0  0
 26 28  1  0  0  0  0
 28 29  1  0  0  0  0
 28 30  1  0  0  0  0
 30 31  1  0  0  0  0
 30 32  1  0  0  0  0
 30 33  1  0  0  0  0
M  END
$$$$

  -OEChem-03222214083D

 33 33  0     1  0  0  0  0  0999 V2000
   -3.3245   -4.6251    0.6386 H   0  0  0  0  0  0  0  0  0  0  0  0
   -3.2890   -3.6727    0.1019 C   0  0  0  0  0  0  0  0  0  0  0  0
   -4.0661   -3.0165    0.5005 H   0  0  0  0  0  0  0  0  0  0  0  0
   -3.4839   -3.8584   -0.9570 H   0  0  0  0  0  0  0  0  0  0  0  0
   -1.9263   -3.0276    0.2724 C   0  0  0  0  0  0  0  0  0  0  0  0
   -1.0536   -3.6074    0.8931 O   0  0  0  0  0  0  0  0  0  0  0  0
   -1.6834   -1.7854   -0.2806 N   0  0  0  0  0  0  0  0  0  0  0  0
   -2.4572   -1.3315   -0.7560 H   0  0  0  0  0  0  0  0  0  0  0  0
   -0.4277   -1.0312   -0.1089 C   0  0  1  0  0  0  0  0  0  0  0  0
    0.3758   -1.7036   -0.4306 H   0  0  0  0  0  0  0  0  0  0  0  0
   -0.4206    0.1444   -1.1164 C   0  0  0  0  0  0  0  0  0  0  0  0
    0.6259    0.3518   -1.3643 H   0  0  0  0  0  0  0  0  0  0  0  0
   -0.8999   -0.1765   -2.0467 H   0  0  0  0  0  0  0  0  0  0  0  0
   -1.0231    1.4539   -0.6427 C   0  0  0  0  0  0  0  0  0  0  0  0
   -2.1227    1.9969   -1.3280 C   0  0  0  0  0  0  0  0  0  0  0  0
   -2.5762    1.4533   -2.1514 H   0  0  0  0  0  0  0  0  0  0  0  0
   -2.6563    3.2375   -0.9592 C   0  0  0  0  0  0  0  0  0  0  0  0
   -3.5174    3.6286   -1.4901 H   0  0  0  0  0  0  0  0  0  0  0  0
   -2.0758    3.9706    0.0766 C   0  0  0  0  0  0  0  0  0  0  0  0
   -2.5870    5.1809    0.4465 O   0  0  0  0  0  0  0  0  0  0  0  0
   -3.3356    5.4166   -0.1227 H   0  0  0  0  0  0  0  0  0  0  0  0
   -0.9501    3.4693    0.7248 C   0  0  0  0  0  0  0  0  0  0  0  0
   -0.4838    4.0560    1.5098 H   0  0  0  0  0  0  0  0  0  0  0  0
   -0.4131    2.2314    0.3576 C   0  0  0  0  0  0  0  0  0  0  0  0
    0.4891    1.8851    0.8554 H   0  0  0  0  0  0  0  0  0  0  0  0
   -0.0819   -0.6897    1.3579 C   0  0  0  0  0  0  0  0  0  0  0  0
    1.0905   -0.6468    1.7079 O   0  0  0  0  0  0  0  0  0  0  0  0
   -1.0531   -0.2027    2.2155 N   0  0  0  0  0  0  0  0  0  0  0  0
   -1.9956   -0.1258    1.8486 H   0  0  0  0  0  0  0  0  0  0  0  0
   -0.7695    0.2948    3.5549 C   0  0  0  0  0  0  0  0  0  0  0  0
   -0.0833    1.1469    3.5102 H   0  0  0  0  0  0  0  0  0  0  0  0
   -1.6945    0.6198    4.0402 H   0  0  0  0  0  0  0  0  0  0  0  0
   -0.3155   -0.4923    4.1660 H   0  0  0  0  0  0  0  0  0  0  0  0
  1  2  1  0  0  0  0
  2  3  1  0  0  0  0
  2  4  1  0  0  0  0
  2  5  1  0  0  0  0
  5  6  2  0  0  0  0
  5  7  1  0  0  0  0
  7  8  1  0  0  0  0
  7  9  1  0  0  0  0
  9 10  1  0  0  0  0
  9 11  1  0  0  0  0
  9 26  1  0  0  0  0
 11 12  1  0  0  0  0
 11 13  1  0  0  0  0
 11 14  1  0  0  0  0
 14 15  2  0  0  0  0
 14 24  1  0  0  0  0
 15 16  1  0  0  0  0
 15 17  1  0  0  0  0
 17 18  1  0  0  0  0
 17 19  2  0  0  0  0
 19 20  1  0  0  0  0
 19 22  1  0  0  0  0
 20 21  1  0  0  0  0
 22 23  1  0  0  0  0
 22 24  2  0  0  0  0
 24 25  1  0  0  0  0
 26 27  2  0  0  0  0
 26 28  1  0  0  0  0
 28 29  1  0  0  0  0
 28 30  1  0  0  0  0
 30 31  1  0  0  0  0
 30 32  1  0  0  0  0
 30 33  1  0  0  0  0
M  END
$$$$

  -OEChem-03222214083D

 33 33  0     1  0  0  0  0  0999 V2000
   -3.3579   -4.5918    0.6625 H   0  0  0  0  0  0  0  0  0  0  0  0
   -3.3106   -3.6474    0.1125 C   0  0  0  0  0  0  0  0  0  0  0  0
   -4.0880   -2.9806    0.4928 H   0  0  0  0  0  0  0  0  0  0  0  0
   -3.4946   -3.8473   -0.9459 H   0  0  0  0  0  0  0  0  0  0  0  0
   -1.9455   -3.0093    0.2899 C   0  0  0  0  0  0  0  0  0  0  0  0
   -1.0898   -3.5779    0.9437 O   0  0  0  0  0  0  0  0  0  0  0  0
   -1.6794   -1.7889   -0.2993 N   0  0  0  0  0  0  0  0  0  0  0  0
   -2.4382   -1.3453   -0.8066 H   0  0  0  0  0  0  0  0  0  0  0  0
   -0.4180   -1.0440   -0.1294 C   0  0  1  0  0  0  0  0  0  0  0  0
    0.3816   -1.7333   -0.4244 H   0  0  0  0  0  0  0  0  0  0  0  0
   -0.3789    0.1149   -1.1511 C   0  0  0  0  0  0  0  0  0  0  0  0
    0.6718    0.3074   -1.3933 H   0  0  0  0  0  0  0  0  0  0  0  0
   -0.8600   -0.1979   -2.0834 H   0  0  0  0  0  0  0  0  0  0  0  0
   -0.9774    1.4173   -0.6634 C   0  0  0  0  0  0  0  0  0  0  0  0
   -2.2385    1.8277   -1.1231 C   0  0  0  0  0  0  0  0  0  0  0  0
   -2.7987    1.2037   -1.8126 H   0  0  0  0  0  0  0  0  0  0  0  0
   -2.7897    3.0430   -0.6996 C   0  0  0  0  0  0  0  0  0  0  0  0
   -3.7693    3.3405   -1.0577 H   0  0  0  0  0  0  0  0  0  0  0  0
   -2.0795    3.8693    0.1735 C   0  0  0  0  0  0  0  0  0  0  0  0
   -2.6084    5.0548    0.5954 O   0  0  0  0  0  0  0  0  0  0  0  0
   -3.4678    5.2076    0.1739 H   0  0  0  0  0  0  0  0  0  0  0  0
   -0.8142    3.4831    0.6105 C   0  0  0  0  0  0  0  0  0  0  0  0
   -0.2614    4.1344    1.2797 H   0  0  0  0  0  0  0  0  0  0  0  0
   -0.2580    2.2711    0.1889 C   0  0  0  0  0  0  0  0  0  0  0  0
    0.7339    1.9909    0.5364 H   0  0  0  0  0  0  0  0  0  0  0  0
   -0.0791   -0.6509    1.3271 C   0  0  0  0  0  0  0  0  0  0  0  0
    1.0924   -0.6057    1.6804 O   0  0  0  0  0  0  0  0  0  0  0  0
   -1.0493   -0.1186    2.1586 N   0  0  0  0  0  0  0  0  0  0  0  0
   -1.9783   -0.0098    1.7665 H   0  0  0  0  0  0  0  0  0  0  0  0
   -0.7568    0.4705    3.4587 C   0  0  0  0  0  0  0  0  0  0  0  0
   -0.1050    1.3431    3.3454 H   0  0  0  0  0  0  0  0  0  0  0  0
   -1.6832    0.7893    3.9459 H   0  0  0  0  0  0  0  0  0  0  0  0
   -0.2598   -0.2598    4.1062 H   0  0  0  0  0  0  0  0  0  0  0  0
  1  2  1  0  0  0  0
  2  3  1  0  0  0  0
  2  4  1  0  0  0  0
  2  5  1  0  0  0  0
  5  6  2  0  0  0  0
  5  7  1  0  0  0  0
  7  8  1  0  0  0  0
  7  9  1  0  0  0  0
  9 10  1  0  0  0  0
  9 11  1  0  0  0  0
  9 26  1  0  0  0  0
 11 12  1  0  0  0  0
 11 13  1  0  0  0  0
 11 14  1  0  0  0  0
 14 15  2  0  0  0  0
 14 24  1  0  0  0  0
 15 16  1  0  0  0  0
 15 17  1  0  0  0  0
 17 18  1  0  0  0  0
 17 19  2  0  0  0  0
 19 20  1  0  0  0  0
 19 22  1  0  0  0  0
 20 21  1  0  0  0  0
 22 23  1  0  0  0  0
 22 24  2  0  0  0  0
 24 25  1  0  0  0  0
 26 27  2  0  0  0  0
 26 28  1  0  0  0  0
 28 29  1  0  0  0  0
 28 30  1  0  0  0  0
 30 31  1  0  0  0  0
 30 32  1  0  0  0  0
 30 33  1  0  0  0  0
M  END
$$$$

  -OEChem-03222214083D

 33 33  0     1  0  0  0  0  0999 V2000
   -3.3778   -4.5781    0.6783 H   0  0  0  0  0  0  0  0  0  0  0  0
   -3.3218   -3.6427    0.1140 C   0  0  0  0  0  0  0  0  0  0  0  0
   -4.1127   -2.9743    0.4626 H   0  0  0  0  0  0  0  0  0  0  0  0
   -3.4775   -3.8617   -0.9452 H   0  0  0  0  0  0  0  0  0  0  0  0
   -1.9656   -2.9934    0.3157 C   0  0  0  0  0  0  0  0  0  0  0  0
   -1.1324   -3.5348    1.0197 O   0  0  0  0  0  0  0  0  0  0  0  0
   -1.6835   -1.7932   -0.3064 N   0  0  0  0  0  0  0  0  0  0  0  0
   -2.4166   -1.3831   -0.8752 H   0  0  0  0  0  0  0  0  0  0  0  0
   -0.4182   -1.0532   -0.1453 C   0  0  1  0  0  0  0  0  0  0  0  0
    0.3783   -1.7544   -0.4191 H   0  0  0  0  0  0  0  0  0  0  0  0
   -0.3573    0.0911   -1.1799 C   0  0  0  0  0  0  0  0  0  0  0  0
    0.6956    0.2682   -1.4242 H   0  0  0  0  0  0  0  0  0  0  0  0
   -0.8467   -0.2177   -2.1090 H   0  0  0  0  0  0  0  0  0  0  0  0
   -0.9507    1.3923   -0.6874 C   0  0  0  0  0  0  0  0  0  0  0  0
   -2.3112    1.6717   -0.8864 C   0  0  0  0  0  0  0  0  0  0  0  0
   -2.9421    0.9645   -1.4154 H   0  0  0  0  0  0  0  0  0  0  0  0
   -2.8664    2.8663   -0.4129 C   0  0  0  0  0  0  0  0  0  0  0  0
   -3.9191    3.0696   -0.5766 H   0  0  0  0  0  0  0  0  0  0  0  0
   -2.0682    3.7922    0.2626 C   0  0  0  0  0  0  0  0  0  0  0  0
   -2.6003    4.9586    0.7310 O   0  0  0  0  0  0  0  0  0  0  0  0
   -3.5357    5.0233    0.4848 H   0  0  0  0  0  0  0  0  0  0  0  0
   -0.7154    3.5229    0.4586 C   0  0  0  0  0  0  0  0  0  0  0  0
   -0.1006    4.2455    0.9859 H   0  0  0  0  0  0  0  0  0  0  0  0
   -0.1543    2.3325   -0.0152 C   0  0  0  0  0  0  0  0  0  0  0  0
    0.9002    2.1313    0.1590 H   0  0  0  0  0  0  0  0  0  0  0  0
   -0.0810   -0.6144    1.2991 C   0  0  0  0  0  0  0  0  0  0  0  0
    1.0904   -0.5676    1.6531 O   0  0  0  0  0  0  0  0  0  0  0  0
   -1.0499   -0.0460    2.1079 N   0  0  0  0  0  0  0  0  0  0  0  0
   -1.9667    0.0826    1.6940 H   0  0  0  0  0  0  0  0  0  0  0  0
   -0.7472    0.6209    3.3673 C   0  0  0  0  0  0  0  0  0  0  0  0
   -0.1132    1.4966    3.1936 H   0  0  0  0  0  0  0  0  0  0  0  0
   -1.6712    0.9508    3.8513 H   0  0  0  0  0  0  0  0  0  0  0  0
   -0.2274   -0.0626    4.0469 H   0  0  0  0  0  0  0  0  0  0  0  0
  1  2  1  0  0  0  0
  2  3  1  0  0  0  0
  2  4  1  0  0  0  0
  2  5  1  0  0  0  0
  5  6  2  0  0  0  0
  5  7  1  0  0  0  0
  7  8  1  0  0  0  0
  7  9  1  0  0  0  0
  9 10  1  0  0  0  0
  9 11  1  0  0  0  0
  9 26  1  0  0  0  0
 11 12  1  0  0  0  0
 11 13  1  0  0  0  0
 11 14  1  0  0  0  0
 14 15  2  0  0  0  0
 14 24  1  0  0  0  0
 15 16  1  0  0  0  0
 15 17  1  0  0  0  0
 17 18  1  0  0  0  0
 17 19  2  0  0  0  0
 19 20  1  0  0  0  0
 19 22  1  0  0  0  0
 20 21  1  0  0  0  0
 22 23  1  0  0  0  0
 22 24  2  0  0  0  0
 24 25  1  0  0  0  0
 26 27  2  0  0  0  0
 26 28  1  0  0  0  0
 28 29  1  0  0  0  0
 28 30  1  0  0  0  0
 30 31  1  0  0  0  0
 30 32  1  0  0  0  0
 30 33  1  0  0  0  0
M  END
$$$$

  -OEChem-03222214083D

 33 33  0     1  0  0  0  0  0999 V2000
   -3.3720   -4.6133    0.6539 H   0  0  0  0  0  0  0  0  0  0  0  0
   -3.3161   -3.6832    0.0809 C   0  0  0  0  0  0  0  0  0  0  0  0
   -4.1462   -3.0376    0.3770 H   0  0  0  0  0  0  0  0  0  0  0  0
   -3.4063   -3.9199   -0.9819 H   0  0  0  0  0  0  0  0  0  0  0  0
   -1.9956   -2.9855    0.3484 C   0  0  0  0  0  0  0  0  0  0  0  0
   -1.1954   -3.4802    1.1214 O   0  0  0  0  0  0  0  0  0  0  0  0
   -1.7078   -1.7966   -0.2933 N   0  0  0  0  0  0  0  0  0  0  0  0
   -2.3818   -1.4667   -0.9759 H   0  0  0  0  0  0  0  0  0  0  0  0
   -0.4393   -1.0589   -0.1404 C   0  0  1  0  0  0  0  0  0  0  0  0
    0.3530   -1.7684   -0.4043 H   0  0  0  0  0  0  0  0  0  0  0  0
   -0.3671    0.0770   -1.1837 C   0  0  0  0  0  0  0  0  0  0  0  0
    0.6870    0.2405   -1.4318 H   0  0  0  0  0  0  0  0  0  0  0  0
   -0.8634   -0.2303   -2.1096 H   0  0  0  0  0  0  0  0  0  0  0  0
   -0.9541    1.3844   -0.6981 C   0  0  0  0  0  0  0  0  0  0  0  0
   -2.3447    1.5542   -0.6113 C   0  0  0  0  0  0  0  0  0  0  0  0
   -3.0117    0.7608   -0.9318 H   0  0  0  0  0  0  0  0  0  0  0  0
   -2.8852    2.7472   -0.1169 C   0  0  0  0  0  0  0  0  0  0  0  0
   -3.9618    2.8646   -0.0589 H   0  0  0  0  0  0  0  0  0  0  0  0
   -2.0420    3.7801    0.2988 C   0  0  0  0  0  0  0  0  0  0  0  0
   -2.5565    4.9477    0.7844 O   0  0  0  0  0  0  0  0  0  0  0  0
   -3.5253    4.9267    0.7561 H   0  0  0  0  0  0  0  0  0  0  0  0
   -0.6607    3.6156    0.2196 C   0  0  0  0  0  0  0  0  0  0  0  0
   -0.0105    4.4189    0.5513 H   0  0  0  0  0  0  0  0  0  0  0  0
   -0.1150    2.4257   -0.2734 C   0  0  0  0  0  0  0  0  0  0  0  0
    0.9651    2.3085   -0.3073 H   0  0  0  0  0  0  0  0  0  0  0  0
   -0.0914   -0.5914    1.2936 C   0  0  0  0  0  0  0  0  0  0  0  0
    1.0830   -0.5524    1.6392 O   0  0  0  0  0  0  0  0  0  0  0  0
   -1.0481    0.0003    2.1001 N   0  0  0  0  0  0  0  0  0  0  0  0
   -1.9657    0.1318    1.6891 H   0  0  0  0  0  0  0  0  0  0  0  0
   -0.7240    0.7066    3.3325 C   0  0  0  0  0  0  0  0  0  0  0  0
   -0.1051    1.5840    3.1176 H   0  0  0  0  0  0  0  0  0  0  0  0
   -1.6402    1.0399    3.8289 H   0  0  0  0  0  0  0  0  0  0  0  0
   -0.1800    0.0493    4.0193 H   0  0  0  0  0  0  0  0  0  0  0  0
  1  2  1  0  0  0  0
  2  3  1  0  0  0  0
  2  4  1  0  0  0  0
  2  5  1  0  0  0  0
  5  6  2  0  0  0  0
  5  7  1  0  0  0  0
  7  8  1  0  0  0  0
  7  9  1  0  0  0  0
  9 10  1  0  0  0  0
  9 11  1  0  0  0  0
  9 26  1  0  0  0  0
 11 12  1  0  0  0  0
 11 13  1  0  0  0  0
 11 14  1  0  0  0  0
 14 15  2  0  0  0  0
 14 24  1  0  0  0  0
 15 16  1  0  0  0  0
 15 17  1  0  0  0  0
 17 18  1  0  0  0  0
 17 19  2  0  0  0  0
 19 20  1  0  0  0  0
 19 22  1  0  0  0  0
 20 21  1  0  0  0  0
 22 23  1  0  0  0  0
 22 24  2  0  0  0  0
 24 25  1  0  0  0  0
 26 27  2  0  0  0  0
 26 28  1  0  0  0  0
 28 29  1  0  0  0  0
 28 30  1  0  0  0  0
 30 31  1  0  0  0  0
 30 32  1  0  0  0  0
 30 33  1  0  0  0  0
M  END
$$$$

  -OEChem-03222214083D

 33 33  0     1  0  0  0  0  0999 V2000
   -3.3363   -4.6699    0.6128 H   0  0  0  0  0  0  0  0  0  0  0  0
   -3.2903   -3.7375    0.0425 C   0  0  0  0  0  0  0  0  0  0  0  0
   -4.1532   -3.1216    0.3064 H   0  0  0  0  0  0  0  0  0  0  0  0
   -3.3310   -3.9756   -1.0231 H   0  0  0  0  0  0  0  0  0  0  0  0
   -2.0055   -2.9954    0.3602 C   0  0  0  0  0  0  0  0  0  0  0  0
   -1.2192   -3.4632    1.1633 O   0  0  0  0  0  0  0  0  0  0  0  0
   -1.7348   -1.7960   -0.2693 N   0  0  0  0  0  0  0  0  0  0  0  0
   -2.3786   -1.5073   -0.9989 H   0  0  0  0  0  0  0  0  0  0  0  0
   -0.4697   -1.0516   -0.1182 C   0  0  1  0  0  0  0  0  0  0  0  0
    0.3195   -1.7608   -0.3927 H   0  0  0  0  0  0  0  0  0  0  0  0
   -0.3951    0.0858   -1.1595 C   0  0  0  0  0  0  0  0  0  0  0  0
    0.6616    0.2389   -1.4037 H   0  0  0  0  0  0  0  0  0  0  0  0
   -0.8896   -0.2244   -2.0853 H   0  0  0  0  0  0  0  0  0  0  0  0
   -0.9801    1.4056   -0.6982 C   0  0  0  0  0  0  0  0  0  0  0  0
   -2.3308    1.5094   -0.3245 C   0  0  0  0  0  0  0  0  0  0  0  0
   -2.9872    0.6491   -0.3995 H   0  0  0  0  0  0  0  0  0  0  0  0
   -2.8511    2.7235    0.1390 C   0  0  0  0  0  0  0  0  0  0  0  0
   -3.8975    2.7879    0.4167 H   0  0  0  0  0  0  0  0  0  0  0  0
   -2.0271    3.8458    0.2411 C   0  0  0  0  0  0  0  0  0  0  0  0
   -2.5225    5.0353    0.6914 O   0  0  0  0  0  0  0  0  0  0  0  0
   -3.4665    4.9508    0.8946 H   0  0  0  0  0  0  0  0  0  0  0  0
   -0.6850    3.7494   -0.1194 C   0  0  0  0  0  0  0  0  0  0  0  0
   -0.0482    4.6237   -0.0303 H   0  0  0  0  0  0  0  0  0  0  0  0
   -0.1601    2.5387   -0.5837 C   0  0  0  0  0  0  0  0  0  0  0  0
    0.8938    2.4836   -0.8421 H   0  0  0  0  0  0  0  0  0  0  0  0
   -0.0933   -0.5929    1.3115 C   0  0  0  0  0  0  0  0  0  0  0  0
    1.0880   -0.5616    1.6329 O   0  0  0  0  0  0  0  0  0  0  0  0
   -1.0286   -0.0113    2.1490 N   0  0  0  0  0  0  0  0  0  0  0  0
   -1.9679    0.0913    1.7824 H   0  0  0  0  0  0  0  0  0  0  0  0
   -0.6803    0.6544    3.3969 C   0  0  0  0  0  0  0  0  0  0  0  0
   -0.0446    1.5243    3.2010 H   0  0  0  0  0  0  0  0  0  0  0  0
   -1.5849    0.9937    3.9101 H   0  0  0  0  0  0  0  0  0  0  0  0
   -0.1447   -0.0330    4.0603 H   0  0  0  0  0  0  0  0  0  0  0  0
  1  2  1  0  0  0  0
  2  3  1  0  0  0  0
  2  4  1  0  0  0  0
  2  5  1  0  0  0  0
  5  6  2  0  0  0  0
  5  7  1  0  0  0  0
  7  8  1  0  0  0  0
  7  9  1  0  0  0  0
  9 10  1  0  0  0  0
  9 11  1  0  0  0  0
  9 26  1  0  0  0  0
 11 12  1  0  0  0  0
 11 13  1  0  0  0  0
 11 14  1  0  0  0  0
 14 15  2  0  0  0  0
 14 24  1  0  0  0  0
 15 16  1  0  0  0  0
 15 17  1  0  0  0  0
 17 18  1  0  0  0  0
 17 19  2  0  0  0  0
 19 20  1  0  0  0  0
 19 22  1  0  0  0  0
 20 21  1  0  0  0  0
 22 23  1  0  0  0  0
 22 24  2  0  0  0  0
 24 25  1  0  0  0  0
 26 27  2  0  0  0  0
 26 28  1  0  0  0  0
 28 29  1  0  0  0  0
 28 30  1  0  0  0  0
 30 31  1  0  0  0  0
 30 32  1  0  0  0  0
 30 33  1  0  0  0  0
M  END
$$$$

  -OEChem-03222214083D

 33 33  0     1  0  0  0  0  0999 V2000
   -3.2869   -4.7218    0.5426 H   0  0  0  0  0  0  0  0  0  0  0  0
   -3.2582   -3.7718    0.0013 C   0  0  0  0  0  0  0  0  0  0  0  0
   -4.1363   -3.1833    0.2773 H   0  0  0  0  0  0  0  0  0  0  0  0
   -3.2871   -3.9785   -1.0713 H   0  0  0  0  0  0  0  0  0  0  0  0
   -1.9926   -3.0114    0.3494 C   0  0  0  0  0  0  0  0  0  0  0  0
   -1.2010   -3.4826    1.1454 O   0  0  0  0  0  0  0  0  0  0  0  0
   -1.7504   -1.7847   -0.2367 N   0  0  0  0  0  0  0  0  0  0  0  0
   -2.4027   -1.4857   -0.9552 H   0  0  0  0  0  0  0  0  0  0  0  0
   -0.4952   -1.0259   -0.0794 C   0  0  1  0  0  0  0  0  0  0  0  0
    0.2911   -1.7300   -0.3752 H   0  0  0  0  0  0  0  0  0  0  0  0
   -0.4211    0.1156   -1.1170 C   0  0  0  0  0  0  0  0  0  0  0  0
    0.6393    0.2692   -1.3443 H   0  0  0  0  0  0  0  0  0  0  0  0
   -0.8989   -0.2047   -2.0478 H   0  0  0  0  0  0  0  0  0  0  0  0
   -1.0113    1.4495   -0.6969 C   0  0  0  0  0  0  0  0  0  0  0  0
   -2.2597    1.5429   -0.0565 C   0  0  0  0  0  0  0  0  0  0  0  0
   -2.8510    0.6527    0.1269 H   0  0  0  0  0  0  0  0  0  0  0  0
   -2.7675    2.7843    0.3445 C   0  0  0  0  0  0  0  0  0  0  0  0
   -3.7330    2.8363    0.8358 H   0  0  0  0  0  0  0  0  0  0  0  0
   -2.0360    3.9496    0.1101 C   0  0  0  0  0  0  0  0  0  0  0  0
   -2.5189    5.1666    0.4965 O   0  0  0  0  0  0  0  0  0  0  0  0
   -3.3652    5.0610    0.9570 H   0  0  0  0  0  0  0  0  0  0  0  0
   -0.8001    3.8686   -0.5260 C   0  0  0  0  0  0  0  0  0  0  0  0
   -0.2352    4.7782   -0.7021 H   0  0  0  0  0  0  0  0  0  0  0  0
   -0.2876    2.6301   -0.9263 C   0  0  0  0  0  0  0  0  0  0  0  0
    0.6844    2.5934   -1.4097 H   0  0  0  0  0  0  0  0  0  0  0  0
   -0.0833   -0.6076    1.3529 C   0  0  0  0  0  0  0  0  0  0  0  0
    1.1074   -0.5633    1.6358 O   0  0  0  0  0  0  0  0  0  0  0  0
   -0.9945   -0.0678    2.2426 N   0  0  0  0  0  0  0  0  0  0  0  0
   -1.9695   -0.0782    1.9690 H   0  0  0  0  0  0  0  0  0  0  0  0
   -0.6224    0.4966    3.5329 C   0  0  0  0  0  0  0  0  0  0  0  0
    0.0616    1.3410    3.3969 H   0  0  0  0  0  0  0  0  0  0  0  0
   -1.5122    0.8538    4.0599 H   0  0  0  0  0  0  0  0  0  0  0  0
   -0.1314   -0.2599    4.1542 H   0  0  0  0  0  0  0  0  0  0  0  0
  1  2  1  0  0  0  0
  2  3  1  0  0  0  0
  2  4  1  0  0  0  0
  2  5  1  0  0  0  0
  5  6  2  0  0  0  0
  5  7  1  0  0  0  0
  7  8  1  0  0  0  0
  7  9  1  0  0  0  0
  9 10  1  0  0  0  0
  9 11  1  0  0  0  0
  9 26  1  0  0  0  0
 11 12  1  0  0  0  0
 11 13  1  0  0  0  0
 11 14  1  0  0  0  0
 14 15  2  0  0  0  0
 14 24  1  0  0  0  0
 15 16  1  0  0  0  0
 15 17  1  0  0  0  0
 17 18  1  0  0  0  0
 17 19  2  0  0  0  0
 19 20  1  0  0  0  0
 19 22  1  0  0  0  0
 20 21  1  0  0  0  0
 22 23  1  0  0  0  0
 22 24  2  0  0  0  0
 24 25  1  0  0  0  0
 26 27  2  0  0  0  0
 26 28  1  0  0  0  0
 28 29  1  0  0  0  0
 28 30  1  0  0  0  0
 30 31  1  0  0  0  0
 30 32  1  0  0  0  0
 30 33  1  0  0  0  0
M  END
$$$$

  -OEChem-03222214083D

 33 33  0     1  0  0  0  0  0999 V2000
   -3.2060   -4.7705    0.5015 H   0  0  0  0  0  0  0  0  0  0  0  0
   -3.2076   -3.8062   -0.0150 C   0  0  0  0  0  0  0  0  0  0  0  0
   -4.0953   -3.2461    0.2888 H   0  0  0  0  0  0  0  0  0  0  0  0
   -3.2473   -3.9853   -1.0923 H   0  0  0  0  0  0  0  0  0  0  0  0
   -1.9546   -3.0255    0.3352 C   0  0  0  0  0  0  0  0  0  0  0  0
   -1.1321   -3.5063    1.0934 O   0  0  0  0  0  0  0  0  0  0  0  0
   -1.7614   -1.7649   -0.1947 N   0  0  0  0  0  0  0  0  0  0  0  0
   -2.4478   -1.4411   -0.8700 H   0  0  0  0  0  0  0  0  0  0  0  0
   -0.5242   -0.9783   -0.0322 C   0  0  1  0  0  0  0  0  0  0  0  0
    0.2638   -1.6706   -0.3516 H   0  0  0  0  0  0  0  0  0  0  0  0
   -0.4492    0.1648   -1.0695 C   0  0  0  0  0  0  0  0  0  0  0  0
    0.6152    0.3277   -1.2722 H   0  0  0  0  0  0  0  0  0  0  0  0
   -0.9010   -0.1737   -2.0068 H   0  0  0  0  0  0  0  0  0  0  0  0
   -1.0517    1.5107   -0.7057 C   0  0  0  0  0  0  0  0  0  0  0  0
   -2.1510    1.6528    0.1586 C   0  0  0  0  0  0  0  0  0  0  0  0
   -2.6452    0.7810    0.5703 H   0  0  0  0  0  0  0  0  0  0  0  0
   -2.6493    2.9203    0.4836 C   0  0  0  0  0  0  0  0  0  0  0  0
   -3.4980    3.0064    1.1531 H   0  0  0  0  0  0  0  0  0  0  0  0
   -2.0595    4.0653   -0.0534 C   0  0  0  0  0  0  0  0  0  0  0  0
   -2.5341    5.3066    0.2580 O   0  0  0  0  0  0  0  0  0  0  0  0
   -3.2391    5.2379    0.9196 H   0  0  0  0  0  0  0  0  0  0  0  0
   -0.9761    3.9374   -0.9181 C   0  0  0  0  0  0  0  0  0  0  0  0
   -0.5214    4.8314   -1.3325 H   0  0  0  0  0  0  0  0  0  0  0  0
   -0.4738    2.6727   -1.2422 C   0  0  0  0  0  0  0  0  0  0  0  0
    0.3784    2.6001   -1.9119 H   0  0  0  0  0  0  0  0  0  0  0  0
   -0.0771   -0.6138    1.4048 C   0  0  0  0  0  0  0  0  0  0  0  0
    1.1209   -0.5328    1.6440 O   0  0  0  0  0  0  0  0  0  0  0  0
   -0.9691   -0.1430    2.3516 N   0  0  0  0  0  0  0  0  0  0  0  0
   -1.9515   -0.3096    2.1687 H   0  0  0  0  0  0  0  0  0  0  0  0
   -0.5650    0.2804    3.6858 C   0  0  0  0  0  0  0  0  0  0  0  0
    0.1209    1.1320    3.6250 H   0  0  0  0  0  0  0  0  0  0  0  0
   -1.4403    0.5843    4.2675 H   0  0  0  0  0  0  0  0  0  0  0  0
   -0.0644   -0.5393    4.2122 H   0  0  0  0  0  0  0  0  0  0  0  0
  1  2  1  0  0  0  0
  2  3  1  0  0  0  0
  2  4  1  0  0  0  0
  2  5  1  0  0  0  0
  5  6  2  0  0  0  0
  5  7  1  0  0  0  0
  7  8  1  0  0  0  0
  7  9  1  0  0  0  0
  9 10  1  0  0  0  0
  9 11  1  0  0  0  0
  9 26  1  0  0  0  0
 11 12  1  0  0  0  0
 11 13  1  0  0  0  0
 11 14  1  0  0  0  0
 14 15  2  0  0  0  0
 14 24  1  0  0  0  0
 15 16  1  0  0  0  0
 15 17  1  0  0  0  0
 17 18  1  0  0  0  0
 17 19  2  0  0  0  0
 19 20  1  0  0  0  0
 19 22  1  0  0  0  0
 20 21  1  0  0  0  0
 22 23  1  0  0  0  0
 22 24  2  0  0  0  0
 24 25  1  0  0  0  0
 26 27  2  0  0  0  0
 26 28  1  0  0  0  0
 28 29  1  0  0  0  0
 28 30  1  0  0  0  0
 30 31  1  0  0  0  0
 30 32  1  0  0  0  0
 30 33  1  0  0  0  0
M  END
$$$$

  -OEChem-03222214083D

 33 33  0     1  0  0  0  0  0999 V2000
   -3.2871   -4.7585    0.0173 H   0  0  0  0  0  0  0  0  0  0  0  0
   -3.2406   -3.7483   -0.3999 C   0  0  0  0  0  0  0  0  0  0  0  0
   -4.1559   -3.2146   -0.1327 H   0  0  0  0  0  0  0  0  0  0  0  0
   -3.1731   -3.8215   -1.4881 H   0  0  0  0  0  0  0  0  0  0  0  0
   -2.0305   -3.0143    0.1468 C   0  0  0  0  0  0  0  0  0  0  0  0
   -1.2998   -3.5630    0.9519 O   0  0  0  0  0  0  0  0  0  0  0  0
   -1.7763   -1.7171   -0.2528 N   0  0  0  0  0  0  0  0  0  0  0  0
   -2.3957   -1.3235   -0.9555 H   0  0  0  0  0  0  0  0  0  0  0  0
   -0.5620   -0.9602    0.1024 C   0  0  1  0  0  0  0  0  0  0  0  0
    0.2379   -1.6645   -0.1564 H   0  0  0  0  0  0  0  0  0  0  0  0
   -0.3002    0.2066   -0.8789 C   0  0  0  0  0  0  0  0  0  0  0  0
    0.7872    0.3395   -0.9099 H   0  0  0  0  0  0  0  0  0  0  0  0
   -0.6084   -0.1076   -1.8810 H   0  0  0  0  0  0  0  0  0  0  0  0
   -0.8974    1.5785   -0.6139 C   0  0  0  0  0  0  0  0  0  0  0  0
   -1.9345    1.8315    0.2998 C   0  0  0  0  0  0  0  0  0  0  0  0
   -2.4315    1.0218    0.8150 H   0  0  0  0  0  0  0  0  0  0  0  0
   -2.3944    3.1350    0.5239 C   0  0  0  0  0  0  0  0  0  0  0  0
   -3.2007    3.3033    1.2293 H   0  0  0  0  0  0  0  0  0  0  0  0
   -1.8247    4.2085   -0.1610 C   0  0  0  0  0  0  0  0  0  0  0  0
   -2.2630    5.4836    0.0502 O   0  0  0  0  0  0  0  0  0  0  0  0
   -2.9211    5.4960    0.7619 H   0  0  0  0  0  0  0  0  0  0  0  0
   -0.8008    3.9729   -1.0730 C   0  0  0  0  0  0  0  0  0  0  0  0
   -0.3598    4.8120   -1.6013 H   0  0  0  0  0  0  0  0  0  0  0  0
   -0.3394    2.6717   -1.2972 C   0  0  0  0  0  0  0  0  0  0  0  0
    0.4710    2.5158   -2.0037 H   0  0  0  0  0  0  0  0  0  0  0  0
   -0.2582   -0.7132    1.6010 C   0  0  0  0  0  0  0  0  0  0  0  0
    0.9115   -0.6509    1.9572 O   0  0  0  0  0  0  0  0  0  0  0  0
   -1.2339   -0.3090    2.4946 N   0  0  0  0  0  0  0  0  0  0  0  0
   -2.1909   -0.5061    2.2238 H   0  0  0  0  0  0  0  0  0  0  0  0
   -0.9517   -0.0304    3.8973 C   0  0  0  0  0  0  0  0  0  0  0  0
   -0.2477    0.8035    3.9879 H   0  0  0  0  0  0  0  0  0  0  0  0
   -1.8732    0.2375    4.4224 H   0  0  0  0  0  0  0  0  0  0  0  0
   -0.5181   -0.9113    4.3824 H   0  0  0  0  0  0  0  0  0  0  0  0
  1  2  1  0  0  0  0
  2  3  1  0  0  0  0
  2  4  1  0  0  0  0
  2  5  1  0  0  0  0
  5  6  2  0  0  0  0
  5  7  1  0  0  0  0
  7  8  1  0  0  0  0
  7  9  1  0  0  0  0
  9 10  1  0  0  0  0
  9 11  1  0  0  0  0
  9 26  1  0  0  0  0
 11 12  1  0  0  0  0
 11 13  1  0  0  0  0
 11 14  1  0  0  0  0
 14 15  2  0  0  0  0
 14 24  1  0  0  0  0
 15 16  1  0  0  0  0
 15 17  1  0  0  0  0
 17 18  1  0  0  0  0
 17 19  2  0  0  0  0
 19 20  1  0  0  0  0
 19 22  1  0  0  0  0
 20 21  1  0  0  0  0
 22 23  1  0  0  0  0
 22 24  2  0  0  0  0
 24 25  1  0  0  0  0
 26 27  2  0  0  0  0
 26 28  1  0  0  0  0
 28 29  1  0  0  0  0
 28 30  1  0  0  0  0
 30 31  1  0  0  0  0
 30 32  1  0  0  0  0
 30 33  1  0  0  0  0
M  END
$$$$

  -OEChem-03222214083D

 33 33  0     1  0  0  0  0  0999 V2000
   -3.1630   -4.8207    0.2187 H   0  0  0  0  0  0  0  0  0  0  0  0
   -3.1989   -3.8026   -0.1798 C   0  0  0  0  0  0  0  0  0  0  0  0
   -4.0875   -3.3027    0.2127 H   0  0  0  0  0  0  0  0  0  0  0  0
   -3.2685   -3.8548   -1.2690 H   0  0  0  0  0  0  0  0  0  0  0  0
   -1.9506   -3.0404    0.2243 C   0  0  0  0  0  0  0  0  0  0  0  0
   -1.0913   -3.5915    0.8885 O   0  0  0  0  0  0  0  0  0  0  0  0
   -1.8034   -1.7172   -0.1437 N   0  0  0  0  0  0  0  0  0  0  0  0
   -2.5392   -1.3134   -0.7167 H   0  0  0  0  0  0  0  0  0  0  0  0
   -0.5879   -0.9154    0.0885 C   0  0  1  0  0  0  0  0  0  0  0  0
    0.1981   -1.5884   -0.2752 H   0  0  0  0  0  0  0  0  0  0  0  0
   -0.4652    0.2574   -0.9160 C   0  0  0  0  0  0  0  0  0  0  0  0
    0.6098    0.4227   -1.0517 H   0  0  0  0  0  0  0  0  0  0  0  0
   -0.8534   -0.0889   -1.8794 H   0  0  0  0  0  0  0  0  0  0  0  0
   -1.0621    1.6312   -0.6468 C   0  0  0  0  0  0  0  0  0  0  0  0
   -1.7808    2.0090    0.5002 C   0  0  0  0  0  0  0  0  0  0  0  0
   -2.0251    1.3024    1.2747 H   0  0  0  0  0  0  0  0  0  0  0  0
   -2.2509    3.3188    0.6585 C   0  0  0  0  0  0  0  0  0  0  0  0
   -2.8062    3.5805    1.5525 H   0  0  0  0  0  0  0  0  0  0  0  0
   -2.0120    4.2772   -0.3259 C   0  0  0  0  0  0  0  0  0  0  0  0
   -2.4652    5.5567   -0.1817 O   0  0  0  0  0  0  0  0  0  0  0  0
   -2.8772    5.6676    0.6889 H   0  0  0  0  0  0  0  0  0  0  0  0
   -1.3050    3.9195   -1.4688 C   0  0  0  0  0  0  0  0  0  0  0  0
   -1.1185    4.6683   -2.2317 H   0  0  0  0  0  0  0  0  0  0  0  0
   -0.8328    2.6127   -1.6265 C   0  0  0  0  0  0  0  0  0  0  0  0
   -0.2721    2.3637   -2.5230 H   0  0  0  0  0  0  0  0  0  0  0  0
   -0.1118   -0.7170    1.5483 C   0  0  0  0  0  0  0  0  0  0  0  0
    1.0878   -0.5997    1.7618 O   0  0  0  0  0  0  0  0  0  0  0  0
   -0.9885   -0.4008    2.5710 N   0  0  0  0  0  0  0  0  0  0  0  0
   -1.9615   -0.6376    2.4077 H   0  0  0  0  0  0  0  0  0  0  0  0
   -0.5506   -0.1658    3.9418 C   0  0  0  0  0  0  0  0  0  0  0  0
    0.1575    0.6688    3.9811 H   0  0  0  0  0  0  0  0  0  0  0  0
   -1.4077    0.0813    4.5754 H   0  0  0  0  0  0  0  0  0  0  0  0
   -0.0639   -1.0595    4.3465 H   0  0  0  0  0  0  0  0  0  0  0  0
  1  2  1  0  0  0  0
  2  3  1  0  0  0  0
  2  4  1  0  0  0  0
  2  5  1  0  0  0  0
  5  6  2  0  0  0  0
  5  7  1  0  0  0  0
  7  8  1  0  0  0  0
  7  9  1  0  0  0  0
  9 10  1  0  0  0  0
  9 11  1  0  0  0  0
  9 26  1  0  0  0  0
 11 12  1  0  0  0  0
 11 13  1  0  0  0  0
 11 14  1  0  0  0  0
 14 15  2  0  0  0  0
 14 24  1  0  0  0  0
 15 16  1  0  0  0  0
 15 17  1  0  0  0  0
 17 18  1  0  0  0  0
 17 19  2  0  0  0  0
 19 20  1  0  0  0  0
 19 22  1  0  0  0  0
 20 21  1  0  0  0  0
 22 23  1  0  0  0  0
 22 24  2  0  0  0  0
 24 25  1  0  0  0  0
 26 27  2  0  0  0  0
 26 28  1  0  0  0  0
 28 29  1  0  0  0  0
 28 30  1  0  0  0  0
 30 31  1  0  0  0  0
 30 32  1  0  0  0  0
 30 33  1  0  0  0  0
M  END
$$$$

  -OEChem-03222214083D

 33 33  0     1  0  0  0  0  0999 V2000
   -3.3365   -4.6981    0.4431 H   0  0  0  0  0  0  0  0  0  0  0  0
   -3.3489   -3.6879    0.0239 C   0  0  0  0  0  0  0  0  0  0  0  0
   -4.1604   -3.1243    0.4901 H   0  0  0  0  0  0  0  0  0  0  0  0
   -3.5314   -3.7561   -1.0512 H   0  0  0  0  0  0  0  0  0  0  0  0
   -2.0213   -3.0000    0.2806 C   0  0  0  0  0  0  0  0  0  0  0  0
   -1.1183   -3.6071    0.8276 O   0  0  0  0  0  0  0  0  0  0  0  0
   -1.8496   -1.6815   -0.0932 N   0  0  0  0  0  0  0  0  0  0  0  0
   -2.6340   -1.2249   -0.5508 H   0  0  0  0  0  0  0  0  0  0  0  0
   -0.5888   -0.9276    0.0376 C   0  0  1  0  0  0  0  0  0  0  0  0
    0.1492   -1.6145   -0.3941 H   0  0  0  0  0  0  0  0  0  0  0  0
   -0.5399    0.2523   -0.9694 C   0  0  0  0  0  0  0  0  0  0  0  0
    0.5198    0.3889   -1.2119 H   0  0  0  0  0  0  0  0  0  0  0  0
   -1.0261   -0.0927   -1.8879 H   0  0  0  0  0  0  0  0  0  0  0  0
   -1.0586    1.6541   -0.6679 C   0  0  0  0  0  0  0  0  0  0  0  0
   -1.3717    2.1808    0.5978 C   0  0  0  0  0  0  0  0  0  0  0  0
   -1.2286    1.6227    1.5052 H   0  0  0  0  0  0  0  0  0  0  0  0
   -1.8586    3.4866    0.7386 C   0  0  0  0  0  0  0  0  0  0  0  0
   -2.0831    3.8662    1.7294 H   0  0  0  0  0  0  0  0  0  0  0  0
   -2.0449    4.2950   -0.3812 C   0  0  0  0  0  0  0  0  0  0  0  0
   -2.5130    5.5709   -0.2532 O   0  0  0  0  0  0  0  0  0  0  0  0
   -2.5926    5.8033    0.6849 H   0  0  0  0  0  0  0  0  0  0  0  0
   -1.7406    3.7929   -1.6411 C   0  0  0  0  0  0  0  0  0  0  0  0
   -1.8821    4.4253   -2.5115 H   0  0  0  0  0  0  0  0  0  0  0  0
   -1.2511    2.4908   -1.7824 C   0  0  0  0  0  0  0  0  0  0  0  0
   -1.0168    2.1301   -2.7800 H   0  0  0  0  0  0  0  0  0  0  0  0
   -0.0271   -0.7846    1.4714 C   0  0  0  0  0  0  0  0  0  0  0  0
    1.1844   -0.7168    1.6304 O   0  0  0  0  0  0  0  0  0  0  0  0
   -0.8469   -0.4582    2.5380 N   0  0  0  0  0  0  0  0  0  0  0  0
   -1.8391   -0.6214    2.4000 H   0  0  0  0  0  0  0  0  0  0  0  0
   -0.3479   -0.3088    3.8999 C   0  0  0  0  0  0  0  0  0  0  0  0
    0.4164    0.4743    3.9455 H   0  0  0  0  0  0  0  0  0  0  0  0
   -1.1642   -0.0317    4.5738 H   0  0  0  0  0  0  0  0  0  0  0  0
    0.0899   -1.2492    4.2513 H   0  0  0  0  0  0  0  0  0  0  0  0
  1  2  1  0  0  0  0
  2  3  1  0  0  0  0
  2  4  1  0  0  0  0
  2  5  1  0  0  0  0
  5  6  2  0  0  0  0
  5  7  1  0  0  0  0
  7  8  1  0  0  0  0
  7  9  1  0  0  0  0
  9 10  1  0  0  0  0
  9 11  1  0  0  0  0
  9 26  1  0  0  0  0
 11 12  1  0  0  0  0
 11 13  1  0  0  0  0
 11 14  1  0  0  0  0
 14 15  2  0  0  0  0
 14 24  1  0  0  0  0
 15 16  1  0  0  0  0
 15 17  1  0  0  0  0
 17 18  1  0  0  0  0
 17 19  2  0  0  0  0
 19 20  1  0  0  0  0
 19 22  1  0  0  0  0
 20 21  1  0  0  0  0
 22 23  1  0  0  0  0
 22 24  2  0  0  0  0
 24 25  1  0  0  0  0
 26 27  2  0  0  0  0
 26 28  1  0  0  0  0
 28 29  1  0  0  0  0
 28 30  1  0  0  0  0
 30 31  1  0  0  0  0
 30 32  1  0  0  0  0
 30 33  1  0  0  0  0
M  END
$$$$

  -OEChem-03222214083D

 33 33  0     1  0  0  0  0  0999 V2000
   -3.3856   -4.5890    0.5177 H   0  0  0  0  0  0  0  0  0  0  0  0
   -3.3517   -3.6028    0.0457 C   0  0  0  0  0  0  0  0  0  0  0  0
   -4.1386   -2.9801    0.4777 H   0  0  0  0  0  0  0  0  0  0  0  0
   -3.5343   -3.7197   -1.0252 H   0  0  0  0  0  0  0  0  0  0  0  0
   -1.9953   -2.9618    0.2727 C   0  0  0  0  0  0  0  0  0  0  0  0
   -1.1191   -3.5839    0.8458 O   0  0  0  0  0  0  0  0  0  0  0  0
   -1.7630   -1.6730   -0.1675 N   0  0  0  0  0  0  0  0  0  0  0  0
   -2.5296   -1.1991   -0.6371 H   0  0  0  0  0  0  0  0  0  0  0  0
   -0.4814   -0.9545   -0.0288 C   0  0  1  0  0  0  0  0  0  0  0  0
    0.2675   -1.6504   -0.4250 H   0  0  0  0  0  0  0  0  0  0  0  0
   -0.4394    0.2286   -1.0352 C   0  0  0  0  0  0  0  0  0  0  0  0
    0.6172    0.3638   -1.2895 H   0  0  0  0  0  0  0  0  0  0  0  0
   -0.9340   -0.1095   -1.9517 H   0  0  0  0  0  0  0  0  0  0  0  0
   -0.9438    1.6286   -0.6970 C   0  0  0  0  0  0  0  0  0  0  0  0
   -0.9339    2.2207    0.5794 C   0  0  0  0  0  0  0  0  0  0  0  0
   -0.4257    1.7649    1.4158 H   0  0  0  0  0  0  0  0  0  0  0  0
   -1.4990    3.4828    0.7976 C   0  0  0  0  0  0  0  0  0  0  0  0
   -1.4568    3.9180    1.7904 H   0  0  0  0  0  0  0  0  0  0  0  0
   -2.0924    4.1804   -0.2528 C   0  0  0  0  0  0  0  0  0  0  0  0
   -2.6455    5.4117   -0.0509 O   0  0  0  0  0  0  0  0  0  0  0  0
   -2.4934    5.6983    0.8629 H   0  0  0  0  0  0  0  0  0  0  0  0
   -2.1067    3.6162   -1.5234 C   0  0  0  0  0  0  0  0  0  0  0  0
   -2.5633    4.1652   -2.3406 H   0  0  0  0  0  0  0  0  0  0  0  0
   -1.5381    2.3577   -1.7442 C   0  0  0  0  0  0  0  0  0  0  0  0
   -1.5710    1.9459   -2.7486 H   0  0  0  0  0  0  0  0  0  0  0  0
   -0.0163   -0.7741    1.4331 C   0  0  0  0  0  0  0  0  0  0  0  0
    1.1806   -0.7459    1.6864 O   0  0  0  0  0  0  0  0  0  0  0  0
   -0.9096   -0.3734    2.4129 N   0  0  0  0  0  0  0  0  0  0  0  0
   -1.8945   -0.4510    2.1805 H   0  0  0  0  0  0  0  0  0  0  0  0
   -0.5289   -0.1945    3.8084 C   0  0  0  0  0  0  0  0  0  0  0  0
    0.2664    0.5529    3.8976 H   0  0  0  0  0  0  0  0  0  0  0  0
   -1.3879    0.1461    4.3940 H   0  0  0  0  0  0  0  0  0  0  0  0
   -0.1727   -1.1400    4.2306 H   0  0  0  0  0  0  0  0  0  0  0  0
  1  2  1  0  0  0  0
  2  3  1  0  0  0  0
  2  4  1  0  0  0  0
  2  5  1  0  0  0  0
  5  6  2  0  0  0  0
  5  7  1  0  0  0  0
  7  8  1  0  0  0  0
  7  9  1  0  0  0  0
  9 10  1  0  0  0  0
  9 11  1  0  0  0  0
  9 26  1  0  0  0  0
 11 12  1  0  0  0  0
 11 13  1  0  0  0  0
 11 14  1  0  0  0  0
 14 15  2  0  0  0  0
 14 24  1  0  0  0  0
 15 16  1  0  0  0  0
 15 17  1  0  0  0  0
 17 18  1  0  0  0  0
 17 19  2  0  0  0  0
 19 20  1  0  0  0  0
 19 22  1  0  0  0  0
 20 21  1  0  0  0  0
 22 23  1  0  0  0  0
 22 24  2  0  0  0  0
 24 25  1  0  0  0  0
 26 27  2  0  0  0  0
 26 28  1  0  0  0  0
 28 29  1  0  0  0  0
 28 30  1  0  0  0  0
 30 31  1  0  0  0  0
 30 32  1  0  0  0  0
 30 33  1  0  0  0  0
M  END
$$$$

  -OEChem-03222214083D

 33 33  0     1  0  0  0  0  0999 V2000
   -3.4067   -4.5333    0.6070 H   0  0  0  0  0  0  0  0  0  0  0  0
   -3.3499   -3.5691    0.0935 C   0  0  0  0  0  0  0  0  0  0  0  0
   -4.1182   -2.9082    0.5018 H   0  0  0  0  0  0  0  0  0  0  0  0
   -3.5400   -3.7262   -0.9710 H   0  0  0  0  0  0  0  0  0  0  0  0
   -1.9767   -2.9544    0.2883 C   0  0  0  0  0  0  0  0  0  0  0  0
   -1.1196   -3.5654    0.9009 O   0  0  0  0  0  0  0  0  0  0  0  0
   -1.7079   -1.7017   -0.2278 N   0  0  0  0  0  0  0  0  0  0  0  0
   -2.4655   -1.2275   -0.7109 H   0  0  0  0  0  0  0  0  0  0  0  0
   -0.4231   -0.9920   -0.0800 C   0  0  1  0  0  0  0  0  0  0  0  0
    0.3423   -1.6963   -0.4265 H   0  0  0  0  0  0  0  0  0  0  0  0
   -0.3831    0.1712   -1.1073 C   0  0  0  0  0  0  0  0  0  0  0  0
    0.6728    0.3197   -1.3575 H   0  0  0  0  0  0  0  0  0  0  0  0
   -0.8684   -0.1709   -2.0270 H   0  0  0  0  0  0  0  0  0  0  0  0
   -0.9093    1.5530   -0.7386 C   0  0  0  0  0  0  0  0  0  0  0  0
   -0.6231    2.2149    0.4697 C   0  0  0  0  0  0  0  0  0  0  0  0
    0.1008    1.8155    1.1712 H   0  0  0  0  0  0  0  0  0  0  0  0
   -1.2074    3.4501    0.7728 C   0  0  0  0  0  0  0  0  0  0  0  0
   -0.9554    3.9408    1.7066 H   0  0  0  0  0  0  0  0  0  0  0  0
   -2.0929    4.0480   -0.1225 C   0  0  0  0  0  0  0  0  0  0  0  0
   -2.6660    5.2533    0.1625 O   0  0  0  0  0  0  0  0  0  0  0  0
   -2.3063    5.6038    0.9922 H   0  0  0  0  0  0  0  0  0  0  0  0
   -2.3854    3.4094   -1.3235 C   0  0  0  0  0  0  0  0  0  0  0  0
   -3.0715    3.8817   -2.0190 H   0  0  0  0  0  0  0  0  0  0  0  0
   -1.8010    2.1761   -1.6302 C   0  0  0  0  0  0  0  0  0  0  0  0
   -2.0553    1.7033   -2.5742 H   0  0  0  0  0  0  0  0  0  0  0  0
   -0.0266   -0.7219    1.3878 C   0  0  0  0  0  0  0  0  0  0  0  0
    1.1561   -0.7021    1.7024 O   0  0  0  0  0  0  0  0  0  0  0  0
   -0.9609   -0.2442    2.2913 N   0  0  0  0  0  0  0  0  0  0  0  0
   -1.9308   -0.2564    1.9941 H   0  0  0  0  0  0  0  0  0  0  0  0
   -0.6476    0.0706    3.6789 C   0  0  0  0  0  0  0  0  0  0  0  0
    0.1259    0.8437    3.7320 H   0  0  0  0  0  0  0  0  0  0  0  0
   -1.5400    0.4395    4.1931 H   0  0  0  0  0  0  0  0  0  0  0  0
   -0.2898   -0.8229    4.2014 H   0  0  0  0  0  0  0  0  0  0  0  0
  1  2  1  0  0  0  0
  2  3  1  0  0  0  0
  2  4  1  0  0  0  0
  2  5  1  0  0  0  0
  5  6  2  0  0  0  0
  5  7  1  0  0  0  0
  7  8  1  0  0  0  0
  7  9  1  0  0  0  0
  9 10  1  0  0  0  0
  9 11  1  0  0  0  0
  9 26  1  0  0  0  0
 11 12  1  0  0  0  0
 11 13  1  0  0  0  0
 11 14  1  0  0  0  0
 14 15  2  0  0  0  0
 14 24  1  0  0  0  0
 15 16  1  0  0  0  0
 15 17  1  0  0  0  0
 17 18  1  0  0  0  0
 17 19  2  0  0  0  0
 19 20  1  0  0  0  0
 19 22  1  0  0  0  0
 20 21  1  0  0  0  0
 22 23  1  0  0  0  0
 22 24  2  0  0  0  0
 24 25  1  0  0  0  0
 26 27  2  0  0  0  0
 26 28  1  0  0  0  0
 28 29  1  0  0  0  0
 28 30  1  0  0  0  0
 30 31  1  0  0  0  0
 30 32  1  0  0  0  0
 30 33  1  0  0  0  0
M  END
$$$$

  -OEChem-03222214083D

 33 33  0     1  0  0  0  0  0999 V2000
   -3.4073   -4.5163    0.6659 H   0  0  0  0  0  0  0  0  0  0  0  0
   -3.3417   -3.5701    0.1210 C   0  0  0  0  0  0  0  0  0  0  0  0
   -4.1078   -2.8911    0.5030 H   0  0  0  0  0  0  0  0  0  0  0  0
   -3.5278   -3.7613   -0.9385 H   0  0  0  0  0  0  0  0  0  0  0  0
   -1.9654   -2.9577    0.3025 C   0  0  0  0  0  0  0  0  0  0  0  0
   -1.1195   -3.5463    0.9515 O   0  0  0  0  0  0  0  0  0  0  0  0
   -1.6804   -1.7342   -0.2715 N   0  0  0  0  0  0  0  0  0  0  0  0
   -2.4317   -1.2745   -0.7769 H   0  0  0  0  0  0  0  0  0  0  0  0
   -0.4012   -1.0167   -0.1156 C   0  0  1  0  0  0  0  0  0  0  0  0
    0.3795   -1.7243   -0.4172 H   0  0  0  0  0  0  0  0  0  0  0  0
   -0.3518    0.1264   -1.1610 C   0  0  0  0  0  0  0  0  0  0  0  0
    0.7037    0.2872   -1.4046 H   0  0  0  0  0  0  0  0  0  0  0  0
   -0.8301   -0.2151   -2.0847 H   0  0  0  0  0  0  0  0  0  0  0  0
   -0.9065    1.4832   -0.7614 C   0  0  0  0  0  0  0  0  0  0  0  0
   -0.3914    2.2276    0.3147 C   0  0  0  0  0  0  0  0  0  0  0  0
    0.4821    1.8784    0.8589 H   0  0  0  0  0  0  0  0  0  0  0  0
   -0.9717    3.4451    0.6875 C   0  0  0  0  0  0  0  0  0  0  0  0
   -0.5510    4.0012    1.5181 H   0  0  0  0  0  0  0  0  0  0  0  0
   -2.0769    3.9376   -0.0064 C   0  0  0  0  0  0  0  0  0  0  0  0
   -2.6523    5.1224    0.3502 O   0  0  0  0  0  0  0  0  0  0  0  0
   -2.1506    5.5307    1.0729 H   0  0  0  0  0  0  0  0  0  0  0  0
   -2.5951    3.2120   -1.0759 C   0  0  0  0  0  0  0  0  0  0  0  0
   -3.4521    3.6052   -1.6134 H   0  0  0  0  0  0  0  0  0  0  0  0
   -2.0172    1.9949   -1.4529 C   0  0  0  0  0  0  0  0  0  0  0  0
   -2.4436    1.4498   -2.2898 H   0  0  0  0  0  0  0  0  0  0  0  0
   -0.0496   -0.6636    1.3467 C   0  0  0  0  0  0  0  0  0  0  0  0
    1.1226   -0.6402    1.6994 O   0  0  0  0  0  0  0  0  0  0  0  0
   -1.0090   -0.1345    2.1925 N   0  0  0  0  0  0  0  0  0  0  0  0
   -1.9586   -0.0844    1.8384 H   0  0  0  0  0  0  0  0  0  0  0  0
   -0.7277    0.3204    3.5474 C   0  0  0  0  0  0  0  0  0  0  0  0
   -0.0056    1.1433    3.5331 H   0  0  0  0  0  0  0  0  0  0  0  0
   -1.6459    0.6737    4.0257 H   0  0  0  0  0  0  0  0  0  0  0  0
   -0.3176   -0.4991    4.1471 H   0  0  0  0  0  0  0  0  0  0  0  0
  1  2  1  0  0  0  0
  2  3  1  0  0  0  0
  2  4  1  0  0  0  0
  2  5  1  0  0  0  0
  5  6  2  0  0  0  0
  5  7  1  0  0  0  0
  7  8  1  0  0  0  0
  7  9  1  0  0  0  0
  9 10  1  0  0  0  0
  9 11  1  0  0  0  0
  9 26  1  0  0  0  0
 11 12  1  0  0  0  0
 11 13  1  0  0  0  0
 11 14  1  0  0  0  0
 14 15  2  0  0  0  0
 14 24  1  0  0  0  0
 15 16  1  0  0  0  0
 15 17  1  0  0  0  0
 17 18  1  0  0  0  0
 17 19  2  0  0  0  0
 19 20  1  0  0  0  0
 19 22  1  0  0  0  0
 20 21  1  0  0  0  0
 22 23  1  0  0  0  0
 22 24  2  0  0  0  0
 24 25  1  0  0  0  0
 26 27  2  0  0  0  0
 26 28  1  0  0  0  0
 28 29  1  0  0  0  0
 28 30  1  0  0  0  0
 30 31  1  0  0  0  0
 30 32  1  0  0  0  0
 30 33  1  0  0  0  0
M  END
$$$$

  -OEChem-03222214083D

 33 33  0     1  0  0  0  0  0999 V2000
   -3.3850   -4.5296    0.7091 H   0  0  0  0  0  0  0  0  0  0  0  0
   -3.3258   -3.5975    0.1399 C   0  0  0  0  0  0  0  0  0  0  0  0
   -4.0987   -2.9155    0.5021 H   0  0  0  0  0  0  0  0  0  0  0  0
   -3.5067   -3.8180   -0.9150 H   0  0  0  0  0  0  0  0  0  0  0  0
   -1.9554   -2.9695    0.3106 C   0  0  0  0  0  0  0  0  0  0  0  0
   -1.1110   -3.5309    0.9852 O   0  0  0  0  0  0  0  0  0  0  0  0
   -1.6700   -1.7676   -0.3075 N   0  0  0  0  0  0  0  0  0  0  0  0
   -2.4224   -1.3233   -0.8245 H   0  0  0  0  0  0  0  0  0  0  0  0
   -0.4005   -1.0343   -0.1462 C   0  0  1  0  0  0  0  0  0  0  0  0
    0.3932   -1.7410   -0.4139 H   0  0  0  0  0  0  0  0  0  0  0  0
   -0.3352    0.0969   -1.1983 C   0  0  0  0  0  0  0  0  0  0  0  0
    0.7208    0.2666   -1.4343 H   0  0  0  0  0  0  0  0  0  0  0  0
   -0.8106   -0.2356   -2.1266 H   0  0  0  0  0  0  0  0  0  0  0  0
   -0.9169    1.4251   -0.7615 C   0  0  0  0  0  0  0  0  0  0  0  0
   -0.2289    2.2640    0.1315 C   0  0  0  0  0  0  0  0  0  0  0  0
    0.7531    1.9776    0.5019 H   0  0  0  0  0  0  0  0  0  0  0  0
   -0.7989    3.4680    0.5596 C   0  0  0  0  0  0  0  0  0  0  0  0
   -0.2511    4.0979    1.2524 H   0  0  0  0  0  0  0  0  0  0  0  0
   -2.0603    3.8489    0.0995 C   0  0  0  0  0  0  0  0  0  0  0  0
   -2.6270    5.0190    0.5138 O   0  0  0  0  0  0  0  0  0  0  0  0
   -2.0159    5.4952    1.0976 H   0  0  0  0  0  0  0  0  0  0  0  0
   -2.7471    3.0263   -0.7911 C   0  0  0  0  0  0  0  0  0  0  0  0
   -3.7248    3.3353   -1.1469 H   0  0  0  0  0  0  0  0  0  0  0  0
   -2.1821    1.8209   -1.2217 C   0  0  0  0  0  0  0  0  0  0  0  0
   -2.7344    1.1958   -1.9168 H   0  0  0  0  0  0  0  0  0  0  0  0
   -0.0794   -0.6142    1.3065 C   0  0  0  0  0  0  0  0  0  0  0  0
    1.0866   -0.5666    1.6777 O   0  0  0  0  0  0  0  0  0  0  0  0
   -1.0583   -0.0539    2.1090 N   0  0  0  0  0  0  0  0  0  0  0  0
   -1.9839    0.0421    1.7046 H   0  0  0  0  0  0  0  0  0  0  0  0
   -0.7891    0.5373    3.4127 C   0  0  0  0  0  0  0  0  0  0  0  0
   -0.1090    1.3895    3.3136 H   0  0  0  0  0  0  0  0  0  0  0  0
   -1.7200    0.8877    3.8685 H   0  0  0  0  0  0  0  0  0  0  0  0
   -0.3344   -0.2021    4.0804 H   0  0  0  0  0  0  0  0  0  0  0  0
  1  2  1  0  0  0  0
  2  3  1  0  0  0  0
  2  4  1  0  0  0  0
  2  5  1  0  0  0  0
  5  6  2  0  0  0  0
  5  7  1  0  0  0  0
  7  8  1  0  0  0  0
  7  9  1  0  0  0  0
  9 10  1  0  0  0  0
  9 11  1  0  0  0  0
  9 26  1  0  0  0  0
 11 12  1  0  0  0  0
 11 13  1  0  0  0  0
 11 14  1  0  0  0  0
 14 15  2  0  0  0  0
 14 24  1  0  0  0  0
 15 16  1  0  0  0  0
 15 17  1  0  0  0  0
 17 18  1  0  0  0  0
 17 19  2  0  0  0  0
 19 20  1  0  0  0  0
 19 22  1  0  0  0  0
 20 21  1  0  0  0  0
 22 23  1  0  0  0  0
 22 24  2  0  0  0  0
 24 25  1  0  0  0  0
 26 27  2  0  0  0  0
 26 28  1  0  0  0  0
 28 29  1  0  0  0  0
 28 30  1  0  0  0  0
 30 31  1  0  0  0  0
 30 32  1  0  0  0  0
 30 33  1  0  0  0  0
M  END
$$$$

  -OEChem-03222214083D

 33 33  0     1  0  0  0  0  0999 V2000
   -3.3809   -4.5547    0.7006 H   0  0  0  0  0  0  0  0  0  0  0  0
   -3.3212   -3.6271    0.1240 C   0  0  0  0  0  0  0  0  0  0  0  0
   -4.1129   -2.9534    0.4599 H   0  0  0  0  0  0  0  0  0  0  0  0
   -3.4723   -3.8601   -0.9328 H   0  0  0  0  0  0  0  0  0  0  0  0
   -1.9651   -2.9767    0.3231 C   0  0  0  0  0  0  0  0  0  0  0  0
   -1.1362   -3.5086    1.0394 O   0  0  0  0  0  0  0  0  0  0  0  0
   -1.6744   -1.7891   -0.3189 N   0  0  0  0  0  0  0  0  0  0  0  0
   -2.4063   -1.3806   -0.8908 H   0  0  0  0  0  0  0  0  0  0  0  0
   -0.4106   -1.0475   -0.1539 C   0  0  1  0  0  0  0  0  0  0  0  0
    0.3890   -1.7545   -0.4027 H   0  0  0  0  0  0  0  0  0  0  0  0
   -0.3336    0.0776   -1.2079 C   0  0  0  0  0  0  0  0  0  0  0  0
    0.7226    0.2489   -1.4418 H   0  0  0  0  0  0  0  0  0  0  0  0
   -0.8117   -0.2464   -2.1377 H   0  0  0  0  0  0  0  0  0  0  0  0
   -0.9324    1.3861   -0.7434 C   0  0  0  0  0  0  0  0  0  0  0  0
   -0.1412    2.3415   -0.0860 C   0  0  0  0  0  0  0  0  0  0  0  0
    0.9131    2.1443    0.0933 H   0  0  0  0  0  0  0  0  0  0  0  0
   -0.7059    3.5392    0.3663 C   0  0  0  0  0  0  0  0  0  0  0  0
   -0.0796    4.2603    0.8806 H   0  0  0  0  0  0  0  0  0  0  0  0
   -2.0628    3.7963    0.1614 C   0  0  0  0  0  0  0  0  0  0  0  0
   -2.6244    4.9594    0.6013 O   0  0  0  0  0  0  0  0  0  0  0  0
   -1.9467    5.5223    1.0074 H   0  0  0  0  0  0  0  0  0  0  0  0
   -2.8514    2.8563   -0.4993 C   0  0  0  0  0  0  0  0  0  0  0  0
   -3.9031    3.0708   -0.6589 H   0  0  0  0  0  0  0  0  0  0  0  0
   -2.2929    1.6567   -0.9531 C   0  0  0  0  0  0  0  0  0  0  0  0
   -2.9229    0.9408   -1.4713 H   0  0  0  0  0  0  0  0  0  0  0  0
   -0.0955   -0.5820    1.2876 C   0  0  0  0  0  0  0  0  0  0  0  0
    1.0707   -0.5247    1.6580 O   0  0  0  0  0  0  0  0  0  0  0  0
   -1.0753    0.0025    2.0718 N   0  0  0  0  0  0  0  0  0  0  0  0
   -1.9882    0.1209    1.6451 H   0  0  0  0  0  0  0  0  0  0  0  0
   -0.7947    0.6763    3.3326 C   0  0  0  0  0  0  0  0  0  0  0  0
   -0.1531    1.5479    3.1664 H   0  0  0  0  0  0  0  0  0  0  0  0
   -1.7263    1.0138    3.7962 H   0  0  0  0  0  0  0  0  0  0  0  0
   -0.2916   -0.0052    4.0268 H   0  0  0  0  0  0  0  0  0  0  0  0
  1  2  1  0  0  0  0
  2  3  1  0  0  0  0
  2  4  1  0  0  0  0
  2  5  1  0  0  0  0
  5  6  2  0  0  0  0
  5  7  1  0  0  0  0
  7  8  1  0  0  0  0
  7  9  1  0  0  0  0
  9 10  1  0  0  0  0
  9 11  1  0  0  0  0
  9 26  1  0  0  0  0
 11 12  1  0  0  0  0
 11 13  1  0  0  0  0
 11 14  1  0  0  0  0
 14 15  2  0  0  0  0
 14 24  1  0  0  0  0
 15 16  1  0  0  0  0
 15 17  1  0  0  0  0
 17 18  1  0  0  0  0
 17 19  2  0  0  0  0
 19 20  1  0  0  0  0
 19 22  1  0  0  0  0
 20 21  1  0  0  0  0
 22 23  1  0  0  0  0
 22 24  2  0  0  0  0
 24 25  1  0  0  0  0
 26 27  2  0  0  0  0
 26 28  1  0  0  0  0
 28 29  1  0  0  0  0
 28 30  1  0  0  0  0
 30 31  1  0  0  0  0
 30 32  1  0  0  0  0
 30 33  1  0  0  0  0
M  END
$$$$

  -OEChem-03222214083D

 33 33  0     1  0  0  0  0  0999 V2000
   -3.3603   -4.6099    0.6649 H   0  0  0  0  0  0  0  0  0  0  0  0
   -3.3063   -3.6813    0.0894 C   0  0  0  0  0  0  0  0  0  0  0  0
   -4.1354   -3.0350    0.3874 H   0  0  0  0  0  0  0  0  0  0  0  0
   -3.4007   -3.9206   -0.9727 H   0  0  0  0  0  0  0  0  0  0  0  0
   -1.9842   -2.9838    0.3486 C   0  0  0  0  0  0  0  0  0  0  0  0
   -1.1796   -3.4761    1.1187 O   0  0  0  0  0  0  0  0  0  0  0  0
   -1.6969   -1.7995   -0.3012 N   0  0  0  0  0  0  0  0  0  0  0  0
   -2.3827   -1.4593   -0.9671 H   0  0  0  0  0  0  0  0  0  0  0  0
   -0.4340   -1.0540   -0.1437 C   0  0  1  0  0  0  0  0  0  0  0  0
    0.3646   -1.7615   -0.3942 H   0  0  0  0  0  0  0  0  0  0  0  0
   -0.3573    0.0733   -1.1948 C   0  0  0  0  0  0  0  0  0  0  0  0
    0.6982    0.2390   -1.4367 H   0  0  0  0  0  0  0  0  0  0  0  0
   -0.8463   -0.2427   -2.1217 H   0  0  0  0  0  0  0  0  0  0  0  0
   -0.9555    1.3784   -0.7197 C   0  0  0  0  0  0  0  0  0  0  0  0
   -0.1267    2.4475   -0.3465 C   0  0  0  0  0  0  0  0  0  0  0  0
    0.9542    2.3376   -0.3811 H   0  0  0  0  0  0  0  0  0  0  0  0
   -0.6818    3.6526    0.0988 C   0  0  0  0  0  0  0  0  0  0  0  0
   -0.0240    4.4627    0.3945 H   0  0  0  0  0  0  0  0  0  0  0  0
   -2.0681    3.8040    0.1659 C   0  0  0  0  0  0  0  0  0  0  0  0
   -2.6204    4.9733    0.6014 O   0  0  0  0  0  0  0  0  0  0  0  0
   -1.9214    5.6078    0.8243 H   0  0  0  0  0  0  0  0  0  0  0  0
   -2.8968    2.7513   -0.2174 C   0  0  0  0  0  0  0  0  0  0  0  0
   -3.9728    2.8829   -0.1680 H   0  0  0  0  0  0  0  0  0  0  0  0
   -2.3477    1.5448   -0.6629 C   0  0  0  0  0  0  0  0  0  0  0  0
   -3.0103    0.7409   -0.9652 H   0  0  0  0  0  0  0  0  0  0  0  0
   -0.1040   -0.5729    1.2900 C   0  0  0  0  0  0  0  0  0  0  0  0
    1.0666   -0.5177    1.6466 O   0  0  0  0  0  0  0  0  0  0  0  0
   -1.0735    0.0197    2.0805 N   0  0  0  0  0  0  0  0  0  0  0  0
   -1.9906    0.1351    1.6626 H   0  0  0  0  0  0  0  0  0  0  0  0
   -0.7734    0.7222    3.3205 C   0  0  0  0  0  0  0  0  0  0  0  0
   -0.1646    1.6096    3.1181 H   0  0  0  0  0  0  0  0  0  0  0  0
   -1.7000    1.0390    3.8085 H   0  0  0  0  0  0  0  0  0  0  0  0
   -0.2279    0.0680    4.0090 H   0  0  0  0  0  0  0  0  0  0  0  0
  1  2  1  0  0  0  0
  2  3  1  0  0  0  0
  2  4  1  0  0  0  0
  2  5  1  0  0  0  0
  5  6  2  0  0  0  0
  5  7  1  0  0  0  0
  7  8  1  0  0  0  0
  7  9  1  0  0  0  0
  9 10  1  0  0  0  0
  9 11  1  0  0  0  0
  9 26  1  0  0  0  0
 11 12  1  0  0  0  0
 11 13  1  0  0  0  0
 11 14  1  0  0  0  0
 14 15  2  0  0  0  0
 14 24  1  0  0  0  0
 15 16  1  0  0  0  0
 15 17  1  0  0  0  0
 17 18  1  0  0  0  0
 17 19  2  0  0  0  0
 19 20  1  0  0  0  0
 19 22  1  0  0  0  0
 20 21  1  0  0  0  0
 22 23  1  0  0  0  0
 22 24  2  0  0  0  0
 24 25  1  0  0  0  0
 26 27  2  0  0  0  0
 26 28  1  0  0  0  0
 28 29  1  0  0  0  0
 28 30  1  0  0  0  0
 30 31  1  0  0  0  0
 30 32  1  0  0  0  0
 30 33  1  0  0  0  0
M  END
$$$$

  -OEChem-03222214083D

 33 33  0     1  0  0  0  0  0999 V2000
   -3.3292   -4.6600    0.6289 H   0  0  0  0  0  0  0  0  0  0  0  0
   -3.2850   -3.7259    0.0617 C   0  0  0  0  0  0  0  0  0  0  0  0
   -4.1368   -3.1029    0.3438 H   0  0  0  0  0  0  0  0  0  0  0  0
   -3.3482   -3.9594   -1.0037 H   0  0  0  0  0  0  0  0  0  0  0  0
   -1.9877   -2.9970    0.3580 C   0  0  0  0  0  0  0  0  0  0  0  0
   -1.1902   -3.4749    1.1444 O   0  0  0  0  0  0  0  0  0  0  0  0
   -1.7167   -1.7997   -0.2752 N   0  0  0  0  0  0  0  0  0  0  0  0
   -2.3791   -1.4931   -0.9804 H   0  0  0  0  0  0  0  0  0  0  0  0
   -0.4566   -1.0482   -0.1215 C   0  0  1  0  0  0  0  0  0  0  0  0
    0.3386   -1.7527   -0.3904 H   0  0  0  0  0  0  0  0  0  0  0  0
   -0.3886    0.0881   -1.1641 C   0  0  0  0  0  0  0  0  0  0  0  0
    0.6671    0.2509   -1.4064 H   0  0  0  0  0  0  0  0  0  0  0  0
   -0.8797   -0.2250   -2.0908 H   0  0  0  0  0  0  0  0  0  0  0  0
   -0.9851    1.3995   -0.6959 C   0  0  0  0  0  0  0  0  0  0  0  0
   -0.1923    2.5557   -0.6294 C   0  0  0  0  0  0  0  0  0  0  0  0
    0.8650    2.5083   -0.8756 H   0  0  0  0  0  0  0  0  0  0  0  0
   -0.7463    3.7759   -0.2246 C   0  0  0  0  0  0  0  0  0  0  0  0
   -0.1126    4.6542   -0.1658 H   0  0  0  0  0  0  0  0  0  0  0  0
   -2.1011    3.8586    0.1008 C   0  0  0  0  0  0  0  0  0  0  0  0
   -2.6509    5.0423    0.4997 O   0  0  0  0  0  0  0  0  0  0  0  0
   -1.9682    5.7305    0.5342 H   0  0  0  0  0  0  0  0  0  0  0  0
   -2.9015    2.7221    0.0108 C   0  0  0  0  0  0  0  0  0  0  0  0
   -3.9559    2.8018    0.2543 H   0  0  0  0  0  0  0  0  0  0  0  0
   -2.3533    1.5005   -0.3933 C   0  0  0  0  0  0  0  0  0  0  0  0
   -3.0011    0.6342   -0.4707 H   0  0  0  0  0  0  0  0  0  0  0  0
   -0.0960   -0.5824    1.3098 C   0  0  0  0  0  0  0  0  0  0  0  0
    1.0819   -0.5431    1.6434 O   0  0  0  0  0  0  0  0  0  0  0  0
   -1.0433   -0.0033    2.1356 N   0  0  0  0  0  0  0  0  0  0  0  0
   -1.9782    0.1000    1.7567 H   0  0  0  0  0  0  0  0  0  0  0  0
   -0.7158    0.6499    3.3955 C   0  0  0  0  0  0  0  0  0  0  0  0
   -0.0675    1.5147    3.2203 H   0  0  0  0  0  0  0  0  0  0  0  0
   -1.6284    0.9938    3.8911 H   0  0  0  0  0  0  0  0  0  0  0  0
   -0.2013   -0.0475    4.0651 H   0  0  0  0  0  0  0  0  0  0  0  0
  1  2  1  0  0  0  0
  2  3  1  0  0  0  0
  2  4  1  0  0  0  0
  2  5  1  0  0  0  0
  5  6  2  0  0  0  0
  5  7  1  0  0  0  0
  7  8  1  0  0  0  0
  7  9  1  0  0  0  0
  9 10  1  0  0  0  0
  9 11  1  0  0  0  0
  9 26  1  0  0  0  0
 11 12  1  0  0  0  0
 11 13  1  0  0  0  0
 11 14  1  0  0  0  0
 14 15  2  0  0  0  0
 14 24  1  0  0  0  0
 15 16  1  0  0  0  0
 15 17  1  0  0  0  0
 17 18  1  0  0  0  0
 17 19  2  0  0  0  0
 19 20  1  0  0  0  0
 19 22  1  0  0  0  0
 20 21  1  0  0  0  0
 22 23  1  0  0  0  0
 22 24  2  0  0  0  0
 24 25  1  0  0  0  0
 26 27  2  0  0  0  0
 26 28  1  0  0  0  0
 28 29  1  0  0  0  0
 28 30  1  0  0  0  0
 30 31  1  0  0  0  0
 30 32  1  0  0  0  0
 30 33  1  0  0  0  0
M  END
$$$$

  -OEChem-03222214083D

 33 33  0     1  0  0  0  0  0999 V2000
   -3.2964   -4.6979    0.5832 H   0  0  0  0  0  0  0  0  0  0  0  0
   -3.2656   -3.7515    0.0358 C   0  0  0  0  0  0  0  0  0  0  0  0
   -4.1256   -3.1463    0.3323 H   0  0  0  0  0  0  0  0  0  0  0  0
   -3.3276   -3.9630   -1.0343 H   0  0  0  0  0  0  0  0  0  0  0  0
   -1.9776   -3.0116    0.3454 C   0  0  0  0  0  0  0  0  0  0  0  0
   -1.1673   -3.4983    1.1128 O   0  0  0  0  0  0  0  0  0  0  0  0
   -1.7311   -1.7897   -0.2490 N   0  0  0  0  0  0  0  0  0  0  0  0
   -2.4032   -1.4717   -0.9405 H   0  0  0  0  0  0  0  0  0  0  0  0
   -0.4768   -1.0294   -0.0923 C   0  0  1  0  0  0  0  0  0  0  0  0
    0.3146   -1.7280   -0.3871 H   0  0  0  0  0  0  0  0  0  0  0  0
   -0.4148    0.1180   -1.1232 C   0  0  0  0  0  0  0  0  0  0  0  0
    0.6427    0.2811   -1.3569 H   0  0  0  0  0  0  0  0  0  0  0  0
   -0.8997   -0.1948   -2.0530 H   0  0  0  0  0  0  0  0  0  0  0  0
   -1.0113    1.4381   -0.6742 C   0  0  0  0  0  0  0  0  0  0  0  0
   -0.3170    2.6350   -0.9122 C   0  0  0  0  0  0  0  0  0  0  0  0
    0.6721    2.6112   -1.3607 H   0  0  0  0  0  0  0  0  0  0  0  0
   -0.8771    3.8688   -0.5607 C   0  0  0  0  0  0  0  0  0  0  0  0
   -0.3134    4.7785   -0.7366 H   0  0  0  0  0  0  0  0  0  0  0  0
   -2.1506    3.9248    0.0073 C   0  0  0  0  0  0  0  0  0  0  0  0
   -2.7070    5.1212    0.3559 O   0  0  0  0  0  0  0  0  0  0  0  0
   -2.0769    5.8404    0.1935 H   0  0  0  0  0  0  0  0  0  0  0  0
   -2.8662    2.7472    0.2086 C   0  0  0  0  0  0  0  0  0  0  0  0
   -3.8633    2.8041    0.6331 H   0  0  0  0  0  0  0  0  0  0  0  0
   -2.3094    1.5124   -0.1394 C   0  0  0  0  0  0  0  0  0  0  0  0
   -2.8997    0.6155    0.0094 H   0  0  0  0  0  0  0  0  0  0  0  0
   -0.0783   -0.6021    1.3415 C   0  0  0  0  0  0  0  0  0  0  0  0
    1.1092   -0.5619    1.6384 O   0  0  0  0  0  0  0  0  0  0  0  0
   -0.9988   -0.0571    2.2190 N   0  0  0  0  0  0  0  0  0  0  0  0
   -1.9629   -0.0132    1.9103 H   0  0  0  0  0  0  0  0  0  0  0  0
   -0.6390    0.5219    3.5065 C   0  0  0  0  0  0  0  0  0  0  0  0
    0.0475    1.3639    3.3688 H   0  0  0  0  0  0  0  0  0  0  0  0
   -1.5336    0.8853    4.0209 H   0  0  0  0  0  0  0  0  0  0  0  0
   -0.1551   -0.2281    4.1411 H   0  0  0  0  0  0  0  0  0  0  0  0
  1  2  1  0  0  0  0
  2  3  1  0  0  0  0
  2  4  1  0  0  0  0
  2  5  1  0  0  0  0
  5  6  2  0  0  0  0
  5  7  1  0  0  0  0
  7  8  1  0  0  0  0
  7  9  1  0  0  0  0
  9 10  1  0  0  0  0
  9 11  1  0  0  0  0
  9 26  1  0  0  0  0
 11 12  1  0  0  0  0
 11 13  1  0  0  0  0
 11 14  1  0  0  0  0
 14 15  2  0  0  0  0
 14 24  1  0  0  0  0
 15 16  1  0  0  0  0
 15 17  1  0  0  0  0
 17 18  1  0  0  0  0
 17 19  2  0  0  0  0
 19 20  1  0  0  0  0
 19 22  1  0  0  0  0
 20 21  1  0  0  0  0
 22 23  1  0  0  0  0
 22 24  2  0  0  0  0
 24 25  1  0  0  0  0
 26 27  2  0  0  0  0
 26 28  1  0  0  0  0
 28 29  1  0  0  0  0
 28 30  1  0  0  0  0
 30 31  1  0  0  0  0
 30 32  1  0  0  0  0
 30 33  1  0  0  0  0
M  END
$$$$

  -OEChem-03222214083D

 33 33  0     1  0  0  0  0  0999 V2000
   -3.2383   -4.7420    0.5352 H   0  0  0  0  0  0  0  0  0  0  0  0
   -3.2326   -3.7806    0.0136 C   0  0  0  0  0  0  0  0  0  0  0  0
   -4.1041   -3.2035    0.3314 H   0  0  0  0  0  0  0  0  0  0  0  0
   -3.2969   -3.9646   -1.0615 H   0  0  0  0  0  0  0  0  0  0  0  0
   -1.9591   -3.0208    0.3358 C   0  0  0  0  0  0  0  0  0  0  0  0
   -1.1314   -3.5121    1.0816 O   0  0  0  0  0  0  0  0  0  0  0  0
   -1.7498   -1.7695   -0.2101 N   0  0  0  0  0  0  0  0  0  0  0  0
   -2.4417   -1.4368   -0.8752 H   0  0  0  0  0  0  0  0  0  0  0  0
   -0.5043   -0.9946   -0.0534 C   0  0  1  0  0  0  0  0  0  0  0  0
    0.2812   -1.6873   -0.3773 H   0  0  0  0  0  0  0  0  0  0  0  0
   -0.4392    0.1620   -1.0754 C   0  0  0  0  0  0  0  0  0  0  0  0
    0.6214    0.3281   -1.2939 H   0  0  0  0  0  0  0  0  0  0  0  0
   -0.9097   -0.1550   -2.0111 H   0  0  0  0  0  0  0  0  0  0  0  0
   -1.0348    1.4935   -0.6567 C   0  0  0  0  0  0  0  0  0  0  0  0
   -0.4888    2.6770   -1.1791 C   0  0  0  0  0  0  0  0  0  0  0  0
    0.3989    2.6355   -1.8040 H   0  0  0  0  0  0  0  0  0  0  0  0
   -1.0596    3.9218   -0.8891 C   0  0  0  0  0  0  0  0  0  0  0  0
   -0.6018    4.8226   -1.2834 H   0  0  0  0  0  0  0  0  0  0  0  0
   -2.2100    3.9991   -0.1034 C   0  0  0  0  0  0  0  0  0  0  0  0
   -2.7776    5.2057    0.1870 O   0  0  0  0  0  0  0  0  0  0  0  0
   -2.2368    5.9234   -0.1775 H   0  0  0  0  0  0  0  0  0  0  0  0
   -2.7946    2.8292    0.3739 C   0  0  0  0  0  0  0  0  0  0  0  0
   -3.7021    2.8980    0.9646 H   0  0  0  0  0  0  0  0  0  0  0  0
   -2.2247    1.5846    0.0868 C   0  0  0  0  0  0  0  0  0  0  0  0
   -2.7269    0.6929    0.4424 H   0  0  0  0  0  0  0  0  0  0  0  0
   -0.0616   -0.6175    1.3817 C   0  0  0  0  0  0  0  0  0  0  0  0
    1.1362   -0.5486    1.6273 O   0  0  0  0  0  0  0  0  0  0  0  0
   -0.9541   -0.1244    2.3166 N   0  0  0  0  0  0  0  0  0  0  0  0
   -1.9406   -0.2105    2.1028 H   0  0  0  0  0  0  0  0  0  0  0  0
   -0.5537    0.3644    3.6292 C   0  0  0  0  0  0  0  0  0  0  0  0
    0.1133    1.2270    3.5274 H   0  0  0  0  0  0  0  0  0  0  0  0
   -1.4328    0.6734    4.2027 H   0  0  0  0  0  0  0  0  0  0  0  0
   -0.0337   -0.4212    4.1877 H   0  0  0  0  0  0  0  0  0  0  0  0
  1  2  1  0  0  0  0
  2  3  1  0  0  0  0
  2  4  1  0  0  0  0
  2  5  1  0  0  0  0
  5  6  2  0  0  0  0
  5  7  1  0  0  0  0
  7  8  1  0  0  0  0
  7  9  1  0  0  0  0
  9 10  1  0  0  0  0
  9 11  1  0  0  0  0
  9 26  1  0  0  0  0
 11 12  1  0  0  0  0
 11 13  1  0  0  0  0
 11 14  1  0  0  0  0
 14 15  2  0  0  0  0
 14 24  1  0  0  0  0
 15 16  1  0  0  0  0
 15 17  1  0  0  0  0
 17 18  1  0  0  0  0
 17 19  2  0  0  0  0
 19 20  1  0  0  0  0
 19 22  1  0  0  0  0
 20 21  1  0  0  0  0
 22 23  1  0  0  0  0
 22 24  2  0  0  0  0
 24 25  1  0  0  0  0
 26 27  2  0  0  0  0
 26 28  1  0  0  0  0
 28 29  1  0  0  0  0
 28 30  1  0  0  0  0
 30 31  1  0  0  0  0
 30 32  1  0  0  0  0
 30 33  1  0  0  0  0
M  END
$$$$

  -OEChem-03222214083D

 33 33  0     1  0  0  0  0  0999 V2000
   -3.3274   -4.7114    0.0865 H   0  0  0  0  0  0  0  0  0  0  0  0
   -3.2660   -3.7091   -0.3471 C   0  0  0  0  0  0  0  0  0  0  0  0
   -4.1560   -3.1459   -0.0563 H   0  0  0  0  0  0  0  0  0  0  0  0
   -3.2378   -3.7983   -1.4357 H   0  0  0  0  0  0  0  0  0  0  0  0
   -2.0180   -3.0026    0.1475 C   0  0  0  0  0  0  0  0  0  0  0  0
   -1.2669   -3.5670    0.9222 O   0  0  0  0  0  0  0  0  0  0  0  0
   -1.7505   -1.7124   -0.2659 N   0  0  0  0  0  0  0  0  0  0  0  0
   -2.3908   -1.3007   -0.9391 H   0  0  0  0  0  0  0  0  0  0  0  0
   -0.5239   -0.9680    0.0739 C   0  0  1  0  0  0  0  0  0  0  0  0
    0.2726   -1.6695   -0.2016 H   0  0  0  0  0  0  0  0  0  0  0  0
   -0.2872    0.2181   -0.8887 C   0  0  0  0  0  0  0  0  0  0  0  0
    0.7981    0.3566   -0.9499 H   0  0  0  0  0  0  0  0  0  0  0  0
   -0.6272   -0.0684   -1.8889 H   0  0  0  0  0  0  0  0  0  0  0  0
   -0.8857    1.5719   -0.5503 C   0  0  0  0  0  0  0  0  0  0  0  0
   -0.4015    2.6964   -1.2389 C   0  0  0  0  0  0  0  0  0  0  0  0
    0.4440    2.5928   -1.9131 H   0  0  0  0  0  0  0  0  0  0  0  0
   -0.9718    3.9608   -1.0517 C   0  0  0  0  0  0  0  0  0  0  0  0
   -0.5555    4.8155   -1.5733 H   0  0  0  0  0  0  0  0  0  0  0  0
   -2.0705    4.1149   -0.2069 C   0  0  0  0  0  0  0  0  0  0  0  0
   -2.6371    5.3416   -0.0144 O   0  0  0  0  0  0  0  0  0  0  0  0
   -2.1197    6.0219   -0.4725 H   0  0  0  0  0  0  0  0  0  0  0  0
   -2.6081    2.9980    0.4260 C   0  0  0  0  0  0  0  0  0  0  0  0
   -3.4835    3.1209    1.0551 H   0  0  0  0  0  0  0  0  0  0  0  0
   -2.0373    1.7341    0.2402 C   0  0  0  0  0  0  0  0  0  0  0  0
   -2.5251    0.8846    0.6993 H   0  0  0  0  0  0  0  0  0  0  0  0
   -0.2088   -0.7125    1.5684 C   0  0  0  0  0  0  0  0  0  0  0  0
    0.9638   -0.6590    1.9172 O   0  0  0  0  0  0  0  0  0  0  0  0
   -1.1767   -0.2877    2.4607 N   0  0  0  0  0  0  0  0  0  0  0  0
   -2.1409   -0.4409    2.1880 H   0  0  0  0  0  0  0  0  0  0  0  0
   -0.8868    0.0514    3.8479 C   0  0  0  0  0  0  0  0  0  0  0  0
   -0.1885    0.8935    3.8966 H   0  0  0  0  0  0  0  0  0  0  0  0
   -1.8062    0.3363    4.3677 H   0  0  0  0  0  0  0  0  0  0  0  0
   -0.4442   -0.8049    4.3675 H   0  0  0  0  0  0  0  0  0  0  0  0
  1  2  1  0  0  0  0
  2  3  1  0  0  0  0
  2  4  1  0  0  0  0
  2  5  1  0  0  0  0
  5  6  2  0  0  0  0
  5  7  1  0  0  0  0
  7  8  1  0  0  0  0
  7  9  1  0  0  0  0
  9 10  1  0  0  0  0
  9 11  1  0  0  0  0
  9 26  1  0  0  0  0
 11 12  1  0  0  0  0
 11 13  1  0  0  0  0
 11 14  1  0  0  0  0
 14 15  2  0  0  0  0
 14 24  1  0  0  0  0
 15 16  1  0  0  0  0
 15 17  1  0  0  0  0
 17 18  1  0  0  0  0
 17 19  2  0  0  0  0
 19 20  1  0  0  0  0
 19 22  1  0  0  0  0
 20 21  1  0  0  0  0
 22 23  1  0  0  0  0
 22 24  2  0  0  0  0
 24 25  1  0  0  0  0
 26 27  2  0  0  0  0
 26 28  1  0  0  0  0
 28 29  1  0  0  0  0
 28 30  1  0  0  0  0
 30 31  1  0  0  0  0
 30 32  1  0  0  0  0
 30 33  1  0  0  0  0
M  END
$$$$

  -OEChem-03222214083D

 33 33  0     1  0  0  0  0  0999 V2000
   -3.3923   -4.6759    0.2223 H   0  0  0  0  0  0  0  0  0  0  0  0
   -3.3954   -3.6390   -0.1258 C   0  0  0  0  0  0  0  0  0  0  0  0
   -4.2028   -3.1019    0.3776 H   0  0  0  0  0  0  0  0  0  0  0  0
   -3.5767   -3.6305   -1.2033 H   0  0  0  0  0  0  0  0  0  0  0  0
   -2.0626   -2.9819    0.1799 C   0  0  0  0  0  0  0  0  0  0  0  0
   -1.1796   -3.6217    0.7217 O   0  0  0  0  0  0  0  0  0  0  0  0
   -1.8641   -1.6543   -0.1451 N   0  0  0  0  0  0  0  0  0  0  0  0
   -2.6358   -1.1689   -0.5935 H   0  0  0  0  0  0  0  0  0  0  0  0
   -0.6034   -0.9164    0.0611 C   0  0  1  0  0  0  0  0  0  0  0  0
    0.1372   -1.6136   -0.3495 H   0  0  0  0  0  0  0  0  0  0  0  0
   -0.4738    0.2766   -0.9272 C   0  0  0  0  0  0  0  0  0  0  0  0
    0.5536    0.2271   -1.3054 H   0  0  0  0  0  0  0  0  0  0  0  0
   -1.1280    0.0710   -1.7803 H   0  0  0  0  0  0  0  0  0  0  0  0
   -0.6766    1.7376   -0.5452 C   0  0  0  0  0  0  0  0  0  0  0  0
   -0.5110    2.6704   -1.5849 C   0  0  0  0  0  0  0  0  0  0  0  0
   -0.2081    2.3286   -2.5706 H   0  0  0  0  0  0  0  0  0  0  0  0
   -0.7142    4.0395   -1.3802 C   0  0  0  0  0  0  0  0  0  0  0  0
   -0.5655    4.7308   -2.2024 H   0  0  0  0  0  0  0  0  0  0  0  0
   -1.1071    4.5061   -0.1277 C   0  0  0  0  0  0  0  0  0  0  0  0
   -1.3092    5.8380    0.0901 O   0  0  0  0  0  0  0  0  0  0  0  0
   -1.0704    6.3431   -0.7022 H   0  0  0  0  0  0  0  0  0  0  0  0
   -1.3045    3.5977    0.9067 C   0  0  0  0  0  0  0  0  0  0  0  0
   -1.6218    3.9649    1.8773 H   0  0  0  0  0  0  0  0  0  0  0  0
   -1.1023    2.2282    0.7016 C   0  0  0  0  0  0  0  0  0  0  0  0
   -1.3033    1.5851    1.5388 H   0  0  0  0  0  0  0  0  0  0  0  0
   -0.0884   -0.8143    1.5162 C   0  0  0  0  0  0  0  0  0  0  0  0
    1.1182   -0.7757    1.7177 O   0  0  0  0  0  0  0  0  0  0  0  0
   -0.9390   -0.5082    2.5645 N   0  0  0  0  0  0  0  0  0  0  0  0
   -1.9301   -0.6404    2.3915 H   0  0  0  0  0  0  0  0  0  0  0  0
   -0.4799   -0.3643    3.9408 C   0  0  0  0  0  0  0  0  0  0  0  0
    0.2696    0.4310    4.0137 H   0  0  0  0  0  0  0  0  0  0  0  0
   -1.3179   -0.1073    4.5957 H   0  0  0  0  0  0  0  0  0  0  0  0
   -0.0358   -1.3007    4.2944 H   0  0  0  0  0  0  0  0  0  0  0  0
  1  2  1  0  0  0  0
  2  3  1  0  0  0  0
  2  4  1  0  0  0  0
  2  5  1  0  0  0  0
  5  6  2  0  0  0  0
  5  7  1  0  0  0  0
  7  8  1  0  0  0  0
  7  9  1  0  0  0  0
  9 10  1  0  0  0  0
  9 11  1  0  0  0  0
  9 26  1  0  0  0  0
 11 12  1  0  0  0  0
 11 13  1  0  0  0  0
 11 14  1  0  0  0  0
 14 15  2  0  0  0  0
 14 24  1  0  0  0  0
 15 16  1  0  0  0  0
 15 17  1  0  0  0  0
 17 18  1  0  0  0  0
 17 19  2  0  0  0  0
 19 20  1  0  0  0  0
 19 22  1  0  0  0  0
 20 21  1  0  0  0  0
 22 23  1  0  0  0  0
 22 24  2  0  0  0  0
 24 25  1  0  0  0  0
 26 27  2  0  0  0  0
 26 28  1  0  0  0  0
 28 29  1  0  0  0  0
 28 30  1  0  0  0  0
 30 31  1  0  0  0  0
 30 32  1  0  0  0  0
 30 33  1  0  0  0  0
M  END
$$$$

  -OEChem-03222214083D

 33 33  0     1  0  0  0  0  0999 V2000
   -3.3161   -4.6813    0.3736 H   0  0  0  0  0  0  0  0  0  0  0  0
   -3.3028   -3.6755   -0.0563 C   0  0  0  0  0  0  0  0  0  0  0  0
   -4.0985   -3.0865    0.4056 H   0  0  0  0  0  0  0  0  0  0  0  0
   -3.4891   -3.7499   -1.1304 H   0  0  0  0  0  0  0  0  0  0  0  0
   -1.9571   -3.0200    0.1921 C   0  0  0  0  0  0  0  0  0  0  0  0
   -1.0719   -3.6457    0.7467 O   0  0  0  0  0  0  0  0  0  0  0  0
   -1.7447   -1.7161   -0.2129 N   0  0  0  0  0  0  0  0  0  0  0  0
   -2.5213   -1.2410   -0.6636 H   0  0  0  0  0  0  0  0  0  0  0  0
   -0.4886   -0.9662   -0.0079 C   0  0  1  0  0  0  0  0  0  0  0  0
    0.3007   -1.6187   -0.4002 H   0  0  0  0  0  0  0  0  0  0  0  0
   -0.4795    0.2662   -0.9619 C   0  0  0  0  0  0  0  0  0  0  0  0
    0.5257    0.2819   -1.3968 H   0  0  0  0  0  0  0  0  0  0  0  0
   -1.1644    0.0489   -1.7879 H   0  0  0  0  0  0  0  0  0  0  0  0
   -0.7240    1.7099   -0.5231 C   0  0  0  0  0  0  0  0  0  0  0  0
   -1.0058    2.6227   -1.5579 C   0  0  0  0  0  0  0  0  0  0  0  0
   -1.0996    2.2680   -2.5802 H   0  0  0  0  0  0  0  0  0  0  0  0
   -1.1923    3.9866   -1.3072 C   0  0  0  0  0  0  0  0  0  0  0  0
   -1.4344    4.6534   -2.1274 H   0  0  0  0  0  0  0  0  0  0  0  0
   -1.0572    4.4827   -0.0131 C   0  0  0  0  0  0  0  0  0  0  0  0
   -1.2383    5.8098    0.2501 O   0  0  0  0  0  0  0  0  0  0  0  0
   -1.4352    6.2887   -0.5695 H   0  0  0  0  0  0  0  0  0  0  0  0
   -0.7041    3.6142    1.0132 C   0  0  0  0  0  0  0  0  0  0  0  0
   -0.5532    4.0118    2.0117 H   0  0  0  0  0  0  0  0  0  0  0  0
   -0.5136    2.2505    0.7623 C   0  0  0  0  0  0  0  0  0  0  0  0
   -0.1559    1.6683    1.5970 H   0  0  0  0  0  0  0  0  0  0  0  0
   -0.1062   -0.8162    1.4795 C   0  0  0  0  0  0  0  0  0  0  0  0
    1.0731   -0.7967    1.8056 O   0  0  0  0  0  0  0  0  0  0  0  0
   -1.0644   -0.4644    2.4162 N   0  0  0  0  0  0  0  0  0  0  0  0
   -2.0327   -0.5067    2.1163 H   0  0  0  0  0  0  0  0  0  0  0  0
   -0.7688   -0.2884    3.8326 C   0  0  0  0  0  0  0  0  0  0  0  0
   -0.0091    0.4876    3.9734 H   0  0  0  0  0  0  0  0  0  0  0  0
   -1.6713    0.0127    4.3727 H   0  0  0  0  0  0  0  0  0  0  0  0
   -0.4002   -1.2248    4.2645 H   0  0  0  0  0  0  0  0  0  0  0  0
  1  2  1  0  0  0  0
  2  3  1  0  0  0  0
  2  4  1  0  0  0  0
  2  5  1  0  0  0  0
  5  6  2  0  0  0  0
  5  7  1  0  0  0  0
  7  8  1  0  0  0  0
  7  9  1  0  0  0  0
  9 10  1  0  0  0  0
  9 11  1  0  0  0  0
  9 26  1  0  0  0  0
 11 12  1  0  0  0  0
 11 13  1  0  0  0  0
 11 14  1  0  0  0  0
 14 15  2  0  0  0  0
 14 24  1  0  0  0  0
 15 16  1  0  0  0  0
 15 17  1  0  0  0  0
 17 18  1  0  0  0  0
 17 19  2  0  0  0  0
 19 20  1  0  0  0  0
 19 22  1  0  0  0  0
 20 21  1  0  0  0  0
 22 23  1  0  0  0  0
 22 24  2  0  0  0  0
 24 25  1  0  0  0  0
 26 27  2  0  0  0  0
 26 28  1  0  0  0  0
 28 29  1  0  0  0  0
 28 30  1  0  0  0  0
 30 31  1  0  0  0  0
 30 32  1  0  0  0  0
 30 33  1  0  0  0  0
M  END
$$$$

  -OEChem-03222214083D

 33 33  0     1  0  0  0  0  0999 V2000
   -3.3590   -4.6278    0.4968 H   0  0  0  0  0  0  0  0  0  0  0  0
   -3.3135   -3.6507    0.0073 C   0  0  0  0  0  0  0  0  0  0  0  0
   -4.0946   -3.0121    0.4264 H   0  0  0  0  0  0  0  0  0  0  0  0
   -3.4944   -3.7844   -1.0619 H   0  0  0  0  0  0  0  0  0  0  0  0
   -1.9511   -3.0205    0.2276 C   0  0  0  0  0  0  0  0  0  0  0  0
   -1.0846   -3.6409    0.8165 O   0  0  0  0  0  0  0  0  0  0  0  0
   -1.7017   -1.7471   -0.2470 N   0  0  0  0  0  0  0  0  0  0  0  0
   -2.4684   -1.2703   -0.7118 H   0  0  0  0  0  0  0  0  0  0  0  0
   -0.4371   -1.0115   -0.0445 C   0  0  1  0  0  0  0  0  0  0  0  0
    0.3613   -1.6717   -0.4024 H   0  0  0  0  0  0  0  0  0  0  0  0
   -0.4415    0.2072   -1.0159 C   0  0  0  0  0  0  0  0  0  0  0  0
    0.5585    0.2351   -1.4616 H   0  0  0  0  0  0  0  0  0  0  0  0
   -1.1311   -0.0115   -1.8377 H   0  0  0  0  0  0  0  0  0  0  0  0
   -0.6933    1.6326   -0.5297 C   0  0  0  0  0  0  0  0  0  0  0  0
   -1.3126    2.5165   -1.4339 C   0  0  0  0  0  0  0  0  0  0  0  0
   -1.6640    2.1529   -2.3951 H   0  0  0  0  0  0  0  0  0  0  0  0
   -1.5121    3.8657   -1.1195 C   0  0  0  0  0  0  0  0  0  0  0  0
   -2.0201    4.5108   -1.8280 H   0  0  0  0  0  0  0  0  0  0  0  0
   -1.0498    4.3767    0.0913 C   0  0  0  0  0  0  0  0  0  0  0  0
   -1.2364    5.6896    0.4138 O   0  0  0  0  0  0  0  0  0  0  0  0
   -1.6854    6.1509   -0.3109 H   0  0  0  0  0  0  0  0  0  0  0  0
   -0.3608    3.5415    0.9630 C   0  0  0  0  0  0  0  0  0  0  0  0
    0.0405    3.9526    1.8836 H   0  0  0  0  0  0  0  0  0  0  0  0
   -0.1548    2.1948    0.6463 C   0  0  0  0  0  0  0  0  0  0  0  0
    0.4675    1.6308    1.3296 H   0  0  0  0  0  0  0  0  0  0  0  0
   -0.1036   -0.7845    1.4451 C   0  0  0  0  0  0  0  0  0  0  0  0
    1.0601   -0.8228    1.8235 O   0  0  0  0  0  0  0  0  0  0  0  0
   -1.0827   -0.3580    2.3260 N   0  0  0  0  0  0  0  0  0  0  0  0
   -2.0310   -0.3013    1.9709 H   0  0  0  0  0  0  0  0  0  0  0  0
   -0.8311   -0.0762    3.7332 C   0  0  0  0  0  0  0  0  0  0  0  0
   -0.0772    0.7109    3.8385 H   0  0  0  0  0  0  0  0  0  0  0  0
   -1.7506    0.2602    4.2214 H   0  0  0  0  0  0  0  0  0  0  0  0
   -0.4753   -0.9765    4.2454 H   0  0  0  0  0  0  0  0  0  0  0  0
  1  2  1  0  0  0  0
  2  3  1  0  0  0  0
  2  4  1  0  0  0  0
  2  5  1  0  0  0  0
  5  6  2  0  0  0  0
  5  7  1  0  0  0  0
  7  8  1  0  0  0  0
  7  9  1  0  0  0  0
  9 10  1  0  0  0  0
  9 11  1  0  0  0  0
  9 26  1  0  0  0  0
 11 12  1  0  0  0  0
 11 13  1  0  0  0  0
 11 14  1  0  0  0  0
 14 15  2  0  0  0  0
 14 24  1  0  0  0  0
 15 16  1  0  0  0  0
 15 17  1  0  0  0  0
 17 18  1  0  0  0  0
 17 19  2  0  0  0  0
 19 20  1  0  0  0  0
 19 22  1  0  0  0  0
 20 21  1  0  0  0  0
 22 23  1  0  0  0  0
 22 24  2  0  0  0  0
 24 25  1  0  0  0  0
 26 27  2  0  0  0  0
 26 28  1  0  0  0  0
 28 29  1  0  0  0  0
 28 30  1  0  0  0  0
 30 31  1  0  0  0  0
 30 32  1  0  0  0  0
 30 33  1  0  0  0  0
M  END
$$$$

  -OEChem-03222214083D

 33 33  0     1  0  0  0  0  0999 V2000
   -3.3748   -4.6021    0.5710 H   0  0  0  0  0  0  0  0  0  0  0  0
   -3.3172   -3.6439    0.0466 C   0  0  0  0  0  0  0  0  0  0  0  0
   -4.0914   -2.9816    0.4409 H   0  0  0  0  0  0  0  0  0  0  0  0
   -3.4982   -3.8142   -1.0175 H   0  0  0  0  0  0  0  0  0  0  0  0
   -1.9477   -3.0221    0.2469 C   0  0  0  0  0  0  0  0  0  0  0  0
   -1.0902   -3.6320    0.8596 O   0  0  0  0  0  0  0  0  0  0  0  0
   -1.6796   -1.7722   -0.2776 N   0  0  0  0  0  0  0  0  0  0  0  0
   -2.4392   -1.3029   -0.7607 H   0  0  0  0  0  0  0  0  0  0  0  0
   -0.4137   -1.0392   -0.0754 C   0  0  1  0  0  0  0  0  0  0  0  0
    0.3895   -1.7106   -0.4003 H   0  0  0  0  0  0  0  0  0  0  0  0
   -0.4039    0.1603   -1.0669 C   0  0  0  0  0  0  0  0  0  0  0  0
    0.5982    0.1886   -1.5076 H   0  0  0  0  0  0  0  0  0  0  0  0
   -1.0896   -0.0539   -1.8927 H   0  0  0  0  0  0  0  0  0  0  0  0
   -0.6618    1.5661   -0.5418 C   0  0  0  0  0  0  0  0  0  0  0  0
   -1.5479    2.3965   -1.2517 C   0  0  0  0  0  0  0  0  0  0  0  0
   -2.0957    2.0079   -2.1048 H   0  0  0  0  0  0  0  0  0  0  0  0
   -1.7587    3.7268   -0.8696 C   0  0  0  0  0  0  0  0  0  0  0  0
   -2.4691    4.3353   -1.4185 H   0  0  0  0  0  0  0  0  0  0  0  0
   -1.0504    4.2681    0.2026 C   0  0  0  0  0  0  0  0  0  0  0  0
   -1.2463    5.5630    0.5876 O   0  0  0  0  0  0  0  0  0  0  0  0
   -1.8954    5.9904    0.0082 H   0  0  0  0  0  0  0  0  0  0  0  0
   -0.1134    3.4837    0.8675 C   0  0  0  0  0  0  0  0  0  0  0  0
    0.4653    3.9191    1.6758 H   0  0  0  0  0  0  0  0  0  0  0  0
    0.1008    2.1555    0.4851 C   0  0  0  0  0  0  0  0  0  0  0  0
    0.8881    1.6059    0.9912 H   0  0  0  0  0  0  0  0  0  0  0  0
   -0.1049   -0.7452    1.4098 C   0  0  0  0  0  0  0  0  0  0  0  0
    1.0497   -0.7980    1.8146 O   0  0  0  0  0  0  0  0  0  0  0  0
   -1.0931   -0.2685    2.2534 N   0  0  0  0  0  0  0  0  0  0  0  0
   -2.0173   -0.1397    1.8567 H   0  0  0  0  0  0  0  0  0  0  0  0
   -0.8447    0.1467    3.6276 C   0  0  0  0  0  0  0  0  0  0  0  0
   -0.1315    0.9773    3.6541 H   0  0  0  0  0  0  0  0  0  0  0  0
   -1.7765    0.4754    4.0976 H   0  0  0  0  0  0  0  0  0  0  0  0
   -0.4384   -0.6864    4.2109 H   0  0  0  0  0  0  0  0  0  0  0  0
  1  2  1  0  0  0  0
  2  3  1  0  0  0  0
  2  4  1  0  0  0  0
  2  5  1  0  0  0  0
  5  6  2  0  0  0  0
  5  7  1  0  0  0  0
  7  8  1  0  0  0  0
  7  9  1  0  0  0  0
  9 10  1  0  0  0  0
  9 11  1  0  0  0  0
  9 26  1  0  0  0  0
 11 12  1  0  0  0  0
 11 13  1  0  0  0  0
 11 14  1  0  0  0  0
 14 15  2  0  0  0  0
 14 24  1  0  0  0  0
 15 16  1  0  0  0  0
 15 17  1  0  0  0  0
 17 18  1  0  0  0  0
 17 19  2  0  0  0  0
 19 20  1  0  0  0  0
 19 22  1  0  0  0  0
 20 21  1  0  0  0  0
 22 23  1  0  0  0  0
 22 24  2  0  0  0  0
 24 25  1  0  0  0  0
 26 27  2  0  0  0  0
 26 28  1  0  0  0  0
 28 29  1  0  0  0  0
 28 30  1  0  0  0  0
 30 31  1  0  0  0  0
 30 32  1  0  0  0  0
 30 33  1  0  0  0  0
M  END
$$$$

  -OEChem-03222214083D

 33 33  0     1  0  0  0  0  0999 V2000
   -3.3883   -4.5797    0.6171 H   0  0  0  0  0  0  0  0  0  0  0  0
   -3.3239   -3.6345    0.0704 C   0  0  0  0  0  0  0  0  0  0  0  0
   -4.0992   -2.9606    0.4424 H   0  0  0  0  0  0  0  0  0  0  0  0
   -3.4963   -3.8300   -0.9907 H   0  0  0  0  0  0  0  0  0  0  0  0
   -1.9543   -3.0120    0.2674 C   0  0  0  0  0  0  0  0  0  0  0  0
   -1.1081   -3.6034    0.9132 O   0  0  0  0  0  0  0  0  0  0  0  0
   -1.6723   -1.7831   -0.2974 N   0  0  0  0  0  0  0  0  0  0  0  0
   -2.4224   -1.3257   -0.8057 H   0  0  0  0  0  0  0  0  0  0  0  0
   -0.4046   -1.0526   -0.1031 C   0  0  1  0  0  0  0  0  0  0  0  0
    0.3963   -1.7386   -0.4021 H   0  0  0  0  0  0  0  0  0  0  0  0
   -0.3708    0.1244   -1.1153 C   0  0  0  0  0  0  0  0  0  0  0  0
    0.6341    0.1442   -1.5499 H   0  0  0  0  0  0  0  0  0  0  0  0
   -1.0549   -0.0813   -1.9444 H   0  0  0  0  0  0  0  0  0  0  0  0
   -0.6270    1.5150   -0.5643 C   0  0  0  0  0  0  0  0  0  0  0  0
   -1.7161    2.2594   -1.0464 C   0  0  0  0  0  0  0  0  0  0  0  0
   -2.4008    1.8219   -1.7665 H   0  0  0  0  0  0  0  0  0  0  0  0
   -1.9440    3.5668   -0.6013 C   0  0  0  0  0  0  0  0  0  0  0  0
   -2.8024    4.1160   -0.9724 H   0  0  0  0  0  0  0  0  0  0  0  0
   -1.0677    4.1611    0.3079 C   0  0  0  0  0  0  0  0  0  0  0  0
   -1.2810    5.4341    0.7511 O   0  0  0  0  0  0  0  0  0  0  0  0
   -2.0657    5.8097    0.3238 H   0  0  0  0  0  0  0  0  0  0  0  0
    0.0448    3.4518    0.7529 C   0  0  0  0  0  0  0  0  0  0  0  0
    0.7368    3.9249    1.4423 H   0  0  0  0  0  0  0  0  0  0  0  0
    0.2771    2.1460    0.3090 C   0  0  0  0  0  0  0  0  0  0  0  0
    1.1697    1.6281    0.6513 H   0  0  0  0  0  0  0  0  0  0  0  0
   -0.0969   -0.7004    1.3709 C   0  0  0  0  0  0  0  0  0  0  0  0
    1.0591   -0.7350    1.7738 O   0  0  0  0  0  0  0  0  0  0  0  0
   -1.0818   -0.1812    2.1933 N   0  0  0  0  0  0  0  0  0  0  0  0
   -1.9947   -0.0314    1.7783 H   0  0  0  0  0  0  0  0  0  0  0  0
   -0.8134    0.3459    3.5249 C   0  0  0  0  0  0  0  0  0  0  0  0
   -0.1268    1.1971    3.4685 H   0  0  0  0  0  0  0  0  0  0  0  0
   -1.7429    0.6812    3.9942 H   0  0  0  0  0  0  0  0  0  0  0  0
   -0.3659   -0.4269    4.1587 H   0  0  0  0  0  0  0  0  0  0  0  0
  1  2  1  0  0  0  0
  2  3  1  0  0  0  0
  2  4  1  0  0  0  0
  2  5  1  0  0  0  0
  5  6  2  0  0  0  0
  5  7  1  0  0  0  0
  7  8  1  0  0  0  0
  7  9  1  0  0  0  0
  9 10  1  0  0  0  0
  9 11  1  0  0  0  0
  9 26  1  0  0  0  0
 11 12  1  0  0  0  0
 11 13  1  0  0  0  0
 11 14  1  0  0  0  0
 14 15  2  0  0  0  0
 14 24  1  0  0  0  0
 15 16  1  0  0  0  0
 15 17  1  0  0  0  0
 17 18  1  0  0  0  0
 17 19  2  0  0  0  0
 19 20  1  0  0  0  0
 19 22  1  0  0  0  0
 20 21  1  0  0  0  0
 22 23  1  0  0  0  0
 22 24  2  0  0  0  0
 24 25  1  0  0  0  0
 26 27  2  0  0  0  0
 26 28  1  0  0  0  0
 28 29  1  0  0  0  0
 28 30  1  0  0  0  0
 30 31  1  0  0  0  0
 30 32  1  0  0  0  0
 30 33  1  0  0  0  0
M  END
$$$$

  -OEChem-03222214083D

 33 33  0     1  0  0  0  0  0999 V2000
   -3.3933   -4.5773    0.6341 H   0  0  0  0  0  0  0  0  0  0  0  0
   -3.3283   -3.6350    0.0827 C   0  0  0  0  0  0  0  0  0  0  0  0
   -4.1146   -2.9651    0.4387 H   0  0  0  0  0  0  0  0  0  0  0  0
   -3.4832   -3.8381   -0.9797 H   0  0  0  0  0  0  0  0  0  0  0  0
   -1.9673   -2.9995    0.2960 C   0  0  0  0  0  0  0  0  0  0  0  0
   -1.1354   -3.5632    0.9837 O   0  0  0  0  0  0  0  0  0  0  0  0
   -1.6781   -1.7881   -0.3013 N   0  0  0  0  0  0  0  0  0  0  0  0
   -2.4103   -1.3625   -0.8602 H   0  0  0  0  0  0  0  0  0  0  0  0
   -0.4089   -1.0567   -0.1242 C   0  0  1  0  0  0  0  0  0  0  0  0
    0.3868   -1.7563   -0.4049 H   0  0  0  0  0  0  0  0  0  0  0  0
   -0.3539    0.0978   -1.1567 C   0  0  0  0  0  0  0  0  0  0  0  0
    0.6517    0.1019   -1.5907 H   0  0  0  0  0  0  0  0  0  0  0  0
   -1.0427   -0.1025   -1.9834 H   0  0  0  0  0  0  0  0  0  0  0  0
   -0.6045    1.4826   -0.5970 C   0  0  0  0  0  0  0  0  0  0  0  0
   -1.8328    2.1225   -0.8243 C   0  0  0  0  0  0  0  0  0  0  0  0
   -2.6129    1.6225   -1.3898 H   0  0  0  0  0  0  0  0  0  0  0  0
   -2.0680    3.4093   -0.3249 C   0  0  0  0  0  0  0  0  0  0  0  0
   -3.0250    3.8869   -0.5046 H   0  0  0  0  0  0  0  0  0  0  0  0
   -1.0745    4.0747    0.3964 C   0  0  0  0  0  0  0  0  0  0  0  0
   -1.2943    5.3276    0.8915 O   0  0  0  0  0  0  0  0  0  0  0  0
   -2.1782    5.6364    0.6411 H   0  0  0  0  0  0  0  0  0  0  0  0
    0.1546    3.4546    0.6084 C   0  0  0  0  0  0  0  0  0  0  0  0
    0.9250    3.9776    1.1658 H   0  0  0  0  0  0  0  0  0  0  0  0
    0.3960    2.1706    0.1091 C   0  0  0  0  0  0  0  0  0  0  0  0
    1.3613    1.7023    0.2873 H   0  0  0  0  0  0  0  0  0  0  0  0
   -0.0847   -0.6548    1.3341 C   0  0  0  0  0  0  0  0  0  0  0  0
    1.0796   -0.6535    1.7149 O   0  0  0  0  0  0  0  0  0  0  0  0
   -1.0604   -0.1029    2.1459 N   0  0  0  0  0  0  0  0  0  0  0  0
   -1.9778    0.0255    1.7342 H   0  0  0  0  0  0  0  0  0  0  0  0
   -0.7724    0.5105    3.4357 C   0  0  0  0  0  0  0  0  0  0  0  0
   -0.1236    1.3833    3.3073 H   0  0  0  0  0  0  0  0  0  0  0  0
   -1.7002    0.8352    3.9159 H   0  0  0  0  0  0  0  0  0  0  0  0
   -0.2745   -0.2059    4.0976 H   0  0  0  0  0  0  0  0  0  0  0  0
  1  2  1  0  0  0  0
  2  3  1  0  0  0  0
  2  4  1  0  0  0  0
  2  5  1  0  0  0  0
  5  6  2  0  0  0  0
  5  7  1  0  0  0  0
  7  8  1  0  0  0  0
  7  9  1  0  0  0  0
  9 10  1  0  0  0  0
  9 11  1  0  0  0  0
  9 26  1  0  0  0  0
 11 12  1  0  0  0  0
 11 13  1  0  0  0  0
 11 14  1  0  0  0  0
 14 15  2  0  0  0  0
 14 24  1  0  0  0  0
 15 16  1  0  0  0  0
 15 17  1  0  0  0  0
 17 18  1  0  0  0  0
 17 19  2  0  0  0  0
 19 20  1  0  0  0  0
 19 22  1  0  0  0  0
 20 21  1  0  0  0  0
 22 23  1  0  0  0  0
 22 24  2  0  0  0  0
 24 25  1  0  0  0  0
 26 27  2  0  0  0  0
 26 28  1  0  0  0  0
 28 29  1  0  0  0  0
 28 30  1  0  0  0  0
 30 31  1  0  0  0  0
 30 32  1  0  0  0  0
 30 33  1  0  0  0  0
M  END
$$$$

  -OEChem-03222214083D

 33 33  0     1  0  0  0  0  0999 V2000
   -3.3925   -4.5826    0.6467 H   0  0  0  0  0  0  0  0  0  0  0  0
   -3.3296   -3.6472    0.0829 C   0  0  0  0  0  0  0  0  0  0  0  0
   -4.1354   -2.9859    0.4100 H   0  0  0  0  0  0  0  0  0  0  0  0
   -3.4553   -3.8687   -0.9796 H   0  0  0  0  0  0  0  0  0  0  0  0
   -1.9848   -2.9856    0.3198 C   0  0  0  0  0  0  0  0  0  0  0  0
   -1.1680   -3.5185    1.0489 O   0  0  0  0  0  0  0  0  0  0  0  0
   -1.6936   -1.7859   -0.3005 N   0  0  0  0  0  0  0  0  0  0  0  0
   -2.4016   -1.4005   -0.9169 H   0  0  0  0  0  0  0  0  0  0  0  0
   -0.4226   -1.0543   -0.1370 C   0  0  1  0  0  0  0  0  0  0  0  0
    0.3670   -1.7658   -0.4046 H   0  0  0  0  0  0  0  0  0  0  0  0
   -0.3493    0.0819   -1.1857 C   0  0  0  0  0  0  0  0  0  0  0  0
    0.6558    0.0702   -1.6211 H   0  0  0  0  0  0  0  0  0  0  0  0
   -1.0444   -0.1139   -2.0081 H   0  0  0  0  0  0  0  0  0  0  0  0
   -0.5945    1.4653   -0.6257 C   0  0  0  0  0  0  0  0  0  0  0  0
   -1.8957    1.9883   -0.5811 C   0  0  0  0  0  0  0  0  0  0  0  0
   -2.7285    1.4102   -0.9688 H   0  0  0  0  0  0  0  0  0  0  0  0
   -2.1317    3.2584   -0.0412 C   0  0  0  0  0  0  0  0  0  0  0  0
   -3.1424    3.6507   -0.0158 H   0  0  0  0  0  0  0  0  0  0  0  0
   -1.0709    4.0162    0.4602 C   0  0  0  0  0  0  0  0  0  0  0  0
   -1.2891    5.2546    0.9915 O   0  0  0  0  0  0  0  0  0  0  0  0
   -2.2297    5.4822    0.9374 H   0  0  0  0  0  0  0  0  0  0  0  0
    0.2231    3.5014    0.4194 C   0  0  0  0  0  0  0  0  0  0  0  0
    1.0423    4.0922    0.8167 H   0  0  0  0  0  0  0  0  0  0  0  0
    0.4653    2.2335   -0.1197 C   0  0  0  0  0  0  0  0  0  0  0  0
    1.4782    1.8385   -0.1241 H   0  0  0  0  0  0  0  0  0  0  0  0
   -0.0815   -0.6188    1.3083 C   0  0  0  0  0  0  0  0  0  0  0  0
    1.0888   -0.6020    1.6695 O   0  0  0  0  0  0  0  0  0  0  0  0
   -1.0453   -0.0436    2.1182 N   0  0  0  0  0  0  0  0  0  0  0  0
   -1.9666    0.0761    1.7134 H   0  0  0  0  0  0  0  0  0  0  0  0
   -0.7328    0.6285    3.3723 C   0  0  0  0  0  0  0  0  0  0  0  0
   -0.0950    1.4998    3.1896 H   0  0  0  0  0  0  0  0  0  0  0  0
   -1.6521    0.9664    3.8599 H   0  0  0  0  0  0  0  0  0  0  0  0
   -0.2126   -0.0541    4.0524 H   0  0  0  0  0  0  0  0  0  0  0  0
  1  2  1  0  0  0  0
  2  3  1  0  0  0  0
  2  4  1  0  0  0  0
  2  5  1  0  0  0  0
  5  6  2  0  0  0  0
  5  7  1  0  0  0  0
  7  8  1  0  0  0  0
  7  9  1  0  0  0  0
  9 10  1  0  0  0  0
  9 11  1  0  0  0  0
  9 26  1  0  0  0  0
 11 12  1  0  0  0  0
 11 13  1  0  0  0  0
 11 14  1  0  0  0  0
 14 15  2  0  0  0  0
 14 24  1  0  0  0  0
 15 16  1  0  0  0  0
 15 17  1  0  0  0  0
 17 18  1  0  0  0  0
 17 19  2  0  0  0  0
 19 20  1  0  0  0  0
 19 22  1  0  0  0  0
 20 21  1  0  0  0  0
 22 23  1  0  0  0  0
 22 24  2  0  0  0  0
 24 25  1  0  0  0  0
 26 27  2  0  0  0  0
 26 28  1  0  0  0  0
 28 29  1  0  0  0  0
 28 30  1  0  0  0  0
 30 31  1  0  0  0  0
 30 32  1  0  0  0  0
 30 33  1  0  0  0  0
M  END
$$$$

  -OEChem-03222214083D

 33 33  0     1  0  0  0  0  0999 V2000
   -3.3795   -4.6168    0.6112 H   0  0  0  0  0  0  0  0  0  0  0  0
   -3.3222   -3.6791    0.0510 C   0  0  0  0  0  0  0  0  0  0  0  0
   -4.1585   -3.0413    0.3472 H   0  0  0  0  0  0  0  0  0  0  0  0
   -3.4017   -3.9026   -1.0155 H   0  0  0  0  0  0  0  0  0  0  0  0
   -2.0069   -2.9795    0.3383 C   0  0  0  0  0  0  0  0  0  0  0  0
   -1.2092   -3.4818    1.1089 O   0  0  0  0  0  0  0  0  0  0  0  0
   -1.7219   -1.7787   -0.2821 N   0  0  0  0  0  0  0  0  0  0  0  0
   -2.3979   -1.4389   -0.9585 H   0  0  0  0  0  0  0  0  0  0  0  0
   -0.4506   -1.0458   -0.1253 C   0  0  1  0  0  0  0  0  0  0  0  0
    0.3325   -1.7649   -0.3917 H   0  0  0  0  0  0  0  0  0  0  0  0
   -0.3617    0.0801   -1.1833 C   0  0  0  0  0  0  0  0  0  0  0  0
    0.6440    0.0525   -1.6160 H   0  0  0  0  0  0  0  0  0  0  0  0
   -1.0580   -0.1148   -2.0049 H   0  0  0  0  0  0  0  0  0  0  0  0
   -0.6030    1.4706   -0.6395 C   0  0  0  0  0  0  0  0  0  0  0  0
   -1.9036    1.8896   -0.3176 C   0  0  0  0  0  0  0  0  0  0  0  0
   -2.7459    1.2275   -0.4905 H   0  0  0  0  0  0  0  0  0  0  0  0
   -2.1271    3.1621    0.2214 C   0  0  0  0  0  0  0  0  0  0  0  0
   -3.1380    3.4740    0.4597 H   0  0  0  0  0  0  0  0  0  0  0  0
   -1.0530    4.0246    0.4506 C   0  0  0  0  0  0  0  0  0  0  0  0
   -1.2579    5.2678    0.9759 O   0  0  0  0  0  0  0  0  0  0  0  0
   -2.2030    5.4145    1.1325 H   0  0  0  0  0  0  0  0  0  0  0  0
    0.2413    3.6103    0.1431 C   0  0  0  0  0  0  0  0  0  0  0  0
    1.0723    4.2817    0.3339 H   0  0  0  0  0  0  0  0  0  0  0  0
    0.4709    2.3398   -0.3956 C   0  0  0  0  0  0  0  0  0  0  0  0
    1.4900    2.0268   -0.6069 H   0  0  0  0  0  0  0  0  0  0  0  0
   -0.0848   -0.6045    1.3129 C   0  0  0  0  0  0  0  0  0  0  0  0
    1.0927   -0.5842    1.6492 O   0  0  0  0  0  0  0  0  0  0  0  0
   -1.0296   -0.0257    2.1419 N   0  0  0  0  0  0  0  0  0  0  0  0
   -1.9690    0.0629    1.7728 H   0  0  0  0  0  0  0  0  0  0  0  0
   -0.6927    0.6459    3.3899 C   0  0  0  0  0  0  0  0  0  0  0  0
   -0.0679    1.5235    3.1932 H   0  0  0  0  0  0  0  0  0  0  0  0
   -1.6028    0.9741    3.9006 H   0  0  0  0  0  0  0  0  0  0  0  0
   -0.1497   -0.0329    4.0562 H   0  0  0  0  0  0  0  0  0  0  0  0
  1  2  1  0  0  0  0
  2  3  1  0  0  0  0
  2  4  1  0  0  0  0
  2  5  1  0  0  0  0
  5  6  2  0  0  0  0
  5  7  1  0  0  0  0
  7  8  1  0  0  0  0
  7  9  1  0  0  0  0
  9 10  1  0  0  0  0
  9 11  1  0  0  0  0
  9 26  1  0  0  0  0
 11 12  1  0  0  0  0
 11 13  1  0  0  0  0
 11 14  1  0  0  0  0
 14 15  2  0  0  0  0
 14 24  1  0  0  0  0
 15 16  1  0  0  0  0
 15 17  1  0  0  0  0
 17 18  1  0  0  0  0
 17 19  2  0  0  0  0
 19 20  1  0  0  0  0
 19 22  1  0  0  0  0
 20 21  1  0  0  0  0
 22 23  1  0  0  0  0
 22 24  2  0  0  0  0
 24 25  1  0  0  0  0
 26 27  2  0  0  0  0
 26 28  1  0  0  0  0
 28 29  1  0  0  0  0
 28 30  1  0  0  0  0
 30 31  1  0  0  0  0
 30 32  1  0  0  0  0
 30 33  1  0  0  0  0
M  END
$$$$

  -OEChem-03222214083D

 33 33  0     1  0  0  0  0  0999 V2000
   -3.3510   -4.6556    0.5559 H   0  0  0  0  0  0  0  0  0  0  0  0
   -3.3042   -3.7079    0.0117 C   0  0  0  0  0  0  0  0  0  0  0  0
   -4.1609   -3.0945    0.3005 H   0  0  0  0  0  0  0  0  0  0  0  0
   -3.3569   -3.9160   -1.0597 H   0  0  0  0  0  0  0  0  0  0  0  0
   -2.0113   -2.9831    0.3364 C   0  0  0  0  0  0  0  0  0  0  0  0
   -1.2176   -3.4789    1.1152 O   0  0  0  0  0  0  0  0  0  0  0  0
   -1.7450   -1.7627   -0.2533 N   0  0  0  0  0  0  0  0  0  0  0  0
   -2.4118   -1.4331   -0.9444 H   0  0  0  0  0  0  0  0  0  0  0  0
   -0.4794   -1.0211   -0.0909 C   0  0  1  0  0  0  0  0  0  0  0  0
    0.2983   -1.7427   -0.3669 H   0  0  0  0  0  0  0  0  0  0  0  0
   -0.3733    0.1009   -1.1511 C   0  0  0  0  0  0  0  0  0  0  0  0
    0.6390    0.0593   -1.5675 H   0  0  0  0  0  0  0  0  0  0  0  0
   -1.0580   -0.1024   -1.9801 H   0  0  0  0  0  0  0  0  0  0  0  0
   -0.6180    1.5083   -0.6475 C   0  0  0  0  0  0  0  0  0  0  0  0
   -1.8470    1.8612   -0.0664 C   0  0  0  0  0  0  0  0  0  0  0  0
   -2.6455    1.1296    0.0010 H   0  0  0  0  0  0  0  0  0  0  0  0
   -2.0593    3.1558    0.4225 C   0  0  0  0  0  0  0  0  0  0  0  0
   -3.0160    3.4121    0.8641 H   0  0  0  0  0  0  0  0  0  0  0  0
   -1.0443    4.1111    0.3404 C   0  0  0  0  0  0  0  0  0  0  0  0
   -1.2378    5.3771    0.8129 O   0  0  0  0  0  0  0  0  0  0  0  0
   -2.1180    5.4553    1.2109 H   0  0  0  0  0  0  0  0  0  0  0  0
    0.1801    3.7671   -0.2280 C   0  0  0  0  0  0  0  0  0  0  0  0
    0.9672    4.5123   -0.2802 H   0  0  0  0  0  0  0  0  0  0  0  0
    0.3974    2.4743   -0.7166 C   0  0  0  0  0  0  0  0  0  0  0  0
    1.3662    2.2247   -1.1397 H   0  0  0  0  0  0  0  0  0  0  0  0
   -0.0860   -0.6086    1.3482 C   0  0  0  0  0  0  0  0  0  0  0  0
    1.0990   -0.5847    1.6563 O   0  0  0  0  0  0  0  0  0  0  0  0
   -1.0104   -0.0575    2.2176 N   0  0  0  0  0  0  0  0  0  0  0  0
   -1.9807   -0.0648    1.9268 H   0  0  0  0  0  0  0  0  0  0  0  0
   -0.6567    0.5078    3.5127 C   0  0  0  0  0  0  0  0  0  0  0  0
    0.0247    1.3556    3.3846 H   0  0  0  0  0  0  0  0  0  0  0  0
   -1.5538    0.8597    4.0302 H   0  0  0  0  0  0  0  0  0  0  0  0
   -0.1690   -0.2464    4.1393 H   0  0  0  0  0  0  0  0  0  0  0  0
  1  2  1  0  0  0  0
  2  3  1  0  0  0  0
  2  4  1  0  0  0  0
  2  5  1  0  0  0  0
  5  6  2  0  0  0  0
  5  7  1  0  0  0  0
  7  8  1  0  0  0  0
  7  9  1  0  0  0  0
  9 10  1  0  0  0  0
  9 11  1  0  0  0  0
  9 26  1  0  0  0  0
 11 12  1  0  0  0  0
 11 13  1  0  0  0  0
 11 14  1  0  0  0  0
 14 15  2  0  0  0  0
 14 24  1  0  0  0  0
 15 16  1  0  0  0  0
 15 17  1  0  0  0  0
 17 18  1  0  0  0  0
 17 19  2  0  0  0  0
 19 20  1  0  0  0  0
 19 22  1  0  0  0  0
 20 21  1  0  0  0  0
 22 23  1  0  0  0  0
 22 24  2  0  0  0  0
 24 25  1  0  0  0  0
 26 27  2  0  0  0  0
 26 28  1  0  0  0  0
 28 29  1  0  0  0  0
 28 30  1  0  0  0  0
 30 31  1  0  0  0  0
 30 32  1  0  0  0  0
 30 33  1  0  0  0  0
M  END
$$$$

  -OEChem-03222214083D

 33 33  0     1  0  0  0  0  0999 V2000
   -3.3061   -4.7056    0.4573 H   0  0  0  0  0  0  0  0  0  0  0  0
   -3.2768   -3.7361   -0.0483 C   0  0  0  0  0  0  0  0  0  0  0  0
   -4.1518   -3.1556    0.2532 H   0  0  0  0  0  0  0  0  0  0  0  0
   -3.3115   -3.9024   -1.1278 H   0  0  0  0  0  0  0  0  0  0  0  0
   -2.0071   -2.9925    0.3215 C   0  0  0  0  0  0  0  0  0  0  0  0
   -1.2117   -3.4948    1.0944 O   0  0  0  0  0  0  0  0  0  0  0  0
   -1.7663   -1.7431   -0.2157 N   0  0  0  0  0  0  0  0  0  0  0  0
   -2.4363   -1.4035   -0.8992 H   0  0  0  0  0  0  0  0  0  0  0  0
   -0.5104   -0.9893   -0.0385 C   0  0  1  0  0  0  0  0  0  0  0  0
    0.2637   -1.7089   -0.3303 H   0  0  0  0  0  0  0  0  0  0  0  0
   -0.3874    0.1342   -1.0978 C   0  0  0  0  0  0  0  0  0  0  0  0
    0.6356    0.0861   -1.4866 H   0  0  0  0  0  0  0  0  0  0  0  0
   -1.0505   -0.0832   -1.9405 H   0  0  0  0  0  0  0  0  0  0  0  0
   -0.6399    1.5601   -0.6458 C   0  0  0  0  0  0  0  0  0  0  0  0
   -1.7334    1.8992    0.1678 C   0  0  0  0  0  0  0  0  0  0  0  0
   -2.4479    1.1395    0.4642 H   0  0  0  0  0  0  0  0  0  0  0  0
   -1.9308    3.2191    0.5905 C   0  0  0  0  0  0  0  0  0  0  0  0
   -2.7815    3.4585    1.2185 H   0  0  0  0  0  0  0  0  0  0  0  0
   -1.0385    4.2197    0.2029 C   0  0  0  0  0  0  0  0  0  0  0  0
   -1.2181    5.5108    0.6082 O   0  0  0  0  0  0  0  0  0  0  0  0
   -1.9727    5.5693    1.2137 H   0  0  0  0  0  0  0  0  0  0  0  0
    0.0473    3.8959   -0.6066 C   0  0  0  0  0  0  0  0  0  0  0  0
    0.7391    4.6782   -0.9011 H   0  0  0  0  0  0  0  0  0  0  0  0
    0.2495    2.5772   -1.0277 C   0  0  0  0  0  0  0  0  0  0  0  0
    1.1103    2.3497   -1.6496 H   0  0  0  0  0  0  0  0  0  0  0  0
   -0.0901   -0.6285    1.4076 C   0  0  0  0  0  0  0  0  0  0  0  0
    1.1021   -0.5858    1.6839 O   0  0  0  0  0  0  0  0  0  0  0  0
   -0.9992   -0.1281    2.3229 N   0  0  0  0  0  0  0  0  0  0  0  0
   -1.9808   -0.2539    2.1047 H   0  0  0  0  0  0  0  0  0  0  0  0
   -0.6227    0.3188    3.6576 C   0  0  0  0  0  0  0  0  0  0  0  0
    0.0776    1.1586    3.5949 H   0  0  0  0  0  0  0  0  0  0  0  0
   -1.5071    0.6482    4.2107 H   0  0  0  0  0  0  0  0  0  0  0  0
   -0.1476   -0.4958    4.2142 H   0  0  0  0  0  0  0  0  0  0  0  0
  1  2  1  0  0  0  0
  2  3  1  0  0  0  0
  2  4  1  0  0  0  0
  2  5  1  0  0  0  0
  5  6  2  0  0  0  0
  5  7  1  0  0  0  0
  7  8  1  0  0  0  0
  7  9  1  0  0  0  0
  9 10  1  0  0  0  0
  9 11  1  0  0  0  0
  9 26  1  0  0  0  0
 11 12  1  0  0  0  0
 11 13  1  0  0  0  0
 11 14  1  0  0  0  0
 14 15  2  0  0  0  0
 14 24  1  0  0  0  0
 15 16  1  0  0  0  0
 15 17  1  0  0  0  0
 17 18  1  0  0  0  0
 17 19  2  0  0  0  0
 19 20  1  0  0  0  0
 19 22  1  0  0  0  0
 20 21  1  0  0  0  0
 22 23  1  0  0  0  0
 22 24  2  0  0  0  0
 24 25  1  0  0  0  0
 26 27  2  0  0  0  0
 26 28  1  0  0  0  0
 28 29  1  0  0  0  0
 28 30  1  0  0  0  0
 30 31  1  0  0  0  0
 30 32  1  0  0  0  0
 30 33  1  0  0  0  0
M  END
$$$$

  -OEChem-03222214083D

 33 33  0     1  0  0  0  0  0999 V2000
   -3.2482   -4.7549    0.3647 H   0  0  0  0  0  0  0  0  0  0  0  0
   -3.2478   -3.7649   -0.1004 C   0  0  0  0  0  0  0  0  0  0  0  0
   -4.1279   -3.2156    0.2418 H   0  0  0  0  0  0  0  0  0  0  0  0
   -3.3004   -3.8871   -1.1851 H   0  0  0  0  0  0  0  0  0  0  0  0
   -1.9855   -3.0123    0.2769 C   0  0  0  0  0  0  0  0  0  0  0  0
   -1.1615   -3.5364    1.0043 O   0  0  0  0  0  0  0  0  0  0  0  0
   -1.7867   -1.7272   -0.1892 N   0  0  0  0  0  0  0  0  0  0  0  0
   -2.4879   -1.3555   -0.8233 H   0  0  0  0  0  0  0  0  0  0  0  0
   -0.5478   -0.9514    0.0106 C   0  0  1  0  0  0  0  0  0  0  0  0
    0.2274   -1.6604   -0.3042 H   0  0  0  0  0  0  0  0  0  0  0  0
   -0.4057    0.1826   -1.0376 C   0  0  0  0  0  0  0  0  0  0  0  0
    0.6309    0.1389   -1.3898 H   0  0  0  0  0  0  0  0  0  0  0  0
   -1.0377   -0.0500   -1.9000 H   0  0  0  0  0  0  0  0  0  0  0  0
   -0.6719    1.6242   -0.6379 C   0  0  0  0  0  0  0  0  0  0  0  0
   -1.5858    1.9976    0.3613 C   0  0  0  0  0  0  0  0  0  0  0  0
   -2.2040    1.2550    0.8487 H   0  0  0  0  0  0  0  0  0  0  0  0
   -1.7567    3.3417    0.7145 C   0  0  0  0  0  0  0  0  0  0  0  0
   -2.4711    3.6040    1.4868 H   0  0  0  0  0  0  0  0  0  0  0  0
   -1.0184    4.3361    0.0724 C   0  0  0  0  0  0  0  0  0  0  0  0
   -1.1753    5.6496    0.4085 O   0  0  0  0  0  0  0  0  0  0  0  0
   -1.7793    5.7304    1.1622 H   0  0  0  0  0  0  0  0  0  0  0  0
   -0.1153    3.9818   -0.9255 C   0  0  0  0  0  0  0  0  0  0  0  0
    0.4572    4.7590   -1.4212 H   0  0  0  0  0  0  0  0  0  0  0  0
    0.0591    2.6393   -1.2778 C   0  0  0  0  0  0  0  0  0  0  0  0
    0.7795    2.3896   -2.0514 H   0  0  0  0  0  0  0  0  0  0  0  0
   -0.1038   -0.6615    1.4656 C   0  0  0  0  0  0  0  0  0  0  0  0
    1.0929   -0.5894    1.7140 O   0  0  0  0  0  0  0  0  0  0  0  0
   -1.0020   -0.2395    2.4300 N   0  0  0  0  0  0  0  0  0  0  0  0
   -1.9788   -0.4399    2.2465 H   0  0  0  0  0  0  0  0  0  0  0  0
   -0.6019    0.0985    3.7900 C   0  0  0  0  0  0  0  0  0  0  0  0
    0.1044    0.9355    3.7835 H   0  0  0  0  0  0  0  0  0  0  0  0
   -1.4759    0.3901    4.3798 H   0  0  0  0  0  0  0  0  0  0  0  0
   -0.1260   -0.7607    4.2742 H   0  0  0  0  0  0  0  0  0  0  0  0
  1  2  1  0  0  0  0
  2  3  1  0  0  0  0
  2  4  1  0  0  0  0
  2  5  1  0  0  0  0
  5  6  2  0  0  0  0
  5  7  1  0  0  0  0
  7  8  1  0  0  0  0
  7  9  1  0  0  0  0
  9 10  1  0  0  0  0
  9 11  1  0  0  0  0
  9 26  1  0  0  0  0
 11 12  1  0  0  0  0
 11 13  1  0  0  0  0
 11 14  1  0  0  0  0
 14 15  2  0  0  0  0
 14 24  1  0  0  0  0
 15 16  1  0  0  0  0
 15 17  1  0  0  0  0
 17 18  1  0  0  0  0
 17 19  2  0  0  0  0
 19 20  1  0  0  0  0
 19 22  1  0  0  0  0
 20 21  1  0  0  0  0
 22 23  1  0  0  0  0
 22 24  2  0  0  0  0
 24 25  1  0  0  0  0
 26 27  2  0  0  0  0
 26 28  1  0  0  0  0
 28 29  1  0  0  0  0
 28 30  1  0  0  0  0
 30 31  1  0  0  0  0
 30 32  1  0  0  0  0
 30 33  1  0  0  0  0
M  END
$$$$

  -OEChem-03222214083D

 33 33  0     1  0  0  0  0  0999 V2000
   -3.2506   -4.7688    0.2048 H   0  0  0  0  0  0  0  0  0  0  0  0
   -3.2532   -3.7541   -0.2042 C   0  0  0  0  0  0  0  0  0  0  0  0
   -4.1373   -3.2293    0.1658 H   0  0  0  0  0  0  0  0  0  0  0  0
   -3.3019   -3.8146   -1.2941 H   0  0  0  0  0  0  0  0  0  0  0  0
   -1.9947   -3.0184    0.2176 C   0  0  0  0  0  0  0  0  0  0  0  0
   -1.1680   -3.5800    0.9134 O   0  0  0  0  0  0  0  0  0  0  0  0
   -1.8029   -1.7065   -0.1708 N   0  0  0  0  0  0  0  0  0  0  0  0
   -2.5132   -1.2963   -0.7704 H   0  0  0  0  0  0  0  0  0  0  0  0
   -0.5744   -0.9298    0.0825 C   0  0  1  0  0  0  0  0  0  0  0  0
    0.2036   -1.6326   -0.2404 H   0  0  0  0  0  0  0  0  0  0  0  0
   -0.3897    0.2199   -0.9453 C   0  0  0  0  0  0  0  0  0  0  0  0
    0.6625    0.1746   -1.2490 H   0  0  0  0  0  0  0  0  0  0  0  0
   -0.9803   -0.0176   -1.8355 H   0  0  0  0  0  0  0  0  0  0  0  0
   -0.6554    1.6776   -0.5972 C   0  0  0  0  0  0  0  0  0  0  0  0
   -1.3635    2.1300    0.5288 C   0  0  0  0  0  0  0  0  0  0  0  0
   -1.8571    1.4423    1.1961 H   0  0  0  0  0  0  0  0  0  0  0  0
   -1.5087    3.4980    0.7898 C   0  0  0  0  0  0  0  0  0  0  0  0
   -2.0651    3.8169    1.6643 H   0  0  0  0  0  0  0  0  0  0  0  0
   -0.9498    4.4418   -0.0711 C   0  0  0  0  0  0  0  0  0  0  0  0
   -1.0833    5.7777    0.1748 O   0  0  0  0  0  0  0  0  0  0  0  0
   -1.5238    5.9165    1.0272 H   0  0  0  0  0  0  0  0  0  0  0  0
   -0.2526    4.0118   -1.1953 C   0  0  0  0  0  0  0  0  0  0  0  0
    0.1817    4.7487   -1.8631 H   0  0  0  0  0  0  0  0  0  0  0  0
   -0.1048    2.6456   -1.4551 C   0  0  0  0  0  0  0  0  0  0  0  0
    0.4564    2.3381   -2.3327 H   0  0  0  0  0  0  0  0  0  0  0  0
   -0.1476   -0.7214    1.5562 C   0  0  0  0  0  0  0  0  0  0  0  0
    1.0453   -0.6415    1.8193 O   0  0  0  0  0  0  0  0  0  0  0  0
   -1.0586   -0.3681    2.5363 N   0  0  0  0  0  0  0  0  0  0  0  0
   -2.0313   -0.5725    2.3328 H   0  0  0  0  0  0  0  0  0  0  0  0
   -0.6725   -0.1205    3.9200 C   0  0  0  0  0  0  0  0  0  0  0  0
    0.0232    0.7233    3.9772 H   0  0  0  0  0  0  0  0  0  0  0  0
   -1.5536    0.1190    4.5225 H   0  0  0  0  0  0  0  0  0  0  0  0
   -0.1892   -1.0056    4.3467 H   0  0  0  0  0  0  0  0  0  0  0  0
  1  2  1  0  0  0  0
  2  3  1  0  0  0  0
  2  4  1  0  0  0  0
  2  5  1  0  0  0  0
  5  6  2  0  0  0  0
  5  7  1  0  0  0  0
  7  8  1  0  0  0  0
  7  9  1  0  0  0  0
  9 10  1  0  0  0  0
  9 11  1  0  0  0  0
  9 26  1  0  0  0  0
 11 12  1  0  0  0  0
 11 13  1  0  0  0  0
 11 14  1  0  0  0  0
 14 15  2  0  0  0  0
 14 24  1  0  0  0  0
 15 16  1  0  0  0  0
 15 17  1  0  0  0  0
 17 18  1  0  0  0  0
 17 19  2  0  0  0  0
 19 20  1  0  0  0  0
 19 22  1  0  0  0  0
 20 21  1  0  0  0  0
 22 23  1  0  0  0  0
 22 24  2  0  0  0  0
 24 25  1  0  0  0  0
 26 27  2  0  0  0  0
 26 28  1  0  0  0  0
 28 29  1  0  0  0  0
 28 30  1  0  0  0  0
 30 31  1  0  0  0  0
 30 32  1  0  0  0  0
 30 33  1  0  0  0  0
M  END
$$$$

  -OEChem-03222214083D

 33 33  0     1  0  0  0  0  0999 V2000
   -3.3819   -4.6841    0.3269 H   0  0  0  0  0  0  0  0  0  0  0  0
   -3.3813   -3.6624   -0.0636 C   0  0  0  0  0  0  0  0  0  0  0  0
   -4.1985   -3.1077    0.4034 H   0  0  0  0  0  0  0  0  0  0  0  0
   -3.5437   -3.6990   -1.1436 H   0  0  0  0  0  0  0  0  0  0  0  0
   -2.0551   -2.9899    0.2382 C   0  0  0  0  0  0  0  0  0  0  0  0
   -1.1740   -3.6131    0.8020 O   0  0  0  0  0  0  0  0  0  0  0  0
   -1.8595   -1.6685   -0.1145 N   0  0  0  0  0  0  0  0  0  0  0  0
   -2.6238   -1.2028   -0.5957 H   0  0  0  0  0  0  0  0  0  0  0  0
   -0.5915   -0.9317    0.0545 C   0  0  1  0  0  0  0  0  0  0  0  0
    0.1442   -1.6295   -0.3635 H   0  0  0  0  0  0  0  0  0  0  0  0
   -0.4943    0.2587   -0.9437 C   0  0  0  0  0  0  0  0  0  0  0  0
    0.5212    0.2055   -1.3517 H   0  0  0  0  0  0  0  0  0  0  0  0
   -1.1720    0.0448   -1.7765 H   0  0  0  0  0  0  0  0  0  0  0  0
   -0.6829    1.7275   -0.5778 C   0  0  0  0  0  0  0  0  0  0  0  0
   -0.9716    2.2548    0.6938 C   0  0  0  0  0  0  0  0  0  0  0  0
   -1.0997    1.6341    1.5613 H   0  0  0  0  0  0  0  0  0  0  0  0
   -1.1111    3.6344    0.8914 C   0  0  0  0  0  0  0  0  0  0  0  0
   -1.3296    4.0090    1.8855 H   0  0  0  0  0  0  0  0  0  0  0  0
   -0.9685    4.5188   -0.1761 C   0  0  0  0  0  0  0  0  0  0  0  0
   -1.0984    5.8647    0.0089 O   0  0  0  0  0  0  0  0  0  0  0  0
   -1.2014    6.0616    0.9527 H   0  0  0  0  0  0  0  0  0  0  0  0
   -0.6876    4.0177   -1.4419 C   0  0  0  0  0  0  0  0  0  0  0  0
   -0.5756    4.7084   -2.2713 H   0  0  0  0  0  0  0  0  0  0  0  0
   -0.5444    2.6407   -1.6394 C   0  0  0  0  0  0  0  0  0  0  0  0
   -0.3171    2.2802   -2.6385 H   0  0  0  0  0  0  0  0  0  0  0  0
   -0.0656   -0.8175    1.5044 C   0  0  0  0  0  0  0  0  0  0  0  0
    1.1417   -0.7764    1.7006 O   0  0  0  0  0  0  0  0  0  0  0  0
   -0.9129   -0.4957    2.5512 N   0  0  0  0  0  0  0  0  0  0  0  0
   -1.9034   -0.6366    2.3808 H   0  0  0  0  0  0  0  0  0  0  0  0
   -0.4526   -0.3667    3.9285 C   0  0  0  0  0  0  0  0  0  0  0  0
    0.3164    0.4094    4.0053 H   0  0  0  0  0  0  0  0  0  0  0  0
   -1.2858   -0.0917    4.5821 H   0  0  0  0  0  0  0  0  0  0  0  0
   -0.0321   -1.3144    4.2807 H   0  0  0  0  0  0  0  0  0  0  0  0
  1  2  1  0  0  0  0
  2  3  1  0  0  0  0
  2  4  1  0  0  0  0
  2  5  1  0  0  0  0
  5  6  2  0  0  0  0
  5  7  1  0  0  0  0
  7  8  1  0  0  0  0
  7  9  1  0  0  0  0
  9 10  1  0  0  0  0
  9 11  1  0  0  0  0
  9 26  1  0  0  0  0
 11 12  1  0  0  0  0
 11 13  1  0  0  0  0
 11 14  1  0  0  0  0
 14 15  2  0  0  0  0
 14 24  1  0  0  0  0
 15 16  1  0  0  0  0
 15 17  1  0  0  0  0
 17 18  1  0  0  0  0
 17 19  2  0  0  0  0
 19 20  1  0  0  0  0
 19 22  1  0  0  0  0
 20 21  1  0  0  0  0
 22 23  1  0  0  0  0
 22 24  2  0  0  0  0
 24 25  1  0  0  0  0
 26 27  2  0  0  0  0
 26 28  1  0  0  0  0
 28 29  1  0  0  0  0
 28 30  1  0  0  0  0
 30 31  1  0  0  0  0
 30 32  1  0  0  0  0
 30 33  1  0  0  0  0
M  END
$$$$

  -OEChem-03222214083D

 33 33  0     1  0  0  0  0  0999 V2000
   -3.4292   -4.5860    0.3736 H   0  0  0  0  0  0  0  0  0  0  0  0
   -3.3821   -3.5786   -0.0498 C   0  0  0  0  0  0  0  0  0  0  0  0
   -4.1654   -2.9694    0.4071 H   0  0  0  0  0  0  0  0  0  0  0  0
   -3.5579   -3.6410   -1.1264 H   0  0  0  0  0  0  0  0  0  0  0  0
   -2.0211   -2.9636    0.2178 C   0  0  0  0  0  0  0  0  0  0  0  0
   -1.1636   -3.6142    0.7871 O   0  0  0  0  0  0  0  0  0  0  0  0
   -1.7643   -1.6660   -0.1819 N   0  0  0  0  0  0  0  0  0  0  0  0
   -2.5157   -1.1718   -0.6548 H   0  0  0  0  0  0  0  0  0  0  0  0
   -0.4742   -0.9695   -0.0020 C   0  0  1  0  0  0  0  0  0  0  0  0
    0.2720   -1.6656   -0.4033 H   0  0  0  0  0  0  0  0  0  0  0  0
   -0.4010    0.2468   -0.9736 C   0  0  0  0  0  0  0  0  0  0  0  0
    0.6017    0.1998   -1.4118 H   0  0  0  0  0  0  0  0  0  0  0  0
   -1.0999    0.0493   -1.7930 H   0  0  0  0  0  0  0  0  0  0  0  0
   -0.5647    1.7118   -0.5702 C   0  0  0  0  0  0  0  0  0  0  0  0
   -0.5093    2.2488    0.7309 C   0  0  0  0  0  0  0  0  0  0  0  0
   -0.2307    1.6641    1.5918 H   0  0  0  0  0  0  0  0  0  0  0  0
   -0.7374    3.6105    0.9643 C   0  0  0  0  0  0  0  0  0  0  0  0
   -0.6705    3.9929    1.9771 H   0  0  0  0  0  0  0  0  0  0  0  0
   -1.0298    4.4692   -0.0929 C   0  0  0  0  0  0  0  0  0  0  0  0
   -1.2521    5.7976    0.1269 O   0  0  0  0  0  0  0  0  0  0  0  0
   -1.1260    6.0039    1.0659 H   0  0  0  0  0  0  0  0  0  0  0  0
   -1.0827    3.9626   -1.3859 C   0  0  0  0  0  0  0  0  0  0  0  0
   -1.3030    4.6357   -2.2082 H   0  0  0  0  0  0  0  0  0  0  0  0
   -0.8516    2.6036   -1.6212 C   0  0  0  0  0  0  0  0  0  0  0  0
   -0.9021    2.2411   -2.6439 H   0  0  0  0  0  0  0  0  0  0  0  0
   -0.0461   -0.8458    1.4764 C   0  0  0  0  0  0  0  0  0  0  0  0
    1.1423   -0.8518    1.7675 O   0  0  0  0  0  0  0  0  0  0  0  0
   -0.9645   -0.4642    2.4410 N   0  0  0  0  0  0  0  0  0  0  0  0
   -1.9423   -0.5222    2.1763 H   0  0  0  0  0  0  0  0  0  0  0  0
   -0.6253   -0.3380    3.8530 C   0  0  0  0  0  0  0  0  0  0  0  0
    0.1721    0.3993    3.9928 H   0  0  0  0  0  0  0  0  0  0  0  0
   -1.4996   -0.0112    4.4237 H   0  0  0  0  0  0  0  0  0  0  0  0
   -0.2890   -1.3008    4.2518 H   0  0  0  0  0  0  0  0  0  0  0  0
  1  2  1  0  0  0  0
  2  3  1  0  0  0  0
  2  4  1  0  0  0  0
  2  5  1  0  0  0  0
  5  6  2  0  0  0  0
  5  7  1  0  0  0  0
  7  8  1  0  0  0  0
  7  9  1  0  0  0  0
  9 10  1  0  0  0  0
  9 11  1  0  0  0  0
  9 26  1  0  0  0  0
 11 12  1  0  0  0  0
 11 13  1  0  0  0  0
 11 14  1  0  0  0  0
 14 15  2  0  0  0  0
 14 24  1  0  0  0  0
 15 16  1  0  0  0  0
 15 17  1  0  0  0  0
 17 18  1  0  0  0  0
 17 19  2  0  0  0  0
 19 20  1  0  0  0  0
 19 22  1  0  0  0  0
 20 21  1  0  0  0  0
 22 23  1  0  0  0  0
 22 24  2  0  0  0  0
 24 25  1  0  0  0  0
 26 27  2  0  0  0  0
 26 28  1  0  0  0  0
 28 29  1  0  0  0  0
 28 30  1  0  0  0  0
 30 31  1  0  0  0  0
 30 32  1  0  0  0  0
 30 33  1  0  0  0  0
M  END
$$$$

  -OEChem-03222214083D

 33 33  0     1  0  0  0  0  0999 V2000
   -3.4718   -4.5154    0.5167 H   0  0  0  0  0  0  0  0  0  0  0  0
   -3.3921   -3.5419    0.0241 C   0  0  0  0  0  0  0  0  0  0  0  0
   -4.1585   -2.8788    0.4321 H   0  0  0  0  0  0  0  0  0  0  0  0
   -3.5656   -3.6750   -1.0464 H   0  0  0  0  0  0  0  0  0  0  0  0
   -2.0137   -2.9516    0.2570 C   0  0  0  0  0  0  0  0  0  0  0  0
   -1.1771   -3.5922    0.8671 O   0  0  0  0  0  0  0  0  0  0  0  0
   -1.7160   -1.6903   -0.2227 N   0  0  0  0  0  0  0  0  0  0  0  0
   -2.4532   -1.1994   -0.7201 H   0  0  0  0  0  0  0  0  0  0  0  0
   -0.4152   -1.0119   -0.0482 C   0  0  1  0  0  0  0  0  0  0  0  0
    0.3398   -1.7202   -0.4092 H   0  0  0  0  0  0  0  0  0  0  0  0
   -0.3551    0.1869   -1.0432 C   0  0  0  0  0  0  0  0  0  0  0  0
    0.6434    0.1439   -1.4911 H   0  0  0  0  0  0  0  0  0  0  0  0
   -1.0577   -0.0195   -1.8568 H   0  0  0  0  0  0  0  0  0  0  0  0
   -0.5206    1.6466   -0.6194 C   0  0  0  0  0  0  0  0  0  0  0  0
   -0.1590    2.1975    0.6269 C   0  0  0  0  0  0  0  0  0  0  0  0
    0.3892    1.6352    1.3709 H   0  0  0  0  0  0  0  0  0  0  0  0
   -0.4246    3.5376    0.9319 C   0  0  0  0  0  0  0  0  0  0  0  0
   -0.1205    3.9307    1.8961 H   0  0  0  0  0  0  0  0  0  0  0  0
   -1.0574    4.3603    0.0025 C   0  0  0  0  0  0  0  0  0  0  0  0
   -1.3206    5.6679    0.2911 O   0  0  0  0  0  0  0  0  0  0  0  0
   -0.9667    5.8926    1.1656 H   0  0  0  0  0  0  0  0  0  0  0  0
   -1.4129    3.8407   -1.2368 C   0  0  0  0  0  0  0  0  0  0  0  0
   -1.8982    4.4874   -1.9606 H   0  0  0  0  0  0  0  0  0  0  0  0
   -1.1466    2.5029   -1.5450 C   0  0  0  0  0  0  0  0  0  0  0  0
   -1.4407    2.1324   -2.5225 H   0  0  0  0  0  0  0  0  0  0  0  0
   -0.0398   -0.8012    1.4336 C   0  0  0  0  0  0  0  0  0  0  0  0
    1.1330   -0.8550    1.7802 O   0  0  0  0  0  0  0  0  0  0  0  0
   -0.9826   -0.3333    2.3338 N   0  0  0  0  0  0  0  0  0  0  0  0
   -1.9462   -0.3162    2.0164 H   0  0  0  0  0  0  0  0  0  0  0  0
   -0.6985   -0.1135    3.7459 C   0  0  0  0  0  0  0  0  0  0  0  0
    0.1096    0.6155    3.8668 H   0  0  0  0  0  0  0  0  0  0  0  0
   -1.5873    0.2710    4.2550 H   0  0  0  0  0  0  0  0  0  0  0  0
   -0.4012   -1.0521    4.2255 H   0  0  0  0  0  0  0  0  0  0  0  0
  1  2  1  0  0  0  0
  2  3  1  0  0  0  0
  2  4  1  0  0  0  0
  2  5  1  0  0  0  0
  5  6  2  0  0  0  0
  5  7  1  0  0  0  0
  7  8  1  0  0  0  0
  7  9  1  0  0  0  0
  9 10  1  0  0  0  0
  9 11  1  0  0  0  0
  9 26  1  0  0  0  0
 11 12  1  0  0  0  0
 11 13  1  0  0  0  0
 11 14  1  0  0  0  0
 14 15  2  0  0  0  0
 14 24  1  0  0  0  0
 15 16  1  0  0  0  0
 15 17  1  0  0  0  0
 17 18  1  0  0  0  0
 17 19  2  0  0  0  0
 19 20  1  0  0  0  0
 19 22  1  0  0  0  0
 20 21  1  0  0  0  0
 22 23  1  0  0  0  0
 22 24  2  0  0  0  0
 24 25  1  0  0  0  0
 26 27  2  0  0  0  0
 26 28  1  0  0  0  0
 28 29  1  0  0  0  0
 28 30  1  0  0  0  0
 30 31  1  0  0  0  0
 30 32  1  0  0  0  0
 30 33  1  0  0  0  0
M  END
$$$$

  -OEChem-03222214083D

 33 33  0     1  0  0  0  0  0999 V2000
   -3.4753   -4.4819    0.6055 H   0  0  0  0  0  0  0  0  0  0  0  0
   -3.3832   -3.5290    0.0763 C   0  0  0  0  0  0  0  0  0  0  0  0
   -4.1357   -2.8381    0.4641 H   0  0  0  0  0  0  0  0  0  0  0  0
   -3.5665   -3.6990   -0.9873 H   0  0  0  0  0  0  0  0  0  0  0  0
   -1.9939   -2.9533    0.2777 C   0  0  0  0  0  0  0  0  0  0  0  0
   -1.1640   -3.5814    0.9096 O   0  0  0  0  0  0  0  0  0  0  0  0
   -1.6768   -1.7228   -0.2649 N   0  0  0  0  0  0  0  0  0  0  0  0
   -2.4129   -1.2381   -0.7693 H   0  0  0  0  0  0  0  0  0  0  0  0
   -0.3790   -1.0404   -0.0881 C   0  0  1  0  0  0  0  0  0  0  0  0
    0.3902   -1.7541   -0.4050 H   0  0  0  0  0  0  0  0  0  0  0  0
   -0.3232    0.1313   -1.1128 C   0  0  0  0  0  0  0  0  0  0  0  0
    0.6797    0.0981   -1.5509 H   0  0  0  0  0  0  0  0  0  0  0  0
   -1.0141   -0.0871   -1.9332 H   0  0  0  0  0  0  0  0  0  0  0  0
   -0.5113    1.5779   -0.6666 C   0  0  0  0  0  0  0  0  0  0  0  0
    0.1115    2.1502    0.4597 C   0  0  0  0  0  0  0  0  0  0  0  0
    0.8570    1.6057    1.0292 H   0  0  0  0  0  0  0  0  0  0  0  0
   -0.1656    3.4659    0.8475 C   0  0  0  0  0  0  0  0  0  0  0  0
    0.3406    3.8805    1.7127 H   0  0  0  0  0  0  0  0  0  0  0  0
   -1.0746    4.2359    0.1236 C   0  0  0  0  0  0  0  0  0  0  0  0
   -1.3547    5.5185    0.4965 O   0  0  0  0  0  0  0  0  0  0  0  0
   -0.8121    5.7676    1.2608 H   0  0  0  0  0  0  0  0  0  0  0  0
   -1.6963    3.6889   -0.9945 C   0  0  0  0  0  0  0  0  0  0  0  0
   -2.3987    4.2954   -1.5570 H   0  0  0  0  0  0  0  0  0  0  0  0
   -1.4183    2.3757   -1.3877 C   0  0  0  0  0  0  0  0  0  0  0  0
   -1.9240    1.9800   -2.2634 H   0  0  0  0  0  0  0  0  0  0  0  0
   -0.0477   -0.7444    1.3910 C   0  0  0  0  0  0  0  0  0  0  0  0
    1.1097   -0.8158    1.7847 O   0  0  0  0  0  0  0  0  0  0  0  0
   -1.0119   -0.2196    2.2340 N   0  0  0  0  0  0  0  0  0  0  0  0
   -1.9486   -0.1181    1.8583 H   0  0  0  0  0  0  0  0  0  0  0  0
   -0.7529    0.1605    3.6162 C   0  0  0  0  0  0  0  0  0  0  0  0
   -0.0006    0.9549    3.6603 H   0  0  0  0  0  0  0  0  0  0  0  0
   -1.6709    0.5263    4.0858 H   0  0  0  0  0  0  0  0  0  0  0  0
   -0.3910   -0.7008    4.1878 H   0  0  0  0  0  0  0  0  0  0  0  0
  1  2  1  0  0  0  0
  2  3  1  0  0  0  0
  2  4  1  0  0  0  0
  2  5  1  0  0  0  0
  5  6  2  0  0  0  0
  5  7  1  0  0  0  0
  7  8  1  0  0  0  0
  7  9  1  0  0  0  0
  9 10  1  0  0  0  0
  9 11  1  0  0  0  0
  9 26  1  0  0  0  0
 11 12  1  0  0  0  0
 11 13  1  0  0  0  0
 11 14  1  0  0  0  0
 14 15  2  0  0  0  0
 14 24  1  0  0  0  0
 15 16  1  0  0  0  0
 15 17  1  0  0  0  0
 17 18  1  0  0  0  0
 17 19  2  0  0  0  0
 19 20  1  0  0  0  0
 19 22  1  0  0  0  0
 20 21  1  0  0  0  0
 22 23  1  0  0  0  0
 22 24  2  0  0  0  0
 24 25  1  0  0  0  0
 26 27  2  0  0  0  0
 26 28  1  0  0  0  0
 28 29  1  0  0  0  0
 28 30  1  0  0  0  0
 30 31  1  0  0  0  0
 30 32  1  0  0  0  0
 30 33  1  0  0  0  0
M  END
$$$$

  -OEChem-03222214083D

 33 33  0     1  0  0  0  0  0999 V2000
   -3.4367   -4.4942    0.6690 H   0  0  0  0  0  0  0  0  0  0  0  0
   -3.3536   -3.5555    0.1133 C   0  0  0  0  0  0  0  0  0  0  0  0
   -4.1146   -2.8626    0.4798 H   0  0  0  0  0  0  0  0  0  0  0  0
   -3.5314   -3.7572   -0.9458 H   0  0  0  0  0  0  0  0  0  0  0  0
   -1.9718   -2.9584    0.3028 C   0  0  0  0  0  0  0  0  0  0  0  0
   -1.1434   -3.5491    0.9718 O   0  0  0  0  0  0  0  0  0  0  0  0
   -1.6590   -1.7526   -0.2945 N   0  0  0  0  0  0  0  0  0  0  0  0
   -2.3933   -1.2981   -0.8283 H   0  0  0  0  0  0  0  0  0  0  0  0
   -0.3731   -1.0480   -0.1229 C   0  0  1  0  0  0  0  0  0  0  0  0
    0.4122   -1.7601   -0.4013 H   0  0  0  0  0  0  0  0  0  0  0  0
   -0.3172    0.0966   -1.1730 C   0  0  0  0  0  0  0  0  0  0  0  0
    0.6880    0.0757   -1.6070 H   0  0  0  0  0  0  0  0  0  0  0  0
   -1.0038   -0.1270   -1.9954 H   0  0  0  0  0  0  0  0  0  0  0  0
   -0.5360    1.5216   -0.6936 C   0  0  0  0  0  0  0  0  0  0  0  0
    0.2984    2.1349    0.2580 C   0  0  0  0  0  0  0  0  0  0  0  0
    1.1738    1.6160    0.6398 H   0  0  0  0  0  0  0  0  0  0  0  0
    0.0318    3.4290    0.7174 C   0  0  0  0  0  0  0  0  0  0  0  0
    0.6948    3.8765    1.4500 H   0  0  0  0  0  0  0  0  0  0  0  0
   -1.0728    4.1312    0.2355 C   0  0  0  0  0  0  0  0  0  0  0  0
   -1.3432    5.3927    0.6802 O   0  0  0  0  0  0  0  0  0  0  0  0
   -0.6596    5.6761    1.3074 H   0  0  0  0  0  0  0  0  0  0  0  0
   -1.9059    3.5366   -0.7091 C   0  0  0  0  0  0  0  0  0  0  0  0
   -2.7617    4.0911   -1.0806 H   0  0  0  0  0  0  0  0  0  0  0  0
   -1.6427    2.2425   -1.1715 C   0  0  0  0  0  0  0  0  0  0  0  0
   -2.3117    1.8020   -1.9044 H   0  0  0  0  0  0  0  0  0  0  0  0
   -0.0665   -0.6702    1.3448 C   0  0  0  0  0  0  0  0  0  0  0  0
    1.0856   -0.7161    1.7584 O   0  0  0  0  0  0  0  0  0  0  0  0
   -1.0470   -0.1108    2.1458 N   0  0  0  0  0  0  0  0  0  0  0  0
   -1.9610    0.0259    1.7281 H   0  0  0  0  0  0  0  0  0  0  0  0
   -0.7947    0.4007    3.4859 C   0  0  0  0  0  0  0  0  0  0  0  0
   -0.0887    1.2368    3.4498 H   0  0  0  0  0  0  0  0  0  0  0  0
   -1.7268    0.7526    3.9380 H   0  0  0  0  0  0  0  0  0  0  0  0
   -0.3781   -0.3867    4.1227 H   0  0  0  0  0  0  0  0  0  0  0  0
  1  2  1  0  0  0  0
  2  3  1  0  0  0  0
  2  4  1  0  0  0  0
  2  5  1  0  0  0  0
  5  6  2  0  0  0  0
  5  7  1  0  0  0  0
  7  8  1  0  0  0  0
  7  9  1  0  0  0  0
  9 10  1  0  0  0  0
  9 11  1  0  0  0  0
  9 26  1  0  0  0  0
 11 12  1  0  0  0  0
 11 13  1  0  0  0  0
 11 14  1  0  0  0  0
 14 15  2  0  0  0  0
 14 24  1  0  0  0  0
 15 16  1  0  0  0  0
 15 17  1  0  0  0  0
 17 18  1  0  0  0  0
 17 19  2  0  0  0  0
 19 20  1  0  0  0  0
 19 22  1  0  0  0  0
 20 21  1  0  0  0  0
 22 23  1  0  0  0  0
 22 24  2  0  0  0  0
 24 25  1  0  0  0  0
 26 27  2  0  0  0  0
 26 28  1  0  0  0  0
 28 29  1  0  0  0  0
 28 30  1  0  0  0  0
 30 31  1  0  0  0  0
 30 32  1  0  0  0  0
 30 33  1  0  0  0  0
M  END
$$$$

  -OEChem-03222214083D

 33 33  0     1  0  0  0  0  0999 V2000
   -3.4072   -4.5285    0.6813 H   0  0  0  0  0  0  0  0  0  0  0  0
   -3.3331   -3.5964    0.1138 C   0  0  0  0  0  0  0  0  0  0  0  0
   -4.1133   -2.9132    0.4574 H   0  0  0  0  0  0  0  0  0  0  0  0
   -3.4900   -3.8166   -0.9448 H   0  0  0  0  0  0  0  0  0  0  0  0
   -1.9667   -2.9691    0.3166 C   0  0  0  0  0  0  0  0  0  0  0  0
   -1.1431   -3.5228    1.0223 O   0  0  0  0  0  0  0  0  0  0  0  0
   -1.6625   -1.7765   -0.3104 N   0  0  0  0  0  0  0  0  0  0  0  0
   -2.3892   -1.3561   -0.8808 H   0  0  0  0  0  0  0  0  0  0  0  0
   -0.3895   -1.0501   -0.1413 C   0  0  1  0  0  0  0  0  0  0  0  0
    0.4049   -1.7610   -0.3963 H   0  0  0  0  0  0  0  0  0  0  0  0
   -0.3236    0.0761   -1.2042 C   0  0  0  0  0  0  0  0  0  0  0  0
    0.6845    0.0637   -1.6322 H   0  0  0  0  0  0  0  0  0  0  0  0
   -1.0083   -0.1433   -2.0294 H   0  0  0  0  0  0  0  0  0  0  0  0
   -0.5692    1.4783   -0.6888 C   0  0  0  0  0  0  0  0  0  0  0  0
    0.4113    2.1650    0.0464 C   0  0  0  0  0  0  0  0  0  0  0  0
    1.3735    1.6972    0.2418 H   0  0  0  0  0  0  0  0  0  0  0  0
    0.1576    3.4468    0.5464 C   0  0  0  0  0  0  0  0  0  0  0  0
    0.9284    3.9549    1.1157 H   0  0  0  0  0  0  0  0  0  0  0  0
   -1.0762    4.0574    0.3175 C   0  0  0  0  0  0  0  0  0  0  0  0
   -1.3342    5.3059    0.8038 O   0  0  0  0  0  0  0  0  0  0  0  0
   -0.5542    5.6476    1.2683 H   0  0  0  0  0  0  0  0  0  0  0  0
   -2.0539    3.3840   -0.4123 C   0  0  0  0  0  0  0  0  0  0  0  0
   -3.0087    3.8690   -0.5868 H   0  0  0  0  0  0  0  0  0  0  0  0
   -1.8062    2.1015   -0.9137 C   0  0  0  0  0  0  0  0  0  0  0  0
   -2.5828    1.5954   -1.4786 H   0  0  0  0  0  0  0  0  0  0  0  0
   -0.0819   -0.6145    1.3110 C   0  0  0  0  0  0  0  0  0  0  0  0
    1.0767   -0.6111    1.7091 O   0  0  0  0  0  0  0  0  0  0  0  0
   -1.0644   -0.0360    2.0960 N   0  0  0  0  0  0  0  0  0  0  0  0
   -1.9733    0.0971    1.6665 H   0  0  0  0  0  0  0  0  0  0  0  0
   -0.7947    0.5875    3.3844 C   0  0  0  0  0  0  0  0  0  0  0  0
   -0.1354    1.4526    3.2598 H   0  0  0  0  0  0  0  0  0  0  0  0
   -1.7288    0.9247    3.8437 H   0  0  0  0  0  0  0  0  0  0  0  0
   -0.3156   -0.1267    4.0624 H   0  0  0  0  0  0  0  0  0  0  0  0
  1  2  1  0  0  0  0
  2  3  1  0  0  0  0
  2  4  1  0  0  0  0
  2  5  1  0  0  0  0
  5  6  2  0  0  0  0
  5  7  1  0  0  0  0
  7  8  1  0  0  0  0
  7  9  1  0  0  0  0
  9 10  1  0  0  0  0
  9 11  1  0  0  0  0
  9 26  1  0  0  0  0
 11 12  1  0  0  0  0
 11 13  1  0  0  0  0
 11 14  1  0  0  0  0
 14 15  2  0  0  0  0
 14 24  1  0  0  0  0
 15 16  1  0  0  0  0
 15 17  1  0  0  0  0
 17 18  1  0  0  0  0
 17 19  2  0  0  0  0
 19 20  1  0  0  0  0
 19 22  1  0  0  0  0
 20 21  1  0  0  0  0
 22 23  1  0  0  0  0
 22 24  2  0  0  0  0
 24 25  1  0  0  0  0
 26 27  2  0  0  0  0
 26 28  1  0  0  0  0
 28 29  1  0  0  0  0
 28 30  1  0  0  0  0
 30 31  1  0  0  0  0
 30 32  1  0  0  0  0
 30 33  1  0  0  0  0
M  END
$$$$

  -OEChem-03222214083D

 33 33  0     1  0  0  0  0  0999 V2000
   -3.3789   -4.5775    0.6645 H   0  0  0  0  0  0  0  0  0  0  0  0
   -3.3199   -3.6440    0.0974 C   0  0  0  0  0  0  0  0  0  0  0  0
   -4.1284   -2.9844    0.4213 H   0  0  0  0  0  0  0  0  0  0  0  0
   -3.4441   -3.8700   -0.9643 H   0  0  0  0  0  0  0  0  0  0  0  0
   -1.9783   -2.9754    0.3321 C   0  0  0  0  0  0  0  0  0  0  0  0
   -1.1639   -3.4947    1.0737 O   0  0  0  0  0  0  0  0  0  0  0  0
   -1.6844   -1.7870   -0.3079 N   0  0  0  0  0  0  0  0  0  0  0  0
   -2.3933   -1.4072   -0.9269 H   0  0  0  0  0  0  0  0  0  0  0  0
   -0.4178   -1.0486   -0.1448 C   0  0  1  0  0  0  0  0  0  0  0  0
    0.3767   -1.7624   -0.3906 H   0  0  0  0  0  0  0  0  0  0  0  0
   -0.3362    0.0685   -1.2129 C   0  0  0  0  0  0  0  0  0  0  0  0
    0.6728    0.0524   -1.6383 H   0  0  0  0  0  0  0  0  0  0  0  0
   -1.0233   -0.1425   -2.0384 H   0  0  0  0  0  0  0  0  0  0  0  0
   -0.5919    1.4580   -0.6747 C   0  0  0  0  0  0  0  0  0  0  0  0
    0.4651    2.2461   -0.1935 C   0  0  0  0  0  0  0  0  0  0  0  0
    1.4799    1.8560   -0.1973 H   0  0  0  0  0  0  0  0  0  0  0  0
    0.2183    3.5232    0.3223 C   0  0  0  0  0  0  0  0  0  0  0  0
    1.0474    4.1115    0.7001 H   0  0  0  0  0  0  0  0  0  0  0  0
   -1.0834    4.0266    0.3569 C   0  0  0  0  0  0  0  0  0  0  0  0
   -1.3342    5.2694    0.8612 O   0  0  0  0  0  0  0  0  0  0  0  0
   -0.5052    5.6825    1.1493 H   0  0  0  0  0  0  0  0  0  0  0  0
   -2.1363    3.2522   -0.1268 C   0  0  0  0  0  0  0  0  0  0  0  0
   -3.1431    3.6562   -0.0985 H   0  0  0  0  0  0  0  0  0  0  0  0
   -1.8960    1.9742   -0.6424 C   0  0  0  0  0  0  0  0  0  0  0  0
   -2.7280    1.3865   -1.0168 H   0  0  0  0  0  0  0  0  0  0  0  0
   -0.0948   -0.5848    1.2964 C   0  0  0  0  0  0  0  0  0  0  0  0
    1.0720   -0.5502    1.6686 O   0  0  0  0  0  0  0  0  0  0  0  0
   -1.0698    0.0022    2.0843 N   0  0  0  0  0  0  0  0  0  0  0  0
   -1.9859    0.1163    1.6652 H   0  0  0  0  0  0  0  0  0  0  0  0
   -0.7769    0.6909    3.3338 C   0  0  0  0  0  0  0  0  0  0  0  0
   -0.1637    1.5781    3.1448 H   0  0  0  0  0  0  0  0  0  0  0  0
   -1.7057    1.0056    3.8187 H   0  0  0  0  0  0  0  0  0  0  0  0
   -0.2380    0.0283    4.0193 H   0  0  0  0  0  0  0  0  0  0  0  0
  1  2  1  0  0  0  0
  2  3  1  0  0  0  0
  2  4  1  0  0  0  0
  2  5  1  0  0  0  0
  5  6  2  0  0  0  0
  5  7  1  0  0  0  0
  7  8  1  0  0  0  0
  7  9  1  0  0  0  0
  9 10  1  0  0  0  0
  9 11  1  0  0  0  0
  9 26  1  0  0  0  0
 11 12  1  0  0  0  0
 11 13  1  0  0  0  0
 11 14  1  0  0  0  0
 14 15  2  0  0  0  0
 14 24  1  0  0  0  0
 15 16  1  0  0  0  0
 15 17  1  0  0  0  0
 17 18  1  0  0  0  0
 17 19  2  0  0  0  0
 19 20  1  0  0  0  0
 19 22  1  0  0  0  0
 20 21  1  0  0  0  0
 22 23  1  0  0  0  0
 22 24  2  0  0  0  0
 24 25  1  0  0  0  0
 26 27  2  0  0  0  0
 26 28  1  0  0  0  0
 28 29  1  0  0  0  0
 28 30  1  0  0  0  0
 30 31  1  0  0  0  0
 30 32  1  0  0  0  0
 30 33  1  0  0  0  0
M  END
$$$$

  -OEChem-03222214083D

 33 33  0     1  0  0  0  0  0999 V2000
   -3.3641   -4.6095    0.6434 H   0  0  0  0  0  0  0  0  0  0  0  0
   -3.3114   -3.6753    0.0771 C   0  0  0  0  0  0  0  0  0  0  0  0
   -4.1373   -3.0304    0.3859 H   0  0  0  0  0  0  0  0  0  0  0  0
   -3.4124   -3.9035   -0.9867 H   0  0  0  0  0  0  0  0  0  0  0  0
   -1.9864   -2.9834    0.3365 C   0  0  0  0  0  0  0  0  0  0  0  0
   -1.1755   -3.4903    1.0903 O   0  0  0  0  0  0  0  0  0  0  0  0
   -1.7058   -1.7856   -0.2917 N   0  0  0  0  0  0  0  0  0  0  0  0
   -2.4012   -1.4300   -0.9400 H   0  0  0  0  0  0  0  0  0  0  0  0
   -0.4420   -1.0415   -0.1312 C   0  0  1  0  0  0  0  0  0  0  0  0
    0.3491   -1.7562   -0.3854 H   0  0  0  0  0  0  0  0  0  0  0  0
   -0.3526    0.0776   -1.1956 C   0  0  0  0  0  0  0  0  0  0  0  0
    0.6566    0.0555   -1.6203 H   0  0  0  0  0  0  0  0  0  0  0  0
   -1.0415   -0.1264   -2.0214 H   0  0  0  0  0  0  0  0  0  0  0  0
   -0.6097    1.4655   -0.6537 C   0  0  0  0  0  0  0  0  0  0  0  0
    0.4476    2.3659   -0.4540 C   0  0  0  0  0  0  0  0  0  0  0  0
    1.4705    2.0604   -0.6571 H   0  0  0  0  0  0  0  0  0  0  0  0
    0.1983    3.6525    0.0377 C   0  0  0  0  0  0  0  0  0  0  0  0
    1.0303    4.3287    0.2010 H   0  0  0  0  0  0  0  0  0  0  0  0
   -1.1085    4.0563    0.3186 C   0  0  0  0  0  0  0  0  0  0  0  0
   -1.3609    5.3068    0.8025 O   0  0  0  0  0  0  0  0  0  0  0  0
   -0.5273    5.7858    0.9305 H   0  0  0  0  0  0  0  0  0  0  0  0
   -2.1650    3.1744    0.1008 C   0  0  0  0  0  0  0  0  0  0  0  0
   -3.1769    3.5034    0.3127 H   0  0  0  0  0  0  0  0  0  0  0  0
   -1.9218    1.8864   -0.3875 C   0  0  0  0  0  0  0  0  0  0  0  0
   -2.7578    1.2161   -0.5584 H   0  0  0  0  0  0  0  0  0  0  0  0
   -0.0937   -0.5865    1.3071 C   0  0  0  0  0  0  0  0  0  0  0  0
    1.0805   -0.5504    1.6546 O   0  0  0  0  0  0  0  0  0  0  0  0
   -1.0523   -0.0093    2.1214 N   0  0  0  0  0  0  0  0  0  0  0  0
   -1.9861    0.0799    1.7375 H   0  0  0  0  0  0  0  0  0  0  0  0
   -0.7363    0.6611    3.3752 C   0  0  0  0  0  0  0  0  0  0  0  0
   -0.0955    1.5299    3.1919 H   0  0  0  0  0  0  0  0  0  0  0  0
   -1.6540    1.0026    3.8630 H   0  0  0  0  0  0  0  0  0  0  0  0
   -0.2181   -0.0239    4.0546 H   0  0  0  0  0  0  0  0  0  0  0  0
  1  2  1  0  0  0  0
  2  3  1  0  0  0  0
  2  4  1  0  0  0  0
  2  5  1  0  0  0  0
  5  6  2  0  0  0  0
  5  7  1  0  0  0  0
  7  8  1  0  0  0  0
  7  9  1  0  0  0  0
  9 10  1  0  0  0  0
  9 11  1  0  0  0  0
  9 26  1  0  0  0  0
 11 12  1  0  0  0  0
 11 13  1  0  0  0  0
 11 14  1  0  0  0  0
 14 15  2  0  0  0  0
 14 24  1  0  0  0  0
 15 16  1  0  0  0  0
 15 17  1  0  0  0  0
 17 18  1  0  0  0  0
 17 19  2  0  0  0  0
 19 20  1  0  0  0  0
 19 22  1  0  0  0  0
 20 21  1  0  0  0  0
 22 23  1  0  0  0  0
 22 24  2  0  0  0  0
 24 25  1  0  0  0  0
 26 27  2  0  0  0  0
 26 28  1  0  0  0  0
 28 29  1  0  0  0  0
 28 30  1  0  0  0  0
 30 31  1  0  0  0  0
 30 32  1  0  0  0  0
 30 33  1  0  0  0  0
M  END
$$$$

  -OEChem-03222214083D

 33 33  0     1  0  0  0  0  0999 V2000
   -3.3451   -4.6447    0.5918 H   0  0  0  0  0  0  0  0  0  0  0  0
   -3.3014   -3.6994    0.0433 C   0  0  0  0  0  0  0  0  0  0  0  0
   -4.1421   -3.0744    0.3535 H   0  0  0  0  0  0  0  0  0  0  0  0
   -3.3856   -3.9097   -1.0256 H   0  0  0  0  0  0  0  0  0  0  0  0
   -1.9919   -2.9896    0.3319 C   0  0  0  0  0  0  0  0  0  0  0  0
   -1.1838   -3.4947    1.0898 O   0  0  0  0  0  0  0  0  0  0  0  0
   -1.7259   -1.7733   -0.2666 N   0  0  0  0  0  0  0  0  0  0  0  0
   -2.4090   -1.4301   -0.9346 H   0  0  0  0  0  0  0  0  0  0  0  0
   -0.4632   -1.0273   -0.1035 C   0  0  1  0  0  0  0  0  0  0  0  0
    0.3216   -1.7423   -0.3770 H   0  0  0  0  0  0  0  0  0  0  0  0
   -0.3688    0.1004   -1.1588 C   0  0  0  0  0  0  0  0  0  0  0  0
    0.6419    0.0713   -1.5795 H   0  0  0  0  0  0  0  0  0  0  0  0
   -1.0564   -0.0992   -1.9865 H   0  0  0  0  0  0  0  0  0  0  0  0
   -0.6221    1.4954   -0.6290 C   0  0  0  0  0  0  0  0  0  0  0  0
    0.3666    2.4869   -0.7219 C   0  0  0  0  0  0  0  0  0  0  0  0
    1.3471    2.2447   -1.1220 H   0  0  0  0  0  0  0  0  0  0  0  0
    0.1106    3.7898   -0.2779 C   0  0  0  0  0  0  0  0  0  0  0  0
    0.8950    4.5363   -0.3402 H   0  0  0  0  0  0  0  0  0  0  0  0
   -1.1429    4.1218    0.2395 C   0  0  0  0  0  0  0  0  0  0  0  0
   -1.4026    5.3885    0.6764 O   0  0  0  0  0  0  0  0  0  0  0  0
   -0.6044    5.9344    0.6016 H   0  0  0  0  0  0  0  0  0  0  0  0
   -2.1412    3.1522    0.3022 C   0  0  0  0  0  0  0  0  0  0  0  0
   -3.1155    3.4253    0.6937 H   0  0  0  0  0  0  0  0  0  0  0  0
   -1.8895    1.8489   -0.1388 C   0  0  0  0  0  0  0  0  0  0  0  0
   -2.6851    1.1123   -0.0976 H   0  0  0  0  0  0  0  0  0  0  0  0
   -0.0858   -0.6056    1.3376 C   0  0  0  0  0  0  0  0  0  0  0  0
    1.0954   -0.5789    1.6608 O   0  0  0  0  0  0  0  0  0  0  0  0
   -1.0233   -0.0525    2.1917 N   0  0  0  0  0  0  0  0  0  0  0  0
   -1.9798   -0.0060    1.8605 H   0  0  0  0  0  0  0  0  0  0  0  0
   -0.6862    0.5452    3.4764 C   0  0  0  0  0  0  0  0  0  0  0  0
   -0.0210    1.4033    3.3346 H   0  0  0  0  0  0  0  0  0  0  0  0
   -1.5927    0.8890    3.9832 H   0  0  0  0  0  0  0  0  0  0  0  0
   -0.1871   -0.1873    4.1194 H   0  0  0  0  0  0  0  0  0  0  0  0
  1  2  1  0  0  0  0
  2  3  1  0  0  0  0
  2  4  1  0  0  0  0
  2  5  1  0  0  0  0
  5  6  2  0  0  0  0
  5  7  1  0  0  0  0
  7  8  1  0  0  0  0
  7  9  1  0  0  0  0
  9 10  1  0  0  0  0
  9 11  1  0  0  0  0
  9 26  1  0  0  0  0
 11 12  1  0  0  0  0
 11 13  1  0  0  0  0
 11 14  1  0  0  0  0
 14 15  2  0  0  0  0
 14 24  1  0  0  0  0
 15 16  1  0  0  0  0
 15 17  1  0  0  0  0
 17 18  1  0  0  0  0
 17 19  2  0  0  0  0
 19 20  1  0  0  0  0
 19 22  1  0  0  0  0
 20 21  1  0  0  0  0
 22 23  1  0  0  0  0
 22 24  2  0  0  0  0
 24 25  1  0  0  0  0
 26 27  2  0  0  0  0
 26 28  1  0  0  0  0
 28 29  1  0  0  0  0
 28 30  1  0  0  0  0
 30 31  1  0  0  0  0
 30 32  1  0  0  0  0
 30 33  1  0  0  0  0
M  END
$$$$

  -OEChem-03222214083D

 33 33  0     1  0  0  0  0  0999 V2000
   -3.3228   -4.6757    0.5155 H   0  0  0  0  0  0  0  0  0  0  0  0
   -3.2892   -3.7132   -0.0029 C   0  0  0  0  0  0  0  0  0  0  0  0
   -4.1417   -3.1105    0.3193 H   0  0  0  0  0  0  0  0  0  0  0  0
   -3.3621   -3.8915   -1.0785 H   0  0  0  0  0  0  0  0  0  0  0  0
   -1.9923   -2.9937    0.3172 C   0  0  0  0  0  0  0  0  0  0  0  0
   -1.1767   -3.5129    1.0576 O   0  0  0  0  0  0  0  0  0  0  0  0
   -1.7460   -1.7510   -0.2328 N   0  0  0  0  0  0  0  0  0  0  0  0
   -2.4401   -1.3884   -0.8794 H   0  0  0  0  0  0  0  0  0  0  0  0
   -0.4870   -1.0013   -0.0621 C   0  0  1  0  0  0  0  0  0  0  0  0
    0.2886   -1.7167   -0.3595 H   0  0  0  0  0  0  0  0  0  0  0  0
   -0.3796    0.1344   -1.1088 C   0  0  0  0  0  0  0  0  0  0  0  0
    0.6373    0.0985   -1.5135 H   0  0  0  0  0  0  0  0  0  0  0  0
   -1.0562   -0.0663   -1.9450 H   0  0  0  0  0  0  0  0  0  0  0  0
   -0.6304    1.5412   -0.6058 C   0  0  0  0  0  0  0  0  0  0  0  0
    0.2294    2.5862   -0.9799 C   0  0  0  0  0  0  0  0  0  0  0  0
    1.1247    2.3755   -1.5579 H   0  0  0  0  0  0  0  0  0  0  0  0
   -0.0400    3.9053   -0.5962 C   0  0  0  0  0  0  0  0  0  0  0  0
    0.6513    4.6927   -0.8756 H   0  0  0  0  0  0  0  0  0  0  0  0
   -1.1905    4.2026    0.1356 C   0  0  0  0  0  0  0  0  0  0  0  0
   -1.4620    5.4848    0.5162 O   0  0  0  0  0  0  0  0  0  0  0  0
   -0.7290    6.0672    0.2631 H   0  0  0  0  0  0  0  0  0  0  0  0
   -2.0774    3.1814    0.4666 C   0  0  0  0  0  0  0  0  0  0  0  0
   -2.9796    3.4252    1.0179 H   0  0  0  0  0  0  0  0  0  0  0  0
   -1.8108    1.8625    0.0847 C   0  0  0  0  0  0  0  0  0  0  0  0
   -2.5321    1.0895    0.3258 H   0  0  0  0  0  0  0  0  0  0  0  0
   -0.0727   -0.6308    1.3831 C   0  0  0  0  0  0  0  0  0  0  0  0
    1.1180   -0.5947    1.6676 O   0  0  0  0  0  0  0  0  0  0  0  0
   -0.9862   -0.1187    2.2873 N   0  0  0  0  0  0  0  0  0  0  0  0
   -1.9660   -0.1731    2.0354 H   0  0  0  0  0  0  0  0  0  0  0  0
   -0.6186    0.3810    3.6051 C   0  0  0  0  0  0  0  0  0  0  0  0
    0.0723    1.2257    3.5138 H   0  0  0  0  0  0  0  0  0  0  0  0
   -1.5090    0.7193    4.1434 H   0  0  0  0  0  0  0  0  0  0  0  0
   -0.1370   -0.4074    4.1927 H   0  0  0  0  0  0  0  0  0  0  0  0
  1  2  1  0  0  0  0
  2  3  1  0  0  0  0
  2  4  1  0  0  0  0
  2  5  1  0  0  0  0
  5  6  2  0  0  0  0
  5  7  1  0  0  0  0
  7  8  1  0  0  0  0
  7  9  1  0  0  0  0
  9 10  1  0  0  0  0
  9 11  1  0  0  0  0
  9 26  1  0  0  0  0
 11 12  1  0  0  0  0
 11 13  1  0  0  0  0
 11 14  1  0  0  0  0
 14 15  2  0  0  0  0
 14 24  1  0  0  0  0
 15 16  1  0  0  0  0
 15 17  1  0  0  0  0
 17 18  1  0  0  0  0
 17 19  2  0  0  0  0
 19 20  1  0  0  0  0
 19 22  1  0  0  0  0
 20 21  1  0  0  0  0
 22 23  1  0  0  0  0
 22 24  2  0  0  0  0
 24 25  1  0  0  0  0
 26 27  2  0  0  0  0
 26 28  1  0  0  0  0
 28 29  1  0  0  0  0
 28 30  1  0  0  0  0
 30 31  1  0  0  0  0
 30 32  1  0  0  0  0
 30 33  1  0  0  0  0
M  END
$$$$

  -OEChem-03222214083D

 33 33  0     1  0  0  0  0  0999 V2000
   -3.3003   -4.7031    0.4118 H   0  0  0  0  0  0  0  0  0  0  0  0
   -3.2813   -3.7188   -0.0651 C   0  0  0  0  0  0  0  0  0  0  0  0
   -4.1393   -3.1415    0.2872 H   0  0  0  0  0  0  0  0  0  0  0  0
   -3.3582   -3.8518   -1.1470 H   0  0  0  0  0  0  0  0  0  0  0  0
   -1.9915   -2.9971    0.2783 C   0  0  0  0  0  0  0  0  0  0  0  0
   -1.1626   -3.5398    0.9862 O   0  0  0  0  0  0  0  0  0  0  0  0
   -1.7686   -1.7227   -0.2054 N   0  0  0  0  0  0  0  0  0  0  0  0
   -2.4781   -1.3326   -0.8189 H   0  0  0  0  0  0  0  0  0  0  0  0
   -0.5164   -0.9664   -0.0144 C   0  0  1  0  0  0  0  0  0  0  0  0
    0.2523   -1.6792   -0.3361 H   0  0  0  0  0  0  0  0  0  0  0  0
   -0.3852    0.1803   -1.0480 C   0  0  0  0  0  0  0  0  0  0  0  0
    0.6433    0.1418   -1.4231 H   0  0  0  0  0  0  0  0  0  0  0  0
   -1.0381   -0.0243   -1.9021 H   0  0  0  0  0  0  0  0  0  0  0  0
   -0.6367    1.6018   -0.5820 C   0  0  0  0  0  0  0  0  0  0  0  0
    0.0485    2.6550   -1.2104 C   0  0  0  0  0  0  0  0  0  0  0  0
    0.8188    2.4386   -1.9451 H   0  0  0  0  0  0  0  0  0  0  0  0
   -0.2263    3.9888   -0.8862 C   0  0  0  0  0  0  0  0  0  0  0  0
    0.3400    4.7807   -1.3641 H   0  0  0  0  0  0  0  0  0  0  0  0
   -1.2253    4.2930    0.0387 C   0  0  0  0  0  0  0  0  0  0  0  0
   -1.5017    5.5885    0.3668 O   0  0  0  0  0  0  0  0  0  0  0  0
   -0.8655    6.1817   -0.0615 H   0  0  0  0  0  0  0  0  0  0  0  0
   -1.9621    3.2623    0.6149 C   0  0  0  0  0  0  0  0  0  0  0  0
   -2.7584    3.5084    1.3095 H   0  0  0  0  0  0  0  0  0  0  0  0
   -1.6879    1.9293    0.2911 C   0  0  0  0  0  0  0  0  0  0  0  0
   -2.3173    1.1558    0.7141 H   0  0  0  0  0  0  0  0  0  0  0  0
   -0.0698   -0.6635    1.4375 C   0  0  0  0  0  0  0  0  0  0  0  0
    1.1280   -0.6166    1.6877 O   0  0  0  0  0  0  0  0  0  0  0  0
   -0.9605   -0.2106    2.3949 N   0  0  0  0  0  0  0  0  0  0  0  0
   -1.9459   -0.3458    2.1995 H   0  0  0  0  0  0  0  0  0  0  0  0
   -0.5566    0.1744    3.7412 C   0  0  0  0  0  0  0  0  0  0  0  0
    0.1431    1.0159    3.7038 H   0  0  0  0  0  0  0  0  0  0  0  0
   -1.4298    0.4787    4.3257 H   0  0  0  0  0  0  0  0  0  0  0  0
   -0.0727   -0.6652    4.2509 H   0  0  0  0  0  0  0  0  0  0  0  0
  1  2  1  0  0  0  0
  2  3  1  0  0  0  0
  2  4  1  0  0  0  0
  2  5  1  0  0  0  0
  5  6  2  0  0  0  0
  5  7  1  0  0  0  0
  7  8  1  0  0  0  0
  7  9  1  0  0  0  0
  9 10  1  0  0  0  0
  9 11  1  0  0  0  0
  9 26  1  0  0  0  0
 11 12  1  0  0  0  0
 11 13  1  0  0  0  0
 11 14  1  0  0  0  0
 14 15  2  0  0  0  0
 14 24  1  0  0  0  0
 15 16  1  0  0  0  0
 15 17  1  0  0  0  0
 17 18  1  0  0  0  0
 17 19  2  0  0  0  0
 19 20  1  0  0  0  0
 19 22  1  0  0  0  0
 20 21  1  0  0  0  0
 22 23  1  0  0  0  0
 22 24  2  0  0  0  0
 24 25  1  0  0  0  0
 26 27  2  0  0  0  0
 26 28  1  0  0  0  0
 28 29  1  0  0  0  0
 28 30  1  0  0  0  0
 30 31  1  0  0  0  0
 30 32  1  0  0  0  0
 30 33  1  0  0  0  0
M  END
$$$$

  -OEChem-03222214083D

 33 33  0     1  0  0  0  0  0999 V2000
   -3.3032   -4.7103    0.2513 H   0  0  0  0  0  0  0  0  0  0  0  0
   -3.2855   -3.7005   -0.1692 C   0  0  0  0  0  0  0  0  0  0  0  0
   -4.1467   -3.1466    0.2124 H   0  0  0  0  0  0  0  0  0  0  0  0
   -3.3578   -3.7716   -1.2572 H   0  0  0  0  0  0  0  0  0  0  0  0
   -1.9989   -2.9959    0.2184 C   0  0  0  0  0  0  0  0  0  0  0  0
   -1.1663   -3.5776    0.8902 O   0  0  0  0  0  0  0  0  0  0  0  0
   -1.7868   -1.6904   -0.1792 N   0  0  0  0  0  0  0  0  0  0  0  0
   -2.5071   -1.2612   -0.7527 H   0  0  0  0  0  0  0  0  0  0  0  0
   -0.5429   -0.9346    0.0579 C   0  0  1  0  0  0  0  0  0  0  0  0
    0.2208   -1.6454   -0.2807 H   0  0  0  0  0  0  0  0  0  0  0  0
   -0.3652    0.2246   -0.9571 C   0  0  0  0  0  0  0  0  0  0  0  0
    0.6790    0.1805   -1.2860 H   0  0  0  0  0  0  0  0  0  0  0  0
   -0.9802    0.0161   -1.8381 H   0  0  0  0  0  0  0  0  0  0  0  0
   -0.6149    1.6645   -0.5421 C   0  0  0  0  0  0  0  0  0  0  0  0
   -0.1274    2.6785   -1.3849 C   0  0  0  0  0  0  0  0  0  0  0  0
    0.4993    2.4188   -2.2334 H   0  0  0  0  0  0  0  0  0  0  0  0
   -0.4084    4.0273   -1.1375 C   0  0  0  0  0  0  0  0  0  0  0  0
    0.0108    4.7881   -1.7867 H   0  0  0  0  0  0  0  0  0  0  0  0
   -1.2278    4.3855   -0.0681 C   0  0  0  0  0  0  0  0  0  0  0  0
   -1.5115    5.6960    0.1867 O   0  0  0  0  0  0  0  0  0  0  0  0
   -1.0079    6.2675   -0.4132 H   0  0  0  0  0  0  0  0  0  0  0  0
   -1.7846    3.3899    0.7283 C   0  0  0  0  0  0  0  0  0  0  0  0
   -2.4530    3.6727    1.5348 H   0  0  0  0  0  0  0  0  0  0  0  0
   -1.5041    2.0420    0.4791 C   0  0  0  0  0  0  0  0  0  0  0  0
   -2.0252    1.3055    1.0724 H   0  0  0  0  0  0  0  0  0  0  0  0
   -0.0866   -0.7175    1.5218 C   0  0  0  0  0  0  0  0  0  0  0  0
    1.1128   -0.6602    1.7613 O   0  0  0  0  0  0  0  0  0  0  0  0
   -0.9719   -0.3368    2.5144 N   0  0  0  0  0  0  0  0  0  0  0  0
   -1.9545   -0.5061    2.3289 H   0  0  0  0  0  0  0  0  0  0  0  0
   -0.5568   -0.0486    3.8814 C   0  0  0  0  0  0  0  0  0  0  0  0
    0.1570    0.7818    3.8973 H   0  0  0  0  0  0  0  0  0  0  0  0
   -1.4229    0.2314    4.4882 H   0  0  0  0  0  0  0  0  0  0  0  0
   -0.0852   -0.9282    4.3318 H   0  0  0  0  0  0  0  0  0  0  0  0
  1  2  1  0  0  0  0
  2  3  1  0  0  0  0
  2  4  1  0  0  0  0
  2  5  1  0  0  0  0
  5  6  2  0  0  0  0
  5  7  1  0  0  0  0
  7  8  1  0  0  0  0
  7  9  1  0  0  0  0
  9 10  1  0  0  0  0
  9 11  1  0  0  0  0
  9 26  1  0  0  0  0
 11 12  1  0  0  0  0
 11 13  1  0  0  0  0
 11 14  1  0  0  0  0
 14 15  2  0  0  0  0
 14 24  1  0  0  0  0
 15 16  1  0  0  0  0
 15 17  1  0  0  0  0
 17 18  1  0  0  0  0
 17 19  2  0  0  0  0
 19 20  1  0  0  0  0
 19 22  1  0  0  0  0
 20 21  1  0  0  0  0
 22 23  1  0  0  0  0
 22 24  2  0  0  0  0
 24 25  1  0  0  0  0
 26 27  2  0  0  0  0
 26 28  1  0  0  0  0
 28 29  1  0  0  0  0
 28 30  1  0  0  0  0
 30 31  1  0  0  0  0
 30 32  1  0  0  0  0
 30 33  1  0  0  0  0
M  END
$$$$

  -OEChem-03222214083D

 33 33  0     1  0  0  0  0  0999 V2000
   -3.3966   -4.5996    0.3048 H   0  0  0  0  0  0  0  0  0  0  0  0
   -3.3369   -3.5970   -0.1283 C   0  0  0  0  0  0  0  0  0  0  0  0
   -4.1350   -2.9836    0.2963 H   0  0  0  0  0  0  0  0  0  0  0  0
   -3.4787   -3.6725   -1.2090 H   0  0  0  0  0  0  0  0  0  0  0  0
   -1.9846   -2.9784    0.1749 C   0  0  0  0  0  0  0  0  0  0  0  0
   -1.1420   -3.6263    0.7686 O   0  0  0  0  0  0  0  0  0  0  0  0
   -1.7193   -1.6826   -0.2258 N   0  0  0  0  0  0  0  0  0  0  0  0
   -2.4602   -1.1944   -0.7199 H   0  0  0  0  0  0  0  0  0  0  0  0
   -0.4468   -0.9689    0.0137 C   0  0  1  0  0  0  0  0  0  0  0  0
    0.3418   -1.6380   -0.3503 H   0  0  0  0  0  0  0  0  0  0  0  0
   -0.3804    0.2730   -0.9323 C   0  0  0  0  0  0  0  0  0  0  0  0
    0.4979    0.0986   -1.5634 H   0  0  0  0  0  0  0  0  0  0  0  0
   -1.2466    0.2244   -1.5997 H   0  0  0  0  0  0  0  0  0  0  0  0
   -0.2651    1.7364   -0.5004 C   0  0  0  0  0  0  0  0  0  0  0  0
   -0.2271    2.6642   -1.5591 C   0  0  0  0  0  0  0  0  0  0  0  0
   -0.2976    2.3134   -2.5848 H   0  0  0  0  0  0  0  0  0  0  0  0
   -0.1103    4.0396   -1.3320 C   0  0  0  0  0  0  0  0  0  0  0  0
   -0.0961    4.7220   -2.1748 H   0  0  0  0  0  0  0  0  0  0  0  0
   -0.0090    4.5249   -0.0311 C   0  0  0  0  0  0  0  0  0  0  0  0
    0.1037    5.8641    0.2083 O   0  0  0  0  0  0  0  0  0  0  0  0
    0.1413    6.3498   -0.6298 H   0  0  0  0  0  0  0  0  0  0  0  0
   -0.0093    3.6274    1.0305 C   0  0  0  0  0  0  0  0  0  0  0  0
    0.0949    4.0075    2.0415 H   0  0  0  0  0  0  0  0  0  0  0  0
   -0.1232    2.2503    0.8055 C   0  0  0  0  0  0  0  0  0  0  0  0
   -0.0691    1.6346    1.6875 H   0  0  0  0  0  0  0  0  0  0  0  0
   -0.1211   -0.8359    1.5161 C   0  0  0  0  0  0  0  0  0  0  0  0
    1.0417   -0.8729    1.8956 O   0  0  0  0  0  0  0  0  0  0  0  0
   -1.1071   -0.4584    2.4132 N   0  0  0  0  0  0  0  0  0  0  0  0
   -2.0626   -0.4906    2.0748 H   0  0  0  0  0  0  0  0  0  0  0  0
   -0.8710   -0.3394    3.8466 C   0  0  0  0  0  0  0  0  0  0  0  0
   -0.0689    0.3790    4.0463 H   0  0  0  0  0  0  0  0  0  0  0  0
   -1.7770    0.0080    4.3519 H   0  0  0  0  0  0  0  0  0  0  0  0
   -0.5874   -1.3097    4.2675 H   0  0  0  0  0  0  0  0  0  0  0  0
  1  2  1  0  0  0  0
  2  3  1  0  0  0  0
  2  4  1  0  0  0  0
  2  5  1  0  0  0  0
  5  6  2  0  0  0  0
  5  7  1  0  0  0  0
  7  8  1  0  0  0  0
  7  9  1  0  0  0  0
  9 10  1  0  0  0  0
  9 11  1  0  0  0  0
  9 26  1  0  0  0  0
 11 12  1  0  0  0  0
 11 13  1  0  0  0  0
 11 14  1  0  0  0  0
 14 15  2  0  0  0  0
 14 24  1  0  0  0  0
 15 16  1  0  0  0  0
 15 17  1  0  0  0  0
 17 18  1  0  0  0  0
 17 19  2  0  0  0  0
 19 20  1  0  0  0  0
 19 22  1  0  0  0  0
 20 21  1  0  0  0  0
 22 23  1  0  0  0  0
 22 24  2  0  0  0  0
 24 25  1  0  0  0  0
 26 27  2  0  0  0  0
 26 28  1  0  0  0  0
 28 29  1  0  0  0  0
 28 30  1  0  0  0  0
 30 31  1  0  0  0  0
 30 32  1  0  0  0  0
 30 33  1  0  0  0  0
M  END
$$$$

  -OEChem-03222214083D

 33 33  0     1  0  0  0  0  0999 V2000
   -3.4440   -4.5599    0.4159 H   0  0  0  0  0  0  0  0  0  0  0  0
   -3.3599   -3.5793   -0.0614 C   0  0  0  0  0  0  0  0  0  0  0  0
   -4.1340   -2.9245    0.3452 H   0  0  0  0  0  0  0  0  0  0  0  0
   -3.5173   -3.6973   -1.1361 H   0  0  0  0  0  0  0  0  0  0  0  0
   -1.9864   -2.9895    0.2000 C   0  0  0  0  0  0  0  0  0  0  0  0
   -1.1545   -3.6424    0.8033 O   0  0  0  0  0  0  0  0  0  0  0  0
   -1.6850   -1.7211   -0.2594 N   0  0  0  0  0  0  0  0  0  0  0  0
   -2.4199   -1.2248   -0.7539 H   0  0  0  0  0  0  0  0  0  0  0  0
   -0.4035   -1.0243   -0.0144 C   0  0  1  0  0  0  0  0  0  0  0  0
    0.3953   -1.6944   -0.3529 H   0  0  0  0  0  0  0  0  0  0  0  0
   -0.3610    0.2186   -0.9622 C   0  0  0  0  0  0  0  0  0  0  0  0
    0.5108    0.0616   -1.6059 H   0  0  0  0  0  0  0  0  0  0  0  0
   -1.2333    0.1669   -1.6215 H   0  0  0  0  0  0  0  0  0  0  0  0
   -0.2486    1.6722   -0.4944 C   0  0  0  0  0  0  0  0  0  0  0  0
   -0.5599    2.6475   -1.4620 C   0  0  0  0  0  0  0  0  0  0  0  0
   -0.9101    2.3423   -2.4439 H   0  0  0  0  0  0  0  0  0  0  0  0
   -0.4466    4.0161   -1.1937 C   0  0  0  0  0  0  0  0  0  0  0  0
   -0.7176    4.7357   -1.9583 H   0  0  0  0  0  0  0  0  0  0  0  0
    0.0201    4.4480    0.0450 C   0  0  0  0  0  0  0  0  0  0  0  0
    0.1355    5.7790    0.3250 O   0  0  0  0  0  0  0  0  0  0  0  0
   -0.1261    6.3061   -0.4452 H   0  0  0  0  0  0  0  0  0  0  0  0
    0.3965    3.5056    0.9945 C   0  0  0  0  0  0  0  0  0  0  0  0
    0.7979    3.8449    1.9440 H   0  0  0  0  0  0  0  0  0  0  0  0
    0.2882    2.1363    0.7266 C   0  0  0  0  0  0  0  0  0  0  0  0
    0.6719    1.4828    1.4964 H   0  0  0  0  0  0  0  0  0  0  0  0
   -0.1325   -0.8276    1.4916 C   0  0  0  0  0  0  0  0  0  0  0  0
    1.0020   -0.9570    1.9335 O   0  0  0  0  0  0  0  0  0  0  0  0
   -1.1373   -0.3823    2.3333 N   0  0  0  0  0  0  0  0  0  0  0  0
   -2.0649   -0.2843    1.9354 H   0  0  0  0  0  0  0  0  0  0  0  0
   -0.9469   -0.1570    3.7602 C   0  0  0  0  0  0  0  0  0  0  0  0
   -0.1750    0.6011    3.9288 H   0  0  0  0  0  0  0  0  0  0  0  0
   -1.8783    0.1919    4.2157 H   0  0  0  0  0  0  0  0  0  0  0  0
   -0.6442   -1.0853    4.2562 H   0  0  0  0  0  0  0  0  0  0  0  0
  1  2  1  0  0  0  0
  2  3  1  0  0  0  0
  2  4  1  0  0  0  0
  2  5  1  0  0  0  0
  5  6  2  0  0  0  0
  5  7  1  0  0  0  0
  7  8  1  0  0  0  0
  7  9  1  0  0  0  0
  9 10  1  0  0  0  0
  9 11  1  0  0  0  0
  9 26  1  0  0  0  0
 11 12  1  0  0  0  0
 11 13  1  0  0  0  0
 11 14  1  0  0  0  0
 14 15  2  0  0  0  0
 14 24  1  0  0  0  0
 15 16  1  0  0  0  0
 15 17  1  0  0  0  0
 17 18  1  0  0  0  0
 17 19  2  0  0  0  0
 19 20  1  0  0  0  0
 19 22  1  0  0  0  0
 20 21  1  0  0  0  0
 22 23  1  0  0  0  0
 22 24  2  0  0  0  0
 24 25  1  0  0  0  0
 26 27  2  0  0  0  0
 26 28  1  0  0  0  0
 28 29  1  0  0  0  0
 28 30  1  0  0  0  0
 30 31  1  0  0  0  0
 30 32  1  0  0  0  0
 30 33  1  0  0  0  0
M  END
$$$$

  -OEChem-03222214083D

 33 33  0     1  0  0  0  0  0999 V2000
   -3.4443   -4.5354    0.5407 H   0  0  0  0  0  0  0  0  0  0  0  0
   -3.3467   -3.5831    0.0113 C   0  0  0  0  0  0  0  0  0  0  0  0
   -4.1088   -2.8950    0.3847 H   0  0  0  0  0  0  0  0  0  0  0  0
   -3.5098   -3.7559   -1.0551 H   0  0  0  0  0  0  0  0  0  0  0  0
   -1.9633   -3.0017    0.2357 C   0  0  0  0  0  0  0  0  0  0  0  0
   -1.1322   -3.6418    0.8534 O   0  0  0  0  0  0  0  0  0  0  0  0
   -1.6504   -1.7599   -0.2842 N   0  0  0  0  0  0  0  0  0  0  0  0
   -2.3896   -1.2721   -0.7799 H   0  0  0  0  0  0  0  0  0  0  0  0
   -0.3718   -1.0548   -0.0499 C   0  0  1  0  0  0  0  0  0  0  0  0
    0.4401   -1.7237   -0.3579 H   0  0  0  0  0  0  0  0  0  0  0  0
   -0.3522    0.1692   -1.0207 C   0  0  0  0  0  0  0  0  0  0  0  0
    0.5183    0.0278   -1.6696 H   0  0  0  0  0  0  0  0  0  0  0  0
   -1.2266    0.1087   -1.6764 H   0  0  0  0  0  0  0  0  0  0  0  0
   -0.2521    1.6030   -0.5071 C   0  0  0  0  0  0  0  0  0  0  0  0
   -0.8681    2.6098   -1.2745 C   0  0  0  0  0  0  0  0  0  0  0  0
   -1.4639    2.3444   -2.1427 H   0  0  0  0  0  0  0  0  0  0  0  0
   -0.7512    3.9629   -0.9359 C   0  0  0  0  0  0  0  0  0  0  0  0
   -1.2641    4.7097   -1.5322 H   0  0  0  0  0  0  0  0  0  0  0  0
    0.0293    4.3459    0.1535 C   0  0  0  0  0  0  0  0  0  0  0  0
    0.1542    5.6608    0.4985 O   0  0  0  0  0  0  0  0  0  0  0  0
   -0.3420    6.2179   -0.1202 H   0  0  0  0  0  0  0  0  0  0  0  0
    0.7146    3.3742    0.8744 C   0  0  0  0  0  0  0  0  0  0  0  0
    1.3588    3.6782    1.6933 H   0  0  0  0  0  0  0  0  0  0  0  0
    0.6024    2.0223    0.5331 C   0  0  0  0  0  0  0  0  0  0  0  0
    1.2272    1.3277    1.0811 H   0  0  0  0  0  0  0  0  0  0  0  0
   -0.1363   -0.7828    1.4535 C   0  0  0  0  0  0  0  0  0  0  0  0
    0.9737   -0.9505    1.9431 O   0  0  0  0  0  0  0  0  0  0  0  0
   -1.1581   -0.2919    2.2473 N   0  0  0  0  0  0  0  0  0  0  0  0
   -2.0457   -0.1034    1.7955 H   0  0  0  0  0  0  0  0  0  0  0  0
   -0.9859    0.0591    3.6507 C   0  0  0  0  0  0  0  0  0  0  0  0
   -0.2689    0.8804    3.7541 H   0  0  0  0  0  0  0  0  0  0  0  0
   -1.9407    0.3759    4.0808 H   0  0  0  0  0  0  0  0  0  0  0  0
   -0.6205   -0.8028    4.2193 H   0  0  0  0  0  0  0  0  0  0  0  0
  1  2  1  0  0  0  0
  2  3  1  0  0  0  0
  2  4  1  0  0  0  0
  2  5  1  0  0  0  0
  5  6  2  0  0  0  0
  5  7  1  0  0  0  0
  7  8  1  0  0  0  0
  7  9  1  0  0  0  0
  9 10  1  0  0  0  0
  9 11  1  0  0  0  0
  9 26  1  0  0  0  0
 11 12  1  0  0  0  0
 11 13  1  0  0  0  0
 11 14  1  0  0  0  0
 14 15  2  0  0  0  0
 14 24  1  0  0  0  0
 15 16  1  0  0  0  0
 15 17  1  0  0  0  0
 17 18  1  0  0  0  0
 17 19  2  0  0  0  0
 19 20  1  0  0  0  0
 19 22  1  0  0  0  0
 20 21  1  0  0  0  0
 22 23  1  0  0  0  0
 22 24  2  0  0  0  0
 24 25  1  0  0  0  0
 26 27  2  0  0  0  0
 26 28  1  0  0  0  0
 28 29  1  0  0  0  0
 28 30  1  0  0  0  0
 30 31  1  0  0  0  0
 30 32  1  0  0  0  0
 30 33  1  0  0  0  0
M  END
$$$$

  -OEChem-03222214083D

 33 33  0     1  0  0  0  0  0999 V2000
   -3.4335   -4.5401    0.5963 H   0  0  0  0  0  0  0  0  0  0  0  0
   -3.3391   -3.5978    0.0487 C   0  0  0  0  0  0  0  0  0  0  0  0
   -4.1065   -2.9068    0.4055 H   0  0  0  0  0  0  0  0  0  0  0  0
   -3.4971   -3.7924   -1.0148 H   0  0  0  0  0  0  0  0  0  0  0  0
   -1.9604   -3.0030    0.2671 C   0  0  0  0  0  0  0  0  0  0  0  0
   -1.1357   -3.6135    0.9221 O   0  0  0  0  0  0  0  0  0  0  0  0
   -1.6448   -1.7825   -0.2994 N   0  0  0  0  0  0  0  0  0  0  0  0
   -2.3784   -1.3183   -0.8251 H   0  0  0  0  0  0  0  0  0  0  0  0
   -0.3686   -1.0691   -0.0827 C   0  0  1  0  0  0  0  0  0  0  0  0
    0.4442   -1.7476   -0.3658 H   0  0  0  0  0  0  0  0  0  0  0  0
   -0.3400    0.1286   -1.0810 C   0  0  0  0  0  0  0  0  0  0  0  0
    0.5352   -0.0165   -1.7231 H   0  0  0  0  0  0  0  0  0  0  0  0
   -1.2104    0.0692   -1.7422 H   0  0  0  0  0  0  0  0  0  0  0  0
   -0.2384    1.5449   -0.5340 C   0  0  0  0  0  0  0  0  0  0  0  0
   -1.0802    2.5391   -1.0630 C   0  0  0  0  0  0  0  0  0  0  0  0
   -1.8414    2.2792   -1.7923 H   0  0  0  0  0  0  0  0  0  0  0  0
   -0.9694    3.8731   -0.6538 C   0  0  0  0  0  0  0  0  0  0  0  0
   -1.6489    4.6149   -1.0592 H   0  0  0  0  0  0  0  0  0  0  0  0
    0.0150    4.2456    0.2617 C   0  0  0  0  0  0  0  0  0  0  0  0
    0.1340    5.5426    0.6702 O   0  0  0  0  0  0  0  0  0  0  0  0
   -0.5299    6.0943    0.2293 H   0  0  0  0  0  0  0  0  0  0  0  0
    0.9005    3.2855    0.7421 C   0  0  0  0  0  0  0  0  0  0  0  0
    1.6858    3.5835    1.4294 H   0  0  0  0  0  0  0  0  0  0  0  0
    0.7948    1.9530    0.3305 C   0  0  0  0  0  0  0  0  0  0  0  0
    1.5402    1.2475    0.6855 H   0  0  0  0  0  0  0  0  0  0  0  0
   -0.1278   -0.7298    1.4077 C   0  0  0  0  0  0  0  0  0  0  0  0
    0.9877   -0.8657    1.8950 O   0  0  0  0  0  0  0  0  0  0  0  0
   -1.1454   -0.2021    2.1833 N   0  0  0  0  0  0  0  0  0  0  0  0
   -2.0264   -0.0107    1.7199 H   0  0  0  0  0  0  0  0  0  0  0  0
   -0.9460    0.2642    3.5490 C   0  0  0  0  0  0  0  0  0  0  0  0
   -0.2432    1.1039    3.5668 H   0  0  0  0  0  0  0  0  0  0  0  0
   -1.8958    0.5965    3.9782 H   0  0  0  0  0  0  0  0  0  0  0  0
   -0.5484   -0.5420    4.1744 H   0  0  0  0  0  0  0  0  0  0  0  0
  1  2  1  0  0  0  0
  2  3  1  0  0  0  0
  2  4  1  0  0  0  0
  2  5  1  0  0  0  0
  5  6  2  0  0  0  0
  5  7  1  0  0  0  0
  7  8  1  0  0  0  0
  7  9  1  0  0  0  0
  9 10  1  0  0  0  0
  9 11  1  0  0  0  0
  9 26  1  0  0  0  0
 11 12  1  0  0  0  0
 11 13  1  0  0  0  0
 11 14  1  0  0  0  0
 14 15  2  0  0  0  0
 14 24  1  0  0  0  0
 15 16  1  0  0  0  0
 15 17  1  0  0  0  0
 17 18  1  0  0  0  0
 17 19  2  0  0  0  0
 19 20  1  0  0  0  0
 19 22  1  0  0  0  0
 20 21  1  0  0  0  0
 22 23  1  0  0  0  0
 22 24  2  0  0  0  0
 24 25  1  0  0  0  0
 26 27  2  0  0  0  0
 26 28  1  0  0  0  0
 28 29  1  0  0  0  0
 28 30  1  0  0  0  0
 30 31  1  0  0  0  0
 30 32  1  0  0  0  0
 30 33  1  0  0  0  0
M  END
$$$$

  -OEChem-03222214083D

 33 33  0     1  0  0  0  0  0999 V2000
   -3.4207   -4.5464    0.6259 H   0  0  0  0  0  0  0  0  0  0  0  0
   -3.3348   -3.6096    0.0678 C   0  0  0  0  0  0  0  0  0  0  0  0
   -4.1142   -2.9244    0.4095 H   0  0  0  0  0  0  0  0  0  0  0  0
   -3.4811   -3.8191   -0.9944 H   0  0  0  0  0  0  0  0  0  0  0  0
   -1.9661   -2.9945    0.2915 C   0  0  0  0  0  0  0  0  0  0  0  0
   -1.1485   -3.5740    0.9827 O   0  0  0  0  0  0  0  0  0  0  0  0
   -1.6525   -1.7886   -0.3057 N   0  0  0  0  0  0  0  0  0  0  0  0
   -2.3750   -1.3538   -0.8702 H   0  0  0  0  0  0  0  0  0  0  0  0
   -0.3772   -1.0696   -0.1096 C   0  0  1  0  0  0  0  0  0  0  0  0
    0.4298   -1.7609   -0.3777 H   0  0  0  0  0  0  0  0  0  0  0  0
   -0.3334    0.1005   -1.1341 C   0  0  0  0  0  0  0  0  0  0  0  0
    0.5446   -0.0558   -1.7695 H   0  0  0  0  0  0  0  0  0  0  0  0
   -1.2009    0.0450   -1.7989 H   0  0  0  0  0  0  0  0  0  0  0  0
   -0.2265    1.5056   -0.5716 C   0  0  0  0  0  0  0  0  0  0  0  0
   -1.2344    2.4454   -0.8431 C   0  0  0  0  0  0  0  0  0  0  0  0
   -2.1112    2.1580   -1.4153 H   0  0  0  0  0  0  0  0  0  0  0  0
   -1.1307    3.7606   -0.3746 C   0  0  0  0  0  0  0  0  0  0  0  0
   -1.9264    4.4674   -0.5827 H   0  0  0  0  0  0  0  0  0  0  0  0
   -0.0068    4.1613    0.3497 C   0  0  0  0  0  0  0  0  0  0  0  0
    0.1023    5.4404    0.8137 O   0  0  0  0  0  0  0  0  0  0  0  0
   -0.6789    5.9555    0.5612 H   0  0  0  0  0  0  0  0  0  0  0  0
    1.0172    3.2483    0.5890 C   0  0  0  0  0  0  0  0  0  0  0  0
    1.8959    3.5660    1.1408 H   0  0  0  0  0  0  0  0  0  0  0  0
    0.9192    1.9341    0.1209 C   0  0  0  0  0  0  0  0  0  0  0  0
    1.7395    1.2456    0.3088 H   0  0  0  0  0  0  0  0  0  0  0  0
   -0.1090   -0.6812    1.3648 C   0  0  0  0  0  0  0  0  0  0  0  0
    1.0249   -0.7653    1.8207 O   0  0  0  0  0  0  0  0  0  0  0  0
   -1.1114   -0.1267    2.1416 N   0  0  0  0  0  0  0  0  0  0  0  0
   -2.0075    0.0288    1.6946 H   0  0  0  0  0  0  0  0  0  0  0  0
   -0.8757    0.4249    3.4693 C   0  0  0  0  0  0  0  0  0  0  0  0
   -0.1834    1.2715    3.4126 H   0  0  0  0  0  0  0  0  0  0  0  0
   -1.8155    0.7731    3.9077 H   0  0  0  0  0  0  0  0  0  0  0  0
   -0.4486   -0.3370    4.1297 H   0  0  0  0  0  0  0  0  0  0  0  0
  1  2  1  0  0  0  0
  2  3  1  0  0  0  0
  2  4  1  0  0  0  0
  2  5  1  0  0  0  0
  5  6  2  0  0  0  0
  5  7  1  0  0  0  0
  7  8  1  0  0  0  0
  7  9  1  0  0  0  0
  9 10  1  0  0  0  0
  9 11  1  0  0  0  0
  9 26  1  0  0  0  0
 11 12  1  0  0  0  0
 11 13  1  0  0  0  0
 11 14  1  0  0  0  0
 14 15  2  0  0  0  0
 14 24  1  0  0  0  0
 15 16  1  0  0  0  0
 15 17  1  0  0  0  0
 17 18  1  0  0  0  0
 17 19  2  0  0  0  0
 19 20  1  0  0  0  0
 19 22  1  0  0  0  0
 20 21  1  0  0  0  0
 22 23  1  0  0  0  0
 22 24  2  0  0  0  0
 24 25  1  0  0  0  0
 26 27  2  0  0  0  0
 26 28  1  0  0  0  0
 28 29  1  0  0  0  0
 28 30  1  0  0  0  0
 30 31  1  0  0  0  0
 30 32  1  0  0  0  0
 30 33  1  0  0  0  0
M  END
$$$$

  -OEChem-03222214083D

 33 33  0     1  0  0  0  0  0999 V2000
   -3.4130   -4.5554    0.6364 H   0  0  0  0  0  0  0  0  0  0  0  0
   -3.3324   -3.6217    0.0723 C   0  0  0  0  0  0  0  0  0  0  0  0
   -4.1294   -2.9473    0.3944 H   0  0  0  0  0  0  0  0  0  0  0  0
   -3.4560   -3.8422   -0.9908 H   0  0  0  0  0  0  0  0  0  0  0  0
   -1.9787   -2.9807    0.3157 C   0  0  0  0  0  0  0  0  0  0  0  0
   -1.1730   -3.5266    1.0472 O   0  0  0  0  0  0  0  0  0  0  0  0
   -1.6677   -1.7860   -0.3042 N   0  0  0  0  0  0  0  0  0  0  0  0
   -2.3695   -1.3918   -0.9221 H   0  0  0  0  0  0  0  0  0  0  0  0
   -0.3922   -1.0633   -0.1288 C   0  0  1  0  0  0  0  0  0  0  0  0
    0.4077   -1.7664   -0.3877 H   0  0  0  0  0  0  0  0  0  0  0  0
   -0.3355    0.0829   -1.1749 C   0  0  0  0  0  0  0  0  0  0  0  0
    0.5414   -0.0880   -1.8080 H   0  0  0  0  0  0  0  0  0  0  0  0
   -1.2041    0.0326   -1.8386 H   0  0  0  0  0  0  0  0  0  0  0  0
   -0.2224    1.4821   -0.6080 C   0  0  0  0  0  0  0  0  0  0  0  0
   -1.3374    2.3349   -0.6061 C   0  0  0  0  0  0  0  0  0  0  0  0
   -2.2884    1.9925   -1.0024 H   0  0  0  0  0  0  0  0  0  0  0  0
   -1.2379    3.6336   -0.0930 C   0  0  0  0  0  0  0  0  0  0  0  0
   -2.1097    4.2785   -0.0954 H   0  0  0  0  0  0  0  0  0  0  0  0
   -0.0226    4.0960    0.4163 C   0  0  0  0  0  0  0  0  0  0  0  0
    0.0843    5.3599    0.9208 O   0  0  0  0  0  0  0  0  0  0  0  0
   -0.7675    5.8181    0.8585 H   0  0  0  0  0  0  0  0  0  0  0  0
    1.0911    3.2589    0.4072 C   0  0  0  0  0  0  0  0  0  0  0  0
    2.0328    3.6216    0.8068 H   0  0  0  0  0  0  0  0  0  0  0  0
    0.9979    1.9608   -0.1056 C   0  0  0  0  0  0  0  0  0  0  0  0
    1.8745    1.3176   -0.0937 H   0  0  0  0  0  0  0  0  0  0  0  0
   -0.0912   -0.6368    1.3287 C   0  0  0  0  0  0  0  0  0  0  0  0
    1.0587   -0.6845    1.7483 O   0  0  0  0  0  0  0  0  0  0  0  0
   -1.0743   -0.0600    2.1136 N   0  0  0  0  0  0  0  0  0  0  0  0
   -1.9873    0.0627    1.6916 H   0  0  0  0  0  0  0  0  0  0  0  0
   -0.8041    0.5421    3.4124 C   0  0  0  0  0  0  0  0  0  0  0  0
   -0.1242    1.3937    3.3039 H   0  0  0  0  0  0  0  0  0  0  0  0
   -1.7341    0.8953    3.8672 H   0  0  0  0  0  0  0  0  0  0  0  0
   -0.3476   -0.1902    4.0867 H   0  0  0  0  0  0  0  0  0  0  0  0
  1  2  1  0  0  0  0
  2  3  1  0  0  0  0
  2  4  1  0  0  0  0
  2  5  1  0  0  0  0
  5  6  2  0  0  0  0
  5  7  1  0  0  0  0
  7  8  1  0  0  0  0
  7  9  1  0  0  0  0
  9 10  1  0  0  0  0
  9 11  1  0  0  0  0
  9 26  1  0  0  0  0
 11 12  1  0  0  0  0
 11 13  1  0  0  0  0
 11 14  1  0  0  0  0
 14 15  2  0  0  0  0
 14 24  1  0  0  0  0
 15 16  1  0  0  0  0
 15 17  1  0  0  0  0
 17 18  1  0  0  0  0
 17 19  2  0  0  0  0
 19 20  1  0  0  0  0
 19 22  1  0  0  0  0
 20 21  1  0  0  0  0
 22 23  1  0  0  0  0
 22 24  2  0  0  0  0
 24 25  1  0  0  0  0
 26 27  2  0  0  0  0
 26 28  1  0  0  0  0
 28 29  1  0  0  0  0
 28 30  1  0  0  0  0
 30 31  1  0  0  0  0
 30 32  1  0  0  0  0
 30 33  1  0  0  0  0
M  END
$$$$

  -OEChem-03222214083D

 33 33  0     1  0  0  0  0  0999 V2000
   -3.3903   -4.5747    0.6430 H   0  0  0  0  0  0  0  0  0  0  0  0
   -3.3213   -3.6447    0.0711 C   0  0  0  0  0  0  0  0  0  0  0  0
   -4.1416   -2.9875    0.3689 H   0  0  0  0  0  0  0  0  0  0  0  0
   -3.4166   -3.8789   -0.9919 H   0  0  0  0  0  0  0  0  0  0  0  0
   -1.9894   -2.9679    0.3359 C   0  0  0  0  0  0  0  0  0  0  0  0
   -1.1909   -3.4818    1.0977 O   0  0  0  0  0  0  0  0  0  0  0  0
   -1.6901   -1.7763   -0.2958 N   0  0  0  0  0  0  0  0  0  0  0  0
   -2.3770   -1.4180   -0.9513 H   0  0  0  0  0  0  0  0  0  0  0  0
   -0.4153   -1.0487   -0.1384 C   0  0  1  0  0  0  0  0  0  0  0  0
    0.3785   -1.7601   -0.3939 H   0  0  0  0  0  0  0  0  0  0  0  0
   -0.3455    0.0810   -1.1993 C   0  0  0  0  0  0  0  0  0  0  0  0
    0.5284   -0.1062   -1.8324 H   0  0  0  0  0  0  0  0  0  0  0  0
   -1.2177    0.0367   -1.8587 H   0  0  0  0  0  0  0  0  0  0  0  0
   -0.2264    1.4807   -0.6390 C   0  0  0  0  0  0  0  0  0  0  0  0
   -1.3782    2.2314   -0.3566 C   0  0  0  0  0  0  0  0  0  0  0  0
   -2.3615    1.8166   -0.5543 H   0  0  0  0  0  0  0  0  0  0  0  0
   -1.2713    3.5202    0.1790 C   0  0  0  0  0  0  0  0  0  0  0  0
   -2.1706    4.0890    0.3876 H   0  0  0  0  0  0  0  0  0  0  0  0
   -0.0139    4.0682    0.4425 C   0  0  0  0  0  0  0  0  0  0  0  0
    0.1025    5.3240    0.9651 O   0  0  0  0  0  0  0  0  0  0  0  0
   -0.7753    5.7080    1.1095 H   0  0  0  0  0  0  0  0  0  0  0  0
    1.1326    3.3242    0.1716 C   0  0  0  0  0  0  0  0  0  0  0  0
    2.1062    3.7511    0.3889 H   0  0  0  0  0  0  0  0  0  0  0  0
    1.0320    2.0366   -0.3651 C   0  0  0  0  0  0  0  0  0  0  0  0
    1.9366    1.4636   -0.5495 H   0  0  0  0  0  0  0  0  0  0  0  0
   -0.0861   -0.6052    1.3078 C   0  0  0  0  0  0  0  0  0  0  0  0
    1.0759   -0.6233    1.6951 O   0  0  0  0  0  0  0  0  0  0  0  0
   -1.0549   -0.0218    2.1053 N   0  0  0  0  0  0  0  0  0  0  0  0
   -1.9923    0.0374    1.7256 H   0  0  0  0  0  0  0  0  0  0  0  0
   -0.7645    0.5930    3.3932 C   0  0  0  0  0  0  0  0  0  0  0  0
   -0.0760    1.4353    3.2666 H   0  0  0  0  0  0  0  0  0  0  0  0
   -1.6854    0.9633    3.8528 H   0  0  0  0  0  0  0  0  0  0  0  0
   -0.3093   -0.1370    4.0709 H   0  0  0  0  0  0  0  0  0  0  0  0
  1  2  1  0  0  0  0
  2  3  1  0  0  0  0
  2  4  1  0  0  0  0
  2  5  1  0  0  0  0
  5  6  2  0  0  0  0
  5  7  1  0  0  0  0
  7  8  1  0  0  0  0
  7  9  1  0  0  0  0
  9 10  1  0  0  0  0
  9 11  1  0  0  0  0
  9 26  1  0  0  0  0
 11 12  1  0  0  0  0
 11 13  1  0  0  0  0
 11 14  1  0  0  0  0
 14 15  2  0  0  0  0
 14 24  1  0  0  0  0
 15 16  1  0  0  0  0
 15 17  1  0  0  0  0
 17 18  1  0  0  0  0
 17 19  2  0  0  0  0
 19 20  1  0  0  0  0
 19 22  1  0  0  0  0
 20 21  1  0  0  0  0
 22 23  1  0  0  0  0
 22 24  2  0  0  0  0
 24 25  1  0  0  0  0
 26 27  2  0  0  0  0
 26 28  1  0  0  0  0
 28 29  1  0  0  0  0
 28 30  1  0  0  0  0
 30 31  1  0  0  0  0
 30 32  1  0  0  0  0
 30 33  1  0  0  0  0
M  END
$$$$

  -OEChem-03222214083D

 33 33  0     1  0  0  0  0  0999 V2000
   -3.3815   -4.5879    0.6132 H   0  0  0  0  0  0  0  0  0  0  0  0
   -3.3168   -3.6525    0.0500 C   0  0  0  0  0  0  0  0  0  0  0  0
   -4.1506   -3.0090    0.3399 H   0  0  0  0  0  0  0  0  0  0  0  0
   -3.3922   -3.8794   -1.0162 H   0  0  0  0  0  0  0  0  0  0  0  0
   -1.9993   -2.9586    0.3410 C   0  0  0  0  0  0  0  0  0  0  0  0
   -1.2073   -3.4621    1.1162 O   0  0  0  0  0  0  0  0  0  0  0  0
   -1.7095   -1.7578   -0.2770 N   0  0  0  0  0  0  0  0  0  0  0  0
   -2.3851   -1.4155   -0.9529 H   0  0  0  0  0  0  0  0  0  0  0  0
   -0.4375   -1.0251   -0.1203 C   0  0  1  0  0  0  0  0  0  0  0  0
    0.3500   -1.7444   -0.3732 H   0  0  0  0  0  0  0  0  0  0  0  0
   -0.3443    0.0887   -1.1956 C   0  0  0  0  0  0  0  0  0  0  0  0
    0.5333   -0.1195   -1.8166 H   0  0  0  0  0  0  0  0  0  0  0  0
   -1.2103    0.0408   -1.8628 H   0  0  0  0  0  0  0  0  0  0  0  0
   -0.2281    1.5005   -0.6650 C   0  0  0  0  0  0  0  0  0  0  0  0
   -1.3487    2.1524   -0.1266 C   0  0  0  0  0  0  0  0  0  0  0  0
   -2.3121    1.6531   -0.1132 H   0  0  0  0  0  0  0  0  0  0  0  0
   -1.2370    3.4473    0.3928 C   0  0  0  0  0  0  0  0  0  0  0  0
   -2.1131    3.9384    0.8013 H   0  0  0  0  0  0  0  0  0  0  0  0
   -0.0029    4.1003    0.3868 C   0  0  0  0  0  0  0  0  0  0  0  0
    0.1173    5.3623    0.8929 O   0  0  0  0  0  0  0  0  0  0  0  0
   -0.7314    5.6581    1.2554 H   0  0  0  0  0  0  0  0  0  0  0  0
    1.1158    3.4552   -0.1364 C   0  0  0  0  0  0  0  0  0  0  0  0
    2.0740    3.9641   -0.1261 H   0  0  0  0  0  0  0  0  0  0  0  0
    1.0095    2.1608   -0.6569 C   0  0  0  0  0  0  0  0  0  0  0  0
    1.8980    1.6673   -1.0400 H   0  0  0  0  0  0  0  0  0  0  0  0
   -0.0869   -0.5918    1.3246 C   0  0  0  0  0  0  0  0  0  0  0  0
    1.0833   -0.5949    1.6859 O   0  0  0  0  0  0  0  0  0  0  0  0
   -1.0411   -0.0197    2.1478 N   0  0  0  0  0  0  0  0  0  0  0  0
   -2.0026   -0.0487    1.8304 H   0  0  0  0  0  0  0  0  0  0  0  0
   -0.7383    0.5237    3.4651 C   0  0  0  0  0  0  0  0  0  0  0  0
   -0.0044    1.3329    3.3839 H   0  0  0  0  0  0  0  0  0  0  0  0
   -1.6448    0.9249    3.9280 H   0  0  0  0  0  0  0  0  0  0  0  0
   -0.3321   -0.2572    4.1166 H   0  0  0  0  0  0  0  0  0  0  0  0
  1  2  1  0  0  0  0
  2  3  1  0  0  0  0
  2  4  1  0  0  0  0
  2  5  1  0  0  0  0
  5  6  2  0  0  0  0
  5  7  1  0  0  0  0
  7  8  1  0  0  0  0
  7  9  1  0  0  0  0
  9 10  1  0  0  0  0
  9 11  1  0  0  0  0
  9 26  1  0  0  0  0
 11 12  1  0  0  0  0
 11 13  1  0  0  0  0
 11 14  1  0  0  0  0
 14 15  2  0  0  0  0
 14 24  1  0  0  0  0
 15 16  1  0  0  0  0
 15 17  1  0  0  0  0
 17 18  1  0  0  0  0
 17 19  2  0  0  0  0
 19 20  1  0  0  0  0
 19 22  1  0  0  0  0
 20 21  1  0  0  0  0
 22 23  1  0  0  0  0
 22 24  2  0  0  0  0
 24 25  1  0  0  0  0
 26 27  2  0  0  0  0
 26 28  1  0  0  0  0
 28 29  1  0  0  0  0
 28 30  1  0  0  0  0
 30 31  1  0  0  0  0
 30 32  1  0  0  0  0
 30 33  1  0  0  0  0
M  END
$$$$

  -OEChem-03222214083D

 33 33  0     1  0  0  0  0  0999 V2000
   -3.3585   -4.6310    0.5301 H   0  0  0  0  0  0  0  0  0  0  0  0
   -3.3051   -3.6777   -0.0036 C   0  0  0  0  0  0  0  0  0  0  0  0
   -4.1581   -3.0618    0.2909 H   0  0  0  0  0  0  0  0  0  0  0  0
   -3.3574   -3.8737   -1.0772 H   0  0  0  0  0  0  0  0  0  0  0  0
   -2.0080   -2.9647    0.3306 C   0  0  0  0  0  0  0  0  0  0  0  0
   -1.2211   -3.4708    1.1096 O   0  0  0  0  0  0  0  0  0  0  0  0
   -1.7331   -1.7405   -0.2473 N   0  0  0  0  0  0  0  0  0  0  0  0
   -2.4021   -1.3972   -0.9297 H   0  0  0  0  0  0  0  0  0  0  0  0
   -0.4666   -1.0014   -0.0753 C   0  0  1  0  0  0  0  0  0  0  0  0
    0.3153   -1.7247   -0.3344 H   0  0  0  0  0  0  0  0  0  0  0  0
   -0.3422    0.1100   -1.1525 C   0  0  0  0  0  0  0  0  0  0  0  0
    0.5452   -0.1173   -1.7525 H   0  0  0  0  0  0  0  0  0  0  0  0
   -1.1952    0.0555   -1.8354 H   0  0  0  0  0  0  0  0  0  0  0  0
   -0.2317    1.5405   -0.6645 C   0  0  0  0  0  0  0  0  0  0  0  0
   -1.2480    2.1277    0.1063 C   0  0  0  0  0  0  0  0  0  0  0  0
   -2.1463    1.5658    0.3388 H   0  0  0  0  0  0  0  0  0  0  0  0
   -1.1233    3.4414    0.5729 C   0  0  0  0  0  0  0  0  0  0  0  0
   -1.9201    3.8770    1.1652 H   0  0  0  0  0  0  0  0  0  0  0  0
    0.0206    4.1842    0.2767 C   0  0  0  0  0  0  0  0  0  0  0  0
    0.1543    5.4655    0.7279 O   0  0  0  0  0  0  0  0  0  0  0  0
   -0.5919    5.6950    1.3023 H   0  0  0  0  0  0  0  0  0  0  0  0
    1.0360    3.6097   -0.4843 C   0  0  0  0  0  0  0  0  0  0  0  0
    1.9259    4.1902   -0.7044 H   0  0  0  0  0  0  0  0  0  0  0  0
    0.9166    2.2958   -0.9499 C   0  0  0  0  0  0  0  0  0  0  0  0
    1.7295    1.8651   -1.5273 H   0  0  0  0  0  0  0  0  0  0  0  0
   -0.1008   -0.6111    1.3778 C   0  0  0  0  0  0  0  0  0  0  0  0
    1.0759   -0.5976    1.7162 O   0  0  0  0  0  0  0  0  0  0  0  0
   -1.0478   -0.0754    2.2333 N   0  0  0  0  0  0  0  0  0  0  0  0
   -2.0182   -0.1912    1.9656 H   0  0  0  0  0  0  0  0  0  0  0  0
   -0.7339    0.3834    3.5800 C   0  0  0  0  0  0  0  0  0  0  0  0
    0.0024    1.1934    3.5443 H   0  0  0  0  0  0  0  0  0  0  0  0
   -1.6360    0.7582    4.0724 H   0  0  0  0  0  0  0  0  0  0  0  0
   -0.3263   -0.4376    4.1794 H   0  0  0  0  0  0  0  0  0  0  0  0
  1  2  1  0  0  0  0
  2  3  1  0  0  0  0
  2  4  1  0  0  0  0
  2  5  1  0  0  0  0
  5  6  2  0  0  0  0
  5  7  1  0  0  0  0
  7  8  1  0  0  0  0
  7  9  1  0  0  0  0
  9 10  1  0  0  0  0
  9 11  1  0  0  0  0
  9 26  1  0  0  0  0
 11 12  1  0  0  0  0
 11 13  1  0  0  0  0
 11 14  1  0  0  0  0
 14 15  2  0  0  0  0
 14 24  1  0  0  0  0
 15 16  1  0  0  0  0
 15 17  1  0  0  0  0
 17 18  1  0  0  0  0
 17 19  2  0  0  0  0
 19 20  1  0  0  0  0
 19 22  1  0  0  0  0
 20 21  1  0  0  0  0
 22 23  1  0  0  0  0
 22 24  2  0  0  0  0
 24 25  1  0  0  0  0
 26 27  2  0  0  0  0
 26 28  1  0  0  0  0
 28 29  1  0  0  0  0
 28 30  1  0  0  0  0
 30 31  1  0  0  0  0
 30 32  1  0  0  0  0
 30 33  1  0  0  0  0
M  END
$$$$

  -OEChem-03222214083D

 33 33  0     1  0  0  0  0  0999 V2000
   -3.3202   -4.6791    0.4317 H   0  0  0  0  0  0  0  0  0  0  0  0
   -3.2851   -3.7057   -0.0659 C   0  0  0  0  0  0  0  0  0  0  0  0
   -4.1508   -3.1184    0.2493 H   0  0  0  0  0  0  0  0  0  0  0  0
   -3.3318   -3.8621   -1.1463 H   0  0  0  0  0  0  0  0  0  0  0  0
   -2.0034   -2.9803    0.2985 C   0  0  0  0  0  0  0  0  0  0  0  0
   -1.2068   -3.5012    1.0577 O   0  0  0  0  0  0  0  0  0  0  0  0
   -1.7564   -1.7241   -0.2206 N   0  0  0  0  0  0  0  0  0  0  0  0
   -2.4369   -1.3601   -0.8809 H   0  0  0  0  0  0  0  0  0  0  0  0
   -0.5021   -0.9710   -0.0234 C   0  0  1  0  0  0  0  0  0  0  0  0
    0.2779   -1.6930   -0.2936 H   0  0  0  0  0  0  0  0  0  0  0  0
   -0.3456    0.1429   -1.0970 C   0  0  0  0  0  0  0  0  0  0  0  0
    0.5614   -0.0949   -1.6626 H   0  0  0  0  0  0  0  0  0  0  0  0
   -1.1758    0.0731   -1.8062 H   0  0  0  0  0  0  0  0  0  0  0  0
   -0.2498    1.5948   -0.6598 C   0  0  0  0  0  0  0  0  0  0  0  0
   -1.1041    2.1562    0.3033 C   0  0  0  0  0  0  0  0  0  0  0  0
   -1.9141    1.5728    0.7237 H   0  0  0  0  0  0  0  0  0  0  0  0
   -0.9552    3.4875    0.7093 C   0  0  0  0  0  0  0  0  0  0  0  0
   -1.6297    3.8973    1.4527 H   0  0  0  0  0  0  0  0  0  0  0  0
    0.0510    4.2807    0.1571 C   0  0  0  0  0  0  0  0  0  0  0  0
    0.2069    5.5803    0.5446 O   0  0  0  0  0  0  0  0  0  0  0  0
   -0.3998    5.7847    1.2723 H   0  0  0  0  0  0  0  0  0  0  0  0
    0.9028    3.7387   -0.8012 C   0  0  0  0  0  0  0  0  0  0  0  0
    1.6863    4.3592   -1.2236 H   0  0  0  0  0  0  0  0  0  0  0  0
    0.7585    2.4073   -1.2055 C   0  0  0  0  0  0  0  0  0  0  0  0
    1.4480    2.0074   -1.9430 H   0  0  0  0  0  0  0  0  0  0  0  0
   -0.1221   -0.6423    1.4413 C   0  0  0  0  0  0  0  0  0  0  0  0
    1.0598   -0.6086    1.7587 O   0  0  0  0  0  0  0  0  0  0  0  0
   -1.0630   -0.1657    2.3377 N   0  0  0  0  0  0  0  0  0  0  0  0
   -2.0339   -0.3345    2.0985 H   0  0  0  0  0  0  0  0  0  0  0  0
   -0.7315    0.2027    3.7080 C   0  0  0  0  0  0  0  0  0  0  0  0
    0.0034    1.0148    3.7173 H   0  0  0  0  0  0  0  0  0  0  0  0
   -1.6271    0.5425    4.2364 H   0  0  0  0  0  0  0  0  0  0  0  0
   -0.3148   -0.6559    4.2449 H   0  0  0  0  0  0  0  0  0  0  0  0
  1  2  1  0  0  0  0
  2  3  1  0  0  0  0
  2  4  1  0  0  0  0
  2  5  1  0  0  0  0
  5  6  2  0  0  0  0
  5  7  1  0  0  0  0
  7  8  1  0  0  0  0
  7  9  1  0  0  0  0
  9 10  1  0  0  0  0
  9 11  1  0  0  0  0
  9 26  1  0  0  0  0
 11 12  1  0  0  0  0
 11 13  1  0  0  0  0
 11 14  1  0  0  0  0
 14 15  2  0  0  0  0
 14 24  1  0  0  0  0
 15 16  1  0  0  0  0
 15 17  1  0  0  0  0
 17 18  1  0  0  0  0
 17 19  2  0  0  0  0
 19 20  1  0  0  0  0
 19 22  1  0  0  0  0
 20 21  1  0  0  0  0
 22 23  1  0  0  0  0
 22 24  2  0  0  0  0
 24 25  1  0  0  0  0
 26 27  2  0  0  0  0
 26 28  1  0  0  0  0
 28 29  1  0  0  0  0
 28 30  1  0  0  0  0
 30 31  1  0  0  0  0
 30 32  1  0  0  0  0
 30 33  1  0  0  0  0
M  END
$$$$

  -OEChem-03222214083D

 33 33  0     1  0  0  0  0  0999 V2000
   -3.3182   -4.7009    0.2739 H   0  0  0  0  0  0  0  0  0  0  0  0
   -3.2864   -3.7005   -0.1674 C   0  0  0  0  0  0  0  0  0  0  0  0
   -4.1550   -3.1356    0.1793 H   0  0  0  0  0  0  0  0  0  0  0  0
   -3.3313   -3.7957   -1.2550 H   0  0  0  0  0  0  0  0  0  0  0  0
   -2.0084   -2.9907    0.2391 C   0  0  0  0  0  0  0  0  0  0  0  0
   -1.2071   -3.5514    0.9643 O   0  0  0  0  0  0  0  0  0  0  0  0
   -1.7703   -1.7041   -0.2043 N   0  0  0  0  0  0  0  0  0  0  0  0
   -2.4616   -1.2997   -0.8291 H   0  0  0  0  0  0  0  0  0  0  0  0
   -0.5265   -0.9484    0.0428 C   0  0  1  0  0  0  0  0  0  0  0  0
    0.2537   -1.6672   -0.2353 H   0  0  0  0  0  0  0  0  0  0  0  0
   -0.3289    0.1786   -1.0142 C   0  0  0  0  0  0  0  0  0  0  0  0
    0.6034   -0.0631   -1.5361 H   0  0  0  0  0  0  0  0  0  0  0  0
   -1.1256    0.0971   -1.7593 H   0  0  0  0  0  0  0  0  0  0  0  0
   -0.2429    1.6481   -0.6243 C   0  0  0  0  0  0  0  0  0  0  0  0
   -0.8912    2.2195    0.4836 C   0  0  0  0  0  0  0  0  0  0  0  0
   -1.5814    1.6451    1.0830 H   0  0  0  0  0  0  0  0  0  0  0  0
   -0.7137    3.5696    0.8084 C   0  0  0  0  0  0  0  0  0  0  0  0
   -1.2297    3.9824    1.6680 H   0  0  0  0  0  0  0  0  0  0  0  0
    0.1124    4.3777    0.0283 C   0  0  0  0  0  0  0  0  0  0  0  0
    0.2955    5.6945    0.3376 O   0  0  0  0  0  0  0  0  0  0  0  0
   -0.1358    5.8998    1.1812 H   0  0  0  0  0  0  0  0  0  0  0  0
    0.7511    3.8328   -1.0806 C   0  0  0  0  0  0  0  0  0  0  0  0
    1.3923    4.4657   -1.6854 H   0  0  0  0  0  0  0  0  0  0  0  0
    0.5784    2.4829   -1.4037 C   0  0  0  0  0  0  0  0  0  0  0  0
    1.1024    2.0845   -2.2678 H   0  0  0  0  0  0  0  0  0  0  0  0
   -0.1581   -0.6990    1.5258 C   0  0  0  0  0  0  0  0  0  0  0  0
    1.0215   -0.6559    1.8496 O   0  0  0  0  0  0  0  0  0  0  0  0
   -1.1084   -0.2867    2.4441 N   0  0  0  0  0  0  0  0  0  0  0  0
   -2.0758   -0.4576    2.1913 H   0  0  0  0  0  0  0  0  0  0  0  0
   -0.7886   -0.0037    3.8379 C   0  0  0  0  0  0  0  0  0  0  0  0
   -0.0697    0.8198    3.9055 H   0  0  0  0  0  0  0  0  0  0  0  0
   -1.6927    0.2832    4.3833 H   0  0  0  0  0  0  0  0  0  0  0  0
   -0.3573   -0.8879    4.3195 H   0  0  0  0  0  0  0  0  0  0  0  0
  1  2  1  0  0  0  0
  2  3  1  0  0  0  0
  2  4  1  0  0  0  0
  2  5  1  0  0  0  0
  5  6  2  0  0  0  0
  5  7  1  0  0  0  0
  7  8  1  0  0  0  0
  7  9  1  0  0  0  0
  9 10  1  0  0  0  0
  9 11  1  0  0  0  0
  9 26  1  0  0  0  0
 11 12  1  0  0  0  0
 11 13  1  0  0  0  0
 11 14  1  0  0  0  0
 14 15  2  0  0  0  0
 14 24  1  0  0  0  0
 15 16  1  0  0  0  0
 15 17  1  0  0  0  0
 17 18  1  0  0  0  0
 17 19  2  0  0  0  0
 19 20  1  0  0  0  0
 19 22  1  0  0  0  0
 20 21  1  0  0  0  0
 22 23  1  0  0  0  0
 22 24  2  0  0  0  0
 24 25  1  0  0  0  0
 26 27  2  0  0  0  0
 26 28  1  0  0  0  0
 28 29  1  0  0  0  0
 28 30  1  0  0  0  0
 30 31  1  0  0  0  0
 30 32  1  0  0  0  0
 30 33  1  0  0  0  0
M  END
$$$$

  -OEChem-03222214083D

 33 33  0     1  0  0  0  0  0999 V2000
   -3.4071   -4.6289    0.2549 H   0  0  0  0  0  0  0  0  0  0  0  0
   -3.3602   -3.6194   -0.1637 C   0  0  0  0  0  0  0  0  0  0  0  0
   -4.1885   -3.0329    0.2408 H   0  0  0  0  0  0  0  0  0  0  0  0
   -3.4634   -3.6847   -1.2495 H   0  0  0  0  0  0  0  0  0  0  0  0
   -2.0370   -2.9680    0.1930 C   0  0  0  0  0  0  0  0  0  0  0  0
   -1.2028   -3.5948    0.8204 O   0  0  0  0  0  0  0  0  0  0  0  0
   -1.7926   -1.6616   -0.1847 N   0  0  0  0  0  0  0  0  0  0  0  0
   -2.5178   -1.1965   -0.7229 H   0  0  0  0  0  0  0  0  0  0  0  0
   -0.5232   -0.9419    0.0446 C   0  0  1  0  0  0  0  0  0  0  0  0
    0.2372   -1.6474   -0.3122 H   0  0  0  0  0  0  0  0  0  0  0  0
   -0.3768    0.2478   -0.9544 C   0  0  0  0  0  0  0  0  0  0  0  0
    0.5244    0.0207   -1.5351 H   0  0  0  0  0  0  0  0  0  0  0  0
   -1.2128    0.1970   -1.6587 H   0  0  0  0  0  0  0  0  0  0  0  0
   -0.2434    1.7168   -0.5608 C   0  0  0  0  0  0  0  0  0  0  0  0
   -0.5192    2.2845    0.6967 C   0  0  0  0  0  0  0  0  0  0  0  0
   -0.8975    1.7069    1.5211 H   0  0  0  0  0  0  0  0  0  0  0  0
   -0.3391    3.6537    0.9291 C   0  0  0  0  0  0  0  0  0  0  0  0
   -0.5607    4.0590    1.9101 H   0  0  0  0  0  0  0  0  0  0  0  0
    0.1170    4.4889   -0.0886 C   0  0  0  0  0  0  0  0  0  0  0  0
    0.2997    5.8234    0.1318 O   0  0  0  0  0  0  0  0  0  0  0  0
    0.1616    6.0259    1.0699 H   0  0  0  0  0  0  0  0  0  0  0  0
    0.3871    3.9503   -1.3410 C   0  0  0  0  0  0  0  0  0  0  0  0
    0.7426    4.6025   -2.1321 H   0  0  0  0  0  0  0  0  0  0  0  0
    0.2103    2.5828   -1.5735 C   0  0  0  0  0  0  0  0  0  0  0  0
    0.4374    2.1919   -2.5611 H   0  0  0  0  0  0  0  0  0  0  0  0
   -0.1162   -0.8086    1.5306 C   0  0  0  0  0  0  0  0  0  0  0  0
    1.0692   -0.8086    1.8347 O   0  0  0  0  0  0  0  0  0  0  0  0
   -1.0458   -0.4480    2.4919 N   0  0  0  0  0  0  0  0  0  0  0  0
   -2.0199   -0.5639    2.2328 H   0  0  0  0  0  0  0  0  0  0  0  0
   -0.7098   -0.3247    3.9053 C   0  0  0  0  0  0  0  0  0  0  0  0
    0.0811    0.4191    4.0492 H   0  0  0  0  0  0  0  0  0  0  0  0
   -1.5871   -0.0076    4.4767 H   0  0  0  0  0  0  0  0  0  0  0  0
   -0.3654   -1.2859    4.3014 H   0  0  0  0  0  0  0  0  0  0  0  0
  1  2  1  0  0  0  0
  2  3  1  0  0  0  0
  2  4  1  0  0  0  0
  2  5  1  0  0  0  0
  5  6  2  0  0  0  0
  5  7  1  0  0  0  0
  7  8  1  0  0  0  0
  7  9  1  0  0  0  0
  9 10  1  0  0  0  0
  9 11  1  0  0  0  0
  9 26  1  0  0  0  0
 11 12  1  0  0  0  0
 11 13  1  0  0  0  0
 11 14  1  0  0  0  0
 14 15  2  0  0  0  0
 14 24  1  0  0  0  0
 15 16  1  0  0  0  0
 15 17  1  0  0  0  0
 17 18  1  0  0  0  0
 17 19  2  0  0  0  0
 19 20  1  0  0  0  0
 19 22  1  0  0  0  0
 20 21  1  0  0  0  0
 22 23  1  0  0  0  0
 22 24  2  0  0  0  0
 24 25  1  0  0  0  0
 26 27  2  0  0  0  0
 26 28  1  0  0  0  0
 28 29  1  0  0  0  0
 28 30  1  0  0  0  0
 30 31  1  0  0  0  0
 30 32  1  0  0  0  0
 30 33  1  0  0  0  0
M  END
$$$$

  -OEChem-03222214083D

 33 33  0     1  0  0  0  0  0999 V2000
   -3.4697   -4.5552    0.3029 H   0  0  0  0  0  0  0  0  0  0  0  0
   -3.3886   -3.5528   -0.1276 C   0  0  0  0  0  0  0  0  0  0  0  0
   -4.1839   -2.9283    0.2857 H   0  0  0  0  0  0  0  0  0  0  0  0
   -3.5146   -3.6249   -1.2105 H   0  0  0  0  0  0  0  0  0  0  0  0
   -2.0328   -2.9540    0.1975 C   0  0  0  0  0  0  0  0  0  0  0  0
   -1.2147   -3.6105    0.8154 O   0  0  0  0  0  0  0  0  0  0  0  0
   -1.7350   -1.6679   -0.2124 N   0  0  0  0  0  0  0  0  0  0  0  0
   -2.4498   -1.1783   -0.7426 H   0  0  0  0  0  0  0  0  0  0  0  0
   -0.4385   -0.9913    0.0080 C   0  0  1  0  0  0  0  0  0  0  0  0
    0.3231   -1.6891   -0.3597 H   0  0  0  0  0  0  0  0  0  0  0  0
   -0.3336    0.2415   -0.9466 C   0  0  0  0  0  0  0  0  0  0  0  0
    0.5325    0.0321   -1.5835 H   0  0  0  0  0  0  0  0  0  0  0  0
   -1.2066    0.2185   -1.6066 H   0  0  0  0  0  0  0  0  0  0  0  0
   -0.1627    1.7032   -0.5273 C   0  0  0  0  0  0  0  0  0  0  0  0
   -0.0638    2.2296    0.7774 C   0  0  0  0  0  0  0  0  0  0  0  0
   -0.0399    1.6183    1.6634 H   0  0  0  0  0  0  0  0  0  0  0  0
    0.0591    3.6075    0.9956 C   0  0  0  0  0  0  0  0  0  0  0  0
    0.1455    3.9758    2.0122 H   0  0  0  0  0  0  0  0  0  0  0  0
    0.0814    4.4955   -0.0774 C   0  0  0  0  0  0  0  0  0  0  0  0
    0.2042    5.8391    0.1286 O   0  0  0  0  0  0  0  0  0  0  0  0
    0.3396    6.0184    1.0719 H   0  0  0  0  0  0  0  0  0  0  0  0
   -0.0165    3.9998   -1.3716 C   0  0  0  0  0  0  0  0  0  0  0  0
    0.0040    4.6926   -2.2066 H   0  0  0  0  0  0  0  0  0  0  0  0
   -0.1348    2.6243   -1.5921 C   0  0  0  0  0  0  0  0  0  0  0  0
   -0.2067    2.2715   -2.6170 H   0  0  0  0  0  0  0  0  0  0  0  0
   -0.0918   -0.8634    1.5068 C   0  0  0  0  0  0  0  0  0  0  0  0
    1.0750   -0.9160    1.8720 O   0  0  0  0  0  0  0  0  0  0  0  0
   -1.0574   -0.4542    2.4125 N   0  0  0  0  0  0  0  0  0  0  0  0
   -2.0182   -0.4885    2.0886 H   0  0  0  0  0  0  0  0  0  0  0  0
   -0.8029   -0.3479    3.8439 C   0  0  0  0  0  0  0  0  0  0  0  0
    0.0120    0.3574    4.0384 H   0  0  0  0  0  0  0  0  0  0  0  0
   -1.6978    0.0098    4.3617 H   0  0  0  0  0  0  0  0  0  0  0  0
   -0.5289   -1.3248    4.2559 H   0  0  0  0  0  0  0  0  0  0  0  0
  1  2  1  0  0  0  0
  2  3  1  0  0  0  0
  2  4  1  0  0  0  0
  2  5  1  0  0  0  0
  5  6  2  0  0  0  0
  5  7  1  0  0  0  0
  7  8  1  0  0  0  0
  7  9  1  0  0  0  0
  9 10  1  0  0  0  0
  9 11  1  0  0  0  0
  9 26  1  0  0  0  0
 11 12  1  0  0  0  0
 11 13  1  0  0  0  0
 11 14  1  0  0  0  0
 14 15  2  0  0  0  0
 14 24  1  0  0  0  0
 15 16  1  0  0  0  0
 15 17  1  0  0  0  0
 17 18  1  0  0  0  0
 17 19  2  0  0  0  0
 19 20  1  0  0  0  0
 19 22  1  0  0  0  0
 20 21  1  0  0  0  0
 22 23  1  0  0  0  0
 22 24  2  0  0  0  0
 24 25  1  0  0  0  0
 26 27  2  0  0  0  0
 26 28  1  0  0  0  0
 28 29  1  0  0  0  0
 28 30  1  0  0  0  0
 30 31  1  0  0  0  0
 30 32  1  0  0  0  0
 30 33  1  0  0  0  0
M  END
$$$$

  -OEChem-03222214083D

 33 33  0     1  0  0  0  0  0999 V2000
   -3.5480   -4.4651    0.4351 H   0  0  0  0  0  0  0  0  0  0  0  0
   -3.4250   -3.4924   -0.0500 C   0  0  0  0  0  0  0  0  0  0  0  0
   -4.1854   -2.8095    0.3360 H   0  0  0  0  0  0  0  0  0  0  0  0
   -3.5664   -3.6161   -1.1265 H   0  0  0  0  0  0  0  0  0  0  0  0
   -2.0393   -2.9417    0.2306 C   0  0  0  0  0  0  0  0  0  0  0  0
   -1.2414   -3.6066    0.8656 O   0  0  0  0  0  0  0  0  0  0  0  0
   -1.6930   -1.6886   -0.2383 N   0  0  0  0  0  0  0  0  0  0  0  0
   -2.3990   -1.1858   -0.7676 H   0  0  0  0  0  0  0  0  0  0  0  0
   -0.3817   -1.0401   -0.0197 C   0  0  1  0  0  0  0  0  0  0  0  0
    0.3809   -1.7505   -0.3598 H   0  0  0  0  0  0  0  0  0  0  0  0
   -0.2888    0.1829   -0.9893 C   0  0  0  0  0  0  0  0  0  0  0  0
    0.5698   -0.0271   -1.6359 H   0  0  0  0  0  0  0  0  0  0  0  0
   -1.1684    0.1548   -1.6406 H   0  0  0  0  0  0  0  0  0  0  0  0
   -0.1070    1.6433   -0.5641 C   0  0  0  0  0  0  0  0  0  0  0  0
    0.2994    2.1319    0.6968 C   0  0  0  0  0  0  0  0  0  0  0  0
    0.6183    1.4933    1.5068 H   0  0  0  0  0  0  0  0  0  0  0  0
    0.3718    3.5066    0.9529 C   0  0  0  0  0  0  0  0  0  0  0  0
    0.6986    3.8454    1.9303 H   0  0  0  0  0  0  0  0  0  0  0  0
    0.0419    4.4289   -0.0371 C   0  0  0  0  0  0  0  0  0  0  0  0
    0.1093    5.7699    0.2071 O   0  0  0  0  0  0  0  0  0  0  0  0
    0.4446    5.9263    1.1035 H   0  0  0  0  0  0  0  0  0  0  0  0
   -0.3508    3.9715   -1.2890 C   0  0  0  0  0  0  0  0  0  0  0  0
   -0.5999    4.6926   -2.0607 H   0  0  0  0  0  0  0  0  0  0  0  0
   -0.4215    2.5997   -1.5489 C   0  0  0  0  0  0  0  0  0  0  0  0
   -0.7316    2.2800   -2.5396 H   0  0  0  0  0  0  0  0  0  0  0  0
   -0.0750   -0.8467    1.4796 C   0  0  0  0  0  0  0  0  0  0  0  0
    1.0692   -0.9787    1.8948 O   0  0  0  0  0  0  0  0  0  0  0  0
   -1.0486   -0.3605    2.3359 N   0  0  0  0  0  0  0  0  0  0  0  0
   -1.9924   -0.3077    1.9678 H   0  0  0  0  0  0  0  0  0  0  0  0
   -0.8380   -0.1970    3.7686 C   0  0  0  0  0  0  0  0  0  0  0  0
   -0.0185    0.5037    3.9594 H   0  0  0  0  0  0  0  0  0  0  0  0
   -1.7435    0.1944    4.2417 H   0  0  0  0  0  0  0  0  0  0  0  0
   -0.5930   -1.1597    4.2297 H   0  0  0  0  0  0  0  0  0  0  0  0
  1  2  1  0  0  0  0
  2  3  1  0  0  0  0
  2  4  1  0  0  0  0
  2  5  1  0  0  0  0
  5  6  2  0  0  0  0
  5  7  1  0  0  0  0
  7  8  1  0  0  0  0
  7  9  1  0  0  0  0
  9 10  1  0  0  0  0
  9 11  1  0  0  0  0
  9 26  1  0  0  0  0
 11 12  1  0  0  0  0
 11 13  1  0  0  0  0
 11 14  1  0  0  0  0
 14 15  2  0  0  0  0
 14 24  1  0  0  0  0
 15 16  1  0  0  0  0
 15 17  1  0  0  0  0
 17 18  1  0  0  0  0
 17 19  2  0  0  0  0
 19 20  1  0  0  0  0
 19 22  1  0  0  0  0
 20 21  1  0  0  0  0
 22 23  1  0  0  0  0
 22 24  2  0  0  0  0
 24 25  1  0  0  0  0
 26 27  2  0  0  0  0
 26 28  1  0  0  0  0
 28 29  1  0  0  0  0
 28 30  1  0  0  0  0
 30 31  1  0  0  0  0
 30 32  1  0  0  0  0
 30 33  1  0  0  0  0
M  END
$$$$

  -OEChem-03222214083D

 33 33  0     1  0  0  0  0  0999 V2000
   -3.5528   -4.4281    0.5562 H   0  0  0  0  0  0  0  0  0  0  0  0
   -3.4226   -3.4746    0.0363 C   0  0  0  0  0  0  0  0  0  0  0  0
   -4.1577   -2.7629    0.4191 H   0  0  0  0  0  0  0  0  0  0  0  0
   -3.5955   -3.6300   -1.0312 H   0  0  0  0  0  0  0  0  0  0  0  0
   -2.0188   -2.9448    0.2625 C   0  0  0  0  0  0  0  0  0  0  0  0
   -1.2198   -3.6036    0.9026 O   0  0  0  0  0  0  0  0  0  0  0  0
   -1.6547   -1.7234   -0.2719 N   0  0  0  0  0  0  0  0  0  0  0  0
   -2.3671   -1.2205   -0.7917 H   0  0  0  0  0  0  0  0  0  0  0  0
   -0.3405   -1.0766   -0.0680 C   0  0  1  0  0  0  0  0  0  0  0  0
    0.4310   -1.7916   -0.3767 H   0  0  0  0  0  0  0  0  0  0  0  0
   -0.2699    0.1246   -1.0669 C   0  0  0  0  0  0  0  0  0  0  0  0
    0.5874   -0.0815   -1.7163 H   0  0  0  0  0  0  0  0  0  0  0  0
   -1.1505    0.0810   -1.7156 H   0  0  0  0  0  0  0  0  0  0  0  0
   -0.0930    1.5791   -0.6258 C   0  0  0  0  0  0  0  0  0  0  0  0
    0.5970    2.0201    0.5224 C   0  0  0  0  0  0  0  0  0  0  0  0
    1.1656    1.3460    1.1498 H   0  0  0  0  0  0  0  0  0  0  0  0
    0.6375    3.3756    0.8687 C   0  0  0  0  0  0  0  0  0  0  0  0
    1.1853    3.6774    1.7550 H   0  0  0  0  0  0  0  0  0  0  0  0
   -0.0061    4.3251    0.0784 C   0  0  0  0  0  0  0  0  0  0  0  0
    0.0310    5.6490    0.4078 O   0  0  0  0  0  0  0  0  0  0  0  0
    0.5858    5.7793    1.1926 H   0  0  0  0  0  0  0  0  0  0  0  0
   -0.6829    3.9143   -1.0644 C   0  0  0  0  0  0  0  0  0  0  0  0
   -1.1765    4.6588   -1.6806 H   0  0  0  0  0  0  0  0  0  0  0  0
   -0.7250    2.5604   -1.4134 C   0  0  0  0  0  0  0  0  0  0  0  0
   -1.2655    2.2781   -2.3119 H   0  0  0  0  0  0  0  0  0  0  0  0
   -0.0653   -0.8051    1.4273 C   0  0  0  0  0  0  0  0  0  0  0  0
    1.0533   -0.9893    1.8910 O   0  0  0  0  0  0  0  0  0  0  0  0
   -1.0495   -0.2625    2.2352 N   0  0  0  0  0  0  0  0  0  0  0  0
   -1.9586   -0.1036    1.8147 H   0  0  0  0  0  0  0  0  0  0  0  0
   -0.8495    0.0535    3.6430 C   0  0  0  0  0  0  0  0  0  0  0  0
   -0.0803    0.8245    3.7563 H   0  0  0  0  0  0  0  0  0  0  0  0
   -1.7799    0.4244    4.0832 H   0  0  0  0  0  0  0  0  0  0  0  0
   -0.5382   -0.8398    4.1947 H   0  0  0  0  0  0  0  0  0  0  0  0
  1  2  1  0  0  0  0
  2  3  1  0  0  0  0
  2  4  1  0  0  0  0
  2  5  1  0  0  0  0
  5  6  2  0  0  0  0
  5  7  1  0  0  0  0
  7  8  1  0  0  0  0
  7  9  1  0  0  0  0
  9 10  1  0  0  0  0
  9 11  1  0  0  0  0
  9 26  1  0  0  0  0
 11 12  1  0  0  0  0
 11 13  1  0  0  0  0
 11 14  1  0  0  0  0
 14 15  2  0  0  0  0
 14 24  1  0  0  0  0
 15 16  1  0  0  0  0
 15 17  1  0  0  0  0
 17 18  1  0  0  0  0
 17 19  2  0  0  0  0
 19 20  1  0  0  0  0
 19 22  1  0  0  0  0
 20 21  1  0  0  0  0
 22 23  1  0  0  0  0
 22 24  2  0  0  0  0
 24 25  1  0  0  0  0
 26 27  2  0  0  0  0
 26 28  1  0  0  0  0
 28 29  1  0  0  0  0
 28 30  1  0  0  0  0
 30 31  1  0  0  0  0
 30 32  1  0  0  0  0
 30 33  1  0  0  0  0
M  END
$$$$

  -OEChem-03222214083D

 33 33  0     1  0  0  0  0  0999 V2000
   -3.5071   -4.4302    0.6645 H   0  0  0  0  0  0  0  0  0  0  0  0
   -3.3874   -3.4989    0.1033 C   0  0  0  0  0  0  0  0  0  0  0  0
   -4.1281   -2.7782    0.4577 H   0  0  0  0  0  0  0  0  0  0  0  0
   -3.5621   -3.7022   -0.9559 H   0  0  0  0  0  0  0  0  0  0  0  0
   -1.9878   -2.9476    0.3013 C   0  0  0  0  0  0  0  0  0  0  0  0
   -1.1823   -3.5692    0.9700 O   0  0  0  0  0  0  0  0  0  0  0  0
   -1.6321   -1.7532   -0.2962 N   0  0  0  0  0  0  0  0  0  0  0  0
   -2.3493   -1.2800   -0.8366 H   0  0  0  0  0  0  0  0  0  0  0  0
   -0.3277   -1.0823   -0.1122 C   0  0  1  0  0  0  0  0  0  0  0  0
    0.4582   -1.7960   -0.3854 H   0  0  0  0  0  0  0  0  0  0  0  0
   -0.2753    0.0855   -1.1477 C   0  0  0  0  0  0  0  0  0  0  0  0
    0.5880   -0.1136   -1.7909 H   0  0  0  0  0  0  0  0  0  0  0  0
   -1.1518    0.0249   -1.8006 H   0  0  0  0  0  0  0  0  0  0  0  0
   -0.1189    1.5287   -0.6823 C   0  0  0  0  0  0  0  0  0  0  0  0
    0.8075    1.9397    0.2948 C   0  0  0  0  0  0  0  0  0  0  0  0
    1.5320    1.2442    0.7060 H   0  0  0  0  0  0  0  0  0  0  0  0
    0.8536    3.2678    0.7323 C   0  0  0  0  0  0  0  0  0  0  0  0
    1.5823    3.5514    1.4840 H   0  0  0  0  0  0  0  0  0  0  0  0
   -0.0231    4.2129    0.2022 C   0  0  0  0  0  0  0  0  0  0  0  0
    0.0118    5.5096    0.6258 O   0  0  0  0  0  0  0  0  0  0  0  0
    0.7111    5.6221    1.2885 H   0  0  0  0  0  0  0  0  0  0  0  0
   -0.9390    3.8269   -0.7718 C   0  0  0  0  0  0  0  0  0  0  0  0
   -1.6149    4.5692   -1.1835 H   0  0  0  0  0  0  0  0  0  0  0  0
   -0.9891    2.4995   -1.2105 C   0  0  0  0  0  0  0  0  0  0  0  0
   -1.7210    2.2315   -1.9664 H   0  0  0  0  0  0  0  0  0  0  0  0
   -0.0699   -0.7243    1.3703 C   0  0  0  0  0  0  0  0  0  0  0  0
    1.0421   -0.8852    1.8585 O   0  0  0  0  0  0  0  0  0  0  0  0
   -1.0673   -0.1472    2.1370 N   0  0  0  0  0  0  0  0  0  0  0  0
   -1.9512    0.0433    1.6782 H   0  0  0  0  0  0  0  0  0  0  0  0
   -0.8641    0.3060    3.5062 C   0  0  0  0  0  0  0  0  0  0  0  0
   -0.1197    1.1084    3.5356 H   0  0  0  0  0  0  0  0  0  0  0  0
   -1.8017    0.6865    3.9222 H   0  0  0  0  0  0  0  0  0  0  0  0
   -0.5179   -0.5208    4.1354 H   0  0  0  0  0  0  0  0  0  0  0  0
  1  2  1  0  0  0  0
  2  3  1  0  0  0  0
  2  4  1  0  0  0  0
  2  5  1  0  0  0  0
  5  6  2  0  0  0  0
  5  7  1  0  0  0  0
  7  8  1  0  0  0  0
  7  9  1  0  0  0  0
  9 10  1  0  0  0  0
  9 11  1  0  0  0  0
  9 26  1  0  0  0  0
 11 12  1  0  0  0  0
 11 13  1  0  0  0  0
 11 14  1  0  0  0  0
 14 15  2  0  0  0  0
 14 24  1  0  0  0  0
 15 16  1  0  0  0  0
 15 17  1  0  0  0  0
 17 18  1  0  0  0  0
 17 19  2  0  0  0  0
 19 20  1  0  0  0  0
 19 22  1  0  0  0  0
 20 21  1  0  0  0  0
 22 23  1  0  0  0  0
 22 24  2  0  0  0  0
 24 25  1  0  0  0  0
 26 27  2  0  0  0  0
 26 28  1  0  0  0  0
 28 29  1  0  0  0  0
 28 30  1  0  0  0  0
 30 31  1  0  0  0  0
 30 32  1  0  0  0  0
 30 33  1  0  0  0  0
M  END
$$$$

  -OEChem-03222214083D

 33 33  0     1  0  0  0  0  0999 V2000
   -3.4428   -4.4760    0.7097 H   0  0  0  0  0  0  0  0  0  0  0  0
   -3.3462   -3.5547    0.1279 C   0  0  0  0  0  0  0  0  0  0  0  0
   -4.1110   -2.8483    0.4596 H   0  0  0  0  0  0  0  0  0  0  0  0
   -3.5060   -3.7880   -0.9275 H   0  0  0  0  0  0  0  0  0  0  0  0
   -1.9655   -2.9567    0.3241 C   0  0  0  0  0  0  0  0  0  0  0  0
   -1.1526   -3.5291    1.0268 O   0  0  0  0  0  0  0  0  0  0  0  0
   -1.6352   -1.7749   -0.3112 N   0  0  0  0  0  0  0  0  0  0  0  0
   -2.3538   -1.3451   -0.8848 H   0  0  0  0  0  0  0  0  0  0  0  0
   -0.3481   -1.0696   -0.1424 C   0  0  1  0  0  0  0  0  0  0  0  0
    0.4505   -1.7777   -0.3917 H   0  0  0  0  0  0  0  0  0  0  0  0
   -0.2993    0.0702   -1.2026 C   0  0  0  0  0  0  0  0  0  0  0  0
    0.5727   -0.1196   -1.8374 H   0  0  0  0  0  0  0  0  0  0  0  0
   -1.1708    0.0012   -1.8611 H   0  0  0  0  0  0  0  0  0  0  0  0
   -0.1698    1.4979   -0.7023 C   0  0  0  0  0  0  0  0  0  0  0  0
    0.9316    1.9200    0.0624 C   0  0  0  0  0  0  0  0  0  0  0  0
    1.7463    1.2329    0.2762 H   0  0  0  0  0  0  0  0  0  0  0  0
    1.0004    3.2265    0.5574 C   0  0  0  0  0  0  0  0  0  0  0  0
    1.8602    3.5234    1.1482 H   0  0  0  0  0  0  0  0  0  0  0  0
   -0.0288    4.1312    0.2955 C   0  0  0  0  0  0  0  0  0  0  0  0
    0.0263    5.4060    0.7790 O   0  0  0  0  0  0  0  0  0  0  0  0
    0.8478    5.5338    1.2784 H   0  0  0  0  0  0  0  0  0  0  0  0
   -1.1224    3.7268   -0.4662 C   0  0  0  0  0  0  0  0  0  0  0  0
   -1.9165    4.4385   -0.6667 H   0  0  0  0  0  0  0  0  0  0  0  0
   -1.1958    2.4210   -0.9631 C   0  0  0  0  0  0  0  0  0  0  0  0
   -2.0617    2.1319   -1.5506 H   0  0  0  0  0  0  0  0  0  0  0  0
   -0.0810   -0.6456    1.3224 C   0  0  0  0  0  0  0  0  0  0  0  0
    1.0481   -0.7354    1.7898 O   0  0  0  0  0  0  0  0  0  0  0  0
   -1.0802   -0.0569    2.0780 N   0  0  0  0  0  0  0  0  0  0  0  0
   -1.9733    0.0957    1.6234 H   0  0  0  0  0  0  0  0  0  0  0  0
   -0.8545    0.5031    3.4034 C   0  0  0  0  0  0  0  0  0  0  0  0
   -0.1381    1.3296    3.3511 H   0  0  0  0  0  0  0  0  0  0  0  0
   -1.7926    0.8825    3.8193 H   0  0  0  0  0  0  0  0  0  0  0  0
   -0.4620   -0.2630    4.0804 H   0  0  0  0  0  0  0  0  0  0  0  0
  1  2  1  0  0  0  0
  2  3  1  0  0  0  0
  2  4  1  0  0  0  0
  2  5  1  0  0  0  0
  5  6  2  0  0  0  0
  5  7  1  0  0  0  0
  7  8  1  0  0  0  0
  7  9  1  0  0  0  0
  9 10  1  0  0  0  0
  9 11  1  0  0  0  0
  9 26  1  0  0  0  0
 11 12  1  0  0  0  0
 11 13  1  0  0  0  0
 11 14  1  0  0  0  0
 14 15  2  0  0  0  0
 14 24  1  0  0  0  0
 15 16  1  0  0  0  0
 15 17  1  0  0  0  0
 17 18  1  0  0  0  0
 17 19  2  0  0  0  0
 19 20  1  0  0  0  0
 19 22  1  0  0  0  0
 20 21  1  0  0  0  0
 22 23  1  0  0  0  0
 22 24  2  0  0  0  0
 24 25  1  0  0  0  0
 26 27  2  0  0  0  0
 26 28  1  0  0  0  0
 28 29  1  0  0  0  0
 28 30  1  0  0  0  0
 30 31  1  0  0  0  0
 30 32  1  0  0  0  0
 30 33  1  0  0  0  0
M  END
$$$$

  -OEChem-03222214083D

 33 33  0     1  0  0  0  0  0999 V2000
   -3.3964   -4.5377    0.6932 H   0  0  0  0  0  0  0  0  0  0  0  0
   -3.3211   -3.6131    0.1136 C   0  0  0  0  0  0  0  0  0  0  0  0
   -4.1153   -2.9338    0.4321 H   0  0  0  0  0  0  0  0  0  0  0  0
   -3.4544   -3.8504   -0.9446 H   0  0  0  0  0  0  0  0  0  0  0  0
   -1.9655   -2.9678    0.3338 C   0  0  0  0  0  0  0  0  0  0  0  0
   -1.1533   -3.5004    1.0681 O   0  0  0  0  0  0  0  0  0  0  0  0
   -1.6574   -1.7866   -0.3131 N   0  0  0  0  0  0  0  0  0  0  0  0
   -2.3673   -1.3976   -0.9254 H   0  0  0  0  0  0  0  0  0  0  0  0
   -0.3838   -1.0575   -0.1519 C   0  0  1  0  0  0  0  0  0  0  0  0
    0.4181   -1.7643   -0.3934 H   0  0  0  0  0  0  0  0  0  0  0  0
   -0.3264    0.0659   -1.2231 C   0  0  0  0  0  0  0  0  0  0  0  0
    0.5513   -0.1185   -1.8514 H   0  0  0  0  0  0  0  0  0  0  0  0
   -1.1946    0.0003   -1.8860 H   0  0  0  0  0  0  0  0  0  0  0  0
   -0.2161    1.4779   -0.6881 C   0  0  0  0  0  0  0  0  0  0  0  0
    0.9953    1.9587   -0.1663 C   0  0  0  0  0  0  0  0  0  0  0  0
    1.8702    1.3136   -0.1394 H   0  0  0  0  0  0  0  0  0  0  0  0
    1.0817    3.2566    0.3486 C   0  0  0  0  0  0  0  0  0  0  0  0
    2.0250    3.6016    0.7579 H   0  0  0  0  0  0  0  0  0  0  0  0
   -0.0381    4.0897    0.3431 C   0  0  0  0  0  0  0  0  0  0  0  0
    0.0360    5.3558    0.8464 O   0  0  0  0  0  0  0  0  0  0  0  0
    0.9334    5.5286    1.1715 H   0  0  0  0  0  0  0  0  0  0  0  0
   -1.2427    3.6225   -0.1785 C   0  0  0  0  0  0  0  0  0  0  0  0
   -2.1060    4.2798   -0.1794 H   0  0  0  0  0  0  0  0  0  0  0  0
   -1.3359    2.3243   -0.6919 C   0  0  0  0  0  0  0  0  0  0  0  0
   -2.2846    1.9810   -1.0924 H   0  0  0  0  0  0  0  0  0  0  0  0
   -0.0895   -0.5993    1.2977 C   0  0  0  0  0  0  0  0  0  0  0  0
    1.0603   -0.6270    1.7207 O   0  0  0  0  0  0  0  0  0  0  0  0
   -1.0785   -0.0088    2.0649 N   0  0  0  0  0  0  0  0  0  0  0  0
   -1.9864    0.1104    1.6307 H   0  0  0  0  0  0  0  0  0  0  0  0
   -0.8165    0.6317    3.3468 C   0  0  0  0  0  0  0  0  0  0  0  0
   -0.1524    1.4925    3.2147 H   0  0  0  0  0  0  0  0  0  0  0  0
   -1.7519    0.9801    3.7945 H   0  0  0  0  0  0  0  0  0  0  0  0
   -0.3461   -0.0749    4.0387 H   0  0  0  0  0  0  0  0  0  0  0  0
  1  2  1  0  0  0  0
  2  3  1  0  0  0  0
  2  4  1  0  0  0  0
  2  5  1  0  0  0  0
  5  6  2  0  0  0  0
  5  7  1  0  0  0  0
  7  8  1  0  0  0  0
  7  9  1  0  0  0  0
  9 10  1  0  0  0  0
  9 11  1  0  0  0  0
  9 26  1  0  0  0  0
 11 12  1  0  0  0  0
 11 13  1  0  0  0  0
 11 14  1  0  0  0  0
 14 15  2  0  0  0  0
 14 24  1  0  0  0  0
 15 16  1  0  0  0  0
 15 17  1  0  0  0  0
 17 18  1  0  0  0  0
 17 19  2  0  0  0  0
 19 20  1  0  0  0  0
 19 22  1  0  0  0  0
 20 21  1  0  0  0  0
 22 23  1  0  0  0  0
 22 24  2  0  0  0  0
 24 25  1  0  0  0  0
 26 27  2  0  0  0  0
 26 28  1  0  0  0  0
 28 29  1  0  0  0  0
 28 30  1  0  0  0  0
 30 31  1  0  0  0  0
 30 32  1  0  0  0  0
 30 33  1  0  0  0  0
M  END
$$$$

  -OEChem-03222214083D

 33 33  0     1  0  0  0  0  0999 V2000
   -3.3651   -4.5838    0.6704 H   0  0  0  0  0  0  0  0  0  0  0  0
   -3.3055   -3.6556    0.0946 C   0  0  0  0  0  0  0  0  0  0  0  0
   -4.1250   -3.0005    0.3993 H   0  0  0  0  0  0  0  0  0  0  0  0
   -3.4115   -3.8939   -0.9665 H   0  0  0  0  0  0  0  0  0  0  0  0
   -1.9733   -2.9725    0.3426 C   0  0  0  0  0  0  0  0  0  0  0  0
   -1.1648   -3.4797    1.0986 O   0  0  0  0  0  0  0  0  0  0  0  0
   -1.6817   -1.7864   -0.3033 N   0  0  0  0  0  0  0  0  0  0  0  0
   -2.3795   -1.4292   -0.9482 H   0  0  0  0  0  0  0  0  0  0  0  0
   -0.4136   -1.0461   -0.1497 C   0  0  1  0  0  0  0  0  0  0  0  0
    0.3875   -1.7537   -0.3917 H   0  0  0  0  0  0  0  0  0  0  0  0
   -0.3453    0.0717   -1.2234 C   0  0  0  0  0  0  0  0  0  0  0  0
    0.5315   -0.1166   -1.8516 H   0  0  0  0  0  0  0  0  0  0  0  0
   -1.2153    0.0156   -1.8850 H   0  0  0  0  0  0  0  0  0  0  0  0
   -0.2389    1.4760   -0.6727 C   0  0  0  0  0  0  0  0  0  0  0  0
    1.0158    2.0526   -0.4244 C   0  0  0  0  0  0  0  0  0  0  0  0
    1.9225    1.4814   -0.6057 H   0  0  0  0  0  0  0  0  0  0  0  0
    1.1101    3.3519    0.0870 C   0  0  0  0  0  0  0  0  0  0  0  0
    2.0893    3.7746    0.2841 H   0  0  0  0  0  0  0  0  0  0  0  0
   -0.0465    4.0893    0.3475 C   0  0  0  0  0  0  0  0  0  0  0  0
    0.0346    5.3556    0.8496 O   0  0  0  0  0  0  0  0  0  0  0  0
    0.9632    5.5913    1.0006 H   0  0  0  0  0  0  0  0  0  0  0  0
   -1.2957    3.5263    0.0934 C   0  0  0  0  0  0  0  0  0  0  0  0
   -2.1876    4.1098    0.2970 H   0  0  0  0  0  0  0  0  0  0  0  0
   -1.3960    2.2274   -0.4161 C   0  0  0  0  0  0  0  0  0  0  0  0
   -2.3778    1.8071   -0.6087 H   0  0  0  0  0  0  0  0  0  0  0  0
   -0.0971   -0.5823    1.2937 C   0  0  0  0  0  0  0  0  0  0  0  0
    1.0642   -0.5746    1.6844 O   0  0  0  0  0  0  0  0  0  0  0  0
   -1.0768    0.0021    2.0773 N   0  0  0  0  0  0  0  0  0  0  0  0
   -2.0036    0.0782    1.6748 H   0  0  0  0  0  0  0  0  0  0  0  0
   -0.7961    0.6675    3.3420 C   0  0  0  0  0  0  0  0  0  0  0  0
   -0.1577    1.5419    3.1781 H   0  0  0  0  0  0  0  0  0  0  0  0
   -1.7276    0.9995    3.8098 H   0  0  0  0  0  0  0  0  0  0  0  0
   -0.2892   -0.0166    4.0306 H   0  0  0  0  0  0  0  0  0  0  0  0
  1  2  1  0  0  0  0
  2  3  1  0  0  0  0
  2  4  1  0  0  0  0
  2  5  1  0  0  0  0
  5  6  2  0  0  0  0
  5  7  1  0  0  0  0
  7  8  1  0  0  0  0
  7  9  1  0  0  0  0
  9 10  1  0  0  0  0
  9 11  1  0  0  0  0
  9 26  1  0  0  0  0
 11 12  1  0  0  0  0
 11 13  1  0  0  0  0
 11 14  1  0  0  0  0
 14 15  2  0  0  0  0
 14 24  1  0  0  0  0
 15 16  1  0  0  0  0
 15 17  1  0  0  0  0
 17 18  1  0  0  0  0
 17 19  2  0  0  0  0
 19 20  1  0  0  0  0
 19 22  1  0  0  0  0
 20 21  1  0  0  0  0
 22 23  1  0  0  0  0
 22 24  2  0  0  0  0
 24 25  1  0  0  0  0
 26 27  2  0  0  0  0
 26 28  1  0  0  0  0
 28 29  1  0  0  0  0
 28 30  1  0  0  0  0
 30 31  1  0  0  0  0
 30 32  1  0  0  0  0
 30 33  1  0  0  0  0
M  END
$$$$

  -OEChem-03222214083D

 33 33  0     1  0  0  0  0  0999 V2000
   -3.3594   -4.6042    0.6301 H   0  0  0  0  0  0  0  0  0  0  0  0
   -3.3037   -3.6686    0.0663 C   0  0  0  0  0  0  0  0  0  0  0  0
   -4.1334   -3.0258    0.3699 H   0  0  0  0  0  0  0  0  0  0  0  0
   -3.3961   -3.8949   -0.9986 H   0  0  0  0  0  0  0  0  0  0  0  0
   -1.9818   -2.9744    0.3373 C   0  0  0  0  0  0  0  0  0  0  0  0
   -1.1759   -3.4809    1.0963 O   0  0  0  0  0  0  0  0  0  0  0  0
   -1.7002   -1.7736   -0.2848 N   0  0  0  0  0  0  0  0  0  0  0  0
   -2.3913   -1.4225   -0.9404 H   0  0  0  0  0  0  0  0  0  0  0  0
   -0.4341   -1.0310   -0.1276 C   0  0  1  0  0  0  0  0  0  0  0  0
    0.3608   -1.7422   -0.3796 H   0  0  0  0  0  0  0  0  0  0  0  0
   -0.3496    0.0884   -1.1979 C   0  0  0  0  0  0  0  0  0  0  0  0
    0.5277   -0.1091   -1.8227 H   0  0  0  0  0  0  0  0  0  0  0  0
   -1.2173    0.0392   -1.8629 H   0  0  0  0  0  0  0  0  0  0  0  0
   -0.2431    1.4946   -0.6512 C   0  0  0  0  0  0  0  0  0  0  0  0
    0.9789    2.1828   -0.6810 C   0  0  0  0  0  0  0  0  0  0  0  0
    1.8733    1.6901   -1.0519 H   0  0  0  0  0  0  0  0  0  0  0  0
    1.0640    3.4977   -0.2085 C   0  0  0  0  0  0  0  0  0  0  0  0
    2.0217    4.0063   -0.2239 H   0  0  0  0  0  0  0  0  0  0  0  0
   -0.0732    4.1434    0.2810 C   0  0  0  0  0  0  0  0  0  0  0  0
    0.0007    5.4242    0.7467 O   0  0  0  0  0  0  0  0  0  0  0  0
    0.9207    5.7302    0.7243 H   0  0  0  0  0  0  0  0  0  0  0  0
   -1.2952    3.4744    0.2914 C   0  0  0  0  0  0  0  0  0  0  0  0
   -2.1737    3.9883    0.6673 H   0  0  0  0  0  0  0  0  0  0  0  0
   -1.3850    2.1593   -0.1772 C   0  0  0  0  0  0  0  0  0  0  0  0
   -2.3464    1.6564   -0.1700 H   0  0  0  0  0  0  0  0  0  0  0  0
   -0.0945   -0.5918    1.3180 C   0  0  0  0  0  0  0  0  0  0  0  0
    1.0750   -0.5736    1.6825 O   0  0  0  0  0  0  0  0  0  0  0  0
   -1.0599   -0.0256    2.1316 N   0  0  0  0  0  0  0  0  0  0  0  0
   -2.0126   -0.0219    1.7870 H   0  0  0  0  0  0  0  0  0  0  0  0
   -0.7663    0.5754    3.4253 C   0  0  0  0  0  0  0  0  0  0  0  0
   -0.0831    1.4229    3.3051 H   0  0  0  0  0  0  0  0  0  0  0  0
   -1.6870    0.9364    3.8929 H   0  0  0  0  0  0  0  0  0  0  0  0
   -0.3041   -0.1597    4.0925 H   0  0  0  0  0  0  0  0  0  0  0  0
  1  2  1  0  0  0  0
  2  3  1  0  0  0  0
  2  4  1  0  0  0  0
  2  5  1  0  0  0  0
  5  6  2  0  0  0  0
  5  7  1  0  0  0  0
  7  8  1  0  0  0  0
  7  9  1  0  0  0  0
  9 10  1  0  0  0  0
  9 11  1  0  0  0  0
  9 26  1  0  0  0  0
 11 12  1  0  0  0  0
 11 13  1  0  0  0  0
 11 14  1  0  0  0  0
 14 15  2  0  0  0  0
 14 24  1  0  0  0  0
 15 16  1  0  0  0  0
 15 17  1  0  0  0  0
 17 18  1  0  0  0  0
 17 19  2  0  0  0  0
 19 20  1  0  0  0  0
 19 22  1  0  0  0  0
 20 21  1  0  0  0  0
 22 23  1  0  0  0  0
 22 24  2  0  0  0  0
 24 25  1  0  0  0  0
 26 27  2  0  0  0  0
 26 28  1  0  0  0  0
 28 29  1  0  0  0  0
 28 30  1  0  0  0  0
 30 31  1  0  0  0  0
 30 32  1  0  0  0  0
 30 33  1  0  0  0  0
M  END
$$$$

  -OEChem-03222214083D

 33 33  0     1  0  0  0  0  0999 V2000
   -3.3564   -4.6212    0.5726 H   0  0  0  0  0  0  0  0  0  0  0  0
   -3.3042   -3.6729    0.0300 C   0  0  0  0  0  0  0  0  0  0  0  0
   -4.1387   -3.0417    0.3443 H   0  0  0  0  0  0  0  0  0  0  0  0
   -3.3910   -3.8758   -1.0401 H   0  0  0  0  0  0  0  0  0  0  0  0
   -1.9876   -2.9774    0.3217 C   0  0  0  0  0  0  0  0  0  0  0  0
   -1.1801   -3.4972    1.0702 O   0  0  0  0  0  0  0  0  0  0  0  0
   -1.7158   -1.7557   -0.2628 N   0  0  0  0  0  0  0  0  0  0  0  0
   -2.4085   -1.3911   -0.9094 H   0  0  0  0  0  0  0  0  0  0  0  0
   -0.4511   -1.0136   -0.0937 C   0  0  1  0  0  0  0  0  0  0  0  0
    0.3360   -1.7294   -0.3585 H   0  0  0  0  0  0  0  0  0  0  0  0
   -0.3440    0.1110   -1.1574 C   0  0  0  0  0  0  0  0  0  0  0  0
    0.5406   -0.0985   -1.7675 H   0  0  0  0  0  0  0  0  0  0  0  0
   -1.2025    0.0652   -1.8343 H   0  0  0  0  0  0  0  0  0  0  0  0
   -0.2364    1.5263   -0.6292 C   0  0  0  0  0  0  0  0  0  0  0  0
    0.8863    2.3136   -0.9292 C   0  0  0  0  0  0  0  0  0  0  0  0
    1.7210    1.8877   -1.4786 H   0  0  0  0  0  0  0  0  0  0  0  0
    0.9565    3.6458   -0.5047 C   0  0  0  0  0  0  0  0  0  0  0  0
    1.8429    4.2290   -0.7283 H   0  0  0  0  0  0  0  0  0  0  0  0
   -0.1064    4.2161    0.1978 C   0  0  0  0  0  0  0  0  0  0  0  0
   -0.0473    5.5136    0.6171 O   0  0  0  0  0  0  0  0  0  0  0  0
    0.8273    5.8839    0.4215 H   0  0  0  0  0  0  0  0  0  0  0  0
   -1.2429    3.4561    0.4622 C   0  0  0  0  0  0  0  0  0  0  0  0
   -2.0698    3.9133    0.9953 H   0  0  0  0  0  0  0  0  0  0  0  0
   -1.3158    2.1242    0.0413 C   0  0  0  0  0  0  0  0  0  0  0  0
   -2.2183    1.5557    0.2379 H   0  0  0  0  0  0  0  0  0  0  0  0
   -0.0914   -0.6174    1.3591 C   0  0  0  0  0  0  0  0  0  0  0  0
    1.0841   -0.5990    1.7021 O   0  0  0  0  0  0  0  0  0  0  0  0
   -1.0439   -0.0804    2.2073 N   0  0  0  0  0  0  0  0  0  0  0  0
   -2.0116   -0.1455    1.9139 H   0  0  0  0  0  0  0  0  0  0  0  0
   -0.7348    0.4348    3.5343 C   0  0  0  0  0  0  0  0  0  0  0  0
   -0.0173    1.2594    3.4655 H   0  0  0  0  0  0  0  0  0  0  0  0
   -1.6430    0.8077    4.0169 H   0  0  0  0  0  0  0  0  0  0  0  0
   -0.3068   -0.3546    4.1610 H   0  0  0  0  0  0  0  0  0  0  0  0
  1  2  1  0  0  0  0
  2  3  1  0  0  0  0
  2  4  1  0  0  0  0
  2  5  1  0  0  0  0
  5  6  2  0  0  0  0
  5  7  1  0  0  0  0
  7  8  1  0  0  0  0
  7  9  1  0  0  0  0
  9 10  1  0  0  0  0
  9 11  1  0  0  0  0
  9 26  1  0  0  0  0
 11 12  1  0  0  0  0
 11 13  1  0  0  0  0
 11 14  1  0  0  0  0
 14 15  2  0  0  0  0
 14 24  1  0  0  0  0
 15 16  1  0  0  0  0
 15 17  1  0  0  0  0
 17 18  1  0  0  0  0
 17 19  2  0  0  0  0
 19 20  1  0  0  0  0
 19 22  1  0  0  0  0
 20 21  1  0  0  0  0
 22 23  1  0  0  0  0
 22 24  2  0  0  0  0
 24 25  1  0  0  0  0
 26 27  2  0  0  0  0
 26 28  1  0  0  0  0
 28 29  1  0  0  0  0
 28 30  1  0  0  0  0
 30 31  1  0  0  0  0
 30 32  1  0  0  0  0
 30 33  1  0  0  0  0
M  END
$$$$

  -OEChem-03222214083D

 33 33  0     1  0  0  0  0  0999 V2000
   -3.3559   -4.6426    0.4746 H   0  0  0  0  0  0  0  0  0  0  0  0
   -3.3070   -3.6741   -0.0316 C   0  0  0  0  0  0  0  0  0  0  0  0
   -4.1479   -3.0611    0.3015 H   0  0  0  0  0  0  0  0  0  0  0  0
   -3.3865   -3.8369   -1.1092 H   0  0  0  0  0  0  0  0  0  0  0  0
   -1.9966   -2.9810    0.2926 C   0  0  0  0  0  0  0  0  0  0  0  0
   -1.1861   -3.5259    1.0197 O   0  0  0  0  0  0  0  0  0  0  0  0
   -1.7351   -1.7314   -0.2351 N   0  0  0  0  0  0  0  0  0  0  0  0
   -2.4337   -1.3416   -0.8606 H   0  0  0  0  0  0  0  0  0  0  0  0
   -0.4722   -0.9915   -0.0448 C   0  0  1  0  0  0  0  0  0  0  0  0
    0.3042   -1.7121   -0.3274 H   0  0  0  0  0  0  0  0  0  0  0  0
   -0.3331    0.1398   -1.1000 C   0  0  0  0  0  0  0  0  0  0  0  0
    0.5639   -0.0815   -1.6878 H   0  0  0  0  0  0  0  0  0  0  0  0
   -1.1766    0.0945   -1.7956 H   0  0  0  0  0  0  0  0  0  0  0  0
   -0.2249    1.5674   -0.5998 C   0  0  0  0  0  0  0  0  0  0  0  0
    0.7430    2.4255   -1.1482 C   0  0  0  0  0  0  0  0  0  0  0  0
    1.4770    2.0411   -1.8504 H   0  0  0  0  0  0  0  0  0  0  0  0
    0.7961    3.7758   -0.7826 C   0  0  0  0  0  0  0  0  0  0  0  0
    1.5713    4.4102   -1.1981 H   0  0  0  0  0  0  0  0  0  0  0  0
   -0.1451    4.2993    0.1045 C   0  0  0  0  0  0  0  0  0  0  0  0
   -0.1035    5.6137    0.4695 O   0  0  0  0  0  0  0  0  0  0  0  0
    0.6881    6.0344    0.0999 H   0  0  0  0  0  0  0  0  0  0  0  0
   -1.1485    3.4747    0.6052 C   0  0  0  0  0  0  0  0  0  0  0  0
   -1.8921    3.8950    1.2739 H   0  0  0  0  0  0  0  0  0  0  0  0
   -1.2023    2.1254    0.2411 C   0  0  0  0  0  0  0  0  0  0  0  0
   -2.0218    1.5192    0.6095 H   0  0  0  0  0  0  0  0  0  0  0  0
   -0.0864   -0.6566    1.4172 C   0  0  0  0  0  0  0  0  0  0  0  0
    1.0960   -0.6408    1.7349 O   0  0  0  0  0  0  0  0  0  0  0  0
   -1.0209   -0.1618    2.3099 N   0  0  0  0  0  0  0  0  0  0  0  0
   -1.9959   -0.2647    2.0531 H   0  0  0  0  0  0  0  0  0  0  0  0
   -0.6856    0.2646    3.6626 C   0  0  0  0  0  0  0  0  0  0  0  0
    0.0383    1.0859    3.6348 H   0  0  0  0  0  0  0  0  0  0  0  0
   -1.5822    0.6144    4.1829 H   0  0  0  0  0  0  0  0  0  0  0  0
   -0.2553   -0.5667    4.2311 H   0  0  0  0  0  0  0  0  0  0  0  0
  1  2  1  0  0  0  0
  2  3  1  0  0  0  0
  2  4  1  0  0  0  0
  2  5  1  0  0  0  0
  5  6  2  0  0  0  0
  5  7  1  0  0  0  0
  7  8  1  0  0  0  0
  7  9  1  0  0  0  0
  9 10  1  0  0  0  0
  9 11  1  0  0  0  0
  9 26  1  0  0  0  0
 11 12  1  0  0  0  0
 11 13  1  0  0  0  0
 11 14  1  0  0  0  0
 14 15  2  0  0  0  0
 14 24  1  0  0  0  0
 15 16  1  0  0  0  0
 15 17  1  0  0  0  0
 17 18  1  0  0  0  0
 17 19  2  0  0  0  0
 19 20  1  0  0  0  0
 19 22  1  0  0  0  0
 20 21  1  0  0  0  0
 22 23  1  0  0  0  0
 22 24  2  0  0  0  0
 24 25  1  0  0  0  0
 26 27  2  0  0  0  0
 26 28  1  0  0  0  0
 28 29  1  0  0  0  0
 28 30  1  0  0  0  0
 30 31  1  0  0  0  0
 30 32  1  0  0  0  0
 30 33  1  0  0  0  0
M  END
$$$$

  -OEChem-03222214083D

 33 33  0     1  0  0  0  0  0999 V2000
   -3.3694   -4.6479    0.3180 H   0  0  0  0  0  0  0  0  0  0  0  0
   -3.3204   -3.6535   -0.1348 C   0  0  0  0  0  0  0  0  0  0  0  0
   -4.1661   -3.0624    0.2246 H   0  0  0  0  0  0  0  0  0  0  0  0
   -3.3920   -3.7579   -1.2200 H   0  0  0  0  0  0  0  0  0  0  0  0
   -2.0146   -2.9751    0.2355 C   0  0  0  0  0  0  0  0  0  0  0  0
   -1.2082   -3.5545    0.9402 O   0  0  0  0  0  0  0  0  0  0  0  0
   -1.7560   -1.6961   -0.2177 N   0  0  0  0  0  0  0  0  0  0  0  0
   -2.4542   -1.2731   -0.8220 H   0  0  0  0  0  0  0  0  0  0  0  0
   -0.4966   -0.9631    0.0158 C   0  0  1  0  0  0  0  0  0  0  0  0
    0.2708   -1.6892   -0.2795 H   0  0  0  0  0  0  0  0  0  0  0  0
   -0.3053    0.1770   -1.0249 C   0  0  0  0  0  0  0  0  0  0  0  0
    0.6143   -0.0563   -1.5724 H   0  0  0  0  0  0  0  0  0  0  0  0
   -1.1193    0.1299   -1.7544 H   0  0  0  0  0  0  0  0  0  0  0  0
   -0.1964    1.6200   -0.5625 C   0  0  0  0  0  0  0  0  0  0  0  0
    0.5797    2.5105   -1.3252 C   0  0  0  0  0  0  0  0  0  0  0  0
    1.1768    2.1373   -2.1522 H   0  0  0  0  0  0  0  0  0  0  0  0
    0.6253    3.8763   -1.0214 C   0  0  0  0  0  0  0  0  0  0  0  0
    1.2615    4.5320   -1.6056 H   0  0  0  0  0  0  0  0  0  0  0  0
   -0.1490    4.3877    0.0195 C   0  0  0  0  0  0  0  0  0  0  0  0
   -0.1138    5.7168    0.3283 O   0  0  0  0  0  0  0  0  0  0  0  0
    0.5685    6.1607   -0.1985 H   0  0  0  0  0  0  0  0  0  0  0  0
   -0.9877    3.5343    0.7292 C   0  0  0  0  0  0  0  0  0  0  0  0
   -1.6172    3.9447    1.5117 H   0  0  0  0  0  0  0  0  0  0  0  0
   -1.0325    2.1696    0.4249 C   0  0  0  0  0  0  0  0  0  0  0  0
   -1.7544    1.5585    0.9489 H   0  0  0  0  0  0  0  0  0  0  0  0
   -0.1029   -0.7065    1.4913 C   0  0  0  0  0  0  0  0  0  0  0  0
    1.0822   -0.6963    1.7980 O   0  0  0  0  0  0  0  0  0  0  0  0
   -1.0290   -0.2661    2.4206 N   0  0  0  0  0  0  0  0  0  0  0  0
   -2.0059   -0.3875    2.1775 H   0  0  0  0  0  0  0  0  0  0  0  0
   -0.6808    0.0503    3.8001 C   0  0  0  0  0  0  0  0  0  0  0  0
    0.0448    0.8701    3.8325 H   0  0  0  0  0  0  0  0  0  0  0  0
   -1.5721    0.3577    4.3552 H   0  0  0  0  0  0  0  0  0  0  0  0
   -0.2469   -0.8245    4.2956 H   0  0  0  0  0  0  0  0  0  0  0  0
  1  2  1  0  0  0  0
  2  3  1  0  0  0  0
  2  4  1  0  0  0  0
  2  5  1  0  0  0  0
  5  6  2  0  0  0  0
  5  7  1  0  0  0  0
  7  8  1  0  0  0  0
  7  9  1  0  0  0  0
  9 10  1  0  0  0  0
  9 11  1  0  0  0  0
  9 26  1  0  0  0  0
 11 12  1  0  0  0  0
 11 13  1  0  0  0  0
 11 14  1  0  0  0  0
 14 15  2  0  0  0  0
 14 24  1  0  0  0  0
 15 16  1  0  0  0  0
 15 17  1  0  0  0  0
 17 18  1  0  0  0  0
 17 19  2  0  0  0  0
 19 20  1  0  0  0  0
 19 22  1  0  0  0  0
 20 21  1  0  0  0  0
 22 23  1  0  0  0  0
 22 24  2  0  0  0  0
 24 25  1  0  0  0  0
 26 27  2  0  0  0  0
 26 28  1  0  0  0  0
 28 29  1  0  0  0  0
 28 30  1  0  0  0  0
 30 31  1  0  0  0  0
 30 32  1  0  0  0  0
 30 33  1  0  0  0  0
M  END
$$$$

  -OEChem-03222214083D

 33 33  0     1  0  0  0  0  0999 V2000
   -3.3930   -4.6353    0.2402 H   0  0  0  0  0  0  0  0  0  0  0  0
   -3.3668   -3.6126   -0.1470 C   0  0  0  0  0  0  0  0  0  0  0  0
   -4.1861   -3.0460    0.3016 H   0  0  0  0  0  0  0  0  0  0  0  0
   -3.5034   -3.6440   -1.2306 H   0  0  0  0  0  0  0  0  0  0  0  0
   -2.0383   -2.9616    0.1890 C   0  0  0  0  0  0  0  0  0  0  0  0
   -1.1901   -3.5923    0.7933 O   0  0  0  0  0  0  0  0  0  0  0  0
   -1.8045   -1.6514   -0.1820 N   0  0  0  0  0  0  0  0  0  0  0  0
   -2.5474   -1.1767   -0.6863 H   0  0  0  0  0  0  0  0  0  0  0  0
   -0.5365   -0.9287    0.0399 C   0  0  1  0  0  0  0  0  0  0  0  0
    0.2124   -1.6438   -0.3215 H   0  0  0  0  0  0  0  0  0  0  0  0
   -0.3686    0.2478   -0.9686 C   0  0  0  0  0  0  0  0  0  0  0  0
    0.5381    0.0178   -1.5390 H   0  0  0  0  0  0  0  0  0  0  0  0
   -1.1984    0.2036   -1.6809 H   0  0  0  0  0  0  0  0  0  0  0  0
   -0.2332    1.7062   -0.5480 C   0  0  0  0  0  0  0  0  0  0  0  0
    0.2383    2.6015   -1.5261 C   0  0  0  0  0  0  0  0  0  0  0  0
    0.5664    2.2229   -2.4900 H   0  0  0  0  0  0  0  0  0  0  0  0
    0.3188    3.9774   -1.2818 C   0  0  0  0  0  0  0  0  0  0  0  0
    0.7132    4.6345   -2.0491 H   0  0  0  0  0  0  0  0  0  0  0  0
   -0.1125    4.4961   -0.0627 C   0  0  0  0  0  0  0  0  0  0  0  0
   -0.0444    5.8354    0.1918 O   0  0  0  0  0  0  0  0  0  0  0  0
    0.3988    6.2905   -0.5405 H   0  0  0  0  0  0  0  0  0  0  0  0
   -0.6411    3.6363    0.8937 C   0  0  0  0  0  0  0  0  0  0  0  0
   -1.0033    4.0480    1.8301 H   0  0  0  0  0  0  0  0  0  0  0  0
   -0.7210    2.2610    0.6487 C   0  0  0  0  0  0  0  0  0  0  0  0
   -1.2017    1.6642    1.4044 H   0  0  0  0  0  0  0  0  0  0  0  0
   -0.0867   -0.7875    1.5137 C   0  0  0  0  0  0  0  0  0  0  0  0
    1.1083   -0.7887    1.7779 O   0  0  0  0  0  0  0  0  0  0  0  0
   -0.9821   -0.4285    2.5069 N   0  0  0  0  0  0  0  0  0  0  0  0
   -1.9661   -0.5346    2.2843 H   0  0  0  0  0  0  0  0  0  0  0  0
   -0.5927   -0.2596    3.9015 C   0  0  0  0  0  0  0  0  0  0  0  0
    0.1794    0.5116    3.9938 H   0  0  0  0  0  0  0  0  0  0  0  0
   -1.4556    0.0452    4.5010 H   0  0  0  0  0  0  0  0  0  0  0  0
   -0.2022   -1.1994    4.3056 H   0  0  0  0  0  0  0  0  0  0  0  0
  1  2  1  0  0  0  0
  2  3  1  0  0  0  0
  2  4  1  0  0  0  0
  2  5  1  0  0  0  0
  5  6  2  0  0  0  0
  5  7  1  0  0  0  0
  7  8  1  0  0  0  0
  7  9  1  0  0  0  0
  9 10  1  0  0  0  0
  9 11  1  0  0  0  0
  9 26  1  0  0  0  0
 11 12  1  0  0  0  0
 11 13  1  0  0  0  0
 11 14  1  0  0  0  0
 14 15  2  0  0  0  0
 14 24  1  0  0  0  0
 15 16  1  0  0  0  0
 15 17  1  0  0  0  0
 17 18  1  0  0  0  0
 17 19  2  0  0  0  0
 19 20  1  0  0  0  0
 19 22  1  0  0  0  0
 20 21  1  0  0  0  0
 22 23  1  0  0  0  0
 22 24  2  0  0  0  0
 24 25  1  0  0  0  0
 26 27  2  0  0  0  0
 26 28  1  0  0  0  0
 28 29  1  0  0  0  0
 28 30  1  0  0  0  0
 30 31  1  0  0  0  0
 30 32  1  0  0  0  0
 30 33  1  0  0  0  0
M  END
$$$$

  -OEChem-03222214083D

 33 33  0     1  0  0  0  0  0999 V2000
   -3.5199   -4.4771    0.3635 H   0  0  0  0  0  0  0  0  0  0  0  0
   -3.3840   -3.5037   -0.1167 C   0  0  0  0  0  0  0  0  0  0  0  0
   -4.1635   -2.8256    0.2385 H   0  0  0  0  0  0  0  0  0  0  0  0
   -3.4820   -3.6289   -1.1977 H   0  0  0  0  0  0  0  0  0  0  0  0
   -2.0141   -2.9444    0.2188 C   0  0  0  0  0  0  0  0  0  0  0  0
   -1.2448   -3.5996    0.8973 O   0  0  0  0  0  0  0  0  0  0  0  0
   -1.6458   -1.7014   -0.2612 N   0  0  0  0  0  0  0  0  0  0  0  0
   -2.3226   -1.2166   -0.8423 H   0  0  0  0  0  0  0  0  0  0  0  0
   -0.3490   -1.0429    0.0143 C   0  0  1  0  0  0  0  0  0  0  0  0
    0.4535   -1.7299   -0.2787 H   0  0  0  0  0  0  0  0  0  0  0  0
   -0.2578    0.1929   -0.9397 C   0  0  0  0  0  0  0  0  0  0  0  0
    0.3953   -0.1217   -1.7606 H   0  0  0  0  0  0  0  0  0  0  0  0
   -1.2506    0.3414   -1.3764 H   0  0  0  0  0  0  0  0  0  0  0  0
    0.2009    1.6015   -0.5505 C   0  0  0  0  0  0  0  0  0  0  0  0
    0.1879    2.5367   -1.6034 C   0  0  0  0  0  0  0  0  0  0  0  0
   -0.1492    2.2321   -2.5900 H   0  0  0  0  0  0  0  0  0  0  0  0
    0.5953    3.8623   -1.4201 C   0  0  0  0  0  0  0  0  0  0  0  0
    0.5626    4.5522   -2.2562 H   0  0  0  0  0  0  0  0  0  0  0  0
    1.0426    4.2878   -0.1726 C   0  0  0  0  0  0  0  0  0  0  0  0
    1.4460    5.5768    0.0237 O   0  0  0  0  0  0  0  0  0  0  0  0
    1.4159    6.0664   -0.8123 H   0  0  0  0  0  0  0  0  0  0  0  0
    1.0878    3.3797    0.8783 C   0  0  0  0  0  0  0  0  0  0  0  0
    1.4537    3.7102    1.8451 H   0  0  0  0  0  0  0  0  0  0  0  0
    0.6848    2.0514    0.6980 C   0  0  0  0  0  0  0  0  0  0  0  0
    0.7923    1.4217    1.5676 H   0  0  0  0  0  0  0  0  0  0  0  0
   -0.1493   -0.8225    1.5280 C   0  0  0  0  0  0  0  0  0  0  0  0
    0.9479   -1.0104    2.0384 O   0  0  0  0  0  0  0  0  0  0  0  0
   -1.1794   -0.3239    2.3069 N   0  0  0  0  0  0  0  0  0  0  0  0
   -2.0859   -0.2269    1.8630 H   0  0  0  0  0  0  0  0  0  0  0  0
   -1.0711   -0.1386    3.7481 C   0  0  0  0  0  0  0  0  0  0  0  0
   -0.2829    0.5843    3.9831 H   0  0  0  0  0  0  0  0  0  0  0  0
   -2.0153    0.2366    4.1537 H   0  0  0  0  0  0  0  0  0  0  0  0
   -0.8359   -1.0891    4.2389 H   0  0  0  0  0  0  0  0  0  0  0  0
  1  2  1  0  0  0  0
  2  3  1  0  0  0  0
  2  4  1  0  0  0  0
  2  5  1  0  0  0  0
  5  6  2  0  0  0  0
  5  7  1  0  0  0  0
  7  8  1  0  0  0  0
  7  9  1  0  0  0  0
  9 10  1  0  0  0  0
  9 11  1  0  0  0  0
  9 26  1  0  0  0  0
 11 12  1  0  0  0  0
 11 13  1  0  0  0  0
 11 14  1  0  0  0  0
 14 15  2  0  0  0  0
 14 24  1  0  0  0  0
 15 16  1  0  0  0  0
 15 17  1  0  0  0  0
 17 18  1  0  0  0  0
 17 19  2  0  0  0  0
 19 20  1  0  0  0  0
 19 22  1  0  0  0  0
 20 21  1  0  0  0  0
 22 23  1  0  0  0  0
 22 24  2  0  0  0  0
 24 25  1  0  0  0  0
 26 27  2  0  0  0  0
 26 28  1  0  0  0  0
 28 29  1  0  0  0  0
 28 30  1  0  0  0  0
 30 31  1  0  0  0  0
 30 32  1  0  0  0  0
 30 33  1  0  0  0  0
M  END
$$$$

  -OEChem-03222214083D

 33 33  0     1  0  0  0  0  0999 V2000
   -3.4772   -4.4804    0.5014 H   0  0  0  0  0  0  0  0  0  0  0  0
   -3.3514   -3.5255   -0.0171 C   0  0  0  0  0  0  0  0  0  0  0  0
   -4.1115   -2.8283    0.3429 H   0  0  0  0  0  0  0  0  0  0  0  0
   -3.4901   -3.6870   -1.0887 H   0  0  0  0  0  0  0  0  0  0  0  0
   -1.9654   -2.9677    0.2485 C   0  0  0  0  0  0  0  0  0  0  0  0
   -1.1726   -3.6131    0.9091 O   0  0  0  0  0  0  0  0  0  0  0  0
   -1.6076   -1.7432   -0.2848 N   0  0  0  0  0  0  0  0  0  0  0  0
   -2.3083   -1.2677   -0.8444 H   0  0  0  0  0  0  0  0  0  0  0  0
   -0.3144   -1.0652   -0.0399 C   0  0  1  0  0  0  0  0  0  0  0  0
    0.5059   -1.7311   -0.3306 H   0  0  0  0  0  0  0  0  0  0  0  0
   -0.2950    0.1753   -0.9921 C   0  0  0  0  0  0  0  0  0  0  0  0
    0.3411   -0.1010   -1.8394 H   0  0  0  0  0  0  0  0  0  0  0  0
   -1.3047    0.3043   -1.3952 H   0  0  0  0  0  0  0  0  0  0  0  0
    0.1509    1.5705   -0.5564 C   0  0  0  0  0  0  0  0  0  0  0  0
   -0.1998    2.6320   -1.4124 C   0  0  0  0  0  0  0  0  0  0  0  0
   -0.8224    2.4425   -2.2819 H   0  0  0  0  0  0  0  0  0  0  0  0
    0.2155    3.9452   -1.1639 C   0  0  0  0  0  0  0  0  0  0  0  0
   -0.0998    4.7416   -1.8292 H   0  0  0  0  0  0  0  0  0  0  0  0
    1.0369    4.2232   -0.0738 C   0  0  0  0  0  0  0  0  0  0  0  0
    1.4502    5.4983    0.1840 O   0  0  0  0  0  0  0  0  0  0  0  0
    1.0980    6.1052   -0.4847 H   0  0  0  0  0  0  0  0  0  0  0  0
    1.4623    3.1791    0.7393 C   0  0  0  0  0  0  0  0  0  0  0  0
    2.1382    3.3912    1.5616 H   0  0  0  0  0  0  0  0  0  0  0  0
    1.0506    1.8652    0.4895 C   0  0  0  0  0  0  0  0  0  0  0  0
    1.4915    1.1028    1.1166 H   0  0  0  0  0  0  0  0  0  0  0  0
   -0.1359   -0.7900    1.4723 C   0  0  0  0  0  0  0  0  0  0  0  0
    0.9276   -1.0419    2.0251 O   0  0  0  0  0  0  0  0  0  0  0  0
   -1.1777   -0.2714    2.2219 N   0  0  0  0  0  0  0  0  0  0  0  0
   -2.0495   -0.0854    1.7396 H   0  0  0  0  0  0  0  0  0  0  0  0
   -1.0808    0.0007    3.6499 C   0  0  0  0  0  0  0  0  0  0  0  0
   -0.3449    0.7892    3.8388 H   0  0  0  0  0  0  0  0  0  0  0  0
   -2.0491    0.3287    4.0397 H   0  0  0  0  0  0  0  0  0  0  0  0
   -0.7786   -0.9016    4.1922 H   0  0  0  0  0  0  0  0  0  0  0  0
  1  2  1  0  0  0  0
  2  3  1  0  0  0  0
  2  4  1  0  0  0  0
  2  5  1  0  0  0  0
  5  6  2  0  0  0  0
  5  7  1  0  0  0  0
  7  8  1  0  0  0  0
  7  9  1  0  0  0  0
  9 10  1  0  0  0  0
  9 11  1  0  0  0  0
  9 26  1  0  0  0  0
 11 12  1  0  0  0  0
 11 13  1  0  0  0  0
 11 14  1  0  0  0  0
 14 15  2  0  0  0  0
 14 24  1  0  0  0  0
 15 16  1  0  0  0  0
 15 17  1  0  0  0  0
 17 18  1  0  0  0  0
 17 19  2  0  0  0  0
 19 20  1  0  0  0  0
 19 22  1  0  0  0  0
 20 21  1  0  0  0  0
 22 23  1  0  0  0  0
 22 24  2  0  0  0  0
 24 25  1  0  0  0  0
 26 27  2  0  0  0  0
 26 28  1  0  0  0  0
 28 29  1  0  0  0  0
 28 30  1  0  0  0  0
 30 31  1  0  0  0  0
 30 32  1  0  0  0  0
 30 33  1  0  0  0  0
M  END
$$$$

  -OEChem-03222214083D

 33 33  0     1  0  0  0  0  0999 V2000
   -3.4595   -4.5020    0.5650 H   0  0  0  0  0  0  0  0  0  0  0  0
   -3.3423   -3.5540    0.0320 C   0  0  0  0  0  0  0  0  0  0  0  0
   -4.1219   -2.8650    0.3656 H   0  0  0  0  0  0  0  0  0  0  0  0
   -3.4592   -3.7377   -1.0387 H   0  0  0  0  0  0  0  0  0  0  0  0
   -1.9724   -2.9641    0.3114 C   0  0  0  0  0  0  0  0  0  0  0  0
   -1.1959   -3.5597    1.0349 O   0  0  0  0  0  0  0  0  0  0  0  0
   -1.6105   -1.7683   -0.2802 N   0  0  0  0  0  0  0  0  0  0  0  0
   -2.2892   -1.3443   -0.9042 H   0  0  0  0  0  0  0  0  0  0  0  0
   -0.3230   -1.0737   -0.0556 C   0  0  1  0  0  0  0  0  0  0  0  0
    0.5036   -1.7468   -0.3096 H   0  0  0  0  0  0  0  0  0  0  0  0
   -0.3003    0.1318   -1.0476 C   0  0  0  0  0  0  0  0  0  0  0  0
    0.3472   -0.1527   -1.8834 H   0  0  0  0  0  0  0  0  0  0  0  0
   -1.3049    0.2555   -1.4640 H   0  0  0  0  0  0  0  0  0  0  0  0
    0.1514    1.5096   -0.5813 C   0  0  0  0  0  0  0  0  0  0  0  0
   -0.4100    2.6402   -1.2027 C   0  0  0  0  0  0  0  0  0  0  0  0
   -1.2127    2.5222   -1.9244 H   0  0  0  0  0  0  0  0  0  0  0  0
    0.0312    3.9329   -0.8958 C   0  0  0  0  0  0  0  0  0  0  0  0
   -0.4409    4.7867   -1.3690 H   0  0  0  0  0  0  0  0  0  0  0  0
    1.0796    4.1197    0.0040 C   0  0  0  0  0  0  0  0  0  0  0  0
    1.5188    5.3743    0.3145 O   0  0  0  0  0  0  0  0  0  0  0  0
    0.9894    6.0391   -0.1515 H   0  0  0  0  0  0  0  0  0  0  0  0
    1.7016    3.0095    0.5657 C   0  0  0  0  0  0  0  0  0  0  0  0
    2.5442    3.1541    1.2346 H   0  0  0  0  0  0  0  0  0  0  0  0
    1.2640    1.7172    0.2569 C   0  0  0  0  0  0  0  0  0  0  0  0
    1.8298    0.8861    0.6639 H   0  0  0  0  0  0  0  0  0  0  0  0
   -0.1525   -0.7132    1.4420 C   0  0  0  0  0  0  0  0  0  0  0  0
    0.9113   -0.9217    2.0120 O   0  0  0  0  0  0  0  0  0  0  0  0
   -1.1995   -0.1562    2.1557 N   0  0  0  0  0  0  0  0  0  0  0  0
   -2.0692    0.0001    1.6596 H   0  0  0  0  0  0  0  0  0  0  0  0
   -1.1052    0.2063    3.5636 C   0  0  0  0  0  0  0  0  0  0  0  0
   -0.3540    0.9903    3.7062 H   0  0  0  0  0  0  0  0  0  0  0  0
   -2.0684    0.5790    3.9244 H   0  0  0  0  0  0  0  0  0  0  0  0
   -0.8245   -0.6651    4.1647 H   0  0  0  0  0  0  0  0  0  0  0  0
  1  2  1  0  0  0  0
  2  3  1  0  0  0  0
  2  4  1  0  0  0  0
  2  5  1  0  0  0  0
  5  6  2  0  0  0  0
  5  7  1  0  0  0  0
  7  8  1  0  0  0  0
  7  9  1  0  0  0  0
  9 10  1  0  0  0  0
  9 11  1  0  0  0  0
  9 26  1  0  0  0  0
 11 12  1  0  0  0  0
 11 13  1  0  0  0  0
 11 14  1  0  0  0  0
 14 15  2  0  0  0  0
 14 24  1  0  0  0  0
 15 16  1  0  0  0  0
 15 17  1  0  0  0  0
 17 18  1  0  0  0  0
 17 19  2  0  0  0  0
 19 20  1  0  0  0  0
 19 22  1  0  0  0  0
 20 21  1  0  0  0  0
 22 23  1  0  0  0  0
 22 24  2  0  0  0  0
 24 25  1  0  0  0  0
 26 27  2  0  0  0  0
 26 28  1  0  0  0  0
 28 29  1  0  0  0  0
 28 30  1  0  0  0  0
 30 31  1  0  0  0  0
 30 32  1  0  0  0  0
 30 33  1  0  0  0  0
M  END
$$$$

  -OEChem-03222214083D

 33 33  0     1  0  0  0  0  0999 V2000
   -3.4403   -4.5158    0.6204 H   0  0  0  0  0  0  0  0  0  0  0  0
   -3.3329   -3.5831    0.0591 C   0  0  0  0  0  0  0  0  0  0  0  0
   -4.1217   -2.8938    0.3693 H   0  0  0  0  0  0  0  0  0  0  0  0
   -3.4435   -3.8004   -1.0060 H   0  0  0  0  0  0  0  0  0  0  0  0
   -1.9713   -2.9688    0.3253 C   0  0  0  0  0  0  0  0  0  0  0  0
   -1.1881   -3.5354    1.0650 O   0  0  0  0  0  0  0  0  0  0  0  0
   -1.6236   -1.7837   -0.2952 N   0  0  0  0  0  0  0  0  0  0  0  0
   -2.3090   -1.3782   -0.9242 H   0  0  0  0  0  0  0  0  0  0  0  0
   -0.3406   -1.0771   -0.0921 C   0  0  1  0  0  0  0  0  0  0  0  0
    0.4819   -1.7588   -0.3369 H   0  0  0  0  0  0  0  0  0  0  0  0
   -0.3087    0.1018   -1.1102 C   0  0  0  0  0  0  0  0  0  0  0  0
    0.3505   -0.1901   -1.9341 H   0  0  0  0  0  0  0  0  0  0  0  0
   -1.3063    0.2245   -1.5429 H   0  0  0  0  0  0  0  0  0  0  0  0
    0.1496    1.4643   -0.6192 C   0  0  0  0  0  0  0  0  0  0  0  0
   -0.5800    2.6111   -0.9774 C   0  0  0  0  0  0  0  0  0  0  0  0
   -1.5013    2.5192   -1.5444 H   0  0  0  0  0  0  0  0  0  0  0  0
   -0.1417    3.8872   -0.6043 C   0  0  0  0  0  0  0  0  0  0  0  0
   -0.7315    4.7558   -0.8753 H   0  0  0  0  0  0  0  0  0  0  0  0
    1.0508    4.0405    0.1034 C   0  0  0  0  0  0  0  0  0  0  0  0
    1.4868    5.2799    0.4733 O   0  0  0  0  0  0  0  0  0  0  0  0
    0.8554    5.9559    0.1843 H   0  0  0  0  0  0  0  0  0  0  0  0
    1.8104    2.9170    0.4173 C   0  0  0  0  0  0  0  0  0  0  0  0
    2.7477    3.0395    0.9502 H   0  0  0  0  0  0  0  0  0  0  0  0
    1.3775    1.6408    0.0432 C   0  0  0  0  0  0  0  0  0  0  0  0
    2.0113    0.7888    0.2747 H   0  0  0  0  0  0  0  0  0  0  0  0
   -0.1356   -0.6702    1.3893 C   0  0  0  0  0  0  0  0  0  0  0  0
    0.9550   -0.8251    1.9248 O   0  0  0  0  0  0  0  0  0  0  0  0
   -1.1657   -0.0942    2.1125 N   0  0  0  0  0  0  0  0  0  0  0  0
   -2.0469    0.0492    1.6332 H   0  0  0  0  0  0  0  0  0  0  0  0
   -1.0151    0.3691    3.4856 C   0  0  0  0  0  0  0  0  0  0  0  0
   -0.2875    1.1861    3.5344 H   0  0  0  0  0  0  0  0  0  0  0  0
   -1.9722    0.7330    3.8705 H   0  0  0  0  0  0  0  0  0  0  0  0
   -0.6721   -0.4475    4.1298 H   0  0  0  0  0  0  0  0  0  0  0  0
  1  2  1  0  0  0  0
  2  3  1  0  0  0  0
  2  4  1  0  0  0  0
  2  5  1  0  0  0  0
  5  6  2  0  0  0  0
  5  7  1  0  0  0  0
  7  8  1  0  0  0  0
  7  9  1  0  0  0  0
  9 10  1  0  0  0  0
  9 11  1  0  0  0  0
  9 26  1  0  0  0  0
 11 12  1  0  0  0  0
 11 13  1  0  0  0  0
 11 14  1  0  0  0  0
 14 15  2  0  0  0  0
 14 24  1  0  0  0  0
 15 16  1  0  0  0  0
 15 17  1  0  0  0  0
 17 18  1  0  0  0  0
 17 19  2  0  0  0  0
 19 20  1  0  0  0  0
 19 22  1  0  0  0  0
 20 21  1  0  0  0  0
 22 23  1  0  0  0  0
 22 24  2  0  0  0  0
 24 25  1  0  0  0  0
 26 27  2  0  0  0  0
 26 28  1  0  0  0  0
 28 29  1  0  0  0  0
 28 30  1  0  0  0  0
 30 31  1  0  0  0  0
 30 32  1  0  0  0  0
 30 33  1  0  0  0  0
M  END
$$$$

  -OEChem-03222214083D

 33 33  0     1  0  0  0  0  0999 V2000
   -3.4124   -4.5327    0.6554 H   0  0  0  0  0  0  0  0  0  0  0  0
   -3.3188   -3.6082    0.0783 C   0  0  0  0  0  0  0  0  0  0  0  0
   -4.1241   -2.9296    0.3690 H   0  0  0  0  0  0  0  0  0  0  0  0
   -3.4152   -3.8464   -0.9837 H   0  0  0  0  0  0  0  0  0  0  0  0
   -1.9727   -2.9612    0.3458 C   0  0  0  0  0  0  0  0  0  0  0  0
   -1.1894   -3.4921    1.1114 O   0  0  0  0  0  0  0  0  0  0  0  0
   -1.6402   -1.7850   -0.2990 N   0  0  0  0  0  0  0  0  0  0  0  0
   -2.3175   -1.4171   -0.9593 H   0  0  0  0  0  0  0  0  0  0  0  0
   -0.3594   -1.0687   -0.1231 C   0  0  1  0  0  0  0  0  0  0  0  0
    0.4569   -1.7592   -0.3638 H   0  0  0  0  0  0  0  0  0  0  0  0
   -0.3236    0.0860   -1.1639 C   0  0  0  0  0  0  0  0  0  0  0  0
    0.3390   -0.2175   -1.9808 H   0  0  0  0  0  0  0  0  0  0  0  0
   -1.3179    0.2109   -1.6032 H   0  0  0  0  0  0  0  0  0  0  0  0
    0.1426    1.4386   -0.6625 C   0  0  0  0  0  0  0  0  0  0  0  0
   -0.7077    2.5542   -0.7361 C   0  0  0  0  0  0  0  0  0  0  0  0
   -1.7175    2.4501   -1.1210 H   0  0  0  0  0  0  0  0  0  0  0  0
   -0.2687    3.8143   -0.3123 C   0  0  0  0  0  0  0  0  0  0  0  0
   -0.9425    4.6620   -0.3689 H   0  0  0  0  0  0  0  0  0  0  0  0
    1.0290    3.9784    0.1756 C   0  0  0  0  0  0  0  0  0  0  0  0
    1.4654    5.2021    0.5948 O   0  0  0  0  0  0  0  0  0  0  0  0
    0.7506    5.8527    0.5258 H   0  0  0  0  0  0  0  0  0  0  0  0
    1.8870    2.8827    0.2293 C   0  0  0  0  0  0  0  0  0  0  0  0
    2.8956    3.0140    0.6076 H   0  0  0  0  0  0  0  0  0  0  0  0
    1.4543    1.6222   -0.1951 C   0  0  0  0  0  0  0  0  0  0  0  0
    2.1403    0.7804   -0.1425 H   0  0  0  0  0  0  0  0  0  0  0  0
   -0.1127   -0.6245    1.3405 C   0  0  0  0  0  0  0  0  0  0  0  0
    1.0046   -0.7287    1.8318 O   0  0  0  0  0  0  0  0  0  0  0  0
   -1.1238   -0.0330    2.0774 N   0  0  0  0  0  0  0  0  0  0  0  0
   -2.0309    0.0553    1.6346 H   0  0  0  0  0  0  0  0  0  0  0  0
   -0.9319    0.4823    3.4265 C   0  0  0  0  0  0  0  0  0  0  0  0
   -0.1928    1.2905    3.4240 H   0  0  0  0  0  0  0  0  0  0  0  0
   -1.8740    0.8749    3.8201 H   0  0  0  0  0  0  0  0  0  0  0  0
   -0.5832   -0.3127    4.0940 H   0  0  0  0  0  0  0  0  0  0  0  0
  1  2  1  0  0  0  0
  2  3  1  0  0  0  0
  2  4  1  0  0  0  0
  2  5  1  0  0  0  0
  5  6  2  0  0  0  0
  5  7  1  0  0  0  0
  7  8  1  0  0  0  0
  7  9  1  0  0  0  0
  9 10  1  0  0  0  0
  9 11  1  0  0  0  0
  9 26  1  0  0  0  0
 11 12  1  0  0  0  0
 11 13  1  0  0  0  0
 11 14  1  0  0  0  0
 14 15  2  0  0  0  0
 14 24  1  0  0  0  0
 15 16  1  0  0  0  0
 15 17  1  0  0  0  0
 17 18  1  0  0  0  0
 17 19  2  0  0  0  0
 19 20  1  0  0  0  0
 19 22  1  0  0  0  0
 20 21  1  0  0  0  0
 22 23  1  0  0  0  0
 22 24  2  0  0  0  0
 24 25  1  0  0  0  0
 26 27  2  0  0  0  0
 26 28  1  0  0  0  0
 28 29  1  0  0  0  0
 28 30  1  0  0  0  0
 30 31  1  0  0  0  0
 30 32  1  0  0  0  0
 30 33  1  0  0  0  0
M  END
$$$$

  -OEChem-03222214083D

 33 33  0     1  0  0  0  0  0999 V2000
   -3.3899   -4.5396    0.6800 H   0  0  0  0  0  0  0  0  0  0  0  0
   -3.3061   -3.6225    0.0900 C   0  0  0  0  0  0  0  0  0  0  0  0
   -4.1271   -2.9544    0.3607 H   0  0  0  0  0  0  0  0  0  0  0  0
   -3.3854   -3.8784   -0.9693 H   0  0  0  0  0  0  0  0  0  0  0  0
   -1.9755   -2.9469    0.3642 C   0  0  0  0  0  0  0  0  0  0  0  0
   -1.2000   -3.4421    1.1609 O   0  0  0  0  0  0  0  0  0  0  0  0
   -1.6542   -1.7778   -0.2988 N   0  0  0  0  0  0  0  0  0  0  0  0
   -2.3123   -1.4554   -1.0011 H   0  0  0  0  0  0  0  0  0  0  0  0
   -0.3739   -1.0559   -0.1457 C   0  0  1  0  0  0  0  0  0  0  0  0
    0.4382   -1.7517   -0.3847 H   0  0  0  0  0  0  0  0  0  0  0  0
   -0.3381    0.0818   -1.2019 C   0  0  0  0  0  0  0  0  0  0  0  0
    0.3192   -0.2314   -2.0197 H   0  0  0  0  0  0  0  0  0  0  0  0
   -1.3332    0.2132   -1.6376 H   0  0  0  0  0  0  0  0  0  0  0  0
    0.1352    1.4279   -0.6970 C   0  0  0  0  0  0  0  0  0  0  0  0
   -0.7793    2.4697   -0.4741 C   0  0  0  0  0  0  0  0  0  0  0  0
   -1.8385    2.3157   -0.6544 H   0  0  0  0  0  0  0  0  0  0  0  0
   -0.3372    3.7166   -0.0159 C   0  0  0  0  0  0  0  0  0  0  0  0
   -1.0565    4.5102    0.1526 H   0  0  0  0  0  0  0  0  0  0  0  0
    1.0214    3.9361    0.2210 C   0  0  0  0  0  0  0  0  0  0  0  0
    1.4626    5.1491    0.6656 O   0  0  0  0  0  0  0  0  0  0  0  0
    0.7124    5.7466    0.8044 H   0  0  0  0  0  0  0  0  0  0  0  0
    1.9342    2.9067    0.0009 C   0  0  0  0  0  0  0  0  0  0  0  0
    2.9875    3.0799    0.1962 H   0  0  0  0  0  0  0  0  0  0  0  0
    1.4983    1.6587   -0.4566 C   0  0  0  0  0  0  0  0  0  0  0  0
    2.2224    0.8625   -0.6065 H   0  0  0  0  0  0  0  0  0  0  0  0
   -0.0978   -0.5869    1.3046 C   0  0  0  0  0  0  0  0  0  0  0  0
    1.0366   -0.6530    1.7615 O   0  0  0  0  0  0  0  0  0  0  0  0
   -1.0949    0.0152    2.0519 N   0  0  0  0  0  0  0  0  0  0  0  0
   -2.0257    0.0358    1.6520 H   0  0  0  0  0  0  0  0  0  0  0  0
   -0.8785    0.5431    3.3921 C   0  0  0  0  0  0  0  0  0  0  0  0
   -0.1227    1.3354    3.3716 H   0  0  0  0  0  0  0  0  0  0  0  0
   -1.8076    0.9612    3.7900 H   0  0  0  0  0  0  0  0  0  0  0  0
   -0.5395   -0.2513    4.0652 H   0  0  0  0  0  0  0  0  0  0  0  0
  1  2  1  0  0  0  0
  2  3  1  0  0  0  0
  2  4  1  0  0  0  0
  2  5  1  0  0  0  0
  5  6  2  0  0  0  0
  5  7  1  0  0  0  0
  7  8  1  0  0  0  0
  7  9  1  0  0  0  0
  9 10  1  0  0  0  0
  9 11  1  0  0  0  0
  9 26  1  0  0  0  0
 11 12  1  0  0  0  0
 11 13  1  0  0  0  0
 11 14  1  0  0  0  0
 14 15  2  0  0  0  0
 14 24  1  0  0  0  0
 15 16  1  0  0  0  0
 15 17  1  0  0  0  0
 17 18  1  0  0  0  0
 17 19  2  0  0  0  0
 19 20  1  0  0  0  0
 19 22  1  0  0  0  0
 20 21  1  0  0  0  0
 22 23  1  0  0  0  0
 22 24  2  0  0  0  0
 24 25  1  0  0  0  0
 26 27  2  0  0  0  0
 26 28  1  0  0  0  0
 28 29  1  0  0  0  0
 28 30  1  0  0  0  0
 30 31  1  0  0  0  0
 30 32  1  0  0  0  0
 30 33  1  0  0  0  0
M  END
$$$$

  -OEChem-03222214083D

 33 33  0     1  0  0  0  0  0999 V2000
   -3.3784   -4.5502    0.6731 H   0  0  0  0  0  0  0  0  0  0  0  0
   -3.3007   -3.6322    0.0834 C   0  0  0  0  0  0  0  0  0  0  0  0
   -4.1352   -2.9765    0.3427 H   0  0  0  0  0  0  0  0  0  0  0  0
   -3.3631   -3.8905   -0.9765 H   0  0  0  0  0  0  0  0  0  0  0  0
   -1.9838   -2.9359    0.3731 C   0  0  0  0  0  0  0  0  0  0  0  0
   -1.2137   -3.4143    1.1852 O   0  0  0  0  0  0  0  0  0  0  0  0
   -1.6708   -1.7645   -0.2894 N   0  0  0  0  0  0  0  0  0  0  0  0
   -2.3208   -1.4596   -1.0070 H   0  0  0  0  0  0  0  0  0  0  0  0
   -0.3917   -1.0389   -0.1453 C   0  0  1  0  0  0  0  0  0  0  0  0
    0.4153   -1.7416   -0.3818 H   0  0  0  0  0  0  0  0  0  0  0  0
   -0.3411    0.0841   -1.2160 C   0  0  0  0  0  0  0  0  0  0  0  0
    0.3130   -0.2461   -2.0297 H   0  0  0  0  0  0  0  0  0  0  0  0
   -1.3345    0.2213   -1.6541 H   0  0  0  0  0  0  0  0  0  0  0  0
    0.1343    1.4334   -0.7248 C   0  0  0  0  0  0  0  0  0  0  0  0
   -0.7786    2.3772   -0.2284 C   0  0  0  0  0  0  0  0  0  0  0  0
   -1.8388    2.1474   -0.1998 H   0  0  0  0  0  0  0  0  0  0  0  0
   -0.3334    3.6204    0.2358 C   0  0  0  0  0  0  0  0  0  0  0  0
   -1.0521    4.3385    0.6145 H   0  0  0  0  0  0  0  0  0  0  0  0
    1.0276    3.9313    0.2125 C   0  0  0  0  0  0  0  0  0  0  0  0
    1.4725    5.1409    0.6624 O   0  0  0  0  0  0  0  0  0  0  0  0
    0.7347    5.6519    1.0280 H   0  0  0  0  0  0  0  0  0  0  0  0
    1.9398    2.9954   -0.2704 C   0  0  0  0  0  0  0  0  0  0  0  0
    2.9972    3.2388   -0.2730 H   0  0  0  0  0  0  0  0  0  0  0  0
    1.5005    1.7506   -0.7343 C   0  0  0  0  0  0  0  0  0  0  0  0
    2.2292    1.0266   -1.0873 H   0  0  0  0  0  0  0  0  0  0  0  0
   -0.0952   -0.5680    1.3000 C   0  0  0  0  0  0  0  0  0  0  0  0
    1.0512   -0.6053    1.7290 O   0  0  0  0  0  0  0  0  0  0  0  0
   -1.0828    0.0321    2.0617 N   0  0  0  0  0  0  0  0  0  0  0  0
   -2.0314   -0.0256    1.7102 H   0  0  0  0  0  0  0  0  0  0  0  0
   -0.8494    0.5390    3.4072 C   0  0  0  0  0  0  0  0  0  0  0  0
   -0.0779    1.3162    3.3923 H   0  0  0  0  0  0  0  0  0  0  0  0
   -1.7676    0.9719    3.8149 H   0  0  0  0  0  0  0  0  0  0  0  0
   -0.5226   -0.2702    4.0688 H   0  0  0  0  0  0  0  0  0  0  0  0
  1  2  1  0  0  0  0
  2  3  1  0  0  0  0
  2  4  1  0  0  0  0
  2  5  1  0  0  0  0
  5  6  2  0  0  0  0
  5  7  1  0  0  0  0
  7  8  1  0  0  0  0
  7  9  1  0  0  0  0
  9 10  1  0  0  0  0
  9 11  1  0  0  0  0
  9 26  1  0  0  0  0
 11 12  1  0  0  0  0
 11 13  1  0  0  0  0
 11 14  1  0  0  0  0
 14 15  2  0  0  0  0
 14 24  1  0  0  0  0
 15 16  1  0  0  0  0
 15 17  1  0  0  0  0
 17 18  1  0  0  0  0
 17 19  2  0  0  0  0
 19 20  1  0  0  0  0
 19 22  1  0  0  0  0
 20 21  1  0  0  0  0
 22 23  1  0  0  0  0
 22 24  2  0  0  0  0
 24 25  1  0  0  0  0
 26 27  2  0  0  0  0
 26 28  1  0  0  0  0
 28 29  1  0  0  0  0
 28 30  1  0  0  0  0
 30 31  1  0  0  0  0
 30 32  1  0  0  0  0
 30 33  1  0  0  0  0
M  END
$$$$

  -OEChem-03222214083D

 33 33  0     1  0  0  0  0  0999 V2000
   -3.3654   -4.5677    0.6372 H   0  0  0  0  0  0  0  0  0  0  0  0
   -3.2950   -3.6398    0.0623 C   0  0  0  0  0  0  0  0  0  0  0  0
   -4.1370   -2.9967    0.3285 H   0  0  0  0  0  0  0  0  0  0  0  0
   -3.3506   -3.8817   -1.0017 H   0  0  0  0  0  0  0  0  0  0  0  0
   -1.9862   -2.9355    0.3672 C   0  0  0  0  0  0  0  0  0  0  0  0
   -1.2139   -3.4182    1.1748 O   0  0  0  0  0  0  0  0  0  0  0  0
   -1.6835   -1.7498   -0.2744 N   0  0  0  0  0  0  0  0  0  0  0  0
   -2.3411   -1.4328   -0.9801 H   0  0  0  0  0  0  0  0  0  0  0  0
   -0.4082   -1.0193   -0.1239 C   0  0  1  0  0  0  0  0  0  0  0  0
    0.3956   -1.7267   -0.3583 H   0  0  0  0  0  0  0  0  0  0  0  0
   -0.3325    0.0935   -1.2048 C   0  0  0  0  0  0  0  0  0  0  0  0
    0.3255   -0.2571   -2.0065 H   0  0  0  0  0  0  0  0  0  0  0  0
   -1.3206    0.2308   -1.6544 H   0  0  0  0  0  0  0  0  0  0  0  0
    0.1366    1.4563   -0.7416 C   0  0  0  0  0  0  0  0  0  0  0  0
   -0.7060    2.3016   -0.0017 C   0  0  0  0  0  0  0  0  0  0  0  0
   -1.7195    1.9917    0.2307 H   0  0  0  0  0  0  0  0  0  0  0  0
   -0.2520    3.5482    0.4439 C   0  0  0  0  0  0  0  0  0  0  0  0
   -0.9174    4.1863    1.0144 H   0  0  0  0  0  0  0  0  0  0  0  0
    1.0497    3.9635    0.1571 C   0  0  0  0  0  0  0  0  0  0  0  0
    1.5033    5.1770    0.5871 O   0  0  0  0  0  0  0  0  0  0  0  0
    0.8361    5.6002    1.1484 H   0  0  0  0  0  0  0  0  0  0  0  0
    1.8941    3.1288   -0.5714 C   0  0  0  0  0  0  0  0  0  0  0  0
    2.9080    3.4537   -0.7809 H   0  0  0  0  0  0  0  0  0  0  0  0
    1.4458    1.8802   -1.0155 C   0  0  0  0  0  0  0  0  0  0  0  0
    2.1277    1.2374   -1.5642 H   0  0  0  0  0  0  0  0  0  0  0  0
   -0.1061   -0.5740    1.3283 C   0  0  0  0  0  0  0  0  0  0  0  0
    1.0461   -0.5895    1.7421 O   0  0  0  0  0  0  0  0  0  0  0  0
   -1.0938    0.0042    2.1077 N   0  0  0  0  0  0  0  0  0  0  0  0
   -2.0481   -0.1086    1.7854 H   0  0  0  0  0  0  0  0  0  0  0  0
   -0.8561    0.4651    3.4693 C   0  0  0  0  0  0  0  0  0  0  0  0
   -0.0788    1.2367    3.4806 H   0  0  0  0  0  0  0  0  0  0  0  0
   -1.7711    0.8919    3.8905 H   0  0  0  0  0  0  0  0  0  0  0  0
   -0.5356   -0.3672    4.1047 H   0  0  0  0  0  0  0  0  0  0  0  0
  1  2  1  0  0  0  0
  2  3  1  0  0  0  0
  2  4  1  0  0  0  0
  2  5  1  0  0  0  0
  5  6  2  0  0  0  0
  5  7  1  0  0  0  0
  7  8  1  0  0  0  0
  7  9  1  0  0  0  0
  9 10  1  0  0  0  0
  9 11  1  0  0  0  0
  9 26  1  0  0  0  0
 11 12  1  0  0  0  0
 11 13  1  0  0  0  0
 11 14  1  0  0  0  0
 14 15  2  0  0  0  0
 14 24  1  0  0  0  0
 15 16  1  0  0  0  0
 15 17  1  0  0  0  0
 17 18  1  0  0  0  0
 17 19  2  0  0  0  0
 19 20  1  0  0  0  0
 19 22  1  0  0  0  0
 20 21  1  0  0  0  0
 22 23  1  0  0  0  0
 22 24  2  0  0  0  0
 24 25  1  0  0  0  0
 26 27  2  0  0  0  0
 26 28  1  0  0  0  0
 28 29  1  0  0  0  0
 28 30  1  0  0  0  0
 30 31  1  0  0  0  0
 30 32  1  0  0  0  0
 30 33  1  0  0  0  0
M  END
$$$$

  -OEChem-03222214083D

 33 33  0     1  0  0  0  0  0999 V2000
   -3.3585   -4.5995    0.5531 H   0  0  0  0  0  0  0  0  0  0  0  0
   -3.2948   -3.6524    0.0096 C   0  0  0  0  0  0  0  0  0  0  0  0
   -4.1422   -3.0252    0.2963 H   0  0  0  0  0  0  0  0  0  0  0  0
   -3.3478   -3.8589   -1.0621 H   0  0  0  0  0  0  0  0  0  0  0  0
   -1.9921   -2.9480    0.3399 C   0  0  0  0  0  0  0  0  0  0  0  0
   -1.2195   -3.4476    1.1368 O   0  0  0  0  0  0  0  0  0  0  0  0
   -1.7006   -1.7357   -0.2553 N   0  0  0  0  0  0  0  0  0  0  0  0
   -2.3571   -1.4024   -0.9546 H   0  0  0  0  0  0  0  0  0  0  0  0
   -0.4321   -0.9992   -0.0781 C   0  0  1  0  0  0  0  0  0  0  0  0
    0.3679   -1.7111   -0.3128 H   0  0  0  0  0  0  0  0  0  0  0  0
   -0.3159    0.1098   -1.1632 C   0  0  0  0  0  0  0  0  0  0  0  0
    0.3585   -0.2624   -1.9414 H   0  0  0  0  0  0  0  0  0  0  0  0
   -1.2922    0.2395   -1.6397 H   0  0  0  0  0  0  0  0  0  0  0  0
    0.1385    1.4956   -0.7418 C   0  0  0  0  0  0  0  0  0  0  0  0
   -0.5722    2.2650    0.1941 C   0  0  0  0  0  0  0  0  0  0  0  0
   -1.5062    1.9000    0.6058 H   0  0  0  0  0  0  0  0  0  0  0  0
   -0.1053    3.5229    0.5921 C   0  0  0  0  0  0  0  0  0  0  0  0
   -0.6721    4.0976    1.3159 H   0  0  0  0  0  0  0  0  0  0  0  0
    1.0798    4.0319    0.0598 C   0  0  0  0  0  0  0  0  0  0  0  0
    1.5462    5.2561    0.4431 O   0  0  0  0  0  0  0  0  0  0  0  0
    1.0042    5.6048    1.1671 H   0  0  0  0  0  0  0  0  0  0  0  0
    1.7930    3.2801   -0.8700 C   0  0  0  0  0  0  0  0  0  0  0  0
    2.7168    3.6795   -1.2754 H   0  0  0  0  0  0  0  0  0  0  0  0
    1.3320    2.0197   -1.2655 C   0  0  0  0  0  0  0  0  0  0  0  0
    1.9185    1.4471   -1.9775 H   0  0  0  0  0  0  0  0  0  0  0  0
   -0.1274   -0.6051    1.3881 C   0  0  0  0  0  0  0  0  0  0  0  0
    1.0293   -0.6055    1.7886 O   0  0  0  0  0  0  0  0  0  0  0  0
   -1.1143   -0.0663    2.1965 N   0  0  0  0  0  0  0  0  0  0  0  0
   -2.0705   -0.2101    1.8911 H   0  0  0  0  0  0  0  0  0  0  0  0
   -0.8693    0.3355    3.5759 C   0  0  0  0  0  0  0  0  0  0  0  0
   -0.1027    1.1166    3.6166 H   0  0  0  0  0  0  0  0  0  0  0  0
   -1.7860    0.7297    4.0245 H   0  0  0  0  0  0  0  0  0  0  0  0
   -0.5307   -0.5208    4.1689 H   0  0  0  0  0  0  0  0  0  0  0  0
  1  2  1  0  0  0  0
  2  3  1  0  0  0  0
  2  4  1  0  0  0  0
  2  5  1  0  0  0  0
  5  6  2  0  0  0  0
  5  7  1  0  0  0  0
  7  8  1  0  0  0  0
  7  9  1  0  0  0  0
  9 10  1  0  0  0  0
  9 11  1  0  0  0  0
  9 26  1  0  0  0  0
 11 12  1  0  0  0  0
 11 13  1  0  0  0  0
 11 14  1  0  0  0  0
 14 15  2  0  0  0  0
 14 24  1  0  0  0  0
 15 16  1  0  0  0  0
 15 17  1  0  0  0  0
 17 18  1  0  0  0  0
 17 19  2  0  0  0  0
 19 20  1  0  0  0  0
 19 22  1  0  0  0  0
 20 21  1  0  0  0  0
 22 23  1  0  0  0  0
 22 24  2  0  0  0  0
 24 25  1  0  0  0  0
 26 27  2  0  0  0  0
 26 28  1  0  0  0  0
 28 29  1  0  0  0  0
 28 30  1  0  0  0  0
 30 31  1  0  0  0  0
 30 32  1  0  0  0  0
 30 33  1  0  0  0  0
M  END
$$$$

  -OEChem-03222214083D

 33 33  0     1  0  0  0  0  0999 V2000
   -3.3528   -4.6261    0.4404 H   0  0  0  0  0  0  0  0  0  0  0  0
   -3.2924   -3.6573   -0.0640 C   0  0  0  0  0  0  0  0  0  0  0  0
   -4.1445   -3.0473    0.2446 H   0  0  0  0  0  0  0  0  0  0  0  0
   -3.3401   -3.8201   -1.1435 H   0  0  0  0  0  0  0  0  0  0  0  0
   -1.9944   -2.9606    0.2991 C   0  0  0  0  0  0  0  0  0  0  0  0
   -1.2130   -3.4971    1.0630 O   0  0  0  0  0  0  0  0  0  0  0  0
   -1.7121   -1.7177   -0.2347 N   0  0  0  0  0  0  0  0  0  0  0  0
   -2.3825   -1.3433   -0.8995 H   0  0  0  0  0  0  0  0  0  0  0  0
   -0.4515   -0.9779   -0.0189 C   0  0  1  0  0  0  0  0  0  0  0  0
    0.3468   -1.6900   -0.2590 H   0  0  0  0  0  0  0  0  0  0  0  0
   -0.2972    0.1379   -1.0964 C   0  0  0  0  0  0  0  0  0  0  0  0
    0.3965   -0.2501   -1.8498 H   0  0  0  0  0  0  0  0  0  0  0  0
   -1.2601    0.2576   -1.6014 H   0  0  0  0  0  0  0  0  0  0  0  0
    0.1421    1.5467   -0.7192 C   0  0  0  0  0  0  0  0  0  0  0  0
   -0.3742    2.2663    0.3724 C   0  0  0  0  0  0  0  0  0  0  0  0
   -1.1910    1.8735    0.9613 H   0  0  0  0  0  0  0  0  0  0  0  0
    0.1142    3.5373    0.6970 C   0  0  0  0  0  0  0  0  0  0  0  0
   -0.3067    4.0696    1.5428 H   0  0  0  0  0  0  0  0  0  0  0  0
    1.1280    4.1159   -0.0652 C   0  0  0  0  0  0  0  0  0  0  0  0
    1.6136    5.3530    0.2457 O   0  0  0  0  0  0  0  0  0  0  0  0
    1.2377    5.6532    1.0874 H   0  0  0  0  0  0  0  0  0  0  0  0
    1.6460    3.4217   -1.1539 C   0  0  0  0  0  0  0  0  0  0  0  0
    2.4370    3.8754   -1.7418 H   0  0  0  0  0  0  0  0  0  0  0  0
    1.1625    2.1494   -1.4769 C   0  0  0  0  0  0  0  0  0  0  0  0
    1.6008    1.6276   -2.3224 H   0  0  0  0  0  0  0  0  0  0  0  0
   -0.1552   -0.6533    1.4652 C   0  0  0  0  0  0  0  0  0  0  0  0
    1.0010   -0.6457    1.8661 O   0  0  0  0  0  0  0  0  0  0  0  0
   -1.1501   -0.1662    2.2963 N   0  0  0  0  0  0  0  0  0  0  0  0
   -2.1035   -0.3067    1.9800 H   0  0  0  0  0  0  0  0  0  0  0  0
   -0.9174    0.1546    3.6989 C   0  0  0  0  0  0  0  0  0  0  0  0
   -0.1578    0.9379    3.7912 H   0  0  0  0  0  0  0  0  0  0  0  0
   -1.8403    0.5141    4.1632 H   0  0  0  0  0  0  0  0  0  0  0  0
   -0.5765   -0.7327    4.2427 H   0  0  0  0  0  0  0  0  0  0  0  0
  1  2  1  0  0  0  0
  2  3  1  0  0  0  0
  2  4  1  0  0  0  0
  2  5  1  0  0  0  0
  5  6  2  0  0  0  0
  5  7  1  0  0  0  0
  7  8  1  0  0  0  0
  7  9  1  0  0  0  0
  9 10  1  0  0  0  0
  9 11  1  0  0  0  0
  9 26  1  0  0  0  0
 11 12  1  0  0  0  0
 11 13  1  0  0  0  0
 11 14  1  0  0  0  0
 14 15  2  0  0  0  0
 14 24  1  0  0  0  0
 15 16  1  0  0  0  0
 15 17  1  0  0  0  0
 17 18  1  0  0  0  0
 17 19  2  0  0  0  0
 19 20  1  0  0  0  0
 19 22  1  0  0  0  0
 20 21  1  0  0  0  0
 22 23  1  0  0  0  0
 22 24  2  0  0  0  0
 24 25  1  0  0  0  0
 26 27  2  0  0  0  0
 26 28  1  0  0  0  0
 28 29  1  0  0  0  0
 28 30  1  0  0  0  0
 30 31  1  0  0  0  0
 30 32  1  0  0  0  0
 30 33  1  0  0  0  0
M  END
$$$$

  -OEChem-03222214083D

 33 33  0     1  0  0  0  0  0999 V2000
   -3.4275   -4.5795    0.3011 H   0  0  0  0  0  0  0  0  0  0  0  0
   -3.3306   -3.5924   -0.1601 C   0  0  0  0  0  0  0  0  0  0  0  0
   -4.1723   -2.9722    0.1570 H   0  0  0  0  0  0  0  0  0  0  0  0
   -3.3597   -3.7090   -1.2461 H   0  0  0  0  0  0  0  0  0  0  0  0
   -2.0224   -2.9469    0.2575 C   0  0  0  0  0  0  0  0  0  0  0  0
   -1.2753   -3.5323    1.0198 O   0  0  0  0  0  0  0  0  0  0  0  0
   -1.6921   -1.6955   -0.2273 N   0  0  0  0  0  0  0  0  0  0  0  0
   -2.3373   -1.2788   -0.8919 H   0  0  0  0  0  0  0  0  0  0  0  0
   -0.4227   -0.9903    0.0520 C   0  0  1  0  0  0  0  0  0  0  0  0
    0.3747   -1.7064   -0.1797 H   0  0  0  0  0  0  0  0  0  0  0  0
   -0.2238    0.1556   -0.9898 C   0  0  0  0  0  0  0  0  0  0  0  0
    0.4833   -0.2391   -1.7271 H   0  0  0  0  0  0  0  0  0  0  0  0
   -1.1726    0.2896   -1.5182 H   0  0  0  0  0  0  0  0  0  0  0  0
    0.2283    1.5723   -0.6391 C   0  0  0  0  0  0  0  0  0  0  0  0
   -0.0203    2.2554    0.5666 C   0  0  0  0  0  0  0  0  0  0  0  0
   -0.6148    1.8305    1.3580 H   0  0  0  0  0  0  0  0  0  0  0  0
    0.4668    3.5507    0.7804 C   0  0  0  0  0  0  0  0  0  0  0  0
    0.2575    4.0477    1.7212 H   0  0  0  0  0  0  0  0  0  0  0  0
    1.2085    4.1975   -0.2058 C   0  0  0  0  0  0  0  0  0  0  0  0
    1.6879    5.4594   -0.0041 O   0  0  0  0  0  0  0  0  0  0  0  0
    1.5107    5.7382    0.9074 H   0  0  0  0  0  0  0  0  0  0  0  0
    1.4569    3.5457   -1.4081 C   0  0  0  0  0  0  0  0  0  0  0  0
    2.0344    4.0521   -2.1746 H   0  0  0  0  0  0  0  0  0  0  0  0
    0.9751    2.2504   -1.6215 C   0  0  0  0  0  0  0  0  0  0  0  0
    1.1964    1.7695   -2.5698 H   0  0  0  0  0  0  0  0  0  0  0  0
   -0.2033   -0.7336    1.5613 C   0  0  0  0  0  0  0  0  0  0  0  0
    0.9280   -0.7571    2.0269 O   0  0  0  0  0  0  0  0  0  0  0  0
   -1.2388   -0.2608    2.3514 N   0  0  0  0  0  0  0  0  0  0  0  0
   -2.1720   -0.3593    1.9658 H   0  0  0  0  0  0  0  0  0  0  0  0
   -1.0960   -0.0468    3.7862 C   0  0  0  0  0  0  0  0  0  0  0  0
   -0.3252    0.7046    3.9873 H   0  0  0  0  0  0  0  0  0  0  0  0
   -2.0399    0.3058    4.2126 H   0  0  0  0  0  0  0  0  0  0  0  0
   -0.8163   -0.9806    4.2856 H   0  0  0  0  0  0  0  0  0  0  0  0
  1  2  1  0  0  0  0
  2  3  1  0  0  0  0
  2  4  1  0  0  0  0
  2  5  1  0  0  0  0
  5  6  2  0  0  0  0
  5  7  1  0  0  0  0
  7  8  1  0  0  0  0
  7  9  1  0  0  0  0
  9 10  1  0  0  0  0
  9 11  1  0  0  0  0
  9 26  1  0  0  0  0
 11 12  1  0  0  0  0
 11 13  1  0  0  0  0
 11 14  1  0  0  0  0
 14 15  2  0  0  0  0
 14 24  1  0  0  0  0
 15 16  1  0  0  0  0
 15 17  1  0  0  0  0
 17 18  1  0  0  0  0
 17 19  2  0  0  0  0
 19 20  1  0  0  0  0
 19 22  1  0  0  0  0
 20 21  1  0  0  0  0
 22 23  1  0  0  0  0
 22 24  2  0  0  0  0
 24 25  1  0  0  0  0
 26 27  2  0  0  0  0
 26 28  1  0  0  0  0
 28 29  1  0  0  0  0
 28 30  1  0  0  0  0
 30 31  1  0  0  0  0
 30 32  1  0  0  0  0
 30 33  1  0  0  0  0
M  END
$$$$

  -OEChem-03222214083D

 33 33  0     1  0  0  0  0  0999 V2000
   -3.5301   -4.4851    0.3396 H   0  0  0  0  0  0  0  0  0  0  0  0
   -3.3902   -3.5113   -0.1390 C   0  0  0  0  0  0  0  0  0  0  0  0
   -4.1890   -2.8417    0.1884 H   0  0  0  0  0  0  0  0  0  0  0  0
   -3.4517   -3.6408   -1.2224 H   0  0  0  0  0  0  0  0  0  0  0  0
   -2.0387   -2.9342    0.2391 C   0  0  0  0  0  0  0  0  0  0  0  0
   -1.2918   -3.5687    0.9612 O   0  0  0  0  0  0  0  0  0  0  0  0
   -1.6679   -1.6907   -0.2377 N   0  0  0  0  0  0  0  0  0  0  0  0
   -2.3178   -1.2320   -0.8692 H   0  0  0  0  0  0  0  0  0  0  0  0
   -0.3680   -1.0355    0.0294 C   0  0  1  0  0  0  0  0  0  0  0  0
    0.4196   -1.7454   -0.2492 H   0  0  0  0  0  0  0  0  0  0  0  0
   -0.2204    0.1703   -0.9543 C   0  0  0  0  0  0  0  0  0  0  0  0
    0.4396   -0.1892   -1.7513 H   0  0  0  0  0  0  0  0  0  0  0  0
   -1.1986    0.3346   -1.4166 H   0  0  0  0  0  0  0  0  0  0  0  0
    0.2661    1.5761   -0.5901 C   0  0  0  0  0  0  0  0  0  0  0  0
    0.3950    2.1481    0.6938 C   0  0  0  0  0  0  0  0  0  0  0  0
    0.1721    1.6215    1.6069 H   0  0  0  0  0  0  0  0  0  0  0  0
    0.8393    3.4659    0.8591 C   0  0  0  0  0  0  0  0  0  0  0  0
    0.9314    3.8697    1.8614 H   0  0  0  0  0  0  0  0  0  0  0  0
    1.1622    4.2490   -0.2465 C   0  0  0  0  0  0  0  0  0  0  0  0
    1.5967    5.5334   -0.0907 O   0  0  0  0  0  0  0  0  0  0  0  0
    1.6946    5.7369    0.8523 H   0  0  0  0  0  0  0  0  0  0  0  0
    1.0395    3.7085   -1.5204 C   0  0  0  0  0  0  0  0  0  0  0  0
    1.2926    4.3190   -2.3811 H   0  0  0  0  0  0  0  0  0  0  0  0
    0.5987    2.3925   -1.6885 C   0  0  0  0  0  0  0  0  0  0  0  0
    0.5161    2.0033   -2.6992 H   0  0  0  0  0  0  0  0  0  0  0  0
   -0.1524   -0.8194    1.5425 C   0  0  0  0  0  0  0  0  0  0  0  0
    0.9679   -0.9161    2.0260 O   0  0  0  0  0  0  0  0  0  0  0  0
   -1.1813   -0.3241    2.3274 N   0  0  0  0  0  0  0  0  0  0  0  0
   -2.1069   -0.3381    1.9124 H   0  0  0  0  0  0  0  0  0  0  0  0
   -1.0636   -0.1662    3.7716 C   0  0  0  0  0  0  0  0  0  0  0  0
   -0.2303    0.4996    4.0195 H   0  0  0  0  0  0  0  0  0  0  0  0
   -1.9816    0.2654    4.1812 H   0  0  0  0  0  0  0  0  0  0  0  0
   -0.8919   -1.1372    4.2480 H   0  0  0  0  0  0  0  0  0  0  0  0
  1  2  1  0  0  0  0
  2  3  1  0  0  0  0
  2  4  1  0  0  0  0
  2  5  1  0  0  0  0
  5  6  2  0  0  0  0
  5  7  1  0  0  0  0
  7  8  1  0  0  0  0
  7  9  1  0  0  0  0
  9 10  1  0  0  0  0
  9 11  1  0  0  0  0
  9 26  1  0  0  0  0
 11 12  1  0  0  0  0
 11 13  1  0  0  0  0
 11 14  1  0  0  0  0
 14 15  2  0  0  0  0
 14 24  1  0  0  0  0
 15 16  1  0  0  0  0
 15 17  1  0  0  0  0
 17 18  1  0  0  0  0
 17 19  2  0  0  0  0
 19 20  1  0  0  0  0
 19 22  1  0  0  0  0
 20 21  1  0  0  0  0
 22 23  1  0  0  0  0
 22 24  2  0  0  0  0
 24 25  1  0  0  0  0
 26 27  2  0  0  0  0
 26 28  1  0  0  0  0
 28 29  1  0  0  0  0
 28 30  1  0  0  0  0
 30 31  1  0  0  0  0
 30 32  1  0  0  0  0
 30 33  1  0  0  0  0
M  END
$$$$

  -OEChem-03222214083D

 33 33  0     1  0  0  0  0  0999 V2000
   -3.5965   -4.4230    0.3781 H   0  0  0  0  0  0  0  0  0  0  0  0
   -3.4303   -3.4588   -0.1109 C   0  0  0  0  0  0  0  0  0  0  0  0
   -4.1985   -2.7584    0.2251 H   0  0  0  0  0  0  0  0  0  0  0  0
   -3.5162   -3.5943   -1.1917 H   0  0  0  0  0  0  0  0  0  0  0  0
   -2.0525   -2.9274    0.2380 C   0  0  0  0  0  0  0  0  0  0  0  0
   -1.3113   -3.5869    0.9431 O   0  0  0  0  0  0  0  0  0  0  0  0
   -1.6488   -1.7010   -0.2557 N   0  0  0  0  0  0  0  0  0  0  0  0
   -2.2993   -1.2191   -0.8686 H   0  0  0  0  0  0  0  0  0  0  0  0
   -0.3330   -1.0762    0.0076 C   0  0  1  0  0  0  0  0  0  0  0  0
    0.4484   -1.7892   -0.2799 H   0  0  0  0  0  0  0  0  0  0  0  0
   -0.2084    0.1452   -0.9613 C   0  0  0  0  0  0  0  0  0  0  0  0
    0.4314   -0.1979   -1.7814 H   0  0  0  0  0  0  0  0  0  0  0  0
   -1.1984    0.3167   -1.3960 H   0  0  0  0  0  0  0  0  0  0  0  0
    0.2925    1.5452   -0.5925 C   0  0  0  0  0  0  0  0  0  0  0  0
    0.7371    2.0158    0.6630 C   0  0  0  0  0  0  0  0  0  0  0  0
    0.8179    1.3964    1.5426 H   0  0  0  0  0  0  0  0  0  0  0  0
    1.1410    3.3456    0.8355 C   0  0  0  0  0  0  0  0  0  0  0  0
    1.4844    3.6694    1.8118 H   0  0  0  0  0  0  0  0  0  0  0  0
    1.1113    4.2407   -0.2310 C   0  0  0  0  0  0  0  0  0  0  0  0
    1.5078    5.5365   -0.0683 O   0  0  0  0  0  0  0  0  0  0  0  0
    1.8462    5.6679    0.8309 H   0  0  0  0  0  0  0  0  0  0  0  0
    0.6778    3.8005   -1.4751 C   0  0  0  0  0  0  0  0  0  0  0  0
    0.6587    4.4987   -2.3057 H   0  0  0  0  0  0  0  0  0  0  0  0
    0.2772    2.4729   -1.6522 C   0  0  0  0  0  0  0  0  0  0  0  0
   -0.0532    2.1631   -2.6394 H   0  0  0  0  0  0  0  0  0  0  0  0
   -0.1227   -0.8460    1.5187 C   0  0  0  0  0  0  0  0  0  0  0  0
    0.9763   -1.0353    2.0249 O   0  0  0  0  0  0  0  0  0  0  0  0
   -1.1381   -0.3112    2.2935 N   0  0  0  0  0  0  0  0  0  0  0  0
   -2.0504   -0.2325    1.8577 H   0  0  0  0  0  0  0  0  0  0  0  0
   -1.0241   -0.1215    3.7338 C   0  0  0  0  0  0  0  0  0  0  0  0
   -0.2145    0.5784    3.9652 H   0  0  0  0  0  0  0  0  0  0  0  0
   -1.9565    0.2848    4.1372 H   0  0  0  0  0  0  0  0  0  0  0  0
   -0.8181   -1.0761    4.2296 H   0  0  0  0  0  0  0  0  0  0  0  0
  1  2  1  0  0  0  0
  2  3  1  0  0  0  0
  2  4  1  0  0  0  0
  2  5  1  0  0  0  0
  5  6  2  0  0  0  0
  5  7  1  0  0  0  0
  7  8  1  0  0  0  0
  7  9  1  0  0  0  0
  9 10  1  0  0  0  0
  9 11  1  0  0  0  0
  9 26  1  0  0  0  0
 11 12  1  0  0  0  0
 11 13  1  0  0  0  0
 11 14  1  0  0  0  0
 14 15  2  0  0  0  0
 14 24  1  0  0  0  0
 15 16  1  0  0  0  0
 15 17  1  0  0  0  0
 17 18  1  0  0  0  0
 17 19  2  0  0  0  0
 19 20  1  0  0  0  0
 19 22  1  0  0  0  0
 20 21  1  0  0  0  0
 22 23  1  0  0  0  0
 22 24  2  0  0  0  0
 24 25  1  0  0  0  0
 26 27  2  0  0  0  0
 26 28  1  0  0  0  0
 28 29  1  0  0  0  0
 28 30  1  0  0  0  0
 30 31  1  0  0  0  0
 30 32  1  0  0  0  0
 30 33  1  0  0  0  0
M  END
$$$$

  -OEChem-03222214083D

 33 33  0     1  0  0  0  0  0999 V2000
   -3.5849   -4.3949    0.5053 H   0  0  0  0  0  0  0  0  0  0  0  0
   -3.4258   -3.4422   -0.0083 C   0  0  0  0  0  0  0  0  0  0  0  0
   -4.1667   -2.7233    0.3493 H   0  0  0  0  0  0  0  0  0  0  0  0
   -3.5627   -3.5953   -1.0815 H   0  0  0  0  0  0  0  0  0  0  0  0
   -2.0250   -2.9283    0.2682 C   0  0  0  0  0  0  0  0  0  0  0  0
   -1.2629   -3.5907    0.9477 O   0  0  0  0  0  0  0  0  0  0  0  0
   -1.6201   -1.7233   -0.2752 N   0  0  0  0  0  0  0  0  0  0  0  0
   -2.2931   -1.2377   -0.8598 H   0  0  0  0  0  0  0  0  0  0  0  0
   -0.2938   -1.1021   -0.0570 C   0  0  1  0  0  0  0  0  0  0  0  0
    0.4875   -1.8116   -0.3524 H   0  0  0  0  0  0  0  0  0  0  0  0
   -0.2242    0.1192   -1.0329 C   0  0  0  0  0  0  0  0  0  0  0  0
    0.3846   -0.2086   -1.8818 H   0  0  0  0  0  0  0  0  0  0  0  0
   -1.2331    0.2827   -1.4255 H   0  0  0  0  0  0  0  0  0  0  0  0
    0.2878    1.5118   -0.6565 C   0  0  0  0  0  0  0  0  0  0  0  0
    1.0410    1.8642    0.4834 C   0  0  0  0  0  0  0  0  0  0  0  0
    1.4208    1.1368    1.1856 H   0  0  0  0  0  0  0  0  0  0  0  0
    1.3975    3.1942    0.7343 C   0  0  0  0  0  0  0  0  0  0  0  0
    1.9842    3.4246    1.6171 H   0  0  0  0  0  0  0  0  0  0  0  0
    1.0154    4.2062   -0.1430 C   0  0  0  0  0  0  0  0  0  0  0  0
    1.3617    5.5047    0.0946 O   0  0  0  0  0  0  0  0  0  0  0  0
    1.9079    5.5602    0.8941 H   0  0  0  0  0  0  0  0  0  0  0  0
    0.2818    3.8815   -1.2777 C   0  0  0  0  0  0  0  0  0  0  0  0
   -0.0086    4.6716   -1.9624 H   0  0  0  0  0  0  0  0  0  0  0  0
   -0.0749    2.5535   -1.5320 C   0  0  0  0  0  0  0  0  0  0  0  0
   -0.6498    2.3374   -2.4277 H   0  0  0  0  0  0  0  0  0  0  0  0
   -0.0708   -0.8281    1.4479 C   0  0  0  0  0  0  0  0  0  0  0  0
    1.0035   -1.0952    1.9722 O   0  0  0  0  0  0  0  0  0  0  0  0
   -1.0721   -0.2603    2.2168 N   0  0  0  0  0  0  0  0  0  0  0  0
   -1.9604   -0.0827    1.7614 H   0  0  0  0  0  0  0  0  0  0  0  0
   -0.9427   -0.0149    3.6472 C   0  0  0  0  0  0  0  0  0  0  0  0
   -0.1449    0.7102    3.8393 H   0  0  0  0  0  0  0  0  0  0  0  0
   -1.8783    0.3854    4.0487 H   0  0  0  0  0  0  0  0  0  0  0  0
   -0.7100   -0.9457    4.1757 H   0  0  0  0  0  0  0  0  0  0  0  0
  1  2  1  0  0  0  0
  2  3  1  0  0  0  0
  2  4  1  0  0  0  0
  2  5  1  0  0  0  0
  5  6  2  0  0  0  0
  5  7  1  0  0  0  0
  7  8  1  0  0  0  0
  7  9  1  0  0  0  0
  9 10  1  0  0  0  0
  9 11  1  0  0  0  0
  9 26  1  0  0  0  0
 11 12  1  0  0  0  0
 11 13  1  0  0  0  0
 11 14  1  0  0  0  0
 14 15  2  0  0  0  0
 14 24  1  0  0  0  0
 15 16  1  0  0  0  0
 15 17  1  0  0  0  0
 17 18  1  0  0  0  0
 17 19  2  0  0  0  0
 19 20  1  0  0  0  0
 19 22  1  0  0  0  0
 20 21  1  0  0  0  0
 22 23  1  0  0  0  0
 22 24  2  0  0  0  0
 24 25  1  0  0  0  0
 26 27  2  0  0  0  0
 26 28  1  0  0  0  0
 28 29  1  0  0  0  0
 28 30  1  0  0  0  0
 30 31  1  0  0  0  0
 30 32  1  0  0  0  0
 30 33  1  0  0  0  0
M  END
$$$$

  -OEChem-03222214083D

 33 33  0     1  0  0  0  0  0999 V2000
   -3.5633   -4.3770    0.6565 H   0  0  0  0  0  0  0  0  0  0  0  0
   -3.4088   -3.4535    0.0909 C   0  0  0  0  0  0  0  0  0  0  0  0
   -4.1446   -2.7148    0.4174 H   0  0  0  0  0  0  0  0  0  0  0  0
   -3.5566   -3.6635   -0.9711 H   0  0  0  0  0  0  0  0  0  0  0  0
   -2.0052   -2.9276    0.3257 C   0  0  0  0  0  0  0  0  0  0  0  0
   -1.2382   -3.5527    1.0345 O   0  0  0  0  0  0  0  0  0  0  0  0
   -1.6025   -1.7574   -0.2906 N   0  0  0  0  0  0  0  0  0  0  0  0
   -2.2810   -1.3029   -0.8932 H   0  0  0  0  0  0  0  0  0  0  0  0
   -0.2814   -1.1170   -0.1001 C   0  0  1  0  0  0  0  0  0  0  0  0
    0.5123   -1.8278   -0.3565 H   0  0  0  0  0  0  0  0  0  0  0  0
   -0.2299    0.0692   -1.1174 C   0  0  0  0  0  0  0  0  0  0  0  0
    0.3871   -0.2659   -1.9571 H   0  0  0  0  0  0  0  0  0  0  0  0
   -1.2376    0.2153   -1.5193 H   0  0  0  0  0  0  0  0  0  0  0  0
    0.2818    1.4543   -0.7283 C   0  0  0  0  0  0  0  0  0  0  0  0
    1.2647    1.7039    0.2489 C   0  0  0  0  0  0  0  0  0  0  0  0
    1.8075    0.8966    0.7259 H   0  0  0  0  0  0  0  0  0  0  0  0
    1.6257    3.0104    0.5955 C   0  0  0  0  0  0  0  0  0  0  0  0
    2.3903    3.1637    1.3496 H   0  0  0  0  0  0  0  0  0  0  0  0
    1.0171    4.0977   -0.0285 C   0  0  0  0  0  0  0  0  0  0  0  0
    1.3629    5.3750    0.3039 O   0  0  0  0  0  0  0  0  0  0  0  0
    2.0612    5.3629    0.9769 H   0  0  0  0  0  0  0  0  0  0  0  0
    0.0536    3.8727   -1.0062 C   0  0  0  0  0  0  0  0  0  0  0  0
   -0.4119    4.7235   -1.4927 H   0  0  0  0  0  0  0  0  0  0  0  0
   -0.3101    2.5675   -1.3539 C   0  0  0  0  0  0  0  0  0  0  0  0
   -1.0694    2.4294   -2.1178 H   0  0  0  0  0  0  0  0  0  0  0  0
   -0.0811   -0.7488    1.3912 C   0  0  0  0  0  0  0  0  0  0  0  0
    0.9765   -0.9989    1.9564 O   0  0  0  0  0  0  0  0  0  0  0  0
   -1.0977   -0.1403    2.1068 N   0  0  0  0  0  0  0  0  0  0  0  0
   -1.9598    0.0567    1.6112 H   0  0  0  0  0  0  0  0  0  0  0  0
   -0.9764    0.2427    3.5069 C   0  0  0  0  0  0  0  0  0  0  0  0
   -0.1924    0.9972    3.6293 H   0  0  0  0  0  0  0  0  0  0  0  0
   -1.9205    0.6616    3.8673 H   0  0  0  0  0  0  0  0  0  0  0  0
   -0.7276   -0.6286    4.1219 H   0  0  0  0  0  0  0  0  0  0  0  0
  1  2  1  0  0  0  0
  2  3  1  0  0  0  0
  2  4  1  0  0  0  0
  2  5  1  0  0  0  0
  5  6  2  0  0  0  0
  5  7  1  0  0  0  0
  7  8  1  0  0  0  0
  7  9  1  0  0  0  0
  9 10  1  0  0  0  0
  9 11  1  0  0  0  0
  9 26  1  0  0  0  0
 11 12  1  0  0  0  0
 11 13  1  0  0  0  0
 11 14  1  0  0  0  0
 14 15  2  0  0  0  0
 14 24  1  0  0  0  0
 15 16  1  0  0  0  0
 15 17  1  0  0  0  0
 17 18  1  0  0  0  0
 17 19  2  0  0  0  0
 19 20  1  0  0  0  0
 19 22  1  0  0  0  0
 20 21  1  0  0  0  0
 22 23  1  0  0  0  0
 22 24  2  0  0  0  0
 24 25  1  0  0  0  0
 26 27  2  0  0  0  0
 26 28  1  0  0  0  0
 28 29  1  0  0  0  0
 28 30  1  0  0  0  0
 30 31  1  0  0  0  0
 30 32  1  0  0  0  0
 30 33  1  0  0  0  0
M  END
$$$$

  -OEChem-03222214083D

 33 33  0     1  0  0  0  0  0999 V2000
   -3.4830   -4.4297    0.7251 H   0  0  0  0  0  0  0  0  0  0  0  0
   -3.3601   -3.5179    0.1336 C   0  0  0  0  0  0  0  0  0  0  0  0
   -4.1212   -2.7964    0.4393 H   0  0  0  0  0  0  0  0  0  0  0  0
   -3.4998   -3.7625   -0.9220 H   0  0  0  0  0  0  0  0  0  0  0  0
   -1.9752   -2.9376    0.3526 C   0  0  0  0  0  0  0  0  0  0  0  0
   -1.1901   -3.5110    1.0851 O   0  0  0  0  0  0  0  0  0  0  0  0
   -1.6080   -1.7774   -0.3031 N   0  0  0  0  0  0  0  0  0  0  0  0
   -2.2934   -1.3710   -0.9316 H   0  0  0  0  0  0  0  0  0  0  0  0
   -0.3048   -1.0972   -0.1379 C   0  0  1  0  0  0  0  0  0  0  0  0
    0.5018   -1.7988   -0.3785 H   0  0  0  0  0  0  0  0  0  0  0  0
   -0.2751    0.0599   -1.1842 C   0  0  0  0  0  0  0  0  0  0  0  0
    0.3598   -0.2695   -2.0130 H   0  0  0  0  0  0  0  0  0  0  0  0
   -1.2798    0.1854   -1.5997 H   0  0  0  0  0  0  0  0  0  0  0  0
    0.2169    1.4368   -0.7623 C   0  0  0  0  0  0  0  0  0  0  0  0
    1.3808    1.6258    0.0043 C   0  0  0  0  0  0  0  0  0  0  0  0
    2.0077    0.7812    0.2755 H   0  0  0  0  0  0  0  0  0  0  0  0
    1.7720    2.9050    0.4144 C   0  0  0  0  0  0  0  0  0  0  0  0
    2.6734    3.0170    1.0070 H   0  0  0  0  0  0  0  0  0  0  0  0
    1.0106    4.0189    0.0622 C   0  0  0  0  0  0  0  0  0  0  0  0
    1.3815    5.2698    0.4621 O   0  0  0  0  0  0  0  0  0  0  0  0
    2.1903    5.2190    0.9952 H   0  0  0  0  0  0  0  0  0  0  0  0
   -0.1375    3.8495   -0.7069 C   0  0  0  0  0  0  0  0  0  0  0  0
   -0.7213    4.7221   -0.9811 H   0  0  0  0  0  0  0  0  0  0  0  0
   -0.5336    2.5717   -1.1170 C   0  0  0  0  0  0  0  0  0  0  0  0
   -1.4362    2.4730   -1.7124 H   0  0  0  0  0  0  0  0  0  0  0  0
   -0.0846   -0.6657    1.3349 C   0  0  0  0  0  0  0  0  0  0  0  0
    1.0007   -0.8407    1.8761 O   0  0  0  0  0  0  0  0  0  0  0  0
   -1.1010   -0.0533    2.0473 N   0  0  0  0  0  0  0  0  0  0  0  0
   -1.9741    0.1126    1.5602 H   0  0  0  0  0  0  0  0  0  0  0  0
   -0.9438    0.4285    3.4130 C   0  0  0  0  0  0  0  0  0  0  0  0
   -0.1825    1.2145    3.4545 H   0  0  0  0  0  0  0  0  0  0  0  0
   -1.8884    0.8402    3.7809 H   0  0  0  0  0  0  0  0  0  0  0  0
   -0.6428   -0.3899    4.0757 H   0  0  0  0  0  0  0  0  0  0  0  0
  1  2  1  0  0  0  0
  2  3  1  0  0  0  0
  2  4  1  0  0  0  0
  2  5  1  0  0  0  0
  5  6  2  0  0  0  0
  5  7  1  0  0  0  0
  7  8  1  0  0  0  0
  7  9  1  0  0  0  0
  9 10  1  0  0  0  0
  9 11  1  0  0  0  0
  9 26  1  0  0  0  0
 11 12  1  0  0  0  0
 11 13  1  0  0  0  0
 11 14  1  0  0  0  0
 14 15  2  0  0  0  0
 14 24  1  0  0  0  0
 15 16  1  0  0  0  0
 15 17  1  0  0  0  0
 17 18  1  0  0  0  0
 17 19  2  0  0  0  0
 19 20  1  0  0  0  0
 19 22  1  0  0  0  0
 20 21  1  0  0  0  0
 22 23  1  0  0  0  0
 22 24  2  0  0  0  0
 24 25  1  0  0  0  0
 26 27  2  0  0  0  0
 26 28  1  0  0  0  0
 28 29  1  0  0  0  0
 28 30  1  0  0  0  0
 30 31  1  0  0  0  0
 30 32  1  0  0  0  0
 30 33  1  0  0  0  0
M  END
$$$$

  -OEChem-03222214083D

 33 33  0     1  0  0  0  0  0999 V2000
   -3.4107   -4.4840    0.7526 H   0  0  0  0  0  0  0  0  0  0  0  0
   -3.3160   -3.5777    0.1475 C   0  0  0  0  0  0  0  0  0  0  0  0
   -4.1016   -2.8768    0.4398 H   0  0  0  0  0  0  0  0  0  0  0  0
   -3.4444   -3.8435   -0.9045 H   0  0  0  0  0  0  0  0  0  0  0  0
   -1.9522   -2.9479    0.3616 C   0  0  0  0  0  0  0  0  0  0  0  0
   -1.1552   -3.4751    1.1157 O   0  0  0  0  0  0  0  0  0  0  0  0
   -1.6215   -1.7884   -0.3136 N   0  0  0  0  0  0  0  0  0  0  0  0
   -2.3131   -1.4198   -0.9585 H   0  0  0  0  0  0  0  0  0  0  0  0
   -0.3371   -1.0725   -0.1654 C   0  0  1  0  0  0  0  0  0  0  0  0
    0.4778   -1.7670   -0.3982 H   0  0  0  0  0  0  0  0  0  0  0  0
   -0.3151    0.0624   -1.2298 C   0  0  0  0  0  0  0  0  0  0  0  0
    0.3362   -0.2592   -2.0489 H   0  0  0  0  0  0  0  0  0  0  0  0
   -1.3152    0.1773   -1.6590 H   0  0  0  0  0  0  0  0  0  0  0  0
    0.1575    1.4281   -0.7695 C   0  0  0  0  0  0  0  0  0  0  0  0
    1.4486    1.6143   -0.2480 C   0  0  0  0  0  0  0  0  0  0  0  0
    2.1344    0.7739   -0.1751 H   0  0  0  0  0  0  0  0  0  0  0  0
    1.8626    2.8734    0.2002 C   0  0  0  0  0  0  0  0  0  0  0  0
    2.8606    2.9871    0.6097 H   0  0  0  0  0  0  0  0  0  0  0  0
    0.9954    3.9641    0.1273 C   0  0  0  0  0  0  0  0  0  0  0  0
    1.3893    5.1951    0.5650 O   0  0  0  0  0  0  0  0  0  0  0  0
    2.2900    5.1444    0.9213 H   0  0  0  0  0  0  0  0  0  0  0  0
   -0.2843    3.7923   -0.3952 C   0  0  0  0  0  0  0  0  0  0  0  0
   -0.9505    4.6471   -0.4484 H   0  0  0  0  0  0  0  0  0  0  0  0
   -0.7046    2.5345   -0.8414 C   0  0  0  0  0  0  0  0  0  0  0  0
   -1.7080    2.4282   -1.2419 H   0  0  0  0  0  0  0  0  0  0  0  0
   -0.0870   -0.5991    1.2889 C   0  0  0  0  0  0  0  0  0  0  0  0
    1.0300   -0.6975    1.7830 O   0  0  0  0  0  0  0  0  0  0  0  0
   -1.0966    0.0090    2.0144 N   0  0  0  0  0  0  0  0  0  0  0  0
   -1.9989    0.1064    1.5634 H   0  0  0  0  0  0  0  0  0  0  0  0
   -0.9015    0.5633    3.3471 C   0  0  0  0  0  0  0  0  0  0  0  0
   -0.1425    1.3525    3.3247 H   0  0  0  0  0  0  0  0  0  0  0  0
   -1.8361    0.9929    3.7199 H   0  0  0  0  0  0  0  0  0  0  0  0
   -0.5783   -0.2188    4.0420 H   0  0  0  0  0  0  0  0  0  0  0  0
  1  2  1  0  0  0  0
  2  3  1  0  0  0  0
  2  4  1  0  0  0  0
  2  5  1  0  0  0  0
  5  6  2  0  0  0  0
  5  7  1  0  0  0  0
  7  8  1  0  0  0  0
  7  9  1  0  0  0  0
  9 10  1  0  0  0  0
  9 11  1  0  0  0  0
  9 26  1  0  0  0  0
 11 12  1  0  0  0  0
 11 13  1  0  0  0  0
 11 14  1  0  0  0  0
 14 15  2  0  0  0  0
 14 24  1  0  0  0  0
 15 16  1  0  0  0  0
 15 17  1  0  0  0  0
 17 18  1  0  0  0  0
 17 19  2  0  0  0  0
 19 20  1  0  0  0  0
 19 22  1  0  0  0  0
 20 21  1  0  0  0  0
 22 23  1  0  0  0  0
 22 24  2  0  0  0  0
 24 25  1  0  0  0  0
 26 27  2  0  0  0  0
 26 28  1  0  0  0  0
 28 29  1  0  0  0  0
 28 30  1  0  0  0  0
 30 31  1  0  0  0  0
 30 32  1  0  0  0  0
 30 33  1  0  0  0  0
M  END
$$$$

  -OEChem-03222214083D

 33 33  0     1  0  0  0  0  0999 V2000
   -3.3691   -4.5200    0.7480 H   0  0  0  0  0  0  0  0  0  0  0  0
   -3.2927   -3.6126    0.1420 C   0  0  0  0  0  0  0  0  0  0  0  0
   -4.0987   -2.9317    0.4258 H   0  0  0  0  0  0  0  0  0  0  0  0
   -3.4054   -3.8828   -0.9107 H   0  0  0  0  0  0  0  0  0  0  0  0
   -1.9472   -2.9482    0.3670 C   0  0  0  0  0  0  0  0  0  0  0  0
   -1.1487   -3.4458    1.1395 O   0  0  0  0  0  0  0  0  0  0  0  0
   -1.6373   -1.7863   -0.3134 N   0  0  0  0  0  0  0  0  0  0  0  0
   -2.3270   -1.4446   -0.9752 H   0  0  0  0  0  0  0  0  0  0  0  0
   -0.3638   -1.0508   -0.1743 C   0  0  1  0  0  0  0  0  0  0  0  0
    0.4534   -1.7440   -0.4033 H   0  0  0  0  0  0  0  0  0  0  0  0
   -0.3376    0.0673   -1.2517 C   0  0  0  0  0  0  0  0  0  0  0  0
    0.3226   -0.2545   -2.0638 H   0  0  0  0  0  0  0  0  0  0  0  0
   -1.3340    0.1822   -1.6896 H   0  0  0  0  0  0  0  0  0  0  0  0
    0.1241    1.4244   -0.7680 C   0  0  0  0  0  0  0  0  0  0  0  0
    1.4829    1.6681   -0.5166 C   0  0  0  0  0  0  0  0  0  0  0  0
    2.2124    0.8747   -0.6552 H   0  0  0  0  0  0  0  0  0  0  0  0
    1.9057    2.9204   -0.0566 C   0  0  0  0  0  0  0  0  0  0  0  0
    2.9588    3.0835    0.1441 H   0  0  0  0  0  0  0  0  0  0  0  0
    0.9774    3.9420    0.1518 C   0  0  0  0  0  0  0  0  0  0  0  0
    1.3795    5.1644    0.6062 O   0  0  0  0  0  0  0  0  0  0  0  0
    2.3323    5.1508    0.7864 H   0  0  0  0  0  0  0  0  0  0  0  0
   -0.3727    3.7092   -0.1021 C   0  0  0  0  0  0  0  0  0  0  0  0
   -1.0858    4.5099    0.0635 H   0  0  0  0  0  0  0  0  0  0  0  0
   -0.8017    2.4587   -0.5592 C   0  0  0  0  0  0  0  0  0  0  0  0
   -1.8586    2.2984   -0.7473 H   0  0  0  0  0  0  0  0  0  0  0  0
   -0.0882   -0.5577    1.2681 C   0  0  0  0  0  0  0  0  0  0  0  0
    1.0489   -0.6031    1.7223 O   0  0  0  0  0  0  0  0  0  0  0  0
   -1.0893    0.0464    2.0080 N   0  0  0  0  0  0  0  0  0  0  0  0
   -2.0148    0.0807    1.5968 H   0  0  0  0  0  0  0  0  0  0  0  0
   -0.8714    0.6211    3.3284 C   0  0  0  0  0  0  0  0  0  0  0  0
   -0.1088    1.4057    3.2816 H   0  0  0  0  0  0  0  0  0  0  0  0
   -1.7981    1.0617    3.7076 H   0  0  0  0  0  0  0  0  0  0  0  0
   -0.5410   -0.1512    4.0309 H   0  0  0  0  0  0  0  0  0  0  0  0
  1  2  1  0  0  0  0
  2  3  1  0  0  0  0
  2  4  1  0  0  0  0
  2  5  1  0  0  0  0
  5  6  2  0  0  0  0
  5  7  1  0  0  0  0
  7  8  1  0  0  0  0
  7  9  1  0  0  0  0
  9 10  1  0  0  0  0
  9 11  1  0  0  0  0
  9 26  1  0  0  0  0
 11 12  1  0  0  0  0
 11 13  1  0  0  0  0
 11 14  1  0  0  0  0
 14 15  2  0  0  0  0
 14 24  1  0  0  0  0
 15 16  1  0  0  0  0
 15 17  1  0  0  0  0
 17 18  1  0  0  0  0
 17 19  2  0  0  0  0
 19 20  1  0  0  0  0
 19 22  1  0  0  0  0
 20 21  1  0  0  0  0
 22 23  1  0  0  0  0
 22 24  2  0  0  0  0
 24 25  1  0  0  0  0
 26 27  2  0  0  0  0
 26 28  1  0  0  0  0
 28 29  1  0  0  0  0
 28 30  1  0  0  0  0
 30 31  1  0  0  0  0
 30 32  1  0  0  0  0
 30 33  1  0  0  0  0
M  END
$$$$

  -OEChem-03222214083D

 33 33  0     1  0  0  0  0  0999 V2000
   -3.3540   -4.5434    0.7209 H   0  0  0  0  0  0  0  0  0  0  0  0
   -3.2859   -3.6295    0.1238 C   0  0  0  0  0  0  0  0  0  0  0  0
   -4.1048   -2.9634    0.4060 H   0  0  0  0  0  0  0  0  0  0  0  0
   -3.3845   -3.8919   -0.9322 H   0  0  0  0  0  0  0  0  0  0  0  0
   -1.9531   -2.9468    0.3673 C   0  0  0  0  0  0  0  0  0  0  0  0
   -1.1579   -3.4327    1.1505 O   0  0  0  0  0  0  0  0  0  0  0  0
   -1.6533   -1.7773   -0.3042 N   0  0  0  0  0  0  0  0  0  0  0  0
   -2.3350   -1.4505   -0.9818 H   0  0  0  0  0  0  0  0  0  0  0  0
   -0.3838   -1.0354   -0.1655 C   0  0  1  0  0  0  0  0  0  0  0  0
    0.4310   -1.7312   -0.3948 H   0  0  0  0  0  0  0  0  0  0  0  0
   -0.3447    0.0764   -1.2471 C   0  0  0  0  0  0  0  0  0  0  0  0
    0.3173   -0.2519   -2.0551 H   0  0  0  0  0  0  0  0  0  0  0  0
   -1.3382    0.1982   -1.6898 H   0  0  0  0  0  0  0  0  0  0  0  0
    0.1140    1.4312   -0.7571 C   0  0  0  0  0  0  0  0  0  0  0  0
    1.4733    1.7752   -0.7846 C   0  0  0  0  0  0  0  0  0  0  0  0
    2.2095    1.0569   -1.1338 H   0  0  0  0  0  0  0  0  0  0  0  0
    1.8948    3.0324   -0.3361 C   0  0  0  0  0  0  0  0  0  0  0  0
    2.9517    3.2746   -0.3514 H   0  0  0  0  0  0  0  0  0  0  0  0
    0.9627    3.9595    0.1340 C   0  0  0  0  0  0  0  0  0  0  0  0
    1.3649    5.1853    0.5790 O   0  0  0  0  0  0  0  0  0  0  0  0
    2.3334    5.2348    0.5758 H   0  0  0  0  0  0  0  0  0  0  0  0
   -0.3907    3.6289    0.1509 C   0  0  0  0  0  0  0  0  0  0  0  0
   -1.1070    4.3568    0.5168 H   0  0  0  0  0  0  0  0  0  0  0  0
   -0.8174    2.3733   -0.2933 C   0  0  0  0  0  0  0  0  0  0  0  0
   -1.8754    2.1332   -0.2698 H   0  0  0  0  0  0  0  0  0  0  0  0
   -0.0928   -0.5481    1.2759 C   0  0  0  0  0  0  0  0  0  0  0  0
    1.0549   -0.5642    1.7037 O   0  0  0  0  0  0  0  0  0  0  0  0
   -1.0881    0.0468    2.0315 N   0  0  0  0  0  0  0  0  0  0  0  0
   -2.0311    0.0140    1.6623 H   0  0  0  0  0  0  0  0  0  0  0  0
   -0.8590    0.6018    3.3585 C   0  0  0  0  0  0  0  0  0  0  0  0
   -0.0972    1.3878    3.3172 H   0  0  0  0  0  0  0  0  0  0  0  0
   -1.7825    1.0366    3.7520 H   0  0  0  0  0  0  0  0  0  0  0  0
   -0.5221   -0.1807    4.0465 H   0  0  0  0  0  0  0  0  0  0  0  0
  1  2  1  0  0  0  0
  2  3  1  0  0  0  0
  2  4  1  0  0  0  0
  2  5  1  0  0  0  0
  5  6  2  0  0  0  0
  5  7  1  0  0  0  0
  7  8  1  0  0  0  0
  7  9  1  0  0  0  0
  9 10  1  0  0  0  0
  9 11  1  0  0  0  0
  9 26  1  0  0  0  0
 11 12  1  0  0  0  0
 11 13  1  0  0  0  0
 11 14  1  0  0  0  0
 14 15  2  0  0  0  0
 14 24  1  0  0  0  0
 15 16  1  0  0  0  0
 15 17  1  0  0  0  0
 17 18  1  0  0  0  0
 17 19  2  0  0  0  0
 19 20  1  0  0  0  0
 19 22  1  0  0  0  0
 20 21  1  0  0  0  0
 22 23  1  0  0  0  0
 22 24  2  0  0  0  0
 24 25  1  0  0  0  0
 26 27  2  0  0  0  0
 26 28  1  0  0  0  0
 28 29  1  0  0  0  0
 28 30  1  0  0  0  0
 30 31  1  0  0  0  0
 30 32  1  0  0  0  0
 30 33  1  0  0  0  0
M  END
$$$$

  -OEChem-03222214083D

 33 33  0     1  0  0  0  0  0999 V2000
   -3.3576   -4.5723    0.6562 H   0  0  0  0  0  0  0  0  0  0  0  0
   -3.2917   -3.6453    0.0792 C   0  0  0  0  0  0  0  0  0  0  0  0
   -4.1226   -2.9954    0.3633 H   0  0  0  0  0  0  0  0  0  0  0  0
   -3.3730   -3.8873   -0.9833 H   0  0  0  0  0  0  0  0  0  0  0  0
   -1.9705   -2.9518    0.3558 C   0  0  0  0  0  0  0  0  0  0  0  0
   -1.1817   -3.4451    1.1407 O   0  0  0  0  0  0  0  0  0  0  0  0
   -1.6734   -1.7647   -0.2859 N   0  0  0  0  0  0  0  0  0  0  0  0
   -2.3464   -1.4346   -0.9709 H   0  0  0  0  0  0  0  0  0  0  0  0
   -0.4026   -1.0262   -0.1338 C   0  0  1  0  0  0  0  0  0  0  0  0
    0.4062   -1.7269   -0.3711 H   0  0  0  0  0  0  0  0  0  0  0  0
   -0.3382    0.0932   -1.2078 C   0  0  0  0  0  0  0  0  0  0  0  0
    0.3221   -0.2449   -2.0130 H   0  0  0  0  0  0  0  0  0  0  0  0
   -1.3279    0.2269   -1.6556 H   0  0  0  0  0  0  0  0  0  0  0  0
    0.1231    1.4515   -0.7242 C   0  0  0  0  0  0  0  0  0  0  0  0
    1.4156    1.9089   -1.0223 C   0  0  0  0  0  0  0  0  0  0  0  0
    2.1121    1.2665   -1.5533 H   0  0  0  0  0  0  0  0  0  0  0  0
    1.8292    3.1844   -0.6195 C   0  0  0  0  0  0  0  0  0  0  0  0
    2.8379    3.5122   -0.8450 H   0  0  0  0  0  0  0  0  0  0  0  0
    0.9505    4.0231    0.0685 C   0  0  0  0  0  0  0  0  0  0  0  0
    1.3457    5.2663    0.4699 O   0  0  0  0  0  0  0  0  0  0  0  0
    2.2895    5.3883    0.2838 H   0  0  0  0  0  0  0  0  0  0  0  0
   -0.3433    3.5873    0.3442 C   0  0  0  0  0  0  0  0  0  0  0  0
   -1.0207    4.2486    0.8739 H   0  0  0  0  0  0  0  0  0  0  0  0
   -0.7605    2.3134   -0.0551 C   0  0  0  0  0  0  0  0  0  0  0  0
   -1.7750    1.9959    0.1623 H   0  0  0  0  0  0  0  0  0  0  0  0
   -0.1017   -0.5760    1.3172 C   0  0  0  0  0  0  0  0  0  0  0  0
    1.0515   -0.5855    1.7291 O   0  0  0  0  0  0  0  0  0  0  0  0
   -1.0906   -0.0011    2.0967 N   0  0  0  0  0  0  0  0  0  0  0  0
   -2.0429   -0.0741    1.7580 H   0  0  0  0  0  0  0  0  0  0  0  0
   -0.8495    0.5081    3.4402 C   0  0  0  0  0  0  0  0  0  0  0  0
   -0.0957    1.3023    3.4172 H   0  0  0  0  0  0  0  0  0  0  0  0
   -1.7713    0.9203    3.8610 H   0  0  0  0  0  0  0  0  0  0  0  0
   -0.4963   -0.2948    4.0958 H   0  0  0  0  0  0  0  0  0  0  0  0
  1  2  1  0  0  0  0
  2  3  1  0  0  0  0
  2  4  1  0  0  0  0
  2  5  1  0  0  0  0
  5  6  2  0  0  0  0
  5  7  1  0  0  0  0
  7  8  1  0  0  0  0
  7  9  1  0  0  0  0
  9 10  1  0  0  0  0
  9 11  1  0  0  0  0
  9 26  1  0  0  0  0
 11 12  1  0  0  0  0
 11 13  1  0  0  0  0
 11 14  1  0  0  0  0
 14 15  2  0  0  0  0
 14 24  1  0  0  0  0
 15 16  1  0  0  0  0
 15 17  1  0  0  0  0
 17 18  1  0  0  0  0
 17 19  2  0  0  0  0
 19 20  1  0  0  0  0
 19 22  1  0  0  0  0
 20 21  1  0  0  0  0
 22 23  1  0  0  0  0
 22 24  2  0  0  0  0
 24 25  1  0  0  0  0
 26 27  2  0  0  0  0
 26 28  1  0  0  0  0
 28 29  1  0  0  0  0
 28 30  1  0  0  0  0
 30 31  1  0  0  0  0
 30 32  1  0  0  0  0
 30 33  1  0  0  0  0
M  END
$$$$

  -OEChem-03222214083D

 33 33  0     1  0  0  0  0  0999 V2000
   -3.3788   -4.5831    0.5617 H   0  0  0  0  0  0  0  0  0  0  0  0
   -3.3083   -3.6363    0.0185 C   0  0  0  0  0  0  0  0  0  0  0  0
   -4.1403   -2.9955    0.3197 H   0  0  0  0  0  0  0  0  0  0  0  0
   -3.3822   -3.8398   -1.0524 H   0  0  0  0  0  0  0  0  0  0  0  0
   -1.9885   -2.9548    0.3287 C   0  0  0  0  0  0  0  0  0  0  0  0
   -1.2039   -3.4766    1.0994 O   0  0  0  0  0  0  0  0  0  0  0  0
   -1.6887   -1.7439   -0.2649 N   0  0  0  0  0  0  0  0  0  0  0  0
   -2.3620   -1.3838   -0.9342 H   0  0  0  0  0  0  0  0  0  0  0  0
   -0.4162   -1.0149   -0.0865 C   0  0  1  0  0  0  0  0  0  0  0  0
    0.3818   -1.7253   -0.3322 H   0  0  0  0  0  0  0  0  0  0  0  0
   -0.3120    0.1086   -1.1549 C   0  0  0  0  0  0  0  0  0  0  0  0
    0.3588   -0.2455   -1.9443 H   0  0  0  0  0  0  0  0  0  0  0  0
   -1.2913    0.2495   -1.6226 H   0  0  0  0  0  0  0  0  0  0  0  0
    0.1500    1.4756   -0.6898 C   0  0  0  0  0  0  0  0  0  0  0  0
    1.3161    2.0423   -1.2297 C   0  0  0  0  0  0  0  0  0  0  0  0
    1.9362    1.4673   -1.9113 H   0  0  0  0  0  0  0  0  0  0  0  0
    1.7080    3.3409   -0.8829 C   0  0  0  0  0  0  0  0  0  0  0  0
    2.6240    3.7491   -1.2953 H   0  0  0  0  0  0  0  0  0  0  0  0
    0.9225    4.1030   -0.0169 C   0  0  0  0  0  0  0  0  0  0  0  0
    1.2947    5.3697    0.3289 O   0  0  0  0  0  0  0  0  0  0  0  0
    2.1768    5.5623   -0.0243 H   0  0  0  0  0  0  0  0  0  0  0  0
   -0.2605    3.5691    0.4869 C   0  0  0  0  0  0  0  0  0  0  0  0
   -0.8753    4.1740    1.1451 H   0  0  0  0  0  0  0  0  0  0  0  0
   -0.6539    2.2721    0.1426 C   0  0  0  0  0  0  0  0  0  0  0  0
   -1.5959    1.8933    0.5229 H   0  0  0  0  0  0  0  0  0  0  0  0
   -0.1033   -0.6199    1.3777 C   0  0  0  0  0  0  0  0  0  0  0  0
    1.0550   -0.6345    1.7742 O   0  0  0  0  0  0  0  0  0  0  0  0
   -1.0826   -0.0723    2.1889 N   0  0  0  0  0  0  0  0  0  0  0  0
   -2.0413   -0.1727    1.8750 H   0  0  0  0  0  0  0  0  0  0  0  0
   -0.8274    0.3624    3.5564 C   0  0  0  0  0  0  0  0  0  0  0  0
   -0.0732    1.1564    3.5705 H   0  0  0  0  0  0  0  0  0  0  0  0
   -1.7449    0.7513    4.0077 H   0  0  0  0  0  0  0  0  0  0  0  0
   -0.4685   -0.4752    4.1637 H   0  0  0  0  0  0  0  0  0  0  0  0
  1  2  1  0  0  0  0
  2  3  1  0  0  0  0
  2  4  1  0  0  0  0
  2  5  1  0  0  0  0
  5  6  2  0  0  0  0
  5  7  1  0  0  0  0
  7  8  1  0  0  0  0
  7  9  1  0  0  0  0
  9 10  1  0  0  0  0
  9 11  1  0  0  0  0
  9 26  1  0  0  0  0
 11 12  1  0  0  0  0
 11 13  1  0  0  0  0
 11 14  1  0  0  0  0
 14 15  2  0  0  0  0
 14 24  1  0  0  0  0
 15 16  1  0  0  0  0
 15 17  1  0  0  0  0
 17 18  1  0  0  0  0
 17 19  2  0  0  0  0
 19 20  1  0  0  0  0
 19 22  1  0  0  0  0
 20 21  1  0  0  0  0
 22 23  1  0  0  0  0
 22 24  2  0  0  0  0
 24 25  1  0  0  0  0
 26 27  2  0  0  0  0
 26 28  1  0  0  0  0
 28 29  1  0  0  0  0
 28 30  1  0  0  0  0
 30 31  1  0  0  0  0
 30 32  1  0  0  0  0
 30 33  1  0  0  0  0
M  END
$$$$

  -OEChem-03222214083D

 33 33  0     1  0  0  0  0  0999 V2000
   -3.4032   -4.5828    0.4645 H   0  0  0  0  0  0  0  0  0  0  0  0
   -3.3264   -3.6183   -0.0456 C   0  0  0  0  0  0  0  0  0  0  0  0
   -4.1537   -2.9826    0.2788 H   0  0  0  0  0  0  0  0  0  0  0  0
   -3.4028   -3.7844   -1.1229 H   0  0  0  0  0  0  0  0  0  0  0  0
   -2.0015   -2.9573    0.2858 C   0  0  0  0  0  0  0  0  0  0  0  0
   -1.2122   -3.5186    1.0233 O   0  0  0  0  0  0  0  0  0  0  0  0
   -1.7028   -1.7186   -0.2481 N   0  0  0  0  0  0  0  0  0  0  0  0
   -2.3863   -1.3161   -0.8823 H   0  0  0  0  0  0  0  0  0  0  0  0
   -0.4308   -0.9981   -0.0361 C   0  0  1  0  0  0  0  0  0  0  0  0
    0.3569   -1.7173   -0.2901 H   0  0  0  0  0  0  0  0  0  0  0  0
   -0.2764    0.1297   -1.0973 C   0  0  0  0  0  0  0  0  0  0  0  0
    0.4145   -0.2422   -1.8611 H   0  0  0  0  0  0  0  0  0  0  0  0
   -1.2390    0.2741   -1.5972 H   0  0  0  0  0  0  0  0  0  0  0  0
    0.1849    1.5089   -0.6583 C   0  0  0  0  0  0  0  0  0  0  0  0
    1.1746    2.1670   -1.4096 C   0  0  0  0  0  0  0  0  0  0  0  0
    1.6793    1.6476   -2.2191 H   0  0  0  0  0  0  0  0  0  0  0  0
    1.5495    3.4837   -1.1166 C   0  0  0  0  0  0  0  0  0  0  0  0
    2.3386    3.9544   -1.6927 H   0  0  0  0  0  0  0  0  0  0  0  0
    0.9062    4.1845   -0.0969 C   0  0  0  0  0  0  0  0  0  0  0  0
    1.2615    5.4687    0.1990 O   0  0  0  0  0  0  0  0  0  0  0  0
    2.0421    5.7233   -0.3166 H   0  0  0  0  0  0  0  0  0  0  0  0
   -0.1259    3.5723    0.6076 C   0  0  0  0  0  0  0  0  0  0  0  0
   -0.6444    4.1335    1.3779 H   0  0  0  0  0  0  0  0  0  0  0  0
   -0.4997    2.2562    0.3161 C   0  0  0  0  0  0  0  0  0  0  0  0
   -1.3483    1.8393    0.8429 H   0  0  0  0  0  0  0  0  0  0  0  0
   -0.1113   -0.6721    1.4433 C   0  0  0  0  0  0  0  0  0  0  0  0
    1.0501   -0.6943    1.8295 O   0  0  0  0  0  0  0  0  0  0  0  0
   -1.0844   -0.1649    2.2877 N   0  0  0  0  0  0  0  0  0  0  0  0
   -2.0460   -0.2656    1.9818 H   0  0  0  0  0  0  0  0  0  0  0  0
   -0.8197    0.1904    3.6764 C   0  0  0  0  0  0  0  0  0  0  0  0
   -0.0566    0.9742    3.7316 H   0  0  0  0  0  0  0  0  0  0  0  0
   -1.7312    0.5637    4.1525 H   0  0  0  0  0  0  0  0  0  0  0  0
   -0.4681   -0.6840    4.2342 H   0  0  0  0  0  0  0  0  0  0  0  0
  1  2  1  0  0  0  0
  2  3  1  0  0  0  0
  2  4  1  0  0  0  0
  2  5  1  0  0  0  0
  5  6  2  0  0  0  0
  5  7  1  0  0  0  0
  7  8  1  0  0  0  0
  7  9  1  0  0  0  0
  9 10  1  0  0  0  0
  9 11  1  0  0  0  0
  9 26  1  0  0  0  0
 11 12  1  0  0  0  0
 11 13  1  0  0  0  0
 11 14  1  0  0  0  0
 14 15  2  0  0  0  0
 14 24  1  0  0  0  0
 15 16  1  0  0  0  0
 15 17  1  0  0  0  0
 17 18  1  0  0  0  0
 17 19  2  0  0  0  0
 19 20  1  0  0  0  0
 19 22  1  0  0  0  0
 20 21  1  0  0  0  0
 22 23  1  0  0  0  0
 22 24  2  0  0  0  0
 24 25  1  0  0  0  0
 26 27  2  0  0  0  0
 26 28  1  0  0  0  0
 28 29  1  0  0  0  0
 28 30  1  0  0  0  0
 30 31  1  0  0  0  0
 30 32  1  0  0  0  0
 30 33  1  0  0  0  0
M  END
$$$$

  -OEChem-03222214083D

 33 33  0     1  0  0  0  0  0999 V2000
   -3.4315   -4.5723    0.3304 H   0  0  0  0  0  0  0  0  0  0  0  0
   -3.3561   -3.5798   -0.1232 C   0  0  0  0  0  0  0  0  0  0  0  0
   -4.1768   -2.9612    0.2475 H   0  0  0  0  0  0  0  0  0  0  0  0
   -3.4451   -3.6819   -1.2074 H   0  0  0  0  0  0  0  0  0  0  0  0
   -2.0243   -2.9443    0.2298 C   0  0  0  0  0  0  0  0  0  0  0  0
   -1.2269   -3.5530    0.9194 O   0  0  0  0  0  0  0  0  0  0  0  0
   -1.7284   -1.6757   -0.2309 N   0  0  0  0  0  0  0  0  0  0  0  0
   -2.4211   -1.2325   -0.8268 H   0  0  0  0  0  0  0  0  0  0  0  0
   -0.4479   -0.9747   -0.0018 C   0  0  1  0  0  0  0  0  0  0  0  0
    0.3270   -1.6918   -0.2982 H   0  0  0  0  0  0  0  0  0  0  0  0
   -0.2848    0.1882   -1.0278 C   0  0  0  0  0  0  0  0  0  0  0  0
    0.3960   -0.1836   -1.8008 H   0  0  0  0  0  0  0  0  0  0  0  0
   -1.2514    0.3418   -1.5171 H   0  0  0  0  0  0  0  0  0  0  0  0
    0.1904    1.5795   -0.6247 C   0  0  0  0  0  0  0  0  0  0  0  0
    0.9085    2.3172   -1.5845 C   0  0  0  0  0  0  0  0  0  0  0  0
    1.1893    1.8543   -2.5259 H   0  0  0  0  0  0  0  0  0  0  0  0
    1.2973    3.6409   -1.3490 C   0  0  0  0  0  0  0  0  0  0  0  0
    1.8746    4.1697   -2.0993 H   0  0  0  0  0  0  0  0  0  0  0  0
    0.9355    4.2751   -0.1622 C   0  0  0  0  0  0  0  0  0  0  0  0
    1.3030    5.5671    0.0803 O   0  0  0  0  0  0  0  0  0  0  0  0
    1.8897    5.8829   -0.6239 H   0  0  0  0  0  0  0  0  0  0  0  0
    0.1663    3.5874    0.7698 C   0  0  0  0  0  0  0  0  0  0  0  0
   -0.1413    4.0949    1.6781 H   0  0  0  0  0  0  0  0  0  0  0  0
   -0.2224    2.2644    0.5333 C   0  0  0  0  0  0  0  0  0  0  0  0
   -0.8772    1.8131    1.2611 H   0  0  0  0  0  0  0  0  0  0  0  0
   -0.1115   -0.7524    1.4918 C   0  0  0  0  0  0  0  0  0  0  0  0
    1.0542   -0.7902    1.8623 O   0  0  0  0  0  0  0  0  0  0  0  0
   -1.0764   -0.3021    2.3771 N   0  0  0  0  0  0  0  0  0  0  0  0
   -2.0400   -0.3836    2.0713 H   0  0  0  0  0  0  0  0  0  0  0  0
   -0.8054   -0.0687    3.7901 C   0  0  0  0  0  0  0  0  0  0  0  0
   -0.0126    0.6773    3.9105 H   0  0  0  0  0  0  0  0  0  0  0  0
   -1.7046    0.3014    4.2913 H   0  0  0  0  0  0  0  0  0  0  0  0
   -0.4916   -0.9977    4.2778 H   0  0  0  0  0  0  0  0  0  0  0  0
  1  2  1  0  0  0  0
  2  3  1  0  0  0  0
  2  4  1  0  0  0  0
  2  5  1  0  0  0  0
  5  6  2  0  0  0  0
  5  7  1  0  0  0  0
  7  8  1  0  0  0  0
  7  9  1  0  0  0  0
  9 10  1  0  0  0  0
  9 11  1  0  0  0  0
  9 26  1  0  0  0  0
 11 12  1  0  0  0  0
 11 13  1  0  0  0  0
 11 14  1  0  0  0  0
 14 15  2  0  0  0  0
 14 24  1  0  0  0  0
 15 16  1  0  0  0  0
 15 17  1  0  0  0  0
 17 18  1  0  0  0  0
 17 19  2  0  0  0  0
 19 20  1  0  0  0  0
 19 22  1  0  0  0  0
 20 21  1  0  0  0  0
 22 23  1  0  0  0  0
 22 24  2  0  0  0  0
 24 25  1  0  0  0  0
 26 27  2  0  0  0  0
 26 28  1  0  0  0  0
 28 29  1  0  0  0  0
 28 30  1  0  0  0  0
 30 31  1  0  0  0  0
 30 32  1  0  0  0  0
 30 33  1  0  0  0  0
M  END
$$$$

  -OEChem-03222214083D

 33 33  0     1  0  0  0  0  0999 V2000
   -3.4686   -4.5231    0.3284 H   0  0  0  0  0  0  0  0  0  0  0  0
   -3.3574   -3.5398   -0.1376 C   0  0  0  0  0  0  0  0  0  0  0  0
   -4.1615   -2.8907    0.2167 H   0  0  0  0  0  0  0  0  0  0  0  0
   -3.4390   -3.6541   -1.2212 H   0  0  0  0  0  0  0  0  0  0  0  0
   -2.0095   -2.9427    0.2214 C   0  0  0  0  0  0  0  0  0  0  0  0
   -1.2323   -3.5776    0.9102 O   0  0  0  0  0  0  0  0  0  0  0  0
   -1.6727   -1.6843   -0.2404 N   0  0  0  0  0  0  0  0  0  0  0  0
   -2.3523   -1.2178   -0.8334 H   0  0  0  0  0  0  0  0  0  0  0  0
   -0.3862   -1.0039    0.0266 C   0  0  1  0  0  0  0  0  0  0  0  0
    0.4111   -1.6985   -0.2627 H   0  0  0  0  0  0  0  0  0  0  0  0
   -0.2579    0.2083   -0.9507 C   0  0  0  0  0  0  0  0  0  0  0  0
    0.4092   -0.1361   -1.7484 H   0  0  0  0  0  0  0  0  0  0  0  0
   -1.2383    0.3579   -1.4130 H   0  0  0  0  0  0  0  0  0  0  0  0
    0.2040    1.6189   -0.5760 C   0  0  0  0  0  0  0  0  0  0  0  0
    0.5529    2.4411   -1.6652 C   0  0  0  0  0  0  0  0  0  0  0  0
    0.5048    2.0471   -2.6764 H   0  0  0  0  0  0  0  0  0  0  0  0
    0.9678    3.7651   -1.4877 C   0  0  0  0  0  0  0  0  0  0  0  0
    1.2337    4.3628   -2.3526 H   0  0  0  0  0  0  0  0  0  0  0  0
    1.0365    4.3083   -0.2077 C   0  0  0  0  0  0  0  0  0  0  0  0
    1.4381    5.5987   -0.0167 O   0  0  0  0  0  0  0  0  0  0  0  0
    1.7037    5.9922   -0.8618 H   0  0  0  0  0  0  0  0  0  0  0  0
    0.6880    3.5216    0.8838 C   0  0  0  0  0  0  0  0  0  0  0  0
    0.7434    3.9481    1.8801 H   0  0  0  0  0  0  0  0  0  0  0  0
    0.2748    2.1958    0.7095 C   0  0  0  0  0  0  0  0  0  0  0  0
    0.0263    1.6691    1.6157 H   0  0  0  0  0  0  0  0  0  0  0  0
   -0.1572   -0.8020    1.5399 C   0  0  0  0  0  0  0  0  0  0  0  0
    0.9712   -0.8802    2.0069 O   0  0  0  0  0  0  0  0  0  0  0  0
   -1.1864   -0.3400    2.3447 N   0  0  0  0  0  0  0  0  0  0  0  0
   -2.1169   -0.3605    1.9418 H   0  0  0  0  0  0  0  0  0  0  0  0
   -1.0477   -0.1708    3.7859 C   0  0  0  0  0  0  0  0  0  0  0  0
   -0.2297    0.5202    4.0157 H   0  0  0  0  0  0  0  0  0  0  0  0
   -1.9705    0.2369    4.2095 H   0  0  0  0  0  0  0  0  0  0  0  0
   -0.8398   -1.1340    4.2640 H   0  0  0  0  0  0  0  0  0  0  0  0
  1  2  1  0  0  0  0
  2  3  1  0  0  0  0
  2  4  1  0  0  0  0
  2  5  1  0  0  0  0
  5  6  2  0  0  0  0
  5  7  1  0  0  0  0
  7  8  1  0  0  0  0
  7  9  1  0  0  0  0
  9 10  1  0  0  0  0
  9 11  1  0  0  0  0
  9 26  1  0  0  0  0
 11 12  1  0  0  0  0
 11 13  1  0  0  0  0
 11 14  1  0  0  0  0
 14 15  2  0  0  0  0
 14 24  1  0  0  0  0
 15 16  1  0  0  0  0
 15 17  1  0  0  0  0
 17 18  1  0  0  0  0
 17 19  2  0  0  0  0
 19 20  1  0  0  0  0
 19 22  1  0  0  0  0
 20 21  1  0  0  0  0
 22 23  1  0  0  0  0
 22 24  2  0  0  0  0
 24 25  1  0  0  0  0
 26 27  2  0  0  0  0
 26 28  1  0  0  0  0
 28 29  1  0  0  0  0
 28 30  1  0  0  0  0
 30 31  1  0  0  0  0
 30 32  1  0  0  0  0
 30 33  1  0  0  0  0
M  END
$$$$

  -OEChem-03222214083D

 33 33  0     1  0  0  0  0  0999 V2000
   -3.5576   -4.4020    0.4505 H   0  0  0  0  0  0  0  0  0  0  0  0
   -3.3680   -3.4619   -0.0758 C   0  0  0  0  0  0  0  0  0  0  0  0
   -4.1520   -2.7483    0.1881 H   0  0  0  0  0  0  0  0  0  0  0  0
   -3.3999   -3.6496   -1.1518 H   0  0  0  0  0  0  0  0  0  0  0  0
   -2.0094   -2.9105    0.3154 C   0  0  0  0  0  0  0  0  0  0  0  0
   -1.3183   -3.5221    1.1085 O   0  0  0  0  0  0  0  0  0  0  0  0
   -1.5610   -1.7339   -0.2564 N   0  0  0  0  0  0  0  0  0  0  0  0
   -2.1589   -1.3157   -0.9620 H   0  0  0  0  0  0  0  0  0  0  0  0
   -0.2596   -1.0912    0.0377 C   0  0  1  0  0  0  0  0  0  0  0  0
    0.5633   -1.7840   -0.1708 H   0  0  0  0  0  0  0  0  0  0  0  0
   -0.1714    0.1069   -0.9579 C   0  0  0  0  0  0  0  0  0  0  0  0
    0.2276   -0.3016   -1.8921 H   0  0  0  0  0  0  0  0  0  0  0  0
   -1.1974    0.4299   -1.1644 H   0  0  0  0  0  0  0  0  0  0  0  0
    0.5793    1.4098   -0.6841 C   0  0  0  0  0  0  0  0  0  0  0  0
    0.5288    2.3657   -1.7166 C   0  0  0  0  0  0  0  0  0  0  0  0
   -0.0595    2.1667   -2.6076 H   0  0  0  0  0  0  0  0  0  0  0  0
    1.2118    3.5834   -1.6268 C   0  0  0  0  0  0  0  0  0  0  0  0
    1.1355    4.3017   -2.4355 H   0  0  0  0  0  0  0  0  0  0  0  0
    1.9899    3.8656   -0.5068 C   0  0  0  0  0  0  0  0  0  0  0  0
    2.6652    5.0475   -0.4041 O   0  0  0  0  0  0  0  0  0  0  0  0
    2.5242    5.5831   -1.1995 H   0  0  0  0  0  0  0  0  0  0  0  0
    2.0913    2.9190    0.5063 C   0  0  0  0  0  0  0  0  0  0  0  0
    2.7198    3.1294    1.3657 H   0  0  0  0  0  0  0  0  0  0  0  0
    1.4115    1.6987    0.4176 C   0  0  0  0  0  0  0  0  0  0  0  0
    1.5936    1.0042    1.2237 H   0  0  0  0  0  0  0  0  0  0  0  0
   -0.1794   -0.7385    1.5425 C   0  0  0  0  0  0  0  0  0  0  0  0
    0.8170   -1.0260    2.1940 O   0  0  0  0  0  0  0  0  0  0  0  0
   -1.2509   -0.1410    2.1838 N   0  0  0  0  0  0  0  0  0  0  0  0
   -2.0952   -0.0040    1.6399 H   0  0  0  0  0  0  0  0  0  0  0  0
   -1.2815    0.1119    3.6185 C   0  0  0  0  0  0  0  0  0  0  0  0
   -0.4563    0.7709    3.9083 H   0  0  0  0  0  0  0  0  0  0  0  0
   -2.2227    0.5942    3.8982 H   0  0  0  0  0  0  0  0  0  0  0  0
   -1.1943   -0.8280    4.1736 H   0  0  0  0  0  0  0  0  0  0  0  0
  1  2  1  0  0  0  0
  2  3  1  0  0  0  0
  2  4  1  0  0  0  0
  2  5  1  0  0  0  0
  5  6  2  0  0  0  0
  5  7  1  0  0  0  0
  7  8  1  0  0  0  0
  7  9  1  0  0  0  0
  9 10  1  0  0  0  0
  9 11  1  0  0  0  0
  9 26  1  0  0  0  0
 11 12  1  0  0  0  0
 11 13  1  0  0  0  0
 11 14  1  0  0  0  0
 14 15  2  0  0  0  0
 14 24  1  0  0  0  0
 15 16  1  0  0  0  0
 15 17  1  0  0  0  0
 17 18  1  0  0  0  0
 17 19  2  0  0  0  0
 19 20  1  0  0  0  0
 19 22  1  0  0  0  0
 20 21  1  0  0  0  0
 22 23  1  0  0  0  0
 22 24  2  0  0  0  0
 24 25  1  0  0  0  0
 26 27  2  0  0  0  0
 26 28  1  0  0  0  0
 28 29  1  0  0  0  0
 28 30  1  0  0  0  0
 30 31  1  0  0  0  0
 30 32  1  0  0  0  0
 30 33  1  0  0  0  0
M  END
$$$$

  -OEChem-03222214083D

 33 33  0     1  0  0  0  0  0999 V2000
   -3.4957   -4.4373    0.5632 H   0  0  0  0  0  0  0  0  0  0  0  0
   -3.3425   -3.5048    0.0123 C   0  0  0  0  0  0  0  0  0  0  0  0
   -4.1338   -2.8023    0.2842 H   0  0  0  0  0  0  0  0  0  0  0  0
   -3.4018   -3.7164   -1.0580 H   0  0  0  0  0  0  0  0  0  0  0  0
   -1.9860   -2.9162    0.3522 C   0  0  0  0  0  0  0  0  0  0  0  0
   -1.2637   -3.4902    1.1455 O   0  0  0  0  0  0  0  0  0  0  0  0
   -1.5764   -1.7482   -0.2642 N   0  0  0  0  0  0  0  0  0  0  0  0
   -2.1955   -1.3687   -0.9734 H   0  0  0  0  0  0  0  0  0  0  0  0
   -0.2751   -1.0809   -0.0333 C   0  0  1  0  0  0  0  0  0  0  0  0
    0.5541   -1.7567   -0.2702 H   0  0  0  0  0  0  0  0  0  0  0  0
   -0.2576    0.1248   -1.0186 C   0  0  0  0  0  0  0  0  0  0  0  0
    0.1134   -0.2480   -1.9789 H   0  0  0  0  0  0  0  0  0  0  0  0
   -1.2945    0.4390   -1.1766 H   0  0  0  0  0  0  0  0  0  0  0  0
    0.5069    1.4022   -0.6975 C   0  0  0  0  0  0  0  0  0  0  0  0
    0.2070    2.5430   -1.4640 C   0  0  0  0  0  0  0  0  0  0  0  0
   -0.6068    2.5142   -2.1825 H   0  0  0  0  0  0  0  0  0  0  0  0
    0.9240    3.7349   -1.3093 C   0  0  0  0  0  0  0  0  0  0  0  0
    0.6478    4.6051   -1.8944 H   0  0  0  0  0  0  0  0  0  0  0  0
    1.9929    3.7970   -0.4170 C   0  0  0  0  0  0  0  0  0  0  0  0
    2.7018    4.9524   -0.2561 O   0  0  0  0  0  0  0  0  0  0  0  0
    2.3277    5.6532   -0.8113 H   0  0  0  0  0  0  0  0  0  0  0  0
    2.3560    2.6562    0.2912 C   0  0  0  0  0  0  0  0  0  0  0  0
    3.2139    2.6938    0.9549 H   0  0  0  0  0  0  0  0  0  0  0  0
    1.6416    1.4635    0.1349 C   0  0  0  0  0  0  0  0  0  0  0  0
    2.0216    0.5914    0.6526 H   0  0  0  0  0  0  0  0  0  0  0  0
   -0.1455   -0.6892    1.4622 C   0  0  0  0  0  0  0  0  0  0  0  0
    0.8743   -0.9468    2.0893 O   0  0  0  0  0  0  0  0  0  0  0  0
   -1.2044   -0.0912    2.1238 N   0  0  0  0  0  0  0  0  0  0  0  0
   -2.0672    0.0221    1.6046 H   0  0  0  0  0  0  0  0  0  0  0  0
   -1.1919    0.1975    3.5520 C   0  0  0  0  0  0  0  0  0  0  0  0
   -0.3789    0.8898    3.7949 H   0  0  0  0  0  0  0  0  0  0  0  0
   -2.1380    0.6568    3.8535 H   0  0  0  0  0  0  0  0  0  0  0  0
   -1.0545   -0.7243    4.1274 H   0  0  0  0  0  0  0  0  0  0  0  0
  1  2  1  0  0  0  0
  2  3  1  0  0  0  0
  2  4  1  0  0  0  0
  2  5  1  0  0  0  0
  5  6  2  0  0  0  0
  5  7  1  0  0  0  0
  7  8  1  0  0  0  0
  7  9  1  0  0  0  0
  9 10  1  0  0  0  0
  9 11  1  0  0  0  0
  9 26  1  0  0  0  0
 11 12  1  0  0  0  0
 11 13  1  0  0  0  0
 11 14  1  0  0  0  0
 14 15  2  0  0  0  0
 14 24  1  0  0  0  0
 15 16  1  0  0  0  0
 15 17  1  0  0  0  0
 17 18  1  0  0  0  0
 17 19  2  0  0  0  0
 19 20  1  0  0  0  0
 19 22  1  0  0  0  0
 20 21  1  0  0  0  0
 22 23  1  0  0  0  0
 22 24  2  0  0  0  0
 24 25  1  0  0  0  0
 26 27  2  0  0  0  0
 26 28  1  0  0  0  0
 28 29  1  0  0  0  0
 28 30  1  0  0  0  0
 30 31  1  0  0  0  0
 30 32  1  0  0  0  0
 30 33  1  0  0  0  0
M  END
$$$$

  -OEChem-03222214083D

 33 33  0     1  0  0  0  0  0999 V2000
   -3.4668   -4.4680    0.6224 H   0  0  0  0  0  0  0  0  0  0  0  0
   -3.3292   -3.5477    0.0474 C   0  0  0  0  0  0  0  0  0  0  0  0
   -4.1367   -2.8548    0.2950 H   0  0  0  0  0  0  0  0  0  0  0  0
   -3.3772   -3.7896   -1.0170 H   0  0  0  0  0  0  0  0  0  0  0  0
   -1.9873   -2.9217    0.3785 C   0  0  0  0  0  0  0  0  0  0  0  0
   -1.2625   -3.4508    1.2004 O   0  0  0  0  0  0  0  0  0  0  0  0
   -1.5953   -1.7670   -0.2726 N   0  0  0  0  0  0  0  0  0  0  0  0
   -2.2108   -1.4283   -1.0052 H   0  0  0  0  0  0  0  0  0  0  0  0
   -0.3016   -1.0796   -0.0668 C   0  0  1  0  0  0  0  0  0  0  0  0
    0.5282   -1.7596   -0.2890 H   0  0  0  0  0  0  0  0  0  0  0  0
   -0.2804    0.0977   -1.0821 C   0  0  0  0  0  0  0  0  0  0  0  0
    0.1065   -0.2853   -2.0319 H   0  0  0  0  0  0  0  0  0  0  0  0
   -1.3146    0.4096   -1.2605 H   0  0  0  0  0  0  0  0  0  0  0  0
    0.4961    1.3563   -0.7321 C   0  0  0  0  0  0  0  0  0  0  0  0
    0.0523    2.5906   -1.2382 C   0  0  0  0  0  0  0  0  0  0  0  0
   -0.8760    2.6479   -1.7985 H   0  0  0  0  0  0  0  0  0  0  0  0
    0.7836    3.7647   -1.0218 C   0  0  0  0  0  0  0  0  0  0  0  0
    0.4078    4.7075   -1.4034 H   0  0  0  0  0  0  0  0  0  0  0  0
    1.9930    3.7192   -0.3281 C   0  0  0  0  0  0  0  0  0  0  0  0
    2.7157    4.8568   -0.1104 O   0  0  0  0  0  0  0  0  0  0  0  0
    2.2443    5.6251   -0.4663 H   0  0  0  0  0  0  0  0  0  0  0  0
    2.4753    2.4952    0.1257 C   0  0  0  0  0  0  0  0  0  0  0  0
    3.4281    2.4582    0.6437 H   0  0  0  0  0  0  0  0  0  0  0  0
    1.7480    1.3202   -0.0910 C   0  0  0  0  0  0  0  0  0  0  0  0
    2.1825    0.3813    0.2392 H   0  0  0  0  0  0  0  0  0  0  0  0
   -0.1436   -0.6344    1.4109 C   0  0  0  0  0  0  0  0  0  0  0  0
    0.9096   -0.8200    2.0078 O   0  0  0  0  0  0  0  0  0  0  0  0
   -1.1926   -0.0217    2.0743 N   0  0  0  0  0  0  0  0  0  0  0  0
   -2.0776    0.0351    1.5839 H   0  0  0  0  0  0  0  0  0  0  0  0
   -1.1322    0.3569    3.4800 C   0  0  0  0  0  0  0  0  0  0  0  0
   -0.3420    1.0976    3.6419 H   0  0  0  0  0  0  0  0  0  0  0  0
   -2.0845    0.7920    3.7969 H   0  0  0  0  0  0  0  0  0  0  0  0
   -0.9268   -0.5200    4.1032 H   0  0  0  0  0  0  0  0  0  0  0  0
  1  2  1  0  0  0  0
  2  3  1  0  0  0  0
  2  4  1  0  0  0  0
  2  5  1  0  0  0  0
  5  6  2  0  0  0  0
  5  7  1  0  0  0  0
  7  8  1  0  0  0  0
  7  9  1  0  0  0  0
  9 10  1  0  0  0  0
  9 11  1  0  0  0  0
  9 26  1  0  0  0  0
 11 12  1  0  0  0  0
 11 13  1  0  0  0  0
 11 14  1  0  0  0  0
 14 15  2  0  0  0  0
 14 24  1  0  0  0  0
 15 16  1  0  0  0  0
 15 17  1  0  0  0  0
 17 18  1  0  0  0  0
 17 19  2  0  0  0  0
 19 20  1  0  0  0  0
 19 22  1  0  0  0  0
 20 21  1  0  0  0  0
 22 23  1  0  0  0  0
 22 24  2  0  0  0  0
 24 25  1  0  0  0  0
 26 27  2  0  0  0  0
 26 28  1  0  0  0  0
 28 29  1  0  0  0  0
 28 30  1  0  0  0  0
 30 31  1  0  0  0  0
 30 32  1  0  0  0  0
 30 33  1  0  0  0  0
M  END
$$$$

  -OEChem-03222214083D

 33 33  0     1  0  0  0  0  0999 V2000
   -3.4253   -4.4955    0.6747 H   0  0  0  0  0  0  0  0  0  0  0  0
   -3.3107   -3.5848    0.0796 C   0  0  0  0  0  0  0  0  0  0  0  0
   -4.1303   -2.9032    0.3195 H   0  0  0  0  0  0  0  0  0  0  0  0
   -3.3615   -3.8492   -0.9793 H   0  0  0  0  0  0  0  0  0  0  0  0
   -1.9790   -2.9261    0.3874 C   0  0  0  0  0  0  0  0  0  0  0  0
   -1.2371   -3.4252    1.2129 O   0  0  0  0  0  0  0  0  0  0  0  0
   -1.6152   -1.7752   -0.2860 N   0  0  0  0  0  0  0  0  0  0  0  0
   -2.2411   -1.4614   -1.0210 H   0  0  0  0  0  0  0  0  0  0  0  0
   -0.3267   -1.0719   -0.1094 C   0  0  1  0  0  0  0  0  0  0  0  0
    0.4987   -1.7567   -0.3337 H   0  0  0  0  0  0  0  0  0  0  0  0
   -0.3085    0.0836   -1.1459 C   0  0  0  0  0  0  0  0  0  0  0  0
    0.0876   -0.3077   -2.0884 H   0  0  0  0  0  0  0  0  0  0  0  0
   -1.3406    0.3933   -1.3381 H   0  0  0  0  0  0  0  0  0  0  0  0
    0.4770    1.3280   -0.7783 C   0  0  0  0  0  0  0  0  0  0  0  0
   -0.0796    2.6001   -0.9936 C   0  0  0  0  0  0  0  0  0  0  0  0
   -1.0920    2.6987   -1.3734 H   0  0  0  0  0  0  0  0  0  0  0  0
    0.6564    3.7589   -0.7182 C   0  0  0  0  0  0  0  0  0  0  0  0
    0.2037    4.7309   -0.8802 H   0  0  0  0  0  0  0  0  0  0  0  0
    1.9661    3.6628   -0.2447 C   0  0  0  0  0  0  0  0  0  0  0  0
    2.6922    4.7859    0.0288 O   0  0  0  0  0  0  0  0  0  0  0  0
    2.1473    5.5759   -0.1047 H   0  0  0  0  0  0  0  0  0  0  0  0
    2.5384    2.4071   -0.0589 C   0  0  0  0  0  0  0  0  0  0  0  0
    3.5584    2.3355    0.3047 H   0  0  0  0  0  0  0  0  0  0  0  0
    1.8078    1.2467   -0.3349 C   0  0  0  0  0  0  0  0  0  0  0  0
    2.2824    0.2798   -0.1892 H   0  0  0  0  0  0  0  0  0  0  0  0
   -0.1219   -0.5957    1.3516 C   0  0  0  0  0  0  0  0  0  0  0  0
    0.9651   -0.7320    1.8993 O   0  0  0  0  0  0  0  0  0  0  0  0
   -1.1521    0.0236    2.0373 N   0  0  0  0  0  0  0  0  0  0  0  0
   -2.0586    0.0446    1.5851 H   0  0  0  0  0  0  0  0  0  0  0  0
   -1.0350    0.4642    3.4209 C   0  0  0  0  0  0  0  0  0  0  0  0
   -0.2412    1.2126    3.5168 H   0  0  0  0  0  0  0  0  0  0  0  0
   -1.9747    0.9123    3.7567 H   0  0  0  0  0  0  0  0  0  0  0  0
   -0.8015   -0.3834    4.0739 H   0  0  0  0  0  0  0  0  0  0  0  0
  1  2  1  0  0  0  0
  2  3  1  0  0  0  0
  2  4  1  0  0  0  0
  2  5  1  0  0  0  0
  5  6  2  0  0  0  0
  5  7  1  0  0  0  0
  7  8  1  0  0  0  0
  7  9  1  0  0  0  0
  9 10  1  0  0  0  0
  9 11  1  0  0  0  0
  9 26  1  0  0  0  0
 11 12  1  0  0  0  0
 11 13  1  0  0  0  0
 11 14  1  0  0  0  0
 14 15  2  0  0  0  0
 14 24  1  0  0  0  0
 15 16  1  0  0  0  0
 15 17  1  0  0  0  0
 17 18  1  0  0  0  0
 17 19  2  0  0  0  0
 19 20  1  0  0  0  0
 19 22  1  0  0  0  0
 20 21  1  0  0  0  0
 22 23  1  0  0  0  0
 22 24  2  0  0  0  0
 24 25  1  0  0  0  0
 26 27  2  0  0  0  0
 26 28  1  0  0  0  0
 28 29  1  0  0  0  0
 28 30  1  0  0  0  0
 30 31  1  0  0  0  0
 30 32  1  0  0  0  0
 30 33  1  0  0  0  0
M  END
$$$$

  -OEChem-03222214083D

 33 33  0     1  0  0  0  0  0999 V2000
   -3.3914   -4.5157    0.7038 H   0  0  0  0  0  0  0  0  0  0  0  0
   -3.2942   -3.6096    0.0986 C   0  0  0  0  0  0  0  0  0  0  0  0
   -4.1247   -2.9399    0.3336 H   0  0  0  0  0  0  0  0  0  0  0  0
   -3.3435   -3.8864   -0.9572 H   0  0  0  0  0  0  0  0  0  0  0  0
   -1.9735   -2.9234    0.3952 C   0  0  0  0  0  0  0  0  0  0  0  0
   -1.2232   -3.3955    1.2291 O   0  0  0  0  0  0  0  0  0  0  0  0
   -1.6301   -1.7760   -0.2949 N   0  0  0  0  0  0  0  0  0  0  0  0
   -2.2605   -1.4851   -1.0356 H   0  0  0  0  0  0  0  0  0  0  0  0
   -0.3458   -1.0605   -0.1425 C   0  0  1  0  0  0  0  0  0  0  0  0
    0.4769   -1.7478   -0.3683 H   0  0  0  0  0  0  0  0  0  0  0  0
   -0.3320    0.0776   -1.1950 C   0  0  0  0  0  0  0  0  0  0  0  0
    0.0675   -0.3206   -2.1331 H   0  0  0  0  0  0  0  0  0  0  0  0
   -1.3622    0.3889   -1.3951 H   0  0  0  0  0  0  0  0  0  0  0  0
    0.4598    1.3119   -0.8160 C   0  0  0  0  0  0  0  0  0  0  0  0
   -0.1674    2.5654   -0.7263 C   0  0  0  0  0  0  0  0  0  0  0  0
   -1.2345    2.6589   -0.9024 H   0  0  0  0  0  0  0  0  0  0  0  0
    0.5730    3.7101   -0.4075 C   0  0  0  0  0  0  0  0  0  0  0  0
    0.0717    4.6691   -0.3391 H   0  0  0  0  0  0  0  0  0  0  0  0
    1.9477    3.6170   -0.1813 C   0  0  0  0  0  0  0  0  0  0  0  0
    2.6785    4.7275    0.1295 O   0  0  0  0  0  0  0  0  0  0  0  0
    2.0971    5.4995    0.1997 H   0  0  0  0  0  0  0  0  0  0  0  0
    2.5782    2.3786   -0.2762 C   0  0  0  0  0  0  0  0  0  0  0  0
    3.6453    2.3102   -0.0917 H   0  0  0  0  0  0  0  0  0  0  0  0
    1.8439    1.2318   -0.5963 C   0  0  0  0  0  0  0  0  0  0  0  0
    2.3534    0.2739   -0.6545 H   0  0  0  0  0  0  0  0  0  0  0  0
   -0.1051   -0.5601    1.3041 C   0  0  0  0  0  0  0  0  0  0  0  0
    1.0053   -0.6575    1.8112 O   0  0  0  0  0  0  0  0  0  0  0  0
   -1.1196    0.0647    2.0082 N   0  0  0  0  0  0  0  0  0  0  0  0
   -2.0442    0.0472    1.5939 H   0  0  0  0  0  0  0  0  0  0  0  0
   -0.9619    0.5338    3.3786 C   0  0  0  0  0  0  0  0  0  0  0  0
   -0.1621    1.2798    3.4372 H   0  0  0  0  0  0  0  0  0  0  0  0
   -1.8895    0.9944    3.7314 H   0  0  0  0  0  0  0  0  0  0  0  0
   -0.7139   -0.3011    4.0426 H   0  0  0  0  0  0  0  0  0  0  0  0
  1  2  1  0  0  0  0
  2  3  1  0  0  0  0
  2  4  1  0  0  0  0
  2  5  1  0  0  0  0
  5  6  2  0  0  0  0
  5  7  1  0  0  0  0
  7  8  1  0  0  0  0
  7  9  1  0  0  0  0
  9 10  1  0  0  0  0
  9 11  1  0  0  0  0
  9 26  1  0  0  0  0
 11 12  1  0  0  0  0
 11 13  1  0  0  0  0
 11 14  1  0  0  0  0
 14 15  2  0  0  0  0
 14 24  1  0  0  0  0
 15 16  1  0  0  0  0
 15 17  1  0  0  0  0
 17 18  1  0  0  0  0
 17 19  2  0  0  0  0
 19 20  1  0  0  0  0
 19 22  1  0  0  0  0
 20 21  1  0  0  0  0
 22 23  1  0  0  0  0
 22 24  2  0  0  0  0
 24 25  1  0  0  0  0
 26 27  2  0  0  0  0
 26 28  1  0  0  0  0
 28 29  1  0  0  0  0
 28 30  1  0  0  0  0
 30 31  1  0  0  0  0
 30 32  1  0  0  0  0
 30 33  1  0  0  0  0
M  END
$$$$

  -OEChem-03222214083D

 33 33  0     1  0  0  0  0  0999 V2000
   -3.3657   -4.5211    0.7293 H   0  0  0  0  0  0  0  0  0  0  0  0
   -3.2803   -3.6190    0.1166 C   0  0  0  0  0  0  0  0  0  0  0  0
   -4.1175   -2.9564    0.3486 H   0  0  0  0  0  0  0  0  0  0  0  0
   -3.3294   -3.9053   -0.9366 H   0  0  0  0  0  0  0  0  0  0  0  0
   -1.9662   -2.9168    0.4032 C   0  0  0  0  0  0  0  0  0  0  0  0
   -1.2115   -3.3699    1.2436 O   0  0  0  0  0  0  0  0  0  0  0  0
   -1.6368   -1.7725   -0.2984 N   0  0  0  0  0  0  0  0  0  0  0  0
   -2.2696   -1.4986   -1.0436 H   0  0  0  0  0  0  0  0  0  0  0  0
   -0.3545   -1.0502   -0.1643 C   0  0  1  0  0  0  0  0  0  0  0  0
    0.4681   -1.7373   -0.3918 H   0  0  0  0  0  0  0  0  0  0  0  0
   -0.3469    0.0779   -1.2259 C   0  0  0  0  0  0  0  0  0  0  0  0
    0.0469   -0.3258   -2.1643 H   0  0  0  0  0  0  0  0  0  0  0  0
   -1.3761    0.3945   -1.4230 H   0  0  0  0  0  0  0  0  0  0  0  0
    0.4492    1.3063   -0.8448 C   0  0  0  0  0  0  0  0  0  0  0  0
   -0.1958    2.4889   -0.4487 C   0  0  0  0  0  0  0  0  0  0  0  0
   -1.2794    2.5329   -0.4036 H   0  0  0  0  0  0  0  0  0  0  0  0
    0.5498    3.6224   -0.1033 C   0  0  0  0  0  0  0  0  0  0  0  0
    0.0359    4.5271    0.2014 H   0  0  0  0  0  0  0  0  0  0  0  0
    1.9450    3.5858   -0.1496 C   0  0  0  0  0  0  0  0  0  0  0  0
    2.6813    4.6856    0.1855 O   0  0  0  0  0  0  0  0  0  0  0  0
    2.0977    5.3935    0.4974 H   0  0  0  0  0  0  0  0  0  0  0  0
    2.5907    2.4142   -0.5388 C   0  0  0  0  0  0  0  0  0  0  0  0
    3.6751    2.3895   -0.5621 H   0  0  0  0  0  0  0  0  0  0  0  0
    1.8510    1.2781   -0.8839 C   0  0  0  0  0  0  0  0  0  0  0  0
    2.3728    0.3690   -1.1684 H   0  0  0  0  0  0  0  0  0  0  0  0
   -0.0961   -0.5375    1.2743 C   0  0  0  0  0  0  0  0  0  0  0  0
    1.0268   -0.6032    1.7578 O   0  0  0  0  0  0  0  0  0  0  0  0
   -1.1055    0.0883    1.9855 N   0  0  0  0  0  0  0  0  0  0  0  0
   -2.0418    0.0204    1.6037 H   0  0  0  0  0  0  0  0  0  0  0  0
   -0.9285    0.5707    3.3485 C   0  0  0  0  0  0  0  0  0  0  0  0
   -0.1218    1.3104    3.3897 H   0  0  0  0  0  0  0  0  0  0  0  0
   -1.8482    1.0432    3.7063 H   0  0  0  0  0  0  0  0  0  0  0  0
   -0.6800   -0.2599    4.0175 H   0  0  0  0  0  0  0  0  0  0  0  0
  1  2  1  0  0  0  0
  2  3  1  0  0  0  0
  2  4  1  0  0  0  0
  2  5  1  0  0  0  0
  5  6  2  0  0  0  0
  5  7  1  0  0  0  0
  7  8  1  0  0  0  0
  7  9  1  0  0  0  0
  9 10  1  0  0  0  0
  9 11  1  0  0  0  0
  9 26  1  0  0  0  0
 11 12  1  0  0  0  0
 11 13  1  0  0  0  0
 11 14  1  0  0  0  0
 14 15  2  0  0  0  0
 14 24  1  0  0  0  0
 15 16  1  0  0  0  0
 15 17  1  0  0  0  0
 17 18  1  0  0  0  0
 17 19  2  0  0  0  0
 19 20  1  0  0  0  0
 19 22  1  0  0  0  0
 20 21  1  0  0  0  0
 22 23  1  0  0  0  0
 22 24  2  0  0  0  0
 24 25  1  0  0  0  0
 26 27  2  0  0  0  0
 26 28  1  0  0  0  0
 28 29  1  0  0  0  0
 28 30  1  0  0  0  0
 30 31  1  0  0  0  0
 30 32  1  0  0  0  0
 30 33  1  0  0  0  0
M  END
$$$$

  -OEChem-03222214083D

 33 33  0     1  0  0  0  0  0999 V2000
   -3.3573   -4.5264    0.7238 H   0  0  0  0  0  0  0  0  0  0  0  0
   -3.2765   -3.6213    0.1149 C   0  0  0  0  0  0  0  0  0  0  0  0
   -4.1172   -2.9641    0.3495 H   0  0  0  0  0  0  0  0  0  0  0  0
   -3.3243   -3.9035   -0.9396 H   0  0  0  0  0  0  0  0  0  0  0  0
   -1.9665   -2.9124    0.4048 C   0  0  0  0  0  0  0  0  0  0  0  0
   -1.2121   -3.3604    1.2482 O   0  0  0  0  0  0  0  0  0  0  0  0
   -1.6428   -1.7637   -0.2925 N   0  0  0  0  0  0  0  0  0  0  0  0
   -2.2750   -1.4929   -1.0395 H   0  0  0  0  0  0  0  0  0  0  0  0
   -0.3614   -1.0390   -0.1620 C   0  0  1  0  0  0  0  0  0  0  0  0
    0.4590   -1.7293   -0.3876 H   0  0  0  0  0  0  0  0  0  0  0  0
   -0.3448    0.0809   -1.2328 C   0  0  0  0  0  0  0  0  0  0  0  0
    0.0427   -0.3349   -2.1686 H   0  0  0  0  0  0  0  0  0  0  0  0
   -1.3717    0.4043   -1.4316 H   0  0  0  0  0  0  0  0  0  0  0  0
    0.4504    1.3134   -0.8636 C   0  0  0  0  0  0  0  0  0  0  0  0
   -0.1522    2.3909   -0.1944 C   0  0  0  0  0  0  0  0  0  0  0  0
   -1.2054    2.3527    0.0657 H   0  0  0  0  0  0  0  0  0  0  0  0
    0.5981    3.5207    0.1516 C   0  0  0  0  0  0  0  0  0  0  0  0
    0.1170    4.3426    0.6699 H   0  0  0  0  0  0  0  0  0  0  0  0
    1.9562    3.5854   -0.1661 C   0  0  0  0  0  0  0  0  0  0  0  0
    2.6969    4.6821    0.1680 O   0  0  0  0  0  0  0  0  0  0  0  0
    2.1656    5.2891    0.7051 H   0  0  0  0  0  0  0  0  0  0  0  0
    2.5610    2.5178   -0.8259 C   0  0  0  0  0  0  0  0  0  0  0  0
    3.6191    2.5711   -1.0597 H   0  0  0  0  0  0  0  0  0  0  0  0
    1.8170    1.3844   -1.1708 C   0  0  0  0  0  0  0  0  0  0  0  0
    2.3108    0.5557   -1.6697 H   0  0  0  0  0  0  0  0  0  0  0  0
   -0.0975   -0.5337    1.2782 C   0  0  0  0  0  0  0  0  0  0  0  0
    1.0326   -0.5743    1.7473 O   0  0  0  0  0  0  0  0  0  0  0  0
   -1.1074    0.0845    1.9963 N   0  0  0  0  0  0  0  0  0  0  0  0
   -2.0485   -0.0262    1.6360 H   0  0  0  0  0  0  0  0  0  0  0  0
   -0.9262    0.5533    3.3639 C   0  0  0  0  0  0  0  0  0  0  0  0
   -0.1193    1.2924    3.4111 H   0  0  0  0  0  0  0  0  0  0  0  0
   -1.8446    1.0226    3.7287 H   0  0  0  0  0  0  0  0  0  0  0  0
   -0.6762   -0.2838    4.0243 H   0  0  0  0  0  0  0  0  0  0  0  0
  1  2  1  0  0  0  0
  2  3  1  0  0  0  0
  2  4  1  0  0  0  0
  2  5  1  0  0  0  0
  5  6  2  0  0  0  0
  5  7  1  0  0  0  0
  7  8  1  0  0  0  0
  7  9  1  0  0  0  0
  9 10  1  0  0  0  0
  9 11  1  0  0  0  0
  9 26  1  0  0  0  0
 11 12  1  0  0  0  0
 11 13  1  0  0  0  0
 11 14  1  0  0  0  0
 14 15  2  0  0  0  0
 14 24  1  0  0  0  0
 15 16  1  0  0  0  0
 15 17  1  0  0  0  0
 17 18  1  0  0  0  0
 17 19  2  0  0  0  0
 19 20  1  0  0  0  0
 19 22  1  0  0  0  0
 20 21  1  0  0  0  0
 22 23  1  0  0  0  0
 22 24  2  0  0  0  0
 24 25  1  0  0  0  0
 26 27  2  0  0  0  0
 26 28  1  0  0  0  0
 28 29  1  0  0  0  0
 28 30  1  0  0  0  0
 30 31  1  0  0  0  0
 30 32  1  0  0  0  0
 30 33  1  0  0  0  0
M  END
$$$$

  -OEChem-03222214083D

 33 33  0     1  0  0  0  0  0999 V2000
   -3.3587   -4.5423    0.6779 H   0  0  0  0  0  0  0  0  0  0  0  0
   -3.2794   -3.6263    0.0851 C   0  0  0  0  0  0  0  0  0  0  0  0
   -4.1242   -2.9773    0.3275 H   0  0  0  0  0  0  0  0  0  0  0  0
   -3.3213   -3.8905   -0.9744 H   0  0  0  0  0  0  0  0  0  0  0  0
   -1.9737   -2.9168    0.3925 C   0  0  0  0  0  0  0  0  0  0  0  0
   -1.2201   -3.3783    1.2294 O   0  0  0  0  0  0  0  0  0  0  0  0
   -1.6527   -1.7518   -0.2788 N   0  0  0  0  0  0  0  0  0  0  0  0
   -2.2844   -1.4671   -1.0214 H   0  0  0  0  0  0  0  0  0  0  0  0
   -0.3722   -1.0272   -0.1331 C   0  0  1  0  0  0  0  0  0  0  0  0
    0.4450   -1.7223   -0.3563 H   0  0  0  0  0  0  0  0  0  0  0  0
   -0.3276    0.0886   -1.2107 C   0  0  0  0  0  0  0  0  0  0  0  0
    0.0588   -0.3450   -2.1389 H   0  0  0  0  0  0  0  0  0  0  0  0
   -1.3509    0.4162   -1.4197 H   0  0  0  0  0  0  0  0  0  0  0  0
    0.4592    1.3383   -0.8686 C   0  0  0  0  0  0  0  0  0  0  0  0
   -0.0354    2.3054    0.0229 C   0  0  0  0  0  0  0  0  0  0  0  0
   -1.0153    2.1847    0.4726 H   0  0  0  0  0  0  0  0  0  0  0  0
    0.7231    3.4382    0.3402 C   0  0  0  0  0  0  0  0  0  0  0  0
    0.3234    4.1709    1.0323 H   0  0  0  0  0  0  0  0  0  0  0  0
    1.9847    3.6198   -0.2292 C   0  0  0  0  0  0  0  0  0  0  0  0
    2.7327    4.7208    0.0732 O   0  0  0  0  0  0  0  0  0  0  0  0
    2.3001    5.2317    0.7741 H   0  0  0  0  0  0  0  0  0  0  0  0
    2.4850    2.6657   -1.1119 C   0  0  0  0  0  0  0  0  0  0  0  0
    3.4703    2.8099   -1.5432 H   0  0  0  0  0  0  0  0  0  0  0  0
    1.7326    1.5292   -1.4275 C   0  0  0  0  0  0  0  0  0  0  0  0
    2.1515    0.7912   -2.1051 H   0  0  0  0  0  0  0  0  0  0  0  0
   -0.1136   -0.5568    1.3192 C   0  0  0  0  0  0  0  0  0  0  0  0
    1.0190   -0.5826    1.7827 O   0  0  0  0  0  0  0  0  0  0  0  0
   -1.1280    0.0394    2.0497 N   0  0  0  0  0  0  0  0  0  0  0  0
   -2.0689   -0.0883    1.6941 H   0  0  0  0  0  0  0  0  0  0  0  0
   -0.9508    0.4764    3.4284 C   0  0  0  0  0  0  0  0  0  0  0  0
   -0.1511    1.2219    3.4931 H   0  0  0  0  0  0  0  0  0  0  0  0
   -1.8735    0.9278    3.8049 H   0  0  0  0  0  0  0  0  0  0  0  0
   -0.6922   -0.3736    4.0686 H   0  0  0  0  0  0  0  0  0  0  0  0
  1  2  1  0  0  0  0
  2  3  1  0  0  0  0
  2  4  1  0  0  0  0
  2  5  1  0  0  0  0
  5  6  2  0  0  0  0
  5  7  1  0  0  0  0
  7  8  1  0  0  0  0
  7  9  1  0  0  0  0
  9 10  1  0  0  0  0
  9 11  1  0  0  0  0
  9 26  1  0  0  0  0
 11 12  1  0  0  0  0
 11 13  1  0  0  0  0
 11 14  1  0  0  0  0
 14 15  2  0  0  0  0
 14 24  1  0  0  0  0
 15 16  1  0  0  0  0
 15 17  1  0  0  0  0
 17 18  1  0  0  0  0
 17 19  2  0  0  0  0
 19 20  1  0  0  0  0
 19 22  1  0  0  0  0
 20 21  1  0  0  0  0
 22 23  1  0  0  0  0
 22 24  2  0  0  0  0
 24 25  1  0  0  0  0
 26 27  2  0  0  0  0
 26 28  1  0  0  0  0
 28 29  1  0  0  0  0
 28 30  1  0  0  0  0
 30 31  1  0  0  0  0
 30 32  1  0  0  0  0
 30 33  1  0  0  0  0
M  END
$$$$

  -OEChem-03222214083D

 33 33  0     1  0  0  0  0  0999 V2000
   -3.3659   -4.5557    0.5963 H   0  0  0  0  0  0  0  0  0  0  0  0
   -3.2839   -3.6208    0.0340 C   0  0  0  0  0  0  0  0  0  0  0  0
   -4.1277   -2.9783    0.2960 H   0  0  0  0  0  0  0  0  0  0  0  0
   -3.3252   -3.8496   -1.0336 H   0  0  0  0  0  0  0  0  0  0  0  0
   -1.9773   -2.9249    0.3667 C   0  0  0  0  0  0  0  0  0  0  0  0
   -1.2240   -3.4169    1.1864 O   0  0  0  0  0  0  0  0  0  0  0  0
   -1.6556   -1.7365   -0.2614 N   0  0  0  0  0  0  0  0  0  0  0  0
   -2.2938   -1.4179   -0.9843 H   0  0  0  0  0  0  0  0  0  0  0  0
   -0.3791   -1.0118   -0.0844 C   0  0  1  0  0  0  0  0  0  0  0  0
    0.4372   -1.7097   -0.3021 H   0  0  0  0  0  0  0  0  0  0  0  0
   -0.2972    0.1011   -1.1673 C   0  0  0  0  0  0  0  0  0  0  0  0
    0.1008   -0.3545   -2.0797 H   0  0  0  0  0  0  0  0  0  0  0  0
   -1.3168    0.4241   -1.3994 H   0  0  0  0  0  0  0  0  0  0  0  0
    0.4728    1.3764   -0.8627 C   0  0  0  0  0  0  0  0  0  0  0  0
    0.1422    2.2432    0.1939 C   0  0  0  0  0  0  0  0  0  0  0  0
   -0.7286    2.0590    0.8107 H   0  0  0  0  0  0  0  0  0  0  0  0
    0.9124    3.3816    0.4580 C   0  0  0  0  0  0  0  0  0  0  0  0
    0.6357    4.0322    1.2799 H   0  0  0  0  0  0  0  0  0  0  0  0
    2.0253    3.6752   -0.3298 C   0  0  0  0  0  0  0  0  0  0  0  0
    2.7843    4.7813   -0.0782 O   0  0  0  0  0  0  0  0  0  0  0  0
    2.4928    5.2006    0.7458 H   0  0  0  0  0  0  0  0  0  0  0  0
    2.3629    2.8290   -1.3819 C   0  0  0  0  0  0  0  0  0  0  0  0
    3.2329    3.0601   -1.9876 H   0  0  0  0  0  0  0  0  0  0  0  0
    1.5983    1.6873   -1.6451 C   0  0  0  0  0  0  0  0  0  0  0  0
    1.8971    1.0366   -2.4614 H   0  0  0  0  0  0  0  0  0  0  0  0
   -0.1396   -0.5947    1.3869 C   0  0  0  0  0  0  0  0  0  0  0  0
    0.9907   -0.6105    1.8558 O   0  0  0  0  0  0  0  0  0  0  0  0
   -1.1651   -0.0329    2.1295 N   0  0  0  0  0  0  0  0  0  0  0  0
   -2.1018   -0.1600    1.7620 H   0  0  0  0  0  0  0  0  0  0  0  0
   -1.0060    0.3444    3.5284 C   0  0  0  0  0  0  0  0  0  0  0  0
   -0.2169    1.0961    3.6352 H   0  0  0  0  0  0  0  0  0  0  0  0
   -1.9381    0.7668    3.9151 H   0  0  0  0  0  0  0  0  0  0  0  0
   -0.7425   -0.5304    4.1323 H   0  0  0  0  0  0  0  0  0  0  0  0
  1  2  1  0  0  0  0
  2  3  1  0  0  0  0
  2  4  1  0  0  0  0
  2  5  1  0  0  0  0
  5  6  2  0  0  0  0
  5  7  1  0  0  0  0
  7  8  1  0  0  0  0
  7  9  1  0  0  0  0
  9 10  1  0  0  0  0
  9 11  1  0  0  0  0
  9 26  1  0  0  0  0
 11 12  1  0  0  0  0
 11 13  1  0  0  0  0
 11 14  1  0  0  0  0
 14 15  2  0  0  0  0
 14 24  1  0  0  0  0
 15 16  1  0  0  0  0
 15 17  1  0  0  0  0
 17 18  1  0  0  0  0
 17 19  2  0  0  0  0
 19 20  1  0  0  0  0
 19 22  1  0  0  0  0
 20 21  1  0  0  0  0
 22 23  1  0  0  0  0
 22 24  2  0  0  0  0
 24 25  1  0  0  0  0
 26 27  2  0  0  0  0
 26 28  1  0  0  0  0
 28 29  1  0  0  0  0
 28 30  1  0  0  0  0
 30 31  1  0  0  0  0
 30 32  1  0  0  0  0
 30 33  1  0  0  0  0
M  END
$$$$

  -OEChem-03222214083D

 33 33  0     1  0  0  0  0  0999 V2000
   -3.4099   -4.5388    0.5016 H   0  0  0  0  0  0  0  0  0  0  0  0
   -3.3052   -3.5881   -0.0293 C   0  0  0  0  0  0  0  0  0  0  0  0
   -4.1396   -2.9384    0.2455 H   0  0  0  0  0  0  0  0  0  0  0  0
   -3.3399   -3.7813   -1.1042 H   0  0  0  0  0  0  0  0  0  0  0  0
   -1.9893   -2.9281    0.3385 C   0  0  0  0  0  0  0  0  0  0  0  0
   -1.2535   -3.4599    1.1492 O   0  0  0  0  0  0  0  0  0  0  0  0
   -1.6401   -1.7256   -0.2475 N   0  0  0  0  0  0  0  0  0  0  0  0
   -2.2655   -1.3720   -0.9654 H   0  0  0  0  0  0  0  0  0  0  0  0
   -0.3586   -1.0206   -0.0253 C   0  0  1  0  0  0  0  0  0  0  0  0
    0.4561   -1.7215   -0.2406 H   0  0  0  0  0  0  0  0  0  0  0  0
   -0.2450    0.1129   -1.0876 C   0  0  0  0  0  0  0  0  0  0  0  0
    0.1570   -0.3502   -1.9947 H   0  0  0  0  0  0  0  0  0  0  0  0
   -1.2608    0.4399   -1.3292 H   0  0  0  0  0  0  0  0  0  0  0  0
    0.5184    1.4063   -0.8121 C   0  0  0  0  0  0  0  0  0  0  0  0
    0.4267    2.1708    0.3670 C   0  0  0  0  0  0  0  0  0  0  0  0
   -0.2544    1.9117    1.1644 H   0  0  0  0  0  0  0  0  0  0  0  0
    1.1959    3.3272    0.5419 C   0  0  0  0  0  0  0  0  0  0  0  0
    1.1034    3.8906    1.4639 H   0  0  0  0  0  0  0  0  0  0  0  0
    2.0696    3.7504   -0.4578 C   0  0  0  0  0  0  0  0  0  0  0  0
    2.8246    4.8756   -0.2944 O   0  0  0  0  0  0  0  0  0  0  0  0
    2.7100    5.2217    0.6040 H   0  0  0  0  0  0  0  0  0  0  0  0
    2.1690    3.0143   -1.6334 C   0  0  0  0  0  0  0  0  0  0  0  0
    2.8519    3.3463   -2.4084 H   0  0  0  0  0  0  0  0  0  0  0  0
    1.4055    1.8556   -1.8086 C   0  0  0  0  0  0  0  0  0  0  0  0
    1.5184    1.3005   -2.7350 H   0  0  0  0  0  0  0  0  0  0  0  0
   -0.1654   -0.6595    1.4662 C   0  0  0  0  0  0  0  0  0  0  0  0
    0.9481   -0.6969    1.9723 O   0  0  0  0  0  0  0  0  0  0  0  0
   -1.2132   -0.1157    2.1921 N   0  0  0  0  0  0  0  0  0  0  0  0
   -2.1354   -0.2114    1.7807 H   0  0  0  0  0  0  0  0  0  0  0  0
   -1.1104    0.1796    3.6158 C   0  0  0  0  0  0  0  0  0  0  0  0
   -0.3143    0.9087    3.8006 H   0  0  0  0  0  0  0  0  0  0  0  0
   -2.0517    0.5976    3.9847 H   0  0  0  0  0  0  0  0  0  0  0  0
   -0.8899   -0.7331    4.1797 H   0  0  0  0  0  0  0  0  0  0  0  0
  1  2  1  0  0  0  0
  2  3  1  0  0  0  0
  2  4  1  0  0  0  0
  2  5  1  0  0  0  0
  5  6  2  0  0  0  0
  5  7  1  0  0  0  0
  7  8  1  0  0  0  0
  7  9  1  0  0  0  0
  9 10  1  0  0  0  0
  9 11  1  0  0  0  0
  9 26  1  0  0  0  0
 11 12  1  0  0  0  0
 11 13  1  0  0  0  0
 11 14  1  0  0  0  0
 14 15  2  0  0  0  0
 14 24  1  0  0  0  0
 15 16  1  0  0  0  0
 15 17  1  0  0  0  0
 17 18  1  0  0  0  0
 17 19  2  0  0  0  0
 19 20  1  0  0  0  0
 19 22  1  0  0  0  0
 20 21  1  0  0  0  0
 22 23  1  0  0  0  0
 22 24  2  0  0  0  0
 24 25  1  0  0  0  0
 26 27  2  0  0  0  0
 26 28  1  0  0  0  0
 28 29  1  0  0  0  0
 28 30  1  0  0  0  0
 30 31  1  0  0  0  0
 30 32  1  0  0  0  0
 30 33  1  0  0  0  0
M  END
$$$$

  -OEChem-03222214083D

 33 33  0     1  0  0  0  0  0999 V2000
   -3.5076   -4.4767    0.4115 H   0  0  0  0  0  0  0  0  0  0  0  0
   -3.3527   -3.5231   -0.1012 C   0  0  0  0  0  0  0  0  0  0  0  0
   -4.1684   -2.8460    0.1630 H   0  0  0  0  0  0  0  0  0  0  0  0
   -3.3671   -3.6984   -1.1796 H   0  0  0  0  0  0  0  0  0  0  0  0
   -2.0222   -2.9204    0.3096 C   0  0  0  0  0  0  0  0  0  0  0  0
   -1.3227   -3.4975    1.1214 O   0  0  0  0  0  0  0  0  0  0  0  0
   -1.6156   -1.7217   -0.2460 N   0  0  0  0  0  0  0  0  0  0  0  0
   -2.2124   -1.3325   -0.9694 H   0  0  0  0  0  0  0  0  0  0  0  0
   -0.3175   -1.0625    0.0208 C   0  0  1  0  0  0  0  0  0  0  0  0
    0.4898   -1.7709   -0.1978 H   0  0  0  0  0  0  0  0  0  0  0  0
   -0.1884    0.1029   -1.0071 C   0  0  0  0  0  0  0  0  0  0  0  0
    0.2098   -0.3504   -1.9207 H   0  0  0  0  0  0  0  0  0  0  0  0
   -1.2027    0.4413   -1.2414 H   0  0  0  0  0  0  0  0  0  0  0  0
    0.5814    1.4000   -0.7475 C   0  0  0  0  0  0  0  0  0  0  0  0
    0.7774    2.0399    0.4950 C   0  0  0  0  0  0  0  0  0  0  0  0
    0.3644    1.6704    1.4213 H   0  0  0  0  0  0  0  0  0  0  0  0
    1.5161    3.2257    0.5901 C   0  0  0  0  0  0  0  0  0  0  0  0
    1.6507    3.6876    1.5620 H   0  0  0  0  0  0  0  0  0  0  0  0
    2.0710    3.8075   -0.5473 C   0  0  0  0  0  0  0  0  0  0  0  0
    2.7937    4.9622   -0.4604 O   0  0  0  0  0  0  0  0  0  0  0  0
    2.8961    5.2178    0.4694 H   0  0  0  0  0  0  0  0  0  0  0  0
    1.8808    3.2008   -1.7827 C   0  0  0  0  0  0  0  0  0  0  0  0
    2.3120    3.6572   -2.6676 H   0  0  0  0  0  0  0  0  0  0  0  0
    1.1477    2.0144   -1.8813 C   0  0  0  0  0  0  0  0  0  0  0  0
    1.0246    1.5684   -2.8638 H   0  0  0  0  0  0  0  0  0  0  0  0
   -0.1644   -0.7362    1.5224 C   0  0  0  0  0  0  0  0  0  0  0  0
    0.9247   -0.8388    2.0716 O   0  0  0  0  0  0  0  0  0  0  0  0
   -1.2190   -0.1713    2.2209 N   0  0  0  0  0  0  0  0  0  0  0  0
   -2.1234   -0.1986    1.7626 H   0  0  0  0  0  0  0  0  0  0  0  0
   -1.1689    0.0807    3.6556 C   0  0  0  0  0  0  0  0  0  0  0  0
   -0.3459    0.7609    3.8988 H   0  0  0  0  0  0  0  0  0  0  0  0
   -2.1039    0.5383    3.9922 H   0  0  0  0  0  0  0  0  0  0  0  0
   -1.0238   -0.8570    4.2026 H   0  0  0  0  0  0  0  0  0  0  0  0
  1  2  1  0  0  0  0
  2  3  1  0  0  0  0
  2  4  1  0  0  0  0
  2  5  1  0  0  0  0
  5  6  2  0  0  0  0
  5  7  1  0  0  0  0
  7  8  1  0  0  0  0
  7  9  1  0  0  0  0
  9 10  1  0  0  0  0
  9 11  1  0  0  0  0
  9 26  1  0  0  0  0
 11 12  1  0  0  0  0
 11 13  1  0  0  0  0
 11 14  1  0  0  0  0
 14 15  2  0  0  0  0
 14 24  1  0  0  0  0
 15 16  1  0  0  0  0
 15 17  1  0  0  0  0
 17 18  1  0  0  0  0
 17 19  2  0  0  0  0
 19 20  1  0  0  0  0
 19 22  1  0  0  0  0
 20 21  1  0  0  0  0
 22 23  1  0  0  0  0
 22 24  2  0  0  0  0
 24 25  1  0  0  0  0
 26 27  2  0  0  0  0
 26 28  1  0  0  0  0
 28 29  1  0  0  0  0
 28 30  1  0  0  0  0
 30 31  1  0  0  0  0
 30 32  1  0  0  0  0
 30 33  1  0  0  0  0
M  END
$$$$

  -OEChem-03222214083D

 33 33  0     1  0  0  0  0  0999 V2000
   -3.5986   -4.4036    0.3806 H   0  0  0  0  0  0  0  0  0  0  0  0
   -3.4070   -3.4534   -0.1263 C   0  0  0  0  0  0  0  0  0  0  0  0
   -4.1971   -2.7473    0.1401 H   0  0  0  0  0  0  0  0  0  0  0  0
   -3.4249   -3.6221   -1.2057 H   0  0  0  0  0  0  0  0  0  0  0  0
   -2.0557   -2.9038    0.2914 C   0  0  0  0  0  0  0  0  0  0  0  0
   -1.3773   -3.5168    1.0946 O   0  0  0  0  0  0  0  0  0  0  0  0
   -1.6043   -1.7168   -0.2547 N   0  0  0  0  0  0  0  0  0  0  0  0
   -2.1907   -1.2937   -0.9677 H   0  0  0  0  0  0  0  0  0  0  0  0
   -0.2901   -1.0988    0.0319 C   0  0  1  0  0  0  0  0  0  0  0  0
    0.5063   -1.8173   -0.1933 H   0  0  0  0  0  0  0  0  0  0  0  0
   -0.1542    0.0863   -0.9738 C   0  0  0  0  0  0  0  0  0  0  0  0
    0.2359   -0.3544   -1.8974 H   0  0  0  0  0  0  0  0  0  0  0  0
   -1.1677    0.4372   -1.1945 H   0  0  0  0  0  0  0  0  0  0  0  0
    0.6282    1.3780   -0.7226 C   0  0  0  0  0  0  0  0  0  0  0  0
    1.1123    1.8777    0.5066 C   0  0  0  0  0  0  0  0  0  0  0  0
    0.9771    1.3779    1.4532 H   0  0  0  0  0  0  0  0  0  0  0  0
    1.8140    3.0881    0.5694 C   0  0  0  0  0  0  0  0  0  0  0  0
    2.1739    3.4392    1.5304 H   0  0  0  0  0  0  0  0  0  0  0  0
    2.0491    3.8319   -0.5844 C   0  0  0  0  0  0  0  0  0  0  0  0
    2.7354    5.0102   -0.5288 O   0  0  0  0  0  0  0  0  0  0  0  0
    3.0447    5.1697    0.3764 H   0  0  0  0  0  0  0  0  0  0  0  0
    1.5768    3.3627   -1.8038 C   0  0  0  0  0  0  0  0  0  0  0  0
    1.7615    3.9436   -2.7015 H   0  0  0  0  0  0  0  0  0  0  0  0
    0.8771    2.1544   -1.8709 C   0  0  0  0  0  0  0  0  0  0  0  0
    0.5251    1.8181   -2.8418 H   0  0  0  0  0  0  0  0  0  0  0  0
   -0.1524   -0.7832    1.5365 C   0  0  0  0  0  0  0  0  0  0  0  0
    0.9044   -0.9933    2.1187 O   0  0  0  0  0  0  0  0  0  0  0  0
   -1.1947   -0.1871    2.2251 N   0  0  0  0  0  0  0  0  0  0  0  0
   -2.0814   -0.1226    1.7372 H   0  0  0  0  0  0  0  0  0  0  0  0
   -1.1638    0.0423    3.6638 C   0  0  0  0  0  0  0  0  0  0  0  0
   -0.3416    0.7160    3.9271 H   0  0  0  0  0  0  0  0  0  0  0  0
   -2.1021    0.4973    3.9947 H   0  0  0  0  0  0  0  0  0  0  0  0
   -1.0290   -0.9042    4.1982 H   0  0  0  0  0  0  0  0  0  0  0  0
  1  2  1  0  0  0  0
  2  3  1  0  0  0  0
  2  4  1  0  0  0  0
  2  5  1  0  0  0  0
  5  6  2  0  0  0  0
  5  7  1  0  0  0  0
  7  8  1  0  0  0  0
  7  9  1  0  0  0  0
  9 10  1  0  0  0  0
  9 11  1  0  0  0  0
  9 26  1  0  0  0  0
 11 12  1  0  0  0  0
 11 13  1  0  0  0  0
 11 14  1  0  0  0  0
 14 15  2  0  0  0  0
 14 24  1  0  0  0  0
 15 16  1  0  0  0  0
 15 17  1  0  0  0  0
 17 18  1  0  0  0  0
 17 19  2  0  0  0  0
 19 20  1  0  0  0  0
 19 22  1  0  0  0  0
 20 21  1  0  0  0  0
 22 23  1  0  0  0  0
 22 24  2  0  0  0  0
 24 25  1  0  0  0  0
 26 27  2  0  0  0  0
 26 28  1  0  0  0  0
 28 29  1  0  0  0  0
 28 30  1  0  0  0  0
 30 31  1  0  0  0  0
 30 32  1  0  0  0  0
 30 33  1  0  0  0  0
M  END
$$$$

  -OEChem-03222214083D

 33 33  0     1  0  0  0  0  0999 V2000
   -3.6531   -4.3374    0.4514 H   0  0  0  0  0  0  0  0  0  0  0  0
   -3.4328   -3.4056   -0.0777 C   0  0  0  0  0  0  0  0  0  0  0  0
   -4.2033   -2.6713    0.1684 H   0  0  0  0  0  0  0  0  0  0  0  0
   -3.4521   -3.6002   -1.1527 H   0  0  0  0  0  0  0  0  0  0  0  0
   -2.0677   -2.8843    0.3316 C   0  0  0  0  0  0  0  0  0  0  0  0
   -1.4120   -3.4958    1.1545 O   0  0  0  0  0  0  0  0  0  0  0  0
   -1.5754   -1.7321   -0.2535 N   0  0  0  0  0  0  0  0  0  0  0  0
   -2.1432   -1.3185   -0.9864 H   0  0  0  0  0  0  0  0  0  0  0  0
   -0.2494   -1.1368    0.0298 C   0  0  1  0  0  0  0  0  0  0  0  0
    0.5421   -1.8677   -0.1704 H   0  0  0  0  0  0  0  0  0  0  0  0
   -0.1098    0.0359   -0.9902 C   0  0  0  0  0  0  0  0  0  0  0  0
    0.2727   -0.4099   -1.9145 H   0  0  0  0  0  0  0  0  0  0  0  0
   -1.1222    0.3933   -1.2061 H   0  0  0  0  0  0  0  0  0  0  0  0
    0.6904    1.3170   -0.7523 C   0  0  0  0  0  0  0  0  0  0  0  0
    1.4328    1.6705    0.3942 C   0  0  0  0  0  0  0  0  0  0  0  0
    1.5654    1.0141    1.2402 H   0  0  0  0  0  0  0  0  0  0  0  0
    2.0866    2.9060    0.4795 C   0  0  0  0  0  0  0  0  0  0  0  0
    2.6545    3.1411    1.3732 H   0  0  0  0  0  0  0  0  0  0  0  0
    2.0163    3.8189   -0.5704 C   0  0  0  0  0  0  0  0  0  0  0  0
    2.6513    5.0245   -0.4925 O   0  0  0  0  0  0  0  0  0  0  0  0
    3.1374    5.0882    0.3444 H   0  0  0  0  0  0  0  0  0  0  0  0
    1.2932    3.4896   -1.7103 C   0  0  0  0  0  0  0  0  0  0  0  0
    1.2425    4.2013   -2.5278 H   0  0  0  0  0  0  0  0  0  0  0  0
    0.6412    2.2560   -1.7998 C   0  0  0  0  0  0  0  0  0  0  0  0
    0.0843    2.0314   -2.7048 H   0  0  0  0  0  0  0  0  0  0  0  0
   -0.1448   -0.7699    1.5285 C   0  0  0  0  0  0  0  0  0  0  0  0
    0.8562   -1.0648    2.1702 O   0  0  0  0  0  0  0  0  0  0  0  0
   -1.1882   -0.1239    2.1685 N   0  0  0  0  0  0  0  0  0  0  0  0
   -2.0406    0.0058    1.6350 H   0  0  0  0  0  0  0  0  0  0  0  0
   -1.2062    0.1279    3.6036 C   0  0  0  0  0  0  0  0  0  0  0  0
   -0.3617    0.7628    3.8912 H   0  0  0  0  0  0  0  0  0  0  0  0
   -2.1325    0.6362    3.8876 H   0  0  0  0  0  0  0  0  0  0  0  0
   -1.1434   -0.8148    4.1578 H   0  0  0  0  0  0  0  0  0  0  0  0
  1  2  1  0  0  0  0
  2  3  1  0  0  0  0
  2  4  1  0  0  0  0
  2  5  1  0  0  0  0
  5  6  2  0  0  0  0
  5  7  1  0  0  0  0
  7  8  1  0  0  0  0
  7  9  1  0  0  0  0
  9 10  1  0  0  0  0
  9 11  1  0  0  0  0
  9 26  1  0  0  0  0
 11 12  1  0  0  0  0
 11 13  1  0  0  0  0
 11 14  1  0  0  0  0
 14 15  2  0  0  0  0
 14 24  1  0  0  0  0
 15 16  1  0  0  0  0
 15 17  1  0  0  0  0
 17 18  1  0  0  0  0
 17 19  2  0  0  0  0
 19 20  1  0  0  0  0
 19 22  1  0  0  0  0
 20 21  1  0  0  0  0
 22 23  1  0  0  0  0
 22 24  2  0  0  0  0
 24 25  1  0  0  0  0
 26 27  2  0  0  0  0
 26 28  1  0  0  0  0
 28 29  1  0  0  0  0
 28 30  1  0  0  0  0
 30 31  1  0  0  0  0
 30 32  1  0  0  0  0
 30 33  1  0  0  0  0
M  END
$$$$

  -OEChem-03222214083D

 33 33  0     1  0  0  0  0  0999 V2000
   -3.6172   -4.3270    0.6140 H   0  0  0  0  0  0  0  0  0  0  0  0
   -3.4241   -3.4112    0.0479 C   0  0  0  0  0  0  0  0  0  0  0  0
   -4.1732   -2.6644    0.3214 H   0  0  0  0  0  0  0  0  0  0  0  0
   -3.5108   -3.6334   -1.0184 H   0  0  0  0  0  0  0  0  0  0  0  0
   -2.0336   -2.8898    0.3586 C   0  0  0  0  0  0  0  0  0  0  0  0
   -1.3241   -3.4957    1.1398 O   0  0  0  0  0  0  0  0  0  0  0  0
   -1.5804   -1.7457   -0.2719 N   0  0  0  0  0  0  0  0  0  0  0  0
   -2.1966   -1.3379   -0.9678 H   0  0  0  0  0  0  0  0  0  0  0  0
   -0.2453   -1.1378   -0.0705 C   0  0  1  0  0  0  0  0  0  0  0  0
    0.5471   -1.8543   -0.3135 H   0  0  0  0  0  0  0  0  0  0  0  0
   -0.1921    0.0498   -1.0796 C   0  0  0  0  0  0  0  0  0  0  0  0
    0.1376   -0.3629   -2.0387 H   0  0  0  0  0  0  0  0  0  0  0  0
   -1.2199    0.4006   -1.2211 H   0  0  0  0  0  0  0  0  0  0  0  0
    0.6236    1.3150   -0.8304 C   0  0  0  0  0  0  0  0  0  0  0  0
    1.6391    1.4654    0.1339 C   0  0  0  0  0  0  0  0  0  0  0  0
    1.9930    0.6355    0.7305 H   0  0  0  0  0  0  0  0  0  0  0  0
    2.2882    2.6922    0.3144 C   0  0  0  0  0  0  0  0  0  0  0  0
    3.0710    2.7695    1.0613 H   0  0  0  0  0  0  0  0  0  0  0  0
    1.9413    3.7951   -0.4635 C   0  0  0  0  0  0  0  0  0  0  0  0
    2.5725    4.9933   -0.2953 O   0  0  0  0  0  0  0  0  0  0  0  0
    3.2433    4.9175    0.4012 H   0  0  0  0  0  0  0  0  0  0  0  0
    0.9477    3.6645   -1.4276 C   0  0  0  0  0  0  0  0  0  0  0  0
    0.6853    4.5246   -2.0349 H   0  0  0  0  0  0  0  0  0  0  0  0
    0.2970    2.4400   -1.6099 C   0  0  0  0  0  0  0  0  0  0  0  0
   -0.4768    2.3720   -2.3689 H   0  0  0  0  0  0  0  0  0  0  0  0
   -0.0758   -0.7470    1.4205 C   0  0  0  0  0  0  0  0  0  0  0  0
    0.9403   -1.0508    2.0334 O   0  0  0  0  0  0  0  0  0  0  0  0
   -1.0956   -0.0991    2.0962 N   0  0  0  0  0  0  0  0  0  0  0  0
   -1.9580    0.0576    1.5870 H   0  0  0  0  0  0  0  0  0  0  0  0
   -1.0527    0.1853    3.5245 C   0  0  0  0  0  0  0  0  0  0  0  0
   -0.2168    0.8534    3.7563 H   0  0  0  0  0  0  0  0  0  0  0  0
   -1.9808    0.6696    3.8427 H   0  0  0  0  0  0  0  0  0  0  0  0
   -0.9320   -0.7416    4.0953 H   0  0  0  0  0  0  0  0  0  0  0  0
  1  2  1  0  0  0  0
  2  3  1  0  0  0  0
  2  4  1  0  0  0  0
  2  5  1  0  0  0  0
  5  6  2  0  0  0  0
  5  7  1  0  0  0  0
  7  8  1  0  0  0  0
  7  9  1  0  0  0  0
  9 10  1  0  0  0  0
  9 11  1  0  0  0  0
  9 26  1  0  0  0  0
 11 12  1  0  0  0  0
 11 13  1  0  0  0  0
 11 14  1  0  0  0  0
 14 15  2  0  0  0  0
 14 24  1  0  0  0  0
 15 16  1  0  0  0  0
 15 17  1  0  0  0  0
 17 18  1  0  0  0  0
 17 19  2  0  0  0  0
 19 20  1  0  0  0  0
 19 22  1  0  0  0  0
 20 21  1  0  0  0  0
 22 23  1  0  0  0  0
 22 24  2  0  0  0  0
 24 25  1  0  0  0  0
 26 27  2  0  0  0  0
 26 28  1  0  0  0  0
 28 29  1  0  0  0  0
 28 30  1  0  0  0  0
 30 31  1  0  0  0  0
 30 32  1  0  0  0  0
 30 33  1  0  0  0  0
M  END
$$$$

  -OEChem-03222214083D

 33 33  0     1  0  0  0  0  0999 V2000
   -3.5392   -4.3751    0.7192 H   0  0  0  0  0  0  0  0  0  0  0  0
   -3.3798   -3.4764    0.1161 C   0  0  0  0  0  0  0  0  0  0  0  0
   -4.1490   -2.7429    0.3686 H   0  0  0  0  0  0  0  0  0  0  0  0
   -3.4694   -3.7423   -0.9399 H   0  0  0  0  0  0  0  0  0  0  0  0
   -2.0029   -2.9017    0.3915 C   0  0  0  0  0  0  0  0  0  0  0  0
   -1.2664   -3.4572    1.1851 O   0  0  0  0  0  0  0  0  0  0  0  0
   -1.5890   -1.7706   -0.2871 N   0  0  0  0  0  0  0  0  0  0  0  0
   -2.2251   -1.4023   -0.9873 H   0  0  0  0  0  0  0  0  0  0  0  0
   -0.2697   -1.1219   -0.1191 C   0  0  1  0  0  0  0  0  0  0  0  0
    0.5355   -1.8294   -0.3457 H   0  0  0  0  0  0  0  0  0  0  0  0
   -0.2412    0.0374   -1.1578 C   0  0  0  0  0  0  0  0  0  0  0  0
    0.1073   -0.3797   -2.1080 H   0  0  0  0  0  0  0  0  0  0  0  0
   -1.2727    0.3689   -1.3161 H   0  0  0  0  0  0  0  0  0  0  0  0
    0.5709    1.2948   -0.8805 C   0  0  0  0  0  0  0  0  0  0  0  0
    1.7492    1.3093   -0.1121 C   0  0  0  0  0  0  0  0  0  0  0  0
    2.1799    0.3896    0.2703 H   0  0  0  0  0  0  0  0  0  0  0  0
    2.4239    2.5069    0.1485 C   0  0  0  0  0  0  0  0  0  0  0  0
    3.3286    2.4839    0.7466 H   0  0  0  0  0  0  0  0  0  0  0  0
    1.9395    3.7115   -0.3592 C   0  0  0  0  0  0  0  0  0  0  0  0
    2.5904    4.8842   -0.1081 O   0  0  0  0  0  0  0  0  0  0  0  0
    3.3632    4.7172    0.4538 H   0  0  0  0  0  0  0  0  0  0  0  0
    0.7834    3.7128   -1.1341 C   0  0  0  0  0  0  0  0  0  0  0  0
    0.4159    4.6535   -1.5306 H   0  0  0  0  0  0  0  0  0  0  0  0
    0.1041    2.5177   -1.3936 C   0  0  0  0  0  0  0  0  0  0  0  0
   -0.7978    2.5516   -1.9971 H   0  0  0  0  0  0  0  0  0  0  0  0
   -0.0827   -0.6644    1.3520 C   0  0  0  0  0  0  0  0  0  0  0  0
    0.9629   -0.8908    1.9488 O   0  0  0  0  0  0  0  0  0  0  0  0
   -1.1059   -0.0125    2.0186 N   0  0  0  0  0  0  0  0  0  0  0  0
   -1.9818    0.1034    1.5218 H   0  0  0  0  0  0  0  0  0  0  0  0
   -1.0207    0.3902    3.4161 C   0  0  0  0  0  0  0  0  0  0  0  0
   -0.2054    1.1075    3.5578 H   0  0  0  0  0  0  0  0  0  0  0  0
   -1.9557    0.8627    3.7315 H   0  0  0  0  0  0  0  0  0  0  0  0
   -0.8394   -0.4810    4.0545 H   0  0  0  0  0  0  0  0  0  0  0  0
  1  2  1  0  0  0  0
  2  3  1  0  0  0  0
  2  4  1  0  0  0  0
  2  5  1  0  0  0  0
  5  6  2  0  0  0  0
  5  7  1  0  0  0  0
  7  8  1  0  0  0  0
  7  9  1  0  0  0  0
  9 10  1  0  0  0  0
  9 11  1  0  0  0  0
  9 26  1  0  0  0  0
 11 12  1  0  0  0  0
 11 13  1  0  0  0  0
 11 14  1  0  0  0  0
 14 15  2  0  0  0  0
 14 24  1  0  0  0  0
 15 16  1  0  0  0  0
 15 17  1  0  0  0  0
 17 18  1  0  0  0  0
 17 19  2  0  0  0  0
 19 20  1  0  0  0  0
 19 22  1  0  0  0  0
 20 21  1  0  0  0  0
 22 23  1  0  0  0  0
 22 24  2  0  0  0  0
 24 25  1  0  0  0  0
 26 27  2  0  0  0  0
 26 28  1  0  0  0  0
 28 29  1  0  0  0  0
 28 30  1  0  0  0  0
 30 31  1  0  0  0  0
 30 32  1  0  0  0  0
 30 33  1  0  0  0  0
M  END
$$$$

  -OEChem-03222214083D

 33 33  0     1  0  0  0  0  0999 V2000
   -3.4485   -4.4418    0.7629 H   0  0  0  0  0  0  0  0  0  0  0  0
   -3.3286   -3.5456    0.1474 C   0  0  0  0  0  0  0  0  0  0  0  0
   -4.1170   -2.8345    0.4057 H   0  0  0  0  0  0  0  0  0  0  0  0
   -3.4275   -3.8261   -0.9038 H   0  0  0  0  0  0  0  0  0  0  0  0
   -1.9671   -2.9225    0.3925 C   0  0  0  0  0  0  0  0  0  0  0  0
   -1.2026   -3.4363    1.1880 O   0  0  0  0  0  0  0  0  0  0  0  0
   -1.6018   -1.7867   -0.3050 N   0  0  0  0  0  0  0  0  0  0  0  0
   -2.2555   -1.4511   -1.0053 H   0  0  0  0  0  0  0  0  0  0  0  0
   -0.3042   -1.0935   -0.1594 C   0  0  1  0  0  0  0  0  0  0  0  0
    0.5136   -1.7865   -0.3863 H   0  0  0  0  0  0  0  0  0  0  0  0
   -0.3003    0.0473   -1.2137 C   0  0  0  0  0  0  0  0  0  0  0  0
    0.0725   -0.3630   -2.1575 H   0  0  0  0  0  0  0  0  0  0  0  0
   -1.3352    0.3577   -1.3892 H   0  0  0  0  0  0  0  0  0  0  0  0
    0.4961    1.2997   -0.8950 C   0  0  0  0  0  0  0  0  0  0  0  0
    1.7976    1.2384   -0.3678 C   0  0  0  0  0  0  0  0  0  0  0  0
    2.2725    0.2781   -0.1850 H   0  0  0  0  0  0  0  0  0  0  0  0
    2.5014    2.4080   -0.0614 C   0  0  0  0  0  0  0  0  0  0  0  0
    3.4990    2.3304    0.3569 H   0  0  0  0  0  0  0  0  0  0  0  0
    1.9212    3.6562   -0.2874 C   0  0  0  0  0  0  0  0  0  0  0  0
    2.5995    4.8016    0.0125 O   0  0  0  0  0  0  0  0  0  0  0  0
    3.4498    4.5808    0.4235 H   0  0  0  0  0  0  0  0  0  0  0  0
    0.6380    3.7307   -0.8231 C   0  0  0  0  0  0  0  0  0  0  0  0
    0.1961    4.7059   -0.9987 H   0  0  0  0  0  0  0  0  0  0  0  0
   -0.0726    2.5639   -1.1250 C   0  0  0  0  0  0  0  0  0  0  0  0
   -1.0728    2.6525   -1.5379 H   0  0  0  0  0  0  0  0  0  0  0  0
   -0.0812   -0.5986    1.2931 C   0  0  0  0  0  0  0  0  0  0  0  0
    1.0064   -0.7461    1.8374 O   0  0  0  0  0  0  0  0  0  0  0  0
   -1.0977    0.0397    1.9820 N   0  0  0  0  0  0  0  0  0  0  0  0
   -1.9988    0.1069    1.5230 H   0  0  0  0  0  0  0  0  0  0  0  0
   -0.9539    0.5236    3.3486 C   0  0  0  0  0  0  0  0  0  0  0  0
   -0.1481    1.2626    3.4091 H   0  0  0  0  0  0  0  0  0  0  0  0
   -1.8819    0.9966    3.6831 H   0  0  0  0  0  0  0  0  0  0  0  0
   -0.7232   -0.3061    4.0249 H   0  0  0  0  0  0  0  0  0  0  0  0
  1  2  1  0  0  0  0
  2  3  1  0  0  0  0
  2  4  1  0  0  0  0
  2  5  1  0  0  0  0
  5  6  2  0  0  0  0
  5  7  1  0  0  0  0
  7  8  1  0  0  0  0
  7  9  1  0  0  0  0
  9 10  1  0  0  0  0
  9 11  1  0  0  0  0
  9 26  1  0  0  0  0
 11 12  1  0  0  0  0
 11 13  1  0  0  0  0
 11 14  1  0  0  0  0
 14 15  2  0  0  0  0
 14 24  1  0  0  0  0
 15 16  1  0  0  0  0
 15 17  1  0  0  0  0
 17 18  1  0  0  0  0
 17 19  2  0  0  0  0
 19 20  1  0  0  0  0
 19 22  1  0  0  0  0
 20 21  1  0  0  0  0
 22 23  1  0  0  0  0
 22 24  2  0  0  0  0
 24 25  1  0  0  0  0
 26 27  2  0  0  0  0
 26 28  1  0  0  0  0
 28 29  1  0  0  0  0
 28 30  1  0  0  0  0
 30 31  1  0  0  0  0
 30 32  1  0  0  0  0
 30 33  1  0  0  0  0
M  END
$$$$

  -OEChem-03222214083D

 33 33  0     1  0  0  0  0  0999 V2000
   -3.3747   -4.4964    0.7745 H   0  0  0  0  0  0  0  0  0  0  0  0
   -3.2868   -3.5992    0.1548 C   0  0  0  0  0  0  0  0  0  0  0  0
   -4.1012   -2.9165    0.4087 H   0  0  0  0  0  0  0  0  0  0  0  0
   -3.3749   -3.8887   -0.8950 H   0  0  0  0  0  0  0  0  0  0  0  0
   -1.9487   -2.9262    0.3986 C   0  0  0  0  0  0  0  0  0  0  0  0
   -1.1737   -3.4007    1.2084 O   0  0  0  0  0  0  0  0  0  0  0  0
   -1.6182   -1.7861   -0.3093 N   0  0  0  0  0  0  0  0  0  0  0  0
   -2.2783   -1.4814   -1.0178 H   0  0  0  0  0  0  0  0  0  0  0  0
   -0.3356   -1.0630   -0.1819 C   0  0  1  0  0  0  0  0  0  0  0  0
    0.4881   -1.7488   -0.4091 H   0  0  0  0  0  0  0  0  0  0  0  0
   -0.3424    0.0612   -1.2500 C   0  0  0  0  0  0  0  0  0  0  0  0
    0.0463   -0.3477   -2.1880 H   0  0  0  0  0  0  0  0  0  0  0  0
   -1.3771    0.3632   -1.4399 H   0  0  0  0  0  0  0  0  0  0  0  0
    0.4462    1.3062   -0.9006 C   0  0  0  0  0  0  0  0  0  0  0  0
    1.8257    1.2348   -0.6495 C   0  0  0  0  0  0  0  0  0  0  0  0
    2.3380    0.2772   -0.6888 H   0  0  0  0  0  0  0  0  0  0  0  0
    2.5494    2.3863   -0.3189 C   0  0  0  0  0  0  0  0  0  0  0  0
    3.6112    2.3040   -0.1144 H   0  0  0  0  0  0  0  0  0  0  0  0
    1.9058    3.6226   -0.2432 C   0  0  0  0  0  0  0  0  0  0  0  0
    2.6018    4.7497    0.0852 O   0  0  0  0  0  0  0  0  0  0  0  0
    3.5154    4.5167    0.3125 H   0  0  0  0  0  0  0  0  0  0  0  0
    0.5390    3.7043   -0.5005 C   0  0  0  0  0  0  0  0  0  0  0  0
    0.0484    4.6699   -0.4389 H   0  0  0  0  0  0  0  0  0  0  0  0
   -0.1905    2.5557   -0.8265 C   0  0  0  0  0  0  0  0  0  0  0  0
   -1.2551    2.6454   -1.0187 H   0  0  0  0  0  0  0  0  0  0  0  0
   -0.0811   -0.5442    1.2558 C   0  0  0  0  0  0  0  0  0  0  0  0
    1.0361   -0.6280    1.7517 O   0  0  0  0  0  0  0  0  0  0  0  0
   -1.0914    0.0839    1.9626 N   0  0  0  0  0  0  0  0  0  0  0  0
   -2.0152    0.0849    1.5460 H   0  0  0  0  0  0  0  0  0  0  0  0
   -0.9162    0.6020    3.3127 C   0  0  0  0  0  0  0  0  0  0  0  0
   -0.1170    1.3503    3.3333 H   0  0  0  0  0  0  0  0  0  0  0  0
   -1.8397    1.0741    3.6604 H   0  0  0  0  0  0  0  0  0  0  0  0
   -0.6585   -0.2084    4.0025 H   0  0  0  0  0  0  0  0  0  0  0  0
  1  2  1  0  0  0  0
  2  3  1  0  0  0  0
  2  4  1  0  0  0  0
  2  5  1  0  0  0  0
  5  6  2  0  0  0  0
  5  7  1  0  0  0  0
  7  8  1  0  0  0  0
  7  9  1  0  0  0  0
  9 10  1  0  0  0  0
  9 11  1  0  0  0  0
  9 26  1  0  0  0  0
 11 12  1  0  0  0  0
 11 13  1  0  0  0  0
 11 14  1  0  0  0  0
 14 15  2  0  0  0  0
 14 24  1  0  0  0  0
 15 16  1  0  0  0  0
 15 17  1  0  0  0  0
 17 18  1  0  0  0  0
 17 19  2  0  0  0  0
 19 20  1  0  0  0  0
 19 22  1  0  0  0  0
 20 21  1  0  0  0  0
 22 23  1  0  0  0  0
 22 24  2  0  0  0  0
 24 25  1  0  0  0  0
 26 27  2  0  0  0  0
 26 28  1  0  0  0  0
 28 29  1  0  0  0  0
 28 30  1  0  0  0  0
 30 31  1  0  0  0  0
 30 32  1  0  0  0  0
 30 33  1  0  0  0  0
M  END
$$$$

  -OEChem-03222214083D

 33 33  0     1  0  0  0  0  0999 V2000
   -3.3363   -4.5248    0.7689 H   0  0  0  0  0  0  0  0  0  0  0  0
   -3.2642   -3.6258    0.1499 C   0  0  0  0  0  0  0  0  0  0  0  0
   -4.0949   -2.9610    0.3986 H   0  0  0  0  0  0  0  0  0  0  0  0
   -3.3390   -3.9172   -0.9005 H   0  0  0  0  0  0  0  0  0  0  0  0
   -1.9427   -2.9234    0.4022 C   0  0  0  0  0  0  0  0  0  0  0  0
   -1.1674   -3.3737    1.2253 O   0  0  0  0  0  0  0  0  0  0  0  0
   -1.6289   -1.7809   -0.3092 N   0  0  0  0  0  0  0  0  0  0  0  0
   -2.2834   -1.5000   -1.0327 H   0  0  0  0  0  0  0  0  0  0  0  0
   -0.3538   -1.0438   -0.1895 C   0  0  1  0  0  0  0  0  0  0  0  0
    0.4727   -1.7262   -0.4156 H   0  0  0  0  0  0  0  0  0  0  0  0
   -0.3632    0.0708   -1.2652 C   0  0  0  0  0  0  0  0  0  0  0  0
    0.0301   -0.3396   -2.2008 H   0  0  0  0  0  0  0  0  0  0  0  0
   -1.3965    0.3742   -1.4610 H   0  0  0  0  0  0  0  0  0  0  0  0
    0.4214    1.3105   -0.8991 C   0  0  0  0  0  0  0  0  0  0  0  0
    1.8234    1.2977   -0.9401 C   0  0  0  0  0  0  0  0  0  0  0  0
    2.3512    0.3894   -1.2168 H   0  0  0  0  0  0  0  0  0  0  0  0
    2.5533    2.4425   -0.5996 C   0  0  0  0  0  0  0  0  0  0  0  0
    3.6369    2.4081   -0.6243 H   0  0  0  0  0  0  0  0  0  0  0  0
    1.8901    3.6118   -0.2219 C   0  0  0  0  0  0  0  0  0  0  0  0
    2.5934    4.7311    0.1172 O   0  0  0  0  0  0  0  0  0  0  0  0
    3.5412    4.5276    0.1428 H   0  0  0  0  0  0  0  0  0  0  0  0
    0.4974    3.6334   -0.1857 C   0  0  0  0  0  0  0  0  0  0  0  0
   -0.0078    4.5462    0.1121 H   0  0  0  0  0  0  0  0  0  0  0  0
   -0.2373    2.4909   -0.5201 C   0  0  0  0  0  0  0  0  0  0  0  0
   -1.3213    2.5279   -0.4775 H   0  0  0  0  0  0  0  0  0  0  0  0
   -0.0851   -0.5148    1.2415 C   0  0  0  0  0  0  0  0  0  0  0  0
    1.0465   -0.5566    1.7085 O   0  0  0  0  0  0  0  0  0  0  0  0
   -1.0924    0.1076    1.9578 N   0  0  0  0  0  0  0  0  0  0  0  0
   -2.0291    0.0538    1.5747 H   0  0  0  0  0  0  0  0  0  0  0  0
   -0.9013    0.6350    3.3021 C   0  0  0  0  0  0  0  0  0  0  0  0
   -0.1096    1.3918    3.3063 H   0  0  0  0  0  0  0  0  0  0  0  0
   -1.8240    1.0993    3.6621 H   0  0  0  0  0  0  0  0  0  0  0  0
   -0.6241   -0.1692    3.9918 H   0  0  0  0  0  0  0  0  0  0  0  0
  1  2  1  0  0  0  0
  2  3  1  0  0  0  0
  2  4  1  0  0  0  0
  2  5  1  0  0  0  0
  5  6  2  0  0  0  0
  5  7  1  0  0  0  0
  7  8  1  0  0  0  0
  7  9  1  0  0  0  0
  9 10  1  0  0  0  0
  9 11  1  0  0  0  0
  9 26  1  0  0  0  0
 11 12  1  0  0  0  0
 11 13  1  0  0  0  0
 11 14  1  0  0  0  0
 14 15  2  0  0  0  0
 14 24  1  0  0  0  0
 15 16  1  0  0  0  0
 15 17  1  0  0  0  0
 17 18  1  0  0  0  0
 17 19  2  0  0  0  0
 19 20  1  0  0  0  0
 19 22  1  0  0  0  0
 20 21  1  0  0  0  0
 22 23  1  0  0  0  0
 22 24  2  0  0  0  0
 24 25  1  0  0  0  0
 26 27  2  0  0  0  0
 26 28  1  0  0  0  0
 28 29  1  0  0  0  0
 28 30  1  0  0  0  0
 30 31  1  0  0  0  0
 30 32  1  0  0  0  0
 30 33  1  0  0  0  0
M  END
$$$$

  -OEChem-03222214083D

 33 33  0     1  0  0  0  0  0999 V2000
   -3.3340   -4.5332    0.7484 H   0  0  0  0  0  0  0  0  0  0  0  0
   -3.2629   -3.6300    0.1354 C   0  0  0  0  0  0  0  0  0  0  0  0
   -4.0964   -2.9695    0.3855 H   0  0  0  0  0  0  0  0  0  0  0  0
   -3.3333   -3.9147   -0.9172 H   0  0  0  0  0  0  0  0  0  0  0  0
   -1.9449   -2.9247    0.3965 C   0  0  0  0  0  0  0  0  0  0  0  0
   -1.1687   -3.3801    1.2160 O   0  0  0  0  0  0  0  0  0  0  0  0
   -1.6357   -1.7732   -0.3025 N   0  0  0  0  0  0  0  0  0  0  0  0
   -2.2909   -1.4878   -1.0237 H   0  0  0  0  0  0  0  0  0  0  0  0
   -0.3620   -1.0347   -0.1772 C   0  0  1  0  0  0  0  0  0  0  0  0
    0.4637   -1.7180   -0.4048 H   0  0  0  0  0  0  0  0  0  0  0  0
   -0.3596    0.0811   -1.2517 C   0  0  0  0  0  0  0  0  0  0  0  0
    0.0313   -0.3326   -2.1869 H   0  0  0  0  0  0  0  0  0  0  0  0
   -1.3901    0.3926   -1.4501 H   0  0  0  0  0  0  0  0  0  0  0  0
    0.4241    1.3208   -0.8825 C   0  0  0  0  0  0  0  0  0  0  0  0
    1.7854    1.4175   -1.2060 C   0  0  0  0  0  0  0  0  0  0  0  0
    2.2889    0.5891   -1.6957 H   0  0  0  0  0  0  0  0  0  0  0  0
    2.5114    2.5700   -0.8832 C   0  0  0  0  0  0  0  0  0  0  0  0
    3.5662    2.6209   -1.1294 H   0  0  0  0  0  0  0  0  0  0  0  0
    1.8823    3.6401   -0.2440 C   0  0  0  0  0  0  0  0  0  0  0  0
    2.5828    4.7661    0.0787 O   0  0  0  0  0  0  0  0  0  0  0  0
    3.5258    4.6294   -0.1004 H   0  0  0  0  0  0  0  0  0  0  0  0
    0.5272    3.5565    0.0685 C   0  0  0  0  0  0  0  0  0  0  0  0
    0.0482    4.3931    0.5663 H   0  0  0  0  0  0  0  0  0  0  0  0
   -0.2022    2.4059   -0.2484 C   0  0  0  0  0  0  0  0  0  0  0  0
   -1.2555    2.3587    0.0092 H   0  0  0  0  0  0  0  0  0  0  0  0
   -0.0926   -0.5228    1.2593 C   0  0  0  0  0  0  0  0  0  0  0  0
    1.0422   -0.5509    1.7187 O   0  0  0  0  0  0  0  0  0  0  0  0
   -1.1027    0.0874    1.9826 N   0  0  0  0  0  0  0  0  0  0  0  0
   -2.0433   -0.0029    1.6162 H   0  0  0  0  0  0  0  0  0  0  0  0
   -0.9135    0.5958    3.3348 C   0  0  0  0  0  0  0  0  0  0  0  0
   -0.1219    1.3526    3.3515 H   0  0  0  0  0  0  0  0  0  0  0  0
   -1.8368    1.0556    3.6993 H   0  0  0  0  0  0  0  0  0  0  0  0
   -0.6380   -0.2178    4.0140 H   0  0  0  0  0  0  0  0  0  0  0  0
  1  2  1  0  0  0  0
  2  3  1  0  0  0  0
  2  4  1  0  0  0  0
  2  5  1  0  0  0  0
  5  6  2  0  0  0  0
  5  7  1  0  0  0  0
  7  8  1  0  0  0  0
  7  9  1  0  0  0  0
  9 10  1  0  0  0  0
  9 11  1  0  0  0  0
  9 26  1  0  0  0  0
 11 12  1  0  0  0  0
 11 13  1  0  0  0  0
 11 14  1  0  0  0  0
 14 15  2  0  0  0  0
 14 24  1  0  0  0  0
 15 16  1  0  0  0  0
 15 17  1  0  0  0  0
 17 18  1  0  0  0  0
 17 19  2  0  0  0  0
 19 20  1  0  0  0  0
 19 22  1  0  0  0  0
 20 21  1  0  0  0  0
 22 23  1  0  0  0  0
 22 24  2  0  0  0  0
 24 25  1  0  0  0  0
 26 27  2  0  0  0  0
 26 28  1  0  0  0  0
 28 29  1  0  0  0  0
 28 30  1  0  0  0  0
 30 31  1  0  0  0  0
 30 32  1  0  0  0  0
 30 33  1  0  0  0  0
M  END
$$$$

  -OEChem-03222214083D

 33 33  0     1  0  0  0  0  0999 V2000
   -3.3584   -4.5389    0.6880 H   0  0  0  0  0  0  0  0  0  0  0  0
   -3.2800   -3.6227    0.0953 C   0  0  0  0  0  0  0  0  0  0  0  0
   -4.1113   -2.9637    0.3564 H   0  0  0  0  0  0  0  0  0  0  0  0
   -3.3471   -3.8835   -0.9636 H   0  0  0  0  0  0  0  0  0  0  0  0
   -1.9598   -2.9304    0.3780 C   0  0  0  0  0  0  0  0  0  0  0  0
   -1.1882   -3.4098    1.1880 O   0  0  0  0  0  0  0  0  0  0  0  0
   -1.6440   -1.7623   -0.2896 N   0  0  0  0  0  0  0  0  0  0  0  0
   -2.2997   -1.4514   -0.9999 H   0  0  0  0  0  0  0  0  0  0  0  0
   -0.3675   -1.0319   -0.1431 C   0  0  1  0  0  0  0  0  0  0  0  0
    0.4527   -1.7218   -0.3720 H   0  0  0  0  0  0  0  0  0  0  0  0
   -0.3330    0.0892   -1.2137 C   0  0  0  0  0  0  0  0  0  0  0  0
    0.0588   -0.3335   -2.1445 H   0  0  0  0  0  0  0  0  0  0  0  0
   -1.3579    0.4123   -1.4222 H   0  0  0  0  0  0  0  0  0  0  0  0
    0.4504    1.3336   -0.8505 C   0  0  0  0  0  0  0  0  0  0  0  0
    1.7112    1.5598   -1.4242 C   0  0  0  0  0  0  0  0  0  0  0  0
    2.1528    0.8156   -2.0805 H   0  0  0  0  0  0  0  0  0  0  0  0
    2.4222    2.7330   -1.1440 C   0  0  0  0  0  0  0  0  0  0  0  0
    3.4013    2.8810   -1.5861 H   0  0  0  0  0  0  0  0  0  0  0  0
    1.8732    3.7026   -0.3030 C   0  0  0  0  0  0  0  0  0  0  0  0
    2.5595    4.8479   -0.0203 O   0  0  0  0  0  0  0  0  0  0  0  0
    3.4579    4.7916   -0.3804 H   0  0  0  0  0  0  0  0  0  0  0  0
    0.6098    3.5005    0.2475 C   0  0  0  0  0  0  0  0  0  0  0  0
    0.1883    4.2621    0.8949 H   0  0  0  0  0  0  0  0  0  0  0  0
   -0.1036    2.3295   -0.0291 C   0  0  0  0  0  0  0  0  0  0  0  0
   -1.0906    2.1998    0.4024 H   0  0  0  0  0  0  0  0  0  0  0  0
   -0.1025   -0.5604    1.3077 C   0  0  0  0  0  0  0  0  0  0  0  0
    1.0330   -0.5884    1.7643 O   0  0  0  0  0  0  0  0  0  0  0  0
   -1.1135    0.0324    2.0451 N   0  0  0  0  0  0  0  0  0  0  0  0
   -2.0561   -0.0734    1.6873 H   0  0  0  0  0  0  0  0  0  0  0  0
   -0.9248    0.4996    3.4126 C   0  0  0  0  0  0  0  0  0  0  0  0
   -0.1334    1.2557    3.4525 H   0  0  0  0  0  0  0  0  0  0  0  0
   -1.8481    0.9482    3.7909 H   0  0  0  0  0  0  0  0  0  0  0  0
   -0.6488   -0.3341    4.0668 H   0  0  0  0  0  0  0  0  0  0  0  0
  1  2  1  0  0  0  0
  2  3  1  0  0  0  0
  2  4  1  0  0  0  0
  2  5  1  0  0  0  0
  5  6  2  0  0  0  0
  5  7  1  0  0  0  0
  7  8  1  0  0  0  0
  7  9  1  0  0  0  0
  9 10  1  0  0  0  0
  9 11  1  0  0  0  0
  9 26  1  0  0  0  0
 11 12  1  0  0  0  0
 11 13  1  0  0  0  0
 11 14  1  0  0  0  0
 14 15  2  0  0  0  0
 14 24  1  0  0  0  0
 15 16  1  0  0  0  0
 15 17  1  0  0  0  0
 17 18  1  0  0  0  0
 17 19  2  0  0  0  0
 19 20  1  0  0  0  0
 19 22  1  0  0  0  0
 20 21  1  0  0  0  0
 22 23  1  0  0  0  0
 22 24  2  0  0  0  0
 24 25  1  0  0  0  0
 26 27  2  0  0  0  0
 26 28  1  0  0  0  0
 28 29  1  0  0  0  0
 28 30  1  0  0  0  0
 30 31  1  0  0  0  0
 30 32  1  0  0  0  0
 30 33  1  0  0  0  0
M  END
$$$$

  -OEChem-03222214083D

 33 33  0     1  0  0  0  0  0999 V2000
   -3.3981   -4.5340    0.6016 H   0  0  0  0  0  0  0  0  0  0  0  0
   -3.3073   -3.6000    0.0392 C   0  0  0  0  0  0  0  0  0  0  0  0
   -4.1314   -2.9397    0.3196 H   0  0  0  0  0  0  0  0  0  0  0  0
   -3.3746   -3.8252   -1.0279 H   0  0  0  0  0  0  0  0  0  0  0  0
   -1.9797   -2.9327    0.3474 C   0  0  0  0  0  0  0  0  0  0  0  0
   -1.2161   -3.4464    1.1439 O   0  0  0  0  0  0  0  0  0  0  0  0
   -1.6505   -1.7435   -0.2751 N   0  0  0  0  0  0  0  0  0  0  0  0
   -2.3019   -1.3988   -0.9736 H   0  0  0  0  0  0  0  0  0  0  0  0
   -0.3703   -1.0275   -0.0953 C   0  0  1  0  0  0  0  0  0  0  0  0
    0.4404   -1.7291   -0.3231 H   0  0  0  0  0  0  0  0  0  0  0  0
   -0.2876    0.0955   -1.1645 C   0  0  0  0  0  0  0  0  0  0  0  0
    0.1149   -0.3452   -2.0821 H   0  0  0  0  0  0  0  0  0  0  0  0
   -1.3040    0.4283   -1.3966 H   0  0  0  0  0  0  0  0  0  0  0  0
    0.4945    1.3495   -0.8176 C   0  0  0  0  0  0  0  0  0  0  0  0
    1.6031    1.7067   -1.6032 C   0  0  0  0  0  0  0  0  0  0  0  0
    1.9492    1.0439   -2.3908 H   0  0  0  0  0  0  0  0  0  0  0  0
    2.2926    2.9032   -1.3733 C   0  0  0  0  0  0  0  0  0  0  0  0
    3.1603    3.1436   -1.9777 H   0  0  0  0  0  0  0  0  0  0  0  0
    1.8619    3.7804   -0.3773 C   0  0  0  0  0  0  0  0  0  0  0  0
    2.5257    4.9500   -0.1438 O   0  0  0  0  0  0  0  0  0  0  0  0
    3.3426    4.9759   -0.6653 H   0  0  0  0  0  0  0  0  0  0  0  0
    0.7330    3.4642    0.3733 C   0  0  0  0  0  0  0  0  0  0  0  0
    0.3920    4.1598    1.1329 H   0  0  0  0  0  0  0  0  0  0  0  0
    0.0440    2.2681    0.1469 C   0  0  0  0  0  0  0  0  0  0  0  0
   -0.8526    2.0733    0.7232 H   0  0  0  0  0  0  0  0  0  0  0  0
   -0.1127   -0.6111    1.3729 C   0  0  0  0  0  0  0  0  0  0  0  0
    1.0220   -0.6500    1.8300 O   0  0  0  0  0  0  0  0  0  0  0  0
   -1.1228   -0.0397    2.1287 N   0  0  0  0  0  0  0  0  0  0  0  0
   -2.0656   -0.1383    1.7687 H   0  0  0  0  0  0  0  0  0  0  0  0
   -0.9373    0.3580    3.5187 C   0  0  0  0  0  0  0  0  0  0  0  0
   -0.1478    1.1129    3.5984 H   0  0  0  0  0  0  0  0  0  0  0  0
   -1.8624    0.7840    3.9181 H   0  0  0  0  0  0  0  0  0  0  0  0
   -0.6598   -0.5075    4.1299 H   0  0  0  0  0  0  0  0  0  0  0  0
  1  2  1  0  0  0  0
  2  3  1  0  0  0  0
  2  4  1  0  0  0  0
  2  5  1  0  0  0  0
  5  6  2  0  0  0  0
  5  7  1  0  0  0  0
  7  8  1  0  0  0  0
  7  9  1  0  0  0  0
  9 10  1  0  0  0  0
  9 11  1  0  0  0  0
  9 26  1  0  0  0  0
 11 12  1  0  0  0  0
 11 13  1  0  0  0  0
 11 14  1  0  0  0  0
 14 15  2  0  0  0  0
 14 24  1  0  0  0  0
 15 16  1  0  0  0  0
 15 17  1  0  0  0  0
 17 18  1  0  0  0  0
 17 19  2  0  0  0  0
 19 20  1  0  0  0  0
 19 22  1  0  0  0  0
 20 21  1  0  0  0  0
 22 23  1  0  0  0  0
 22 24  2  0  0  0  0
 24 25  1  0  0  0  0
 26 27  2  0  0  0  0
 26 28  1  0  0  0  0
 28 29  1  0  0  0  0
 28 30  1  0  0  0  0
 30 31  1  0  0  0  0
 30 32  1  0  0  0  0
 30 33  1  0  0  0  0
M  END
$$$$

  -OEChem-03222214083D

 33 33  0     1  0  0  0  0  0999 V2000
   -3.4382   -4.5162    0.4973 H   0  0  0  0  0  0  0  0  0  0  0  0
   -3.3274   -3.5653   -0.0316 C   0  0  0  0  0  0  0  0  0  0  0  0
   -4.1484   -2.9049    0.2574 H   0  0  0  0  0  0  0  0  0  0  0  0
   -3.3797   -3.7540   -1.1065 H   0  0  0  0  0  0  0  0  0  0  0  0
   -1.9971   -2.9256    0.3195 C   0  0  0  0  0  0  0  0  0  0  0  0
   -1.2488   -3.4790    1.1040 O   0  0  0  0  0  0  0  0  0  0  0  0
   -1.6466   -1.7191   -0.2564 N   0  0  0  0  0  0  0  0  0  0  0  0
   -2.2894   -1.3384   -0.9443 H   0  0  0  0  0  0  0  0  0  0  0  0
   -0.3597   -1.0248   -0.0387 C   0  0  1  0  0  0  0  0  0  0  0  0
    0.4435   -1.7348   -0.2669 H   0  0  0  0  0  0  0  0  0  0  0  0
   -0.2358    0.1098   -1.0959 C   0  0  0  0  0  0  0  0  0  0  0  0
    0.1701   -0.3457   -2.0048 H   0  0  0  0  0  0  0  0  0  0  0  0
   -1.2461    0.4507   -1.3420 H   0  0  0  0  0  0  0  0  0  0  0  0
    0.5462    1.3790   -0.7825 C   0  0  0  0  0  0  0  0  0  0  0  0
    1.4355    1.8640   -1.7594 C   0  0  0  0  0  0  0  0  0  0  0  0
    1.6236    1.2867   -2.6599 H   0  0  0  0  0  0  0  0  0  0  0  0
    2.1112    3.0784   -1.5907 C   0  0  0  0  0  0  0  0  0  0  0  0
    2.8087    3.4116   -2.3514 H   0  0  0  0  0  0  0  0  0  0  0  0
    1.8815    3.8552   -0.4564 C   0  0  0  0  0  0  0  0  0  0  0  0
    2.5303    5.0432   -0.2807 O   0  0  0  0  0  0  0  0  0  0  0  0
    3.1785    5.1751   -0.9892 H   0  0  0  0  0  0  0  0  0  0  0  0
    0.9623    3.4209    0.4927 C   0  0  0  0  0  0  0  0  0  0  0  0
    0.7681    4.0404    1.3617 H   0  0  0  0  0  0  0  0  0  0  0  0
    0.2860    2.2079    0.3251 C   0  0  0  0  0  0  0  0  0  0  0  0
   -0.4570    1.9496    1.0662 H   0  0  0  0  0  0  0  0  0  0  0  0
   -0.1302   -0.6721    1.4500 C   0  0  0  0  0  0  0  0  0  0  0  0
    0.9940   -0.7321    1.9294 O   0  0  0  0  0  0  0  0  0  0  0  0
   -1.1536   -0.1232    2.2055 N   0  0  0  0  0  0  0  0  0  0  0  0
   -2.0875   -0.2019    1.8182 H   0  0  0  0  0  0  0  0  0  0  0  0
   -1.0058    0.1911    3.6211 C   0  0  0  0  0  0  0  0  0  0  0  0
   -0.1995    0.9170    3.7709 H   0  0  0  0  0  0  0  0  0  0  0  0
   -1.9328    0.6211    4.0123 H   0  0  0  0  0  0  0  0  0  0  0  0
   -0.7744   -0.7149    4.1910 H   0  0  0  0  0  0  0  0  0  0  0  0
  1  2  1  0  0  0  0
  2  3  1  0  0  0  0
  2  4  1  0  0  0  0
  2  5  1  0  0  0  0
  5  6  2  0  0  0  0
  5  7  1  0  0  0  0
  7  8  1  0  0  0  0
  7  9  1  0  0  0  0
  9 10  1  0  0  0  0
  9 11  1  0  0  0  0
  9 26  1  0  0  0  0
 11 12  1  0  0  0  0
 11 13  1  0  0  0  0
 11 14  1  0  0  0  0
 14 15  2  0  0  0  0
 14 24  1  0  0  0  0
 15 16  1  0  0  0  0
 15 17  1  0  0  0  0
 17 18  1  0  0  0  0
 17 19  2  0  0  0  0
 19 20  1  0  0  0  0
 19 22  1  0  0  0  0
 20 21  1  0  0  0  0
 22 23  1  0  0  0  0
 22 24  2  0  0  0  0
 24 25  1  0  0  0  0
 26 27  2  0  0  0  0
 26 28  1  0  0  0  0
 28 29  1  0  0  0  0
 28 30  1  0  0  0  0
 30 31  1  0  0  0  0
 30 32  1  0  0  0  0
 30 33  1  0  0  0  0
M  END
$$$$

  -OEChem-03222214083D

 33 33  0     1  0  0  0  0  0999 V2000
   -3.4872   -4.4829    0.4158 H   0  0  0  0  0  0  0  0  0  0  0  0
   -3.3469   -3.5253   -0.0940 C   0  0  0  0  0  0  0  0  0  0  0  0
   -4.1592   -2.8531    0.1923 H   0  0  0  0  0  0  0  0  0  0  0  0
   -3.3841   -3.6937   -1.1729 H   0  0  0  0  0  0  0  0  0  0  0  0
   -2.0096   -2.9209    0.2921 C   0  0  0  0  0  0  0  0  0  0  0  0
   -1.2849   -3.5089    1.0734 O   0  0  0  0  0  0  0  0  0  0  0  0
   -1.6242   -1.7102   -0.2527 N   0  0  0  0  0  0  0  0  0  0  0  0
   -2.2470   -1.3041   -0.9445 H   0  0  0  0  0  0  0  0  0  0  0  0
   -0.3286   -1.0432    0.0036 C   0  0  1  0  0  0  0  0  0  0  0  0
    0.4759   -1.7499   -0.2301 H   0  0  0  0  0  0  0  0  0  0  0  0
   -0.2009    0.1256   -1.0199 C   0  0  0  0  0  0  0  0  0  0  0  0
    0.1971   -0.3202   -1.9374 H   0  0  0  0  0  0  0  0  0  0  0  0
   -1.2150    0.4665   -1.2510 H   0  0  0  0  0  0  0  0  0  0  0  0
    0.5731    1.4147   -0.7400 C   0  0  0  0  0  0  0  0  0  0  0  0
    1.1553    2.0461   -1.8565 C   0  0  0  0  0  0  0  0  0  0  0  0
    1.0943    1.5825   -2.8367 H   0  0  0  0  0  0  0  0  0  0  0  0
    1.8320    3.2654   -1.7418 C   0  0  0  0  0  0  0  0  0  0  0  0
    2.2826    3.7121   -2.6212 H   0  0  0  0  0  0  0  0  0  0  0  0
    1.9206    3.9015   -0.5062 C   0  0  0  0  0  0  0  0  0  0  0  0
    2.5768    5.0916   -0.3786 O   0  0  0  0  0  0  0  0  0  0  0  0
    2.9956    5.3320   -1.2192 H   0  0  0  0  0  0  0  0  0  0  0  0
    1.3178    3.3194    0.6028 C   0  0  0  0  0  0  0  0  0  0  0  0
    1.3756    3.8255    1.5610 H   0  0  0  0  0  0  0  0  0  0  0  0
    0.6400    2.1002    0.4909 C   0  0  0  0  0  0  0  0  0  0  0  0
    0.1713    1.7383    1.3931 H   0  0  0  0  0  0  0  0  0  0  0  0
   -0.1481   -0.7344    1.5065 C   0  0  0  0  0  0  0  0  0  0  0  0
    0.9551   -0.8278    2.0278 O   0  0  0  0  0  0  0  0  0  0  0  0
   -1.1921   -0.1879    2.2355 N   0  0  0  0  0  0  0  0  0  0  0  0
   -2.1075   -0.2139    1.7997 H   0  0  0  0  0  0  0  0  0  0  0  0
   -1.1030    0.0729    3.6669 C   0  0  0  0  0  0  0  0  0  0  0  0
   -0.2814    0.7645    3.8810 H   0  0  0  0  0  0  0  0  0  0  0  0
   -2.0329    0.5215    4.0290 H   0  0  0  0  0  0  0  0  0  0  0  0
   -0.9299   -0.8596    4.2145 H   0  0  0  0  0  0  0  0  0  0  0  0
  1  2  1  0  0  0  0
  2  3  1  0  0  0  0
  2  4  1  0  0  0  0
  2  5  1  0  0  0  0
  5  6  2  0  0  0  0
  5  7  1  0  0  0  0
  7  8  1  0  0  0  0
  7  9  1  0  0  0  0
  9 10  1  0  0  0  0
  9 11  1  0  0  0  0
  9 26  1  0  0  0  0
 11 12  1  0  0  0  0
 11 13  1  0  0  0  0
 11 14  1  0  0  0  0
 14 15  2  0  0  0  0
 14 24  1  0  0  0  0
 15 16  1  0  0  0  0
 15 17  1  0  0  0  0
 17 18  1  0  0  0  0
 17 19  2  0  0  0  0
 19 20  1  0  0  0  0
 19 22  1  0  0  0  0
 20 21  1  0  0  0  0
 22 23  1  0  0  0  0
 22 24  2  0  0  0  0
 24 25  1  0  0  0  0
 26 27  2  0  0  0  0
 26 28  1  0  0  0  0
 28 29  1  0  0  0  0
 28 30  1  0  0  0  0
 30 31  1  0  0  0  0
 30 32  1  0  0  0  0
 30 33  1  0  0  0  0
M  END
$$$$

  -OEChem-03222214083D

 33 33  0     1  0  0  0  0  0999 V2000
   -3.5612   -4.4195    0.3859 H   0  0  0  0  0  0  0  0  0  0  0  0
   -3.3862   -3.4652   -0.1193 C   0  0  0  0  0  0  0  0  0  0  0  0
   -4.1708   -2.7638    0.1740 H   0  0  0  0  0  0  0  0  0  0  0  0
   -3.4331   -3.6262   -1.1989 H   0  0  0  0  0  0  0  0  0  0  0  0
   -2.0261   -2.9141    0.2652 C   0  0  0  0  0  0  0  0  0  0  0  0
   -1.3168   -3.5405    1.0303 O   0  0  0  0  0  0  0  0  0  0  0  0
   -1.6018   -1.7105   -0.2662 N   0  0  0  0  0  0  0  0  0  0  0  0
   -2.2175   -1.2691   -0.9421 H   0  0  0  0  0  0  0  0  0  0  0  0
   -0.2968   -1.0742    0.0218 C   0  0  1  0  0  0  0  0  0  0  0  0
    0.5077   -1.7796   -0.2156 H   0  0  0  0  0  0  0  0  0  0  0  0
   -0.1754    0.1232   -0.9713 C   0  0  0  0  0  0  0  0  0  0  0  0
    0.2223   -0.3025   -1.8986 H   0  0  0  0  0  0  0  0  0  0  0  0
   -1.1932    0.4623   -1.1901 H   0  0  0  0  0  0  0  0  0  0  0  0
    0.5919    1.4209   -0.7025 C   0  0  0  0  0  0  0  0  0  0  0  0
    0.8453    2.2108   -1.8407 C   0  0  0  0  0  0  0  0  0  0  0  0
    0.5222    1.8680   -2.8193 H   0  0  0  0  0  0  0  0  0  0  0  0
    1.5141    3.4365   -1.7549 C   0  0  0  0  0  0  0  0  0  0  0  0
    1.6967    4.0110   -2.6562 H   0  0  0  0  0  0  0  0  0  0  0  0
    1.9400    3.9137   -0.5185 C   0  0  0  0  0  0  0  0  0  0  0  0
    2.5945    5.1073   -0.4173 O   0  0  0  0  0  0  0  0  0  0  0  0
    2.7480    5.4797   -1.2990 H   0  0  0  0  0  0  0  0  0  0  0  0
    1.6876    3.1621    0.6230 C   0  0  0  0  0  0  0  0  0  0  0  0
    2.0170    3.5382    1.5862 H   0  0  0  0  0  0  0  0  0  0  0  0
    1.0202    1.9345    0.5414 C   0  0  0  0  0  0  0  0  0  0  0  0
    0.8664    1.4353    1.4856 H   0  0  0  0  0  0  0  0  0  0  0  0
   -0.1526   -0.7793    1.5298 C   0  0  0  0  0  0  0  0  0  0  0  0
    0.9133   -0.9780    2.0985 O   0  0  0  0  0  0  0  0  0  0  0  0
   -1.1987   -0.2120    2.2372 N   0  0  0  0  0  0  0  0  0  0  0  0
   -2.0886   -0.1391    1.7567 H   0  0  0  0  0  0  0  0  0  0  0  0
   -1.1493    0.0226    3.6746 C   0  0  0  0  0  0  0  0  0  0  0  0
   -0.3444    0.7231    3.9211 H   0  0  0  0  0  0  0  0  0  0  0  0
   -2.0957    0.4477    4.0218 H   0  0  0  0  0  0  0  0  0  0  0  0
   -0.9746   -0.9174    4.2089 H   0  0  0  0  0  0  0  0  0  0  0  0
  1  2  1  0  0  0  0
  2  3  1  0  0  0  0
  2  4  1  0  0  0  0
  2  5  1  0  0  0  0
  5  6  2  0  0  0  0
  5  7  1  0  0  0  0
  7  8  1  0  0  0  0
  7  9  1  0  0  0  0
  9 10  1  0  0  0  0
  9 11  1  0  0  0  0
  9 26  1  0  0  0  0
 11 12  1  0  0  0  0
 11 13  1  0  0  0  0
 11 14  1  0  0  0  0
 14 15  2  0  0  0  0
 14 24  1  0  0  0  0
 15 16  1  0  0  0  0
 15 17  1  0  0  0  0
 17 18  1  0  0  0  0
 17 19  2  0  0  0  0
 19 20  1  0  0  0  0
 19 22  1  0  0  0  0
 20 21  1  0  0  0  0
 22 23  1  0  0  0  0
 22 24  2  0  0  0  0
 24 25  1  0  0  0  0
 26 27  2  0  0  0  0
 26 28  1  0  0  0  0
 28 29  1  0  0  0  0
 28 30  1  0  0  0  0
 30 31  1  0  0  0  0
 30 32  1  0  0  0  0
 30 33  1  0  0  0  0
M  END
$$$$

  -OEChem-03222214083D

 33 33  0     1  0  0  0  0  0999 V2000
   -3.5419   -4.3752    0.5648 H   0  0  0  0  0  0  0  0  0  0  0  0
   -3.3538   -3.4592   -0.0029 C   0  0  0  0  0  0  0  0  0  0  0  0
   -4.1421   -2.7378    0.2242 H   0  0  0  0  0  0  0  0  0  0  0  0
   -3.3791   -3.6958   -1.0694 H   0  0  0  0  0  0  0  0  0  0  0  0
   -2.0001   -2.8840    0.3699 C   0  0  0  0  0  0  0  0  0  0  0  0
   -1.3185   -3.4458    1.2066 O   0  0  0  0  0  0  0  0  0  0  0  0
   -1.5481   -1.7413   -0.2643 N   0  0  0  0  0  0  0  0  0  0  0  0
   -2.1295   -1.3801   -1.0139 H   0  0  0  0  0  0  0  0  0  0  0  0
   -0.2379   -1.0978   -0.0193 C   0  0  1  0  0  0  0  0  0  0  0  0
    0.5856   -1.7872   -0.2357 H   0  0  0  0  0  0  0  0  0  0  0  0
   -0.2055    0.0925   -1.0154 C   0  0  0  0  0  0  0  0  0  0  0  0
   -0.0936   -0.3341   -2.0176 H   0  0  0  0  0  0  0  0  0  0  0  0
   -1.1863    0.5786   -0.9770 H   0  0  0  0  0  0  0  0  0  0  0  0
    0.8120    1.2188   -0.8887 C   0  0  0  0  0  0  0  0  0  0  0  0
    0.7359    2.2441   -1.8483 C   0  0  0  0  0  0  0  0  0  0  0  0
   -0.0661    2.2392   -2.5805 H   0  0  0  0  0  0  0  0  0  0  0  0
    1.6644    3.2907   -1.8747 C   0  0  0  0  0  0  0  0  0  0  0  0
    1.5639    4.0775   -2.6142 H   0  0  0  0  0  0  0  0  0  0  0  0
    2.7164    3.3145   -0.9609 C   0  0  0  0  0  0  0  0  0  0  0  0
    3.6309    4.3280   -0.9750 O   0  0  0  0  0  0  0  0  0  0  0  0
    3.4097    4.9666   -1.6697 H   0  0  0  0  0  0  0  0  0  0  0  0
    2.8440    2.2780   -0.0422 C   0  0  0  0  0  0  0  0  0  0  0  0
    3.6818    2.2807    0.6479 H   0  0  0  0  0  0  0  0  0  0  0  0
    1.9183    1.2289   -0.0166 C   0  0  0  0  0  0  0  0  0  0  0  0
    2.1196    0.4248    0.6778 H   0  0  0  0  0  0  0  0  0  0  0  0
   -0.1329   -0.6712    1.4690 C   0  0  0  0  0  0  0  0  0  0  0  0
    0.8562   -0.9498    2.1345 O   0  0  0  0  0  0  0  0  0  0  0  0
   -1.1941   -0.0330    2.0885 N   0  0  0  0  0  0  0  0  0  0  0  0
   -2.0492    0.0565    1.5517 H   0  0  0  0  0  0  0  0  0  0  0  0
   -1.2245    0.2513    3.5176 C   0  0  0  0  0  0  0  0  0  0  0  0
   -0.3869    0.8993    3.7966 H   0  0  0  0  0  0  0  0  0  0  0  0
   -2.1564    0.7591    3.7831 H   0  0  0  0  0  0  0  0  0  0  0  0
   -1.1586   -0.6780    4.0934 H   0  0  0  0  0  0  0  0  0  0  0  0
  1  2  1  0  0  0  0
  2  3  1  0  0  0  0
  2  4  1  0  0  0  0
  2  5  1  0  0  0  0
  5  6  2  0  0  0  0
  5  7  1  0  0  0  0
  7  8  1  0  0  0  0
  7  9  1  0  0  0  0
  9 10  1  0  0  0  0
  9 11  1  0  0  0  0
  9 26  1  0  0  0  0
 11 12  1  0  0  0  0
 11 13  1  0  0  0  0
 11 14  1  0  0  0  0
 14 15  2  0  0  0  0
 14 24  1  0  0  0  0
 15 16  1  0  0  0  0
 15 17  1  0  0  0  0
 17 18  1  0  0  0  0
 17 19  2  0  0  0  0
 19 20  1  0  0  0  0
 19 22  1  0  0  0  0
 20 21  1  0  0  0  0
 22 23  1  0  0  0  0
 22 24  2  0  0  0  0
 24 25  1  0  0  0  0
 26 27  2  0  0  0  0
 26 28  1  0  0  0  0
 28 29  1  0  0  0  0
 28 30  1  0  0  0  0
 30 31  1  0  0  0  0
 30 32  1  0  0  0  0
 30 33  1  0  0  0  0
M  END
$$$$

  -OEChem-03222214083D

 33 33  0     1  0  0  0  0  0999 V2000
   -3.4949   -4.4243    0.6415 H   0  0  0  0  0  0  0  0  0  0  0  0
   -3.3359   -3.5181    0.0496 C   0  0  0  0  0  0  0  0  0  0  0  0
   -4.1445   -2.8142    0.2606 H   0  0  0  0  0  0  0  0  0  0  0  0
   -3.3581   -3.7841   -1.0099 H   0  0  0  0  0  0  0  0  0  0  0  0
   -1.9982   -2.8941    0.4014 C   0  0  0  0  0  0  0  0  0  0  0  0
   -1.3041   -3.4061    1.2596 O   0  0  0  0  0  0  0  0  0  0  0  0
   -1.5739   -1.7632   -0.2714 N   0  0  0  0  0  0  0  0  0  0  0  0
   -2.1603   -1.4445   -1.0364 H   0  0  0  0  0  0  0  0  0  0  0  0
   -0.2727   -1.0930   -0.0556 C   0  0  1  0  0  0  0  0  0  0  0  0
    0.5532   -1.7828   -0.2612 H   0  0  0  0  0  0  0  0  0  0  0  0
   -0.2438    0.0768   -1.0721 C   0  0  0  0  0  0  0  0  0  0  0  0
   -0.1190   -0.3524   -2.0715 H   0  0  0  0  0  0  0  0  0  0  0  0
   -1.2244    0.5639   -1.0464 H   0  0  0  0  0  0  0  0  0  0  0  0
    0.7906    1.1787   -0.9107 C   0  0  0  0  0  0  0  0  0  0  0  0
    0.5960    2.3723   -1.6268 C   0  0  0  0  0  0  0  0  0  0  0  0
   -0.3104    2.5135   -2.2081 H   0  0  0  0  0  0  0  0  0  0  0  0
    1.5469    3.3990   -1.5960 C   0  0  0  0  0  0  0  0  0  0  0  0
    1.3602    4.3176   -2.1411 H   0  0  0  0  0  0  0  0  0  0  0  0
    2.7302    3.2357   -0.8764 C   0  0  0  0  0  0  0  0  0  0  0  0
    3.6656    4.2293   -0.8368 O   0  0  0  0  0  0  0  0  0  0  0  0
    3.3469    5.0069   -1.3193 H   0  0  0  0  0  0  0  0  0  0  0  0
    2.9649    2.0364   -0.2108 C   0  0  0  0  0  0  0  0  0  0  0  0
    3.8978    1.9015    0.3272 H   0  0  0  0  0  0  0  0  0  0  0  0
    2.0177    1.0071   -0.2426 C   0  0  0  0  0  0  0  0  0  0  0  0
    2.2734    0.0736    0.2471 H   0  0  0  0  0  0  0  0  0  0  0  0
   -0.1392   -0.6132    1.4141 C   0  0  0  0  0  0  0  0  0  0  0  0
    0.8877   -0.8136    2.0499 O   0  0  0  0  0  0  0  0  0  0  0  0
   -1.1946    0.0334    2.0342 N   0  0  0  0  0  0  0  0  0  0  0  0
   -2.0699    0.0724    1.5248 H   0  0  0  0  0  0  0  0  0  0  0  0
   -1.1773    0.4111    3.4415 C   0  0  0  0  0  0  0  0  0  0  0  0
   -0.3597    1.1125    3.6389 H   0  0  0  0  0  0  0  0  0  0  0  0
   -2.1199    0.8938    3.7161 H   0  0  0  0  0  0  0  0  0  0  0  0
   -1.0432   -0.4736    4.0730 H   0  0  0  0  0  0  0  0  0  0  0  0
  1  2  1  0  0  0  0
  2  3  1  0  0  0  0
  2  4  1  0  0  0  0
  2  5  1  0  0  0  0
  5  6  2  0  0  0  0
  5  7  1  0  0  0  0
  7  8  1  0  0  0  0
  7  9  1  0  0  0  0
  9 10  1  0  0  0  0
  9 11  1  0  0  0  0
  9 26  1  0  0  0  0
 11 12  1  0  0  0  0
 11 13  1  0  0  0  0
 11 14  1  0  0  0  0
 14 15  2  0  0  0  0
 14 24  1  0  0  0  0
 15 16  1  0  0  0  0
 15 17  1  0  0  0  0
 17 18  1  0  0  0  0
 17 19  2  0  0  0  0
 19 20  1  0  0  0  0
 19 22  1  0  0  0  0
 20 21  1  0  0  0  0
 22 23  1  0  0  0  0
 22 24  2  0  0  0  0
 24 25  1  0  0  0  0
 26 27  2  0  0  0  0
 26 28  1  0  0  0  0
 28 29  1  0  0  0  0
 28 30  1  0  0  0  0
 30 31  1  0  0  0  0
 30 32  1  0  0  0  0
 30 33  1  0  0  0  0
M  END
$$$$

  -OEChem-03222214083D

 33 33  0     1  0  0  0  0  0999 V2000
   -3.4511   -4.4634    0.6773 H   0  0  0  0  0  0  0  0  0  0  0  0
   -3.3147   -3.5638    0.0703 C   0  0  0  0  0  0  0  0  0  0  0  0
   -4.1404   -2.8767    0.2695 H   0  0  0  0  0  0  0  0  0  0  0  0
   -3.3298   -3.8478   -0.9847 H   0  0  0  0  0  0  0  0  0  0  0  0
   -1.9934   -2.9007    0.4115 C   0  0  0  0  0  0  0  0  0  0  0  0
   -1.2853   -3.3787    1.2781 O   0  0  0  0  0  0  0  0  0  0  0  0
   -1.6004   -1.7702   -0.2797 N   0  0  0  0  0  0  0  0  0  0  0  0
   -2.1959   -1.4794   -1.0487 H   0  0  0  0  0  0  0  0  0  0  0  0
   -0.3062   -1.0809   -0.0950 C   0  0  1  0  0  0  0  0  0  0  0  0
    0.5157   -1.7733   -0.3070 H   0  0  0  0  0  0  0  0  0  0  0  0
   -0.2866    0.0690   -1.1306 C   0  0  0  0  0  0  0  0  0  0  0  0
   -0.1555   -0.3668   -2.1261 H   0  0  0  0  0  0  0  0  0  0  0  0
   -1.2677    0.5549   -1.1134 H   0  0  0  0  0  0  0  0  0  0  0  0
    0.7596    1.1531   -0.9499 C   0  0  0  0  0  0  0  0  0  0  0  0
    0.4740    2.4583   -1.3845 C   0  0  0  0  0  0  0  0  0  0  0  0
   -0.5052    2.6962   -1.7889 H   0  0  0  0  0  0  0  0  0  0  0  0
    1.4374    3.4707   -1.2997 C   0  0  0  0  0  0  0  0  0  0  0  0
    1.1896    4.4737   -1.6289 H   0  0  0  0  0  0  0  0  0  0  0  0
    2.7096    3.1881   -0.8010 C   0  0  0  0  0  0  0  0  0  0  0  0
    3.6569    4.1673   -0.7126 O   0  0  0  0  0  0  0  0  0  0  0  0
    3.2813    5.0194   -0.9807 H   0  0  0  0  0  0  0  0  0  0  0  0
    3.0164    1.8903   -0.4014 C   0  0  0  0  0  0  0  0  0  0  0  0
    4.0097    1.6713   -0.0234 H   0  0  0  0  0  0  0  0  0  0  0  0
    2.0578    0.8753   -0.4861 C   0  0  0  0  0  0  0  0  0  0  0  0
    2.3401   -0.1285   -0.1817 H   0  0  0  0  0  0  0  0  0  0  0  0
   -0.1200   -0.5746    1.3584 C   0  0  0  0  0  0  0  0  0  0  0  0
    0.9501   -0.7187    1.9357 O   0  0  0  0  0  0  0  0  0  0  0  0
   -1.1557    0.0737    2.0087 N   0  0  0  0  0  0  0  0  0  0  0  0
   -2.0589    0.0636    1.5488 H   0  0  0  0  0  0  0  0  0  0  0  0
   -1.0759    0.4942    3.4016 C   0  0  0  0  0  0  0  0  0  0  0  0
   -0.2526    1.2027    3.5410 H   0  0  0  0  0  0  0  0  0  0  0  0
   -2.0064    0.9838    3.7037 H   0  0  0  0  0  0  0  0  0  0  0  0
   -0.9105   -0.3707    4.0528 H   0  0  0  0  0  0  0  0  0  0  0  0
  1  2  1  0  0  0  0
  2  3  1  0  0  0  0
  2  4  1  0  0  0  0
  2  5  1  0  0  0  0
  5  6  2  0  0  0  0
  5  7  1  0  0  0  0
  7  8  1  0  0  0  0
  7  9  1  0  0  0  0
  9 10  1  0  0  0  0
  9 11  1  0  0  0  0
  9 26  1  0  0  0  0
 11 12  1  0  0  0  0
 11 13  1  0  0  0  0
 11 14  1  0  0  0  0
 14 15  2  0  0  0  0
 14 24  1  0  0  0  0
 15 16  1  0  0  0  0
 15 17  1  0  0  0  0
 17 18  1  0  0  0  0
 17 19  2  0  0  0  0
 19 20  1  0  0  0  0
 19 22  1  0  0  0  0
 20 21  1  0  0  0  0
 22 23  1  0  0  0  0
 22 24  2  0  0  0  0
 24 25  1  0  0  0  0
 26 27  2  0  0  0  0
 26 28  1  0  0  0  0
 28 29  1  0  0  0  0
 28 30  1  0  0  0  0
 30 31  1  0  0  0  0
 30 32  1  0  0  0  0
 30 33  1  0  0  0  0
M  END
$$$$

  -OEChem-03222214083D

 33 33  0     1  0  0  0  0  0999 V2000
   -3.4100   -4.4942    0.7110 H   0  0  0  0  0  0  0  0  0  0  0  0
   -3.2990   -3.5949    0.0982 C   0  0  0  0  0  0  0  0  0  0  0  0
   -4.1310   -2.9198    0.3112 H   0  0  0  0  0  0  0  0  0  0  0  0
   -3.3313   -3.8827   -0.9553 H   0  0  0  0  0  0  0  0  0  0  0  0
   -1.9814   -2.9103    0.4107 C   0  0  0  0  0  0  0  0  0  0  0  0
   -1.2541   -3.3674    1.2728 O   0  0  0  0  0  0  0  0  0  0  0  0
   -1.6161   -1.7794   -0.2947 N   0  0  0  0  0  0  0  0  0  0  0  0
   -2.2267   -1.5033   -1.0575 H   0  0  0  0  0  0  0  0  0  0  0  0
   -0.3285   -1.0725   -0.1352 C   0  0  1  0  0  0  0  0  0  0  0  0
    0.4927   -1.7640   -0.3527 H   0  0  0  0  0  0  0  0  0  0  0  0
   -0.3199    0.0637   -1.1833 C   0  0  0  0  0  0  0  0  0  0  0  0
   -0.1813   -0.3767   -2.1758 H   0  0  0  0  0  0  0  0  0  0  0  0
   -1.3022    0.5471   -1.1758 H   0  0  0  0  0  0  0  0  0  0  0  0
    0.7332    1.1353   -0.9852 C   0  0  0  0  0  0  0  0  0  0  0  0
    0.3885    2.4911   -1.1098 C   0  0  0  0  0  0  0  0  0  0  0  0
   -0.6389    2.7783   -1.3104 H   0  0  0  0  0  0  0  0  0  0  0  0
    1.3601    3.4902   -0.9782 C   0  0  0  0  0  0  0  0  0  0  0  0
    1.0721    4.5312   -1.0730 H   0  0  0  0  0  0  0  0  0  0  0  0
    2.6905    3.1474   -0.7310 C   0  0  0  0  0  0  0  0  0  0  0  0
    3.6458    4.1143   -0.6022 O   0  0  0  0  0  0  0  0  0  0  0  0
    3.2377    4.9923   -0.6439 H   0  0  0  0  0  0  0  0  0  0  0  0
    3.0449    1.8051   -0.6197 C   0  0  0  0  0  0  0  0  0  0  0  0
    4.0796    1.5440   -0.4231 H   0  0  0  0  0  0  0  0  0  0  0  0
    2.0780    0.8026   -0.7519 C   0  0  0  0  0  0  0  0  0  0  0  0
    2.3816   -0.2361   -0.6566 H   0  0  0  0  0  0  0  0  0  0  0  0
   -0.1032   -0.5458    1.3037 C   0  0  0  0  0  0  0  0  0  0  0  0
    0.9956   -0.6477    1.8338 O   0  0  0  0  0  0  0  0  0  0  0  0
   -1.1235    0.1018    1.9784 N   0  0  0  0  0  0  0  0  0  0  0  0
   -2.0448    0.0609    1.5579 H   0  0  0  0  0  0  0  0  0  0  0  0
   -0.9936    0.5614    3.3553 C   0  0  0  0  0  0  0  0  0  0  0  0
   -0.1720    1.2803    3.4427 H   0  0  0  0  0  0  0  0  0  0  0  0
   -1.9161    1.0518    3.6798 H   0  0  0  0  0  0  0  0  0  0  0  0
   -0.7949   -0.2833    4.0235 H   0  0  0  0  0  0  0  0  0  0  0  0
  1  2  1  0  0  0  0
  2  3  1  0  0  0  0
  2  4  1  0  0  0  0
  2  5  1  0  0  0  0
  5  6  2  0  0  0  0
  5  7  1  0  0  0  0
  7  8  1  0  0  0  0
  7  9  1  0  0  0  0
  9 10  1  0  0  0  0
  9 11  1  0  0  0  0
  9 26  1  0  0  0  0
 11 12  1  0  0  0  0
 11 13  1  0  0  0  0
 11 14  1  0  0  0  0
 14 15  2  0  0  0  0
 14 24  1  0  0  0  0
 15 16  1  0  0  0  0
 15 17  1  0  0  0  0
 17 18  1  0  0  0  0
 17 19  2  0  0  0  0
 19 20  1  0  0  0  0
 19 22  1  0  0  0  0
 20 21  1  0  0  0  0
 22 23  1  0  0  0  0
 22 24  2  0  0  0  0
 24 25  1  0  0  0  0
 26 27  2  0  0  0  0
 26 28  1  0  0  0  0
 28 29  1  0  0  0  0
 28 30  1  0  0  0  0
 30 31  1  0  0  0  0
 30 32  1  0  0  0  0
 30 33  1  0  0  0  0
M  END
$$$$

  -OEChem-03222214083D

 33 33  0     1  0  0  0  0  0999 V2000
   -3.3664   -4.5123    0.7446 H   0  0  0  0  0  0  0  0  0  0  0  0
   -3.2772   -3.6149    0.1255 C   0  0  0  0  0  0  0  0  0  0  0  0
   -4.1172   -2.9518    0.3454 H   0  0  0  0  0  0  0  0  0  0  0  0
   -3.3180   -3.9096   -0.9259 H   0  0  0  0  0  0  0  0  0  0  0  0
   -1.9664   -2.9082    0.4181 C   0  0  0  0  0  0  0  0  0  0  0  0
   -1.2280   -3.3419    1.2830 O   0  0  0  0  0  0  0  0  0  0  0  0
   -1.6226   -1.7802   -0.3027 N   0  0  0  0  0  0  0  0  0  0  0  0
   -2.2385   -1.5267   -1.0691 H   0  0  0  0  0  0  0  0  0  0  0  0
   -0.3394   -1.0602   -0.1679 C   0  0  1  0  0  0  0  0  0  0  0  0
    0.4849   -1.7465   -0.3903 H   0  0  0  0  0  0  0  0  0  0  0  0
   -0.3489    0.0672   -1.2233 C   0  0  0  0  0  0  0  0  0  0  0  0
   -0.2139   -0.3753   -2.2155 H   0  0  0  0  0  0  0  0  0  0  0  0
   -1.3311    0.5503   -1.2147 H   0  0  0  0  0  0  0  0  0  0  0  0
    0.7096    1.1282   -1.0158 C   0  0  0  0  0  0  0  0  0  0  0  0
    0.3481    2.4702   -0.8161 C   0  0  0  0  0  0  0  0  0  0  0  0
   -0.6985    2.7575   -0.7871 H   0  0  0  0  0  0  0  0  0  0  0  0
    1.3306    3.4534   -0.6474 C   0  0  0  0  0  0  0  0  0  0  0  0
    1.0334    4.4840   -0.4896 H   0  0  0  0  0  0  0  0  0  0  0  0
    2.6831    3.1084   -0.6828 C   0  0  0  0  0  0  0  0  0  0  0  0
    3.6483    4.0603   -0.5214 O   0  0  0  0  0  0  0  0  0  0  0  0
    3.2408    4.9136   -0.3091 H   0  0  0  0  0  0  0  0  0  0  0  0
    3.0489    1.7795   -0.8848 C   0  0  0  0  0  0  0  0  0  0  0  0
    4.1013    1.5162   -0.9021 H   0  0  0  0  0  0  0  0  0  0  0  0
    2.0716    0.7921   -1.0512 C   0  0  0  0  0  0  0  0  0  0  0  0
    2.3791   -0.2396   -1.1953 H   0  0  0  0  0  0  0  0  0  0  0  0
   -0.0913   -0.5161    1.2604 C   0  0  0  0  0  0  0  0  0  0  0  0
    1.0232   -0.5841    1.7625 O   0  0  0  0  0  0  0  0  0  0  0  0
   -1.1051    0.1304    1.9460 N   0  0  0  0  0  0  0  0  0  0  0  0
   -2.0372    0.0527    1.5553 H   0  0  0  0  0  0  0  0  0  0  0  0
   -0.9502    0.6053    3.3148 C   0  0  0  0  0  0  0  0  0  0  0  0
   -0.1287    1.3269    3.3785 H   0  0  0  0  0  0  0  0  0  0  0  0
   -1.8673    1.0968    3.6519 H   0  0  0  0  0  0  0  0  0  0  0  0
   -0.7368   -0.2324    3.9872 H   0  0  0  0  0  0  0  0  0  0  0  0
  1  2  1  0  0  0  0
  2  3  1  0  0  0  0
  2  4  1  0  0  0  0
  2  5  1  0  0  0  0
  5  6  2  0  0  0  0
  5  7  1  0  0  0  0
  7  8  1  0  0  0  0
  7  9  1  0  0  0  0
  9 10  1  0  0  0  0
  9 11  1  0  0  0  0
  9 26  1  0  0  0  0
 11 12  1  0  0  0  0
 11 13  1  0  0  0  0
 11 14  1  0  0  0  0
 14 15  2  0  0  0  0
 14 24  1  0  0  0  0
 15 16  1  0  0  0  0
 15 17  1  0  0  0  0
 17 18  1  0  0  0  0
 17 19  2  0  0  0  0
 19 20  1  0  0  0  0
 19 22  1  0  0  0  0
 20 21  1  0  0  0  0
 22 23  1  0  0  0  0
 22 24  2  0  0  0  0
 24 25  1  0  0  0  0
 26 27  2  0  0  0  0
 26 28  1  0  0  0  0
 28 29  1  0  0  0  0
 28 30  1  0  0  0  0
 30 31  1  0  0  0  0
 30 32  1  0  0  0  0
 30 33  1  0  0  0  0
M  END
$$$$

  -OEChem-03222214083D

 33 33  0     1  0  0  0  0  0999 V2000
   -3.3416   -4.5187    0.7588 H   0  0  0  0  0  0  0  0  0  0  0  0
   -3.2630   -3.6213    0.1384 C   0  0  0  0  0  0  0  0  0  0  0  0
   -4.1081   -2.9655    0.3607 H   0  0  0  0  0  0  0  0  0  0  0  0
   -3.3051   -3.9177   -0.9123 H   0  0  0  0  0  0  0  0  0  0  0  0
   -1.9581   -2.9016    0.4245 C   0  0  0  0  0  0  0  0  0  0  0  0
   -1.2155   -3.3223    1.2919 O   0  0  0  0  0  0  0  0  0  0  0  0
   -1.6256   -1.7747   -0.3034 N   0  0  0  0  0  0  0  0  0  0  0  0
   -2.2432   -1.5337   -1.0725 H   0  0  0  0  0  0  0  0  0  0  0  0
   -0.3436   -1.0500   -0.1830 C   0  0  1  0  0  0  0  0  0  0  0  0
    0.4821   -1.7336   -0.4091 H   0  0  0  0  0  0  0  0  0  0  0  0
   -0.3634    0.0714   -1.2439 C   0  0  0  0  0  0  0  0  0  0  0  0
   -0.2376   -0.3740   -2.2359 H   0  0  0  0  0  0  0  0  0  0  0  0
   -1.3434    0.5595   -1.2309 H   0  0  0  0  0  0  0  0  0  0  0  0
    0.6979    1.1276   -1.0381 C   0  0  0  0  0  0  0  0  0  0  0  0
    0.3648    2.3941   -0.5324 C   0  0  0  0  0  0  0  0  0  0  0  0
   -0.6633    2.6257   -0.2718 H   0  0  0  0  0  0  0  0  0  0  0  0
    1.3543    3.3674   -0.3489 C   0  0  0  0  0  0  0  0  0  0  0  0
    1.0806    4.3393    0.0462 H   0  0  0  0  0  0  0  0  0  0  0  0
    2.6839    3.0861   -0.6695 C   0  0  0  0  0  0  0  0  0  0  0  0
    3.6562    4.0281   -0.4933 O   0  0  0  0  0  0  0  0  0  0  0  0
    3.2895    4.8008   -0.0373 H   0  0  0  0  0  0  0  0  0  0  0  0
    3.0208    1.8301   -1.1698 C   0  0  0  0  0  0  0  0  0  0  0  0
    4.0578    1.6158   -1.4065 H   0  0  0  0  0  0  0  0  0  0  0  0
    2.0367    0.8525   -1.3525 C   0  0  0  0  0  0  0  0  0  0  0  0
    2.3209   -0.1250   -1.7304 H   0  0  0  0  0  0  0  0  0  0  0  0
   -0.0847   -0.5013    1.2413 C   0  0  0  0  0  0  0  0  0  0  0  0
    1.0368   -0.5502    1.7295 O   0  0  0  0  0  0  0  0  0  0  0  0
   -1.0967    0.1429    1.9321 N   0  0  0  0  0  0  0  0  0  0  0  0
   -2.0331    0.0405    1.5573 H   0  0  0  0  0  0  0  0  0  0  0  0
   -0.9339    0.6174    3.3002 C   0  0  0  0  0  0  0  0  0  0  0  0
   -0.1132    1.3400    3.3588 H   0  0  0  0  0  0  0  0  0  0  0  0
   -1.8495    1.1075    3.6440 H   0  0  0  0  0  0  0  0  0  0  0  0
   -0.7139   -0.2201    3.9707 H   0  0  0  0  0  0  0  0  0  0  0  0
  1  2  1  0  0  0  0
  2  3  1  0  0  0  0
  2  4  1  0  0  0  0
  2  5  1  0  0  0  0
  5  6  2  0  0  0  0
  5  7  1  0  0  0  0
  7  8  1  0  0  0  0
  7  9  1  0  0  0  0
  9 10  1  0  0  0  0
  9 11  1  0  0  0  0
  9 26  1  0  0  0  0
 11 12  1  0  0  0  0
 11 13  1  0  0  0  0
 11 14  1  0  0  0  0
 14 15  2  0  0  0  0
 14 24  1  0  0  0  0
 15 16  1  0  0  0  0
 15 17  1  0  0  0  0
 17 18  1  0  0  0  0
 17 19  2  0  0  0  0
 19 20  1  0  0  0  0
 19 22  1  0  0  0  0
 20 21  1  0  0  0  0
 22 23  1  0  0  0  0
 22 24  2  0  0  0  0
 24 25  1  0  0  0  0
 26 27  2  0  0  0  0
 26 28  1  0  0  0  0
 28 29  1  0  0  0  0
 28 30  1  0  0  0  0
 30 31  1  0  0  0  0
 30 32  1  0  0  0  0
 30 33  1  0  0  0  0
M  END
$$$$

  -OEChem-03222214083D

 33 33  0     1  0  0  0  0  0999 V2000
   -3.3424   -4.5173    0.7515 H   0  0  0  0  0  0  0  0  0  0  0  0
   -3.2608   -3.6216    0.1287 C   0  0  0  0  0  0  0  0  0  0  0  0
   -4.1105   -2.9682    0.3406 H   0  0  0  0  0  0  0  0  0  0  0  0
   -3.2913   -3.9217   -0.9216 H   0  0  0  0  0  0  0  0  0  0  0  0
   -1.9610   -2.8974    0.4249 C   0  0  0  0  0  0  0  0  0  0  0  0
   -1.2210   -3.3192    1.2940 O   0  0  0  0  0  0  0  0  0  0  0  0
   -1.6295   -1.7662   -0.2966 N   0  0  0  0  0  0  0  0  0  0  0  0
   -2.2464   -1.5233   -1.0659 H   0  0  0  0  0  0  0  0  0  0  0  0
   -0.3463   -1.0436   -0.1755 C   0  0  1  0  0  0  0  0  0  0  0  0
    0.4779   -1.7290   -0.4017 H   0  0  0  0  0  0  0  0  0  0  0  0
   -0.3583    0.0751   -1.2410 C   0  0  0  0  0  0  0  0  0  0  0  0
   -0.2412   -0.3767   -2.2313 H   0  0  0  0  0  0  0  0  0  0  0  0
   -1.3342    0.5710   -1.2271 H   0  0  0  0  0  0  0  0  0  0  0  0
    0.7022    1.1349   -1.0459 C   0  0  0  0  0  0  0  0  0  0  0  0
    0.4505    2.2821   -0.2757 C   0  0  0  0  0  0  0  0  0  0  0  0
   -0.5162    2.4209    0.1986 H   0  0  0  0  0  0  0  0  0  0  0  0
    1.4444    3.2520   -0.1014 C   0  0  0  0  0  0  0  0  0  0  0  0
    1.2340    4.1290    0.5004 H   0  0  0  0  0  0  0  0  0  0  0  0
    2.6979    3.0869   -0.6939 C   0  0  0  0  0  0  0  0  0  0  0  0
    3.6737    4.0270   -0.5294 O   0  0  0  0  0  0  0  0  0  0  0  0
    3.3834    4.6952    0.1099 H   0  0  0  0  0  0  0  0  0  0  0  0
    2.9554    1.9495   -1.4563 C   0  0  0  0  0  0  0  0  0  0  0  0
    3.9351    1.8253   -1.9056 H   0  0  0  0  0  0  0  0  0  0  0  0
    1.9674    0.9745   -1.6299 C   0  0  0  0  0  0  0  0  0  0  0  0
    2.1925    0.0891   -2.2169 H   0  0  0  0  0  0  0  0  0  0  0  0
   -0.0900   -0.5077    1.2543 C   0  0  0  0  0  0  0  0  0  0  0  0
    1.0341   -0.5415    1.7375 O   0  0  0  0  0  0  0  0  0  0  0  0
   -1.1051    0.1296    1.9480 N   0  0  0  0  0  0  0  0  0  0  0  0
   -2.0429    0.0007    1.5844 H   0  0  0  0  0  0  0  0  0  0  0  0
   -0.9434    0.5961    3.3190 C   0  0  0  0  0  0  0  0  0  0  0  0
   -0.1248    1.3208    3.3830 H   0  0  0  0  0  0  0  0  0  0  0  0
   -1.8607    1.0817    3.6648 H   0  0  0  0  0  0  0  0  0  0  0  0
   -0.7221   -0.2453    3.9841 H   0  0  0  0  0  0  0  0  0  0  0  0
  1  2  1  0  0  0  0
  2  3  1  0  0  0  0
  2  4  1  0  0  0  0
  2  5  1  0  0  0  0
  5  6  2  0  0  0  0
  5  7  1  0  0  0  0
  7  8  1  0  0  0  0
  7  9  1  0  0  0  0
  9 10  1  0  0  0  0
  9 11  1  0  0  0  0
  9 26  1  0  0  0  0
 11 12  1  0  0  0  0
 11 13  1  0  0  0  0
 11 14  1  0  0  0  0
 14 15  2  0  0  0  0
 14 24  1  0  0  0  0
 15 16  1  0  0  0  0
 15 17  1  0  0  0  0
 17 18  1  0  0  0  0
 17 19  2  0  0  0  0
 19 20  1  0  0  0  0
 19 22  1  0  0  0  0
 20 21  1  0  0  0  0
 22 23  1  0  0  0  0
 22 24  2  0  0  0  0
 24 25  1  0  0  0  0
 26 27  2  0  0  0  0
 26 28  1  0  0  0  0
 28 29  1  0  0  0  0
 28 30  1  0  0  0  0
 30 31  1  0  0  0  0
 30 32  1  0  0  0  0
 30 33  1  0  0  0  0
M  END
$$$$

  -OEChem-03222214083D

 33 33  0     1  0  0  0  0  0999 V2000
   -3.3597   -4.5139    0.7122 H   0  0  0  0  0  0  0  0  0  0  0  0
   -3.2698   -3.6080    0.1056 C   0  0  0  0  0  0  0  0  0  0  0  0
   -4.1138   -2.9507    0.3275 H   0  0  0  0  0  0  0  0  0  0  0  0
   -3.3016   -3.8889   -0.9497 H   0  0  0  0  0  0  0  0  0  0  0  0
   -1.9643   -2.8995    0.4154 C   0  0  0  0  0  0  0  0  0  0  0  0
   -1.2277   -3.3425    1.2771 O   0  0  0  0  0  0  0  0  0  0  0  0
   -1.6255   -1.7562   -0.2837 N   0  0  0  0  0  0  0  0  0  0  0  0
   -2.2436   -1.4911   -1.0448 H   0  0  0  0  0  0  0  0  0  0  0  0
   -0.3414   -1.0378   -0.1440 C   0  0  1  0  0  0  0  0  0  0  0  0
    0.4816   -1.7272   -0.3627 H   0  0  0  0  0  0  0  0  0  0  0  0
   -0.3316    0.0746   -1.2204 C   0  0  0  0  0  0  0  0  0  0  0  0
   -0.2177   -0.3946   -2.2029 H   0  0  0  0  0  0  0  0  0  0  0  0
   -1.3061    0.5734   -1.2154 H   0  0  0  0  0  0  0  0  0  0  0  0
    0.7172    1.1558   -1.0524 C   0  0  0  0  0  0  0  0  0  0  0  0
    0.5962    2.1681   -0.0850 C   0  0  0  0  0  0  0  0  0  0  0  0
   -0.2733    2.2078    0.5630 H   0  0  0  0  0  0  0  0  0  0  0  0
    1.5932    3.1397    0.0598 C   0  0  0  0  0  0  0  0  0  0  0  0
    1.4820    3.9078    0.8169 H   0  0  0  0  0  0  0  0  0  0  0  0
    2.7225    3.1147   -0.7599 C   0  0  0  0  0  0  0  0  0  0  0  0
    3.7011    4.0567   -0.6244 O   0  0  0  0  0  0  0  0  0  0  0  0
    3.5252    4.6034    0.1566 H   0  0  0  0  0  0  0  0  0  0  0  0
    2.8524    2.1157   -1.7215 C   0  0  0  0  0  0  0  0  0  0  0  0
    3.7366    2.0999   -2.3501 H   0  0  0  0  0  0  0  0  0  0  0  0
    1.8615    1.1387   -1.8657 C   0  0  0  0  0  0  0  0  0  0  0  0
    1.9934    0.3608   -2.6119 H   0  0  0  0  0  0  0  0  0  0  0  0
   -0.1031   -0.5326    1.2994 C   0  0  0  0  0  0  0  0  0  0  0  0
    1.0169   -0.5623    1.7917 O   0  0  0  0  0  0  0  0  0  0  0  0
   -1.1281    0.0886    1.9933 N   0  0  0  0  0  0  0  0  0  0  0  0
   -2.0609   -0.0401    1.6167 H   0  0  0  0  0  0  0  0  0  0  0  0
   -0.9865    0.5202    3.3782 C   0  0  0  0  0  0  0  0  0  0  0  0
   -0.1730    1.2474    3.4717 H   0  0  0  0  0  0  0  0  0  0  0  0
   -1.9109    0.9914    3.7254 H   0  0  0  0  0  0  0  0  0  0  0  0
   -0.7685   -0.3366    4.0246 H   0  0  0  0  0  0  0  0  0  0  0  0
  1  2  1  0  0  0  0
  2  3  1  0  0  0  0
  2  4  1  0  0  0  0
  2  5  1  0  0  0  0
  5  6  2  0  0  0  0
  5  7  1  0  0  0  0
  7  8  1  0  0  0  0
  7  9  1  0  0  0  0
  9 10  1  0  0  0  0
  9 11  1  0  0  0  0
  9 26  1  0  0  0  0
 11 12  1  0  0  0  0
 11 13  1  0  0  0  0
 11 14  1  0  0  0  0
 14 15  2  0  0  0  0
 14 24  1  0  0  0  0
 15 16  1  0  0  0  0
 15 17  1  0  0  0  0
 17 18  1  0  0  0  0
 17 19  2  0  0  0  0
 19 20  1  0  0  0  0
 19 22  1  0  0  0  0
 20 21  1  0  0  0  0
 22 23  1  0  0  0  0
 22 24  2  0  0  0  0
 24 25  1  0  0  0  0
 26 27  2  0  0  0  0
 26 28  1  0  0  0  0
 28 29  1  0  0  0  0
 28 30  1  0  0  0  0
 30 31  1  0  0  0  0
 30 32  1  0  0  0  0
 30 33  1  0  0  0  0
M  END
$$$$

  -OEChem-03222214083D

 33 33  0     1  0  0  0  0  0999 V2000
   -3.3964   -4.5059    0.6401 H   0  0  0  0  0  0  0  0  0  0  0  0
   -3.2871   -3.5882    0.0549 C   0  0  0  0  0  0  0  0  0  0  0  0
   -4.1261   -2.9258    0.2807 H   0  0  0  0  0  0  0  0  0  0  0  0
   -3.3084   -3.8455   -1.0069 H   0  0  0  0  0  0  0  0  0  0  0  0
   -1.9771   -2.9035    0.3982 C   0  0  0  0  0  0  0  0  0  0  0  0
   -1.2556   -3.3776    1.2560 O   0  0  0  0  0  0  0  0  0  0  0  0
   -1.6161   -1.7472   -0.2679 N   0  0  0  0  0  0  0  0  0  0  0  0
   -2.2217   -1.4562   -1.0295 H   0  0  0  0  0  0  0  0  0  0  0  0
   -0.3285   -1.0421   -0.0917 C   0  0  1  0  0  0  0  0  0  0  0  0
    0.4923   -1.7367   -0.3018 H   0  0  0  0  0  0  0  0  0  0  0  0
   -0.2857    0.0742   -1.1683 C   0  0  0  0  0  0  0  0  0  0  0  0
   -0.1716   -0.4093   -2.1439 H   0  0  0  0  0  0  0  0  0  0  0  0
   -1.2594    0.5746   -1.1743 H   0  0  0  0  0  0  0  0  0  0  0  0
    0.7498    1.1804   -1.0297 C   0  0  0  0  0  0  0  0  0  0  0  0
    0.8176    2.0509    0.0741 C   0  0  0  0  0  0  0  0  0  0  0  0
    0.0937    1.9943    0.8785 H   0  0  0  0  0  0  0  0  0  0  0  0
    1.8145    3.0299    0.1575 C   0  0  0  0  0  0  0  0  0  0  0  0
    1.8453    3.6830    1.0226 H   0  0  0  0  0  0  0  0  0  0  0  0
    2.7588    3.1611   -0.8604 C   0  0  0  0  0  0  0  0  0  0  0  0
    3.7360    4.1111   -0.7856 O   0  0  0  0  0  0  0  0  0  0  0  0
    3.7031    4.5498    0.0784 H   0  0  0  0  0  0  0  0  0  0  0  0
    2.7027    2.3106   -1.9603 C   0  0  0  0  0  0  0  0  0  0  0  0
    3.4430    2.4150   -2.7466 H   0  0  0  0  0  0  0  0  0  0  0  0
    1.7121    1.3264   -2.0443 C   0  0  0  0  0  0  0  0  0  0  0  0
    1.7044    0.6695   -2.9089 H   0  0  0  0  0  0  0  0  0  0  0  0
   -0.1265   -0.5794    1.3707 C   0  0  0  0  0  0  0  0  0  0  0  0
    0.9812   -0.6187    1.8896 O   0  0  0  0  0  0  0  0  0  0  0  0
   -1.1672    0.0272    2.0550 N   0  0  0  0  0  0  0  0  0  0  0  0
   -2.0896   -0.0802    1.6472 H   0  0  0  0  0  0  0  0  0  0  0  0
   -1.0652    0.4148    3.4564 C   0  0  0  0  0  0  0  0  0  0  0  0
   -0.2555    1.1387    3.5961 H   0  0  0  0  0  0  0  0  0  0  0  0
   -1.9994    0.8756    3.7908 H   0  0  0  0  0  0  0  0  0  0  0  0
   -0.8662   -0.4621    4.0816 H   0  0  0  0  0  0  0  0  0  0  0  0
  1  2  1  0  0  0  0
  2  3  1  0  0  0  0
  2  4  1  0  0  0  0
  2  5  1  0  0  0  0
  5  6  2  0  0  0  0
  5  7  1  0  0  0  0
  7  8  1  0  0  0  0
  7  9  1  0  0  0  0
  9 10  1  0  0  0  0
  9 11  1  0  0  0  0
  9 26  1  0  0  0  0
 11 12  1  0  0  0  0
 11 13  1  0  0  0  0
 11 14  1  0  0  0  0
 14 15  2  0  0  0  0
 14 24  1  0  0  0  0
 15 16  1  0  0  0  0
 15 17  1  0  0  0  0
 17 18  1  0  0  0  0
 17 19  2  0  0  0  0
 19 20  1  0  0  0  0
 19 22  1  0  0  0  0
 20 21  1  0  0  0  0
 22 23  1  0  0  0  0
 22 24  2  0  0  0  0
 24 25  1  0  0  0  0
 26 27  2  0  0  0  0
 26 28  1  0  0  0  0
 28 29  1  0  0  0  0
 28 30  1  0  0  0  0
 30 31  1  0  0  0  0
 30 32  1  0  0  0  0
 30 33  1  0  0  0  0
M  END
$$$$

  -OEChem-03222214083D

 33 33  0     1  0  0  0  0  0999 V2000
   -3.4612   -4.4788    0.5531 H   0  0  0  0  0  0  0  0  0  0  0  0
   -3.3186   -3.5526   -0.0112 C   0  0  0  0  0  0  0  0  0  0  0  0
   -4.1482   -2.8764    0.2080 H   0  0  0  0  0  0  0  0  0  0  0  0
   -3.3200   -3.7887   -1.0780 H   0  0  0  0  0  0  0  0  0  0  0  0
   -2.0026   -2.9041    0.3760 C   0  0  0  0  0  0  0  0  0  0  0  0
   -1.3110   -3.4131    1.2385 O   0  0  0  0  0  0  0  0  0  0  0  0
   -1.6005   -1.7434   -0.2585 N   0  0  0  0  0  0  0  0  0  0  0  0
   -2.1836   -1.4219   -1.0252 H   0  0  0  0  0  0  0  0  0  0  0  0
   -0.3039   -1.0670   -0.0347 C   0  0  1  0  0  0  0  0  0  0  0  0
    0.5123   -1.7700   -0.2351 H   0  0  0  0  0  0  0  0  0  0  0  0
   -0.2282    0.0639   -1.0985 C   0  0  0  0  0  0  0  0  0  0  0  0
   -0.1089   -0.4256   -2.0703 H   0  0  0  0  0  0  0  0  0  0  0  0
   -1.2008    0.5659   -1.1131 H   0  0  0  0  0  0  0  0  0  0  0  0
    0.7974    1.1895   -0.9851 C   0  0  0  0  0  0  0  0  0  0  0  0
    1.0953    1.9053    0.1921 C   0  0  0  0  0  0  0  0  0  0  0  0
    0.5661    1.7359    1.1206 H   0  0  0  0  0  0  0  0  0  0  0  0
    2.0785    2.9015    0.2023 C   0  0  0  0  0  0  0  0  0  0  0  0
    2.2846    3.4308    1.1261 H   0  0  0  0  0  0  0  0  0  0  0  0
    2.7825    3.2106   -0.9599 C   0  0  0  0  0  0  0  0  0  0  0  0
    3.7427    4.1804   -0.9567 O   0  0  0  0  0  0  0  0  0  0  0  0
    3.8774    4.5073   -0.0537 H   0  0  0  0  0  0  0  0  0  0  0  0
    2.4972    2.5219   -2.1335 C   0  0  0  0  0  0  0  0  0  0  0  0
    3.0485    2.7655   -3.0358 H   0  0  0  0  0  0  0  0  0  0  0  0
    1.5188    1.5228   -2.1469 C   0  0  0  0  0  0  0  0  0  0  0  0
    1.3305    1.0007   -3.0802 H   0  0  0  0  0  0  0  0  0  0  0  0
   -0.1440   -0.6397    1.4416 C   0  0  0  0  0  0  0  0  0  0  0  0
    0.9410   -0.7256    2.0018 O   0  0  0  0  0  0  0  0  0  0  0  0
   -1.1955   -0.0279    2.1030 N   0  0  0  0  0  0  0  0  0  0  0  0
   -2.1017   -0.0872    1.6513 H   0  0  0  0  0  0  0  0  0  0  0  0
   -1.1396    0.3234    3.5164 C   0  0  0  0  0  0  0  0  0  0  0  0
   -0.3209    1.0256    3.7062 H   0  0  0  0  0  0  0  0  0  0  0  0
   -2.0766    0.7960    3.8259 H   0  0  0  0  0  0  0  0  0  0  0  0
   -0.9833   -0.5726    4.1264 H   0  0  0  0  0  0  0  0  0  0  0  0
  1  2  1  0  0  0  0
  2  3  1  0  0  0  0
  2  4  1  0  0  0  0
  2  5  1  0  0  0  0
  5  6  2  0  0  0  0
  5  7  1  0  0  0  0
  7  8  1  0  0  0  0
  7  9  1  0  0  0  0
  9 10  1  0  0  0  0
  9 11  1  0  0  0  0
  9 26  1  0  0  0  0
 11 12  1  0  0  0  0
 11 13  1  0  0  0  0
 11 14  1  0  0  0  0
 14 15  2  0  0  0  0
 14 24  1  0  0  0  0
 15 16  1  0  0  0  0
 15 17  1  0  0  0  0
 17 18  1  0  0  0  0
 17 19  2  0  0  0  0
 19 20  1  0  0  0  0
 19 22  1  0  0  0  0
 20 21  1  0  0  0  0
 22 23  1  0  0  0  0
 22 24  2  0  0  0  0
 24 25  1  0  0  0  0
 26 27  2  0  0  0  0
 26 28  1  0  0  0  0
 28 29  1  0  0  0  0
 28 30  1  0  0  0  0
 30 31  1  0  0  0  0
 30 32  1  0  0  0  0
 30 33  1  0  0  0  0
M  END
$$$$

  -OEChem-03222214083D

 33 33  0     1  0  0  0  0  0999 V2000
   -3.5427   -4.4228    0.4817 H   0  0  0  0  0  0  0  0  0  0  0  0
   -3.3593   -3.4942   -0.0667 C   0  0  0  0  0  0  0  0  0  0  0  0
   -4.1733   -2.7963    0.1424 H   0  0  0  0  0  0  0  0  0  0  0  0
   -3.3429   -3.7170   -1.1363 H   0  0  0  0  0  0  0  0  0  0  0  0
   -2.0341   -2.8902    0.3596 C   0  0  0  0  0  0  0  0  0  0  0  0
   -1.3778   -3.4324    1.2291 O   0  0  0  0  0  0  0  0  0  0  0  0
   -1.5812   -1.7364   -0.2532 N   0  0  0  0  0  0  0  0  0  0  0  0
   -2.1380   -1.3874   -1.0274 H   0  0  0  0  0  0  0  0  0  0  0  0
   -0.2731   -1.0969    0.0112 C   0  0  1  0  0  0  0  0  0  0  0  0
    0.5349   -1.8118   -0.1801 H   0  0  0  0  0  0  0  0  0  0  0  0
   -0.1681    0.0450   -1.0396 C   0  0  0  0  0  0  0  0  0  0  0  0
   -0.0400   -0.4471   -2.0093 H   0  0  0  0  0  0  0  0  0  0  0  0
   -1.1384    0.5520   -1.0630 H   0  0  0  0  0  0  0  0  0  0  0  0
    0.8561    1.1768   -0.9458 C   0  0  0  0  0  0  0  0  0  0  0  0
    1.4013    1.7272    0.2337 C   0  0  0  0  0  0  0  0  0  0  0  0
    1.1074    1.4129    1.2244 H   0  0  0  0  0  0  0  0  0  0  0  0
    2.3534    2.7521    0.1808 C   0  0  0  0  0  0  0  0  0  0  0  0
    2.7523    3.1489    1.1080 H   0  0  0  0  0  0  0  0  0  0  0  0
    2.7824    3.2571   -1.0443 C   0  0  0  0  0  0  0  0  0  0  0  0
    3.7129    4.2539   -1.1012 O   0  0  0  0  0  0  0  0  0  0  0  0
    4.0252    4.4641   -0.2075 H   0  0  0  0  0  0  0  0  0  0  0  0
    2.2510    2.7371   -2.2184 C   0  0  0  0  0  0  0  0  0  0  0  0
    2.5864    3.1336   -3.1712 H   0  0  0  0  0  0  0  0  0  0  0  0
    1.3013    1.7118   -2.1700 C   0  0  0  0  0  0  0  0  0  0  0  0
    0.9135    1.3280   -3.1089 H   0  0  0  0  0  0  0  0  0  0  0  0
   -0.1515   -0.6881    1.4958 C   0  0  0  0  0  0  0  0  0  0  0  0
    0.8942   -0.8714    2.1065 O   0  0  0  0  0  0  0  0  0  0  0  0
   -1.2037   -0.0542    2.1338 N   0  0  0  0  0  0  0  0  0  0  0  0
   -2.0877   -0.0390    1.6370 H   0  0  0  0  0  0  0  0  0  0  0  0
   -1.1957    0.2434    3.5602 C   0  0  0  0  0  0  0  0  0  0  0  0
   -0.3608    0.9069    3.8089 H   0  0  0  0  0  0  0  0  0  0  0  0
   -2.1272    0.7391    3.8491 H   0  0  0  0  0  0  0  0  0  0  0  0
   -1.0979   -0.6795    4.1418 H   0  0  0  0  0  0  0  0  0  0  0  0
  1  2  1  0  0  0  0
  2  3  1  0  0  0  0
  2  4  1  0  0  0  0
  2  5  1  0  0  0  0
  5  6  2  0  0  0  0
  5  7  1  0  0  0  0
  7  8  1  0  0  0  0
  7  9  1  0  0  0  0
  9 10  1  0  0  0  0
  9 11  1  0  0  0  0
  9 26  1  0  0  0  0
 11 12  1  0  0  0  0
 11 13  1  0  0  0  0
 11 14  1  0  0  0  0
 14 15  2  0  0  0  0
 14 24  1  0  0  0  0
 15 16  1  0  0  0  0
 15 17  1  0  0  0  0
 17 18  1  0  0  0  0
 17 19  2  0  0  0  0
 19 20  1  0  0  0  0
 19 22  1  0  0  0  0
 20 21  1  0  0  0  0
 22 23  1  0  0  0  0
 22 24  2  0  0  0  0
 24 25  1  0  0  0  0
 26 27  2  0  0  0  0
 26 28  1  0  0  0  0
 28 29  1  0  0  0  0
 28 30  1  0  0  0  0
 30 31  1  0  0  0  0
 30 32  1  0  0  0  0
 30 33  1  0  0  0  0
M  END
$$$$

  -OEChem-03222214083D

 33 33  0     1  0  0  0  0  0999 V2000
   -3.6250   -4.3428    0.5125 H   0  0  0  0  0  0  0  0  0  0  0  0
   -3.4009   -3.4307   -0.0484 C   0  0  0  0  0  0  0  0  0  0  0  0
   -4.1892   -2.6985    0.1419 H   0  0  0  0  0  0  0  0  0  0  0  0
   -3.3831   -3.6708   -1.1142 H   0  0  0  0  0  0  0  0  0  0  0  0
   -2.0574   -2.8718    0.3819 C   0  0  0  0  0  0  0  0  0  0  0  0
   -1.4296   -3.4289    1.2629 O   0  0  0  0  0  0  0  0  0  0  0  0
   -1.5533   -1.7485   -0.2479 N   0  0  0  0  0  0  0  0  0  0  0  0
   -2.0904   -1.3916   -1.0322 H   0  0  0  0  0  0  0  0  0  0  0  0
   -0.2323   -1.1416    0.0320 C   0  0  1  0  0  0  0  0  0  0  0  0
    0.5678   -1.8712   -0.1348 H   0  0  0  0  0  0  0  0  0  0  0  0
   -0.1062   -0.0043   -1.0213 C   0  0  0  0  0  0  0  0  0  0  0  0
    0.0245   -0.4994   -1.9895 H   0  0  0  0  0  0  0  0  0  0  0  0
   -1.0711    0.5132   -1.0506 H   0  0  0  0  0  0  0  0  0  0  0  0
    0.9303    1.1162   -0.9440 C   0  0  0  0  0  0  0  0  0  0  0  0
    1.7113    1.4829    0.1717 C   0  0  0  0  0  0  0  0  0  0  0  0
    1.6678    0.9712    1.1202 H   0  0  0  0  0  0  0  0  0  0  0  0
    2.6169    2.5484    0.1010 C   0  0  0  0  0  0  0  0  0  0  0  0
    3.2054    2.7985    0.9771 H   0  0  0  0  0  0  0  0  0  0  0  0
    2.7641    3.2760   -1.0776 C   0  0  0  0  0  0  0  0  0  0  0  0
    3.6464    4.3145   -1.1515 O   0  0  0  0  0  0  0  0  0  0  0  0
    4.1190    4.4061   -0.3097 H   0  0  0  0  0  0  0  0  0  0  0  0
    2.0006    2.9348   -2.1875 C   0  0  0  0  0  0  0  0  0  0  0  0
    2.1178    3.5037   -3.1042 H   0  0  0  0  0  0  0  0  0  0  0  0
    1.0958    1.8708   -2.1208 C   0  0  0  0  0  0  0  0  0  0  0  0
    0.5142    1.6327   -3.0064 H   0  0  0  0  0  0  0  0  0  0  0  0
   -0.1506   -0.7028    1.5137 C   0  0  0  0  0  0  0  0  0  0  0  0
    0.8323   -0.9790    2.1902 O   0  0  0  0  0  0  0  0  0  0  0  0
   -1.2033   -0.0250    2.1040 N   0  0  0  0  0  0  0  0  0  0  0  0
   -2.0520    0.0604    1.5558 H   0  0  0  0  0  0  0  0  0  0  0  0
   -1.2547    0.2696    3.5302 C   0  0  0  0  0  0  0  0  0  0  0  0
   -0.3944    0.8781    3.8277 H   0  0  0  0  0  0  0  0  0  0  0  0
   -2.1671    0.8236    3.7695 H   0  0  0  0  0  0  0  0  0  0  0  0
   -1.2481   -0.6583    4.1120 H   0  0  0  0  0  0  0  0  0  0  0  0
  1  2  1  0  0  0  0
  2  3  1  0  0  0  0
  2  4  1  0  0  0  0
  2  5  1  0  0  0  0
  5  6  2  0  0  0  0
  5  7  1  0  0  0  0
  7  8  1  0  0  0  0
  7  9  1  0  0  0  0
  9 10  1  0  0  0  0
  9 11  1  0  0  0  0
  9 26  1  0  0  0  0
 11 12  1  0  0  0  0
 11 13  1  0  0  0  0
 11 14  1  0  0  0  0
 14 15  2  0  0  0  0
 14 24  1  0  0  0  0
 15 16  1  0  0  0  0
 15 17  1  0  0  0  0
 17 18  1  0  0  0  0
 17 19  2  0  0  0  0
 19 20  1  0  0  0  0
 19 22  1  0  0  0  0
 20 21  1  0  0  0  0
 22 23  1  0  0  0  0
 22 24  2  0  0  0  0
 24 25  1  0  0  0  0
 26 27  2  0  0  0  0
 26 28  1  0  0  0  0
 28 29  1  0  0  0  0
 28 30  1  0  0  0  0
 30 31  1  0  0  0  0
 30 32  1  0  0  0  0
 30 33  1  0  0  0  0
M  END
$$$$

  -OEChem-03222214083D

 33 33  0     1  0  0  0  0  0999 V2000
   -3.6578   -4.2915    0.6091 H   0  0  0  0  0  0  0  0  0  0  0  0
   -3.4358   -3.3915    0.0283 C   0  0  0  0  0  0  0  0  0  0  0  0
   -4.1877   -2.6325    0.2565 H   0  0  0  0  0  0  0  0  0  0  0  0
   -3.4863   -3.6390   -1.0348 H   0  0  0  0  0  0  0  0  0  0  0  0
   -2.0524   -2.8745    0.3762 C   0  0  0  0  0  0  0  0  0  0  0  0
   -1.3833   -3.4598    1.2069 O   0  0  0  0  0  0  0  0  0  0  0  0
   -1.5602   -1.7577   -0.2738 N   0  0  0  0  0  0  0  0  0  0  0  0
   -2.1380   -1.3756   -1.0161 H   0  0  0  0  0  0  0  0  0  0  0  0
   -0.2209   -1.1672   -0.0514 C   0  0  1  0  0  0  0  0  0  0  0  0
    0.5696   -1.8941   -0.2681 H   0  0  0  0  0  0  0  0  0  0  0  0
   -0.1516    0.0026   -1.0710 C   0  0  0  0  0  0  0  0  0  0  0  0
   -0.0717   -0.4497   -2.0650 H   0  0  0  0  0  0  0  0  0  0  0  0
   -1.1135    0.5251   -1.0289 H   0  0  0  0  0  0  0  0  0  0  0  0
    0.9043    1.0995   -0.9948 C   0  0  0  0  0  0  0  0  0  0  0  0
    1.9303    1.2079   -0.0357 C   0  0  0  0  0  0  0  0  0  0  0  0
    2.1118    0.4471    0.7095 H   0  0  0  0  0  0  0  0  0  0  0  0
    2.8096    2.2972   -0.0409 C   0  0  0  0  0  0  0  0  0  0  0  0
    3.5936    2.3453    0.7071 H   0  0  0  0  0  0  0  0  0  0  0  0
    2.6849    3.3015   -0.9990 C   0  0  0  0  0  0  0  0  0  0  0  0
    3.5385    4.3662   -1.0094 O   0  0  0  0  0  0  0  0  0  0  0  0
    4.1815    4.2799   -0.2885 H   0  0  0  0  0  0  0  0  0  0  0  0
    1.6808    3.2097   -1.9564 C   0  0  0  0  0  0  0  0  0  0  0  0
    1.5887    3.9927   -2.7020 H   0  0  0  0  0  0  0  0  0  0  0  0
    0.8011    2.1227   -1.9540 C   0  0  0  0  0  0  0  0  0  0  0  0
    0.0230    2.0821   -2.7104 H   0  0  0  0  0  0  0  0  0  0  0  0
   -0.0800   -0.7326    1.4305 C   0  0  0  0  0  0  0  0  0  0  0  0
    0.9077   -1.0433    2.0846 O   0  0  0  0  0  0  0  0  0  0  0  0
   -1.1057   -0.0453    2.0565 N   0  0  0  0  0  0  0  0  0  0  0  0
   -1.9602    0.0829    1.5266 H   0  0  0  0  0  0  0  0  0  0  0  0
   -1.1051    0.2598    3.4813 C   0  0  0  0  0  0  0  0  0  0  0  0
   -0.2525    0.8982    3.7351 H   0  0  0  0  0  0  0  0  0  0  0  0
   -2.0239    0.7859    3.7564 H   0  0  0  0  0  0  0  0  0  0  0  0
   -1.0433   -0.6623    4.0689 H   0  0  0  0  0  0  0  0  0  0  0  0
  1  2  1  0  0  0  0
  2  3  1  0  0  0  0
  2  4  1  0  0  0  0
  2  5  1  0  0  0  0
  5  6  2  0  0  0  0
  5  7  1  0  0  0  0
  7  8  1  0  0  0  0
  7  9  1  0  0  0  0
  9 10  1  0  0  0  0
  9 11  1  0  0  0  0
  9 26  1  0  0  0  0
 11 12  1  0  0  0  0
 11 13  1  0  0  0  0
 11 14  1  0  0  0  0
 14 15  2  0  0  0  0
 14 24  1  0  0  0  0
 15 16  1  0  0  0  0
 15 17  1  0  0  0  0
 17 18  1  0  0  0  0
 17 19  2  0  0  0  0
 19 20  1  0  0  0  0
 19 22  1  0  0  0  0
 20 21  1  0  0  0  0
 22 23  1  0  0  0  0
 22 24  2  0  0  0  0
 24 25  1  0  0  0  0
 26 27  2  0  0  0  0
 26 28  1  0  0  0  0
 28 29  1  0  0  0  0
 28 30  1  0  0  0  0
 30 31  1  0  0  0  0
 30 32  1  0  0  0  0
 30 33  1  0  0  0  0
M  END
$$$$

  -OEChem-03222214083D

 33 33  0     1  0  0  0  0  0999 V2000
   -3.5890   -4.3331    0.7200 H   0  0  0  0  0  0  0  0  0  0  0  0
   -3.3999   -3.4490    0.1041 C   0  0  0  0  0  0  0  0  0  0  0  0
   -4.1719   -2.7044    0.3123 H   0  0  0  0  0  0  0  0  0  0  0  0
   -3.4532   -3.7374   -0.9485 H   0  0  0  0  0  0  0  0  0  0  0  0
   -2.0294   -2.8786    0.4182 C   0  0  0  0  0  0  0  0  0  0  0  0
   -1.3349   -3.4119    1.2633 O   0  0  0  0  0  0  0  0  0  0  0  0
   -1.5750   -1.7753   -0.2803 N   0  0  0  0  0  0  0  0  0  0  0  0
   -2.1705   -1.4369   -1.0298 H   0  0  0  0  0  0  0  0  0  0  0  0
   -0.2461   -1.1500   -0.1014 C   0  0  1  0  0  0  0  0  0  0  0  0
    0.5536   -1.8686   -0.3113 H   0  0  0  0  0  0  0  0  0  0  0  0
   -0.2071   -0.0001   -1.1421 C   0  0  0  0  0  0  0  0  0  0  0  0
   -0.1249   -0.4556   -2.1345 H   0  0  0  0  0  0  0  0  0  0  0  0
   -1.1734    0.5139   -1.0995 H   0  0  0  0  0  0  0  0  0  0  0  0
    0.8564    1.0841   -1.0506 C   0  0  0  0  0  0  0  0  0  0  0  0
    2.0246    0.9933   -0.2715 C   0  0  0  0  0  0  0  0  0  0  0  0
    2.2800    0.0868    0.2649 H   0  0  0  0  0  0  0  0  0  0  0  0
    2.9277    2.0598   -0.2030 C   0  0  0  0  0  0  0  0  0  0  0  0
    3.8195    1.9569    0.4056 H   0  0  0  0  0  0  0  0  0  0  0  0
    2.6853    3.2348   -0.9130 C   0  0  0  0  0  0  0  0  0  0  0  0
    3.5613    4.2791   -0.8491 O   0  0  0  0  0  0  0  0  0  0  0  0
    4.2922    4.0586   -0.2509 H   0  0  0  0  0  0  0  0  0  0  0  0
    1.5405    3.3365   -1.6975 C   0  0  0  0  0  0  0  0  0  0  0  0
    1.3600    4.2520   -2.2512 H   0  0  0  0  0  0  0  0  0  0  0  0
    0.6340    2.2733   -1.7662 C   0  0  0  0  0  0  0  0  0  0  0  0
   -0.2544    2.3829   -2.3808 H   0  0  0  0  0  0  0  0  0  0  0  0
   -0.0792   -0.6561    1.3611 C   0  0  0  0  0  0  0  0  0  0  0  0
    0.9389   -0.8995    1.9965 O   0  0  0  0  0  0  0  0  0  0  0  0
   -1.1042    0.0349    1.9845 N   0  0  0  0  0  0  0  0  0  0  0  0
   -1.9765    0.1173    1.4749 H   0  0  0  0  0  0  0  0  0  0  0  0
   -1.0665    0.4192    3.3899 C   0  0  0  0  0  0  0  0  0  0  0  0
   -0.2155    1.0810    3.5828 H   0  0  0  0  0  0  0  0  0  0  0  0
   -1.9839    0.9493    3.6624 H   0  0  0  0  0  0  0  0  0  0  0  0
   -0.9757   -0.4673    4.0266 H   0  0  0  0  0  0  0  0  0  0  0  0
  1  2  1  0  0  0  0
  2  3  1  0  0  0  0
  2  4  1  0  0  0  0
  2  5  1  0  0  0  0
  5  6  2  0  0  0  0
  5  7  1  0  0  0  0
  7  8  1  0  0  0  0
  7  9  1  0  0  0  0
  9 10  1  0  0  0  0
  9 11  1  0  0  0  0
  9 26  1  0  0  0  0
 11 12  1  0  0  0  0
 11 13  1  0  0  0  0
 11 14  1  0  0  0  0
 14 15  2  0  0  0  0
 14 24  1  0  0  0  0
 15 16  1  0  0  0  0
 15 17  1  0  0  0  0
 17 18  1  0  0  0  0
 17 19  2  0  0  0  0
 19 20  1  0  0  0  0
 19 22  1  0  0  0  0
 20 21  1  0  0  0  0
 22 23  1  0  0  0  0
 22 24  2  0  0  0  0
 24 25  1  0  0  0  0
 26 27  2  0  0  0  0
 26 28  1  0  0  0  0
 28 29  1  0  0  0  0
 28 30  1  0  0  0  0
 30 31  1  0  0  0  0
 30 32  1  0  0  0  0
 30 33  1  0  0  0  0
M  END
$$$$

  -OEChem-03222214083D

 33 33  0     1  0  0  0  0  0999 V2000
   -3.4885   -4.4121    0.7662 H   0  0  0  0  0  0  0  0  0  0  0  0
   -3.3477   -3.5277    0.1378 C   0  0  0  0  0  0  0  0  0  0  0  0
   -4.1461   -2.8136    0.3530 H   0  0  0  0  0  0  0  0  0  0  0  0
   -3.4086   -3.8292   -0.9106 H   0  0  0  0  0  0  0  0  0  0  0  0
   -1.9965   -2.8974    0.4197 C   0  0  0  0  0  0  0  0  0  0  0  0
   -1.2672   -3.3884    1.2612 O   0  0  0  0  0  0  0  0  0  0  0  0
   -1.5991   -1.7835   -0.2963 N   0  0  0  0  0  0  0  0  0  0  0  0
   -2.2161   -1.4786   -1.0429 H   0  0  0  0  0  0  0  0  0  0  0  0
   -0.2894   -1.1137   -0.1485 C   0  0  1  0  0  0  0  0  0  0  0  0
    0.5198   -1.8186   -0.3687 H   0  0  0  0  0  0  0  0  0  0  0  0
   -0.2813    0.0264   -1.1970 C   0  0  0  0  0  0  0  0  0  0  0  0
   -0.1824   -0.4248   -2.1895 H   0  0  0  0  0  0  0  0  0  0  0  0
   -1.2566    0.5229   -1.1600 H   0  0  0  0  0  0  0  0  0  0  0  0
    0.7790    1.1064   -1.0699 C   0  0  0  0  0  0  0  0  0  0  0  0
    2.0517    0.8676   -0.5207 C   0  0  0  0  0  0  0  0  0  0  0  0
    2.3355   -0.1240   -0.1801 H   0  0  0  0  0  0  0  0  0  0  0  0
    2.9881    1.9010   -0.4073 C   0  0  0  0  0  0  0  0  0  0  0  0
    3.9582    1.6880    0.0285 H   0  0  0  0  0  0  0  0  0  0  0  0
    2.6734    3.1865   -0.8476 C   0  0  0  0  0  0  0  0  0  0  0  0
    3.5803    4.2003   -0.7380 O   0  0  0  0  0  0  0  0  0  0  0  0
    4.3788    3.8797   -0.2903 H   0  0  0  0  0  0  0  0  0  0  0  0
    1.4215    3.4340   -1.4044 C   0  0  0  0  0  0  0  0  0  0  0  0
    1.1858    4.4363   -1.7467 H   0  0  0  0  0  0  0  0  0  0  0  0
    0.4802    2.4049   -1.5157 C   0  0  0  0  0  0  0  0  0  0  0  0
   -0.4894    2.6268   -1.9511 H   0  0  0  0  0  0  0  0  0  0  0  0
   -0.0760   -0.5941    1.2975 C   0  0  0  0  0  0  0  0  0  0  0  0
    0.9940   -0.7606    1.8699 O   0  0  0  0  0  0  0  0  0  0  0  0
   -1.0923    0.0773    1.9550 N   0  0  0  0  0  0  0  0  0  0  0  0
   -1.9954    0.1057    1.4955 H   0  0  0  0  0  0  0  0  0  0  0  0
   -0.9871    0.5217    3.3388 C   0  0  0  0  0  0  0  0  0  0  0  0
   -0.1487    1.2167    3.4543 H   0  0  0  0  0  0  0  0  0  0  0  0
   -1.9042    1.0349    3.6429 H   0  0  0  0  0  0  0  0  0  0  0  0
   -0.8301   -0.3340    4.0040 H   0  0  0  0  0  0  0  0  0  0  0  0
  1  2  1  0  0  0  0
  2  3  1  0  0  0  0
  2  4  1  0  0  0  0
  2  5  1  0  0  0  0
  5  6  2  0  0  0  0
  5  7  1  0  0  0  0
  7  8  1  0  0  0  0
  7  9  1  0  0  0  0
  9 10  1  0  0  0  0
  9 11  1  0  0  0  0
  9 26  1  0  0  0  0
 11 12  1  0  0  0  0
 11 13  1  0  0  0  0
 11 14  1  0  0  0  0
 14 15  2  0  0  0  0
 14 24  1  0  0  0  0
 15 16  1  0  0  0  0
 15 17  1  0  0  0  0
 17 18  1  0  0  0  0
 17 19  2  0  0  0  0
 19 20  1  0  0  0  0
 19 22  1  0  0  0  0
 20 21  1  0  0  0  0
 22 23  1  0  0  0  0
 22 24  2  0  0  0  0
 24 25  1  0  0  0  0
 26 27  2  0  0  0  0
 26 28  1  0  0  0  0
 28 29  1  0  0  0  0
 28 30  1  0  0  0  0
 30 31  1  0  0  0  0
 30 32  1  0  0  0  0
 30 33  1  0  0  0  0
M  END
$$$$

  -OEChem-03222214083D

 33 33  0     1  0  0  0  0  0999 V2000
   -3.4063   -4.4751    0.7773 H   0  0  0  0  0  0  0  0  0  0  0  0
   -3.3036   -3.5851    0.1497 C   0  0  0  0  0  0  0  0  0  0  0  0
   -4.1207   -2.8974    0.3798 H   0  0  0  0  0  0  0  0  0  0  0  0
   -3.3720   -3.8858   -0.8985 H   0  0  0  0  0  0  0  0  0  0  0  0
   -1.9686   -2.9131    0.4125 C   0  0  0  0  0  0  0  0  0  0  0  0
   -1.2136   -3.3766    1.2471 O   0  0  0  0  0  0  0  0  0  0  0  0
   -1.6164   -1.7880   -0.3086 N   0  0  0  0  0  0  0  0  0  0  0  0
   -2.2534   -1.5011   -1.0453 H   0  0  0  0  0  0  0  0  0  0  0  0
   -0.3254   -1.0816   -0.1799 C   0  0  1  0  0  0  0  0  0  0  0  0
    0.4904   -1.7761   -0.4082 H   0  0  0  0  0  0  0  0  0  0  0  0
   -0.3371    0.0458   -1.2384 C   0  0  0  0  0  0  0  0  0  0  0  0
   -0.2206   -0.4042   -2.2294 H   0  0  0  0  0  0  0  0  0  0  0  0
   -1.3190    0.5293   -1.2134 H   0  0  0  0  0  0  0  0  0  0  0  0
    0.7182    1.1222   -1.0762 C   0  0  0  0  0  0  0  0  0  0  0  0
    2.0574    0.8040   -0.7927 C   0  0  0  0  0  0  0  0  0  0  0  0
    2.3629   -0.2306   -0.6640 H   0  0  0  0  0  0  0  0  0  0  0  0
    3.0150    1.8141   -0.6484 C   0  0  0  0  0  0  0  0  0  0  0  0
    4.0385    1.5430   -0.4139 H   0  0  0  0  0  0  0  0  0  0  0  0
    2.6521    3.1534   -0.7963 C   0  0  0  0  0  0  0  0  0  0  0  0
    3.5789    4.1446   -0.6509 O   0  0  0  0  0  0  0  0  0  0  0  0
    4.4244    3.7638   -0.3669 H   0  0  0  0  0  0  0  0  0  0  0  0
    1.3307    3.4793   -1.0919 C   0  0  0  0  0  0  0  0  0  0  0  0
    1.0588    4.5232   -1.2086 H   0  0  0  0  0  0  0  0  0  0  0  0
    0.3677    2.4737   -1.2305 C   0  0  0  0  0  0  0  0  0  0  0  0
   -0.6555    2.7556   -1.4588 H   0  0  0  0  0  0  0  0  0  0  0  0
   -0.0732   -0.5450    1.2514 C   0  0  0  0  0  0  0  0  0  0  0  0
    1.0339   -0.6490    1.7649 O   0  0  0  0  0  0  0  0  0  0  0  0
   -1.0800    0.1085    1.9404 N   0  0  0  0  0  0  0  0  0  0  0  0
   -2.0061    0.0886    1.5287 H   0  0  0  0  0  0  0  0  0  0  0  0
   -0.9200    0.5995    3.3027 C   0  0  0  0  0  0  0  0  0  0  0  0
   -0.0932    1.3157    3.3558 H   0  0  0  0  0  0  0  0  0  0  0  0
   -1.8333    1.1024    3.6336 H   0  0  0  0  0  0  0  0  0  0  0  0
   -0.7126   -0.2307    3.9859 H   0  0  0  0  0  0  0  0  0  0  0  0
  1  2  1  0  0  0  0
  2  3  1  0  0  0  0
  2  4  1  0  0  0  0
  2  5  1  0  0  0  0
  5  6  2  0  0  0  0
  5  7  1  0  0  0  0
  7  8  1  0  0  0  0
  7  9  1  0  0  0  0
  9 10  1  0  0  0  0
  9 11  1  0  0  0  0
  9 26  1  0  0  0  0
 11 12  1  0  0  0  0
 11 13  1  0  0  0  0
 11 14  1  0  0  0  0
 14 15  2  0  0  0  0
 14 24  1  0  0  0  0
 15 16  1  0  0  0  0
 15 17  1  0  0  0  0
 17 18  1  0  0  0  0
 17 19  2  0  0  0  0
 19 20  1  0  0  0  0
 19 22  1  0  0  0  0
 20 21  1  0  0  0  0
 22 23  1  0  0  0  0
 22 24  2  0  0  0  0
 24 25  1  0  0  0  0
 26 27  2  0  0  0  0
 26 28  1  0  0  0  0
 28 29  1  0  0  0  0
 28 30  1  0  0  0  0
 30 31  1  0  0  0  0
 30 32  1  0  0  0  0
 30 33  1  0  0  0  0
M  END
$$$$

  -OEChem-03222214083D

 33 33  0     1  0  0  0  0  0999 V2000
   -3.3356   -4.5113    0.7972 H   0  0  0  0  0  0  0  0  0  0  0  0
   -3.2600   -3.6227    0.1638 C   0  0  0  0  0  0  0  0  0  0  0  0
   -4.0943   -2.9556    0.3936 H   0  0  0  0  0  0  0  0  0  0  0  0
   -3.3243   -3.9315   -0.8824 H   0  0  0  0  0  0  0  0  0  0  0  0
   -1.9425   -2.9138    0.4169 C   0  0  0  0  0  0  0  0  0  0  0  0
   -1.1738   -3.3499    1.2537 O   0  0  0  0  0  0  0  0  0  0  0  0
   -1.6223   -1.7861   -0.3147 N   0  0  0  0  0  0  0  0  0  0  0  0
   -2.2677   -1.5240   -1.0535 H   0  0  0  0  0  0  0  0  0  0  0  0
   -0.3439   -1.0540   -0.2052 C   0  0  1  0  0  0  0  0  0  0  0  0
    0.4808   -1.7370   -0.4363 H   0  0  0  0  0  0  0  0  0  0  0  0
   -0.3769    0.0635   -1.2712 C   0  0  0  0  0  0  0  0  0  0  0  0
   -0.2526   -0.3865   -2.2613 H   0  0  0  0  0  0  0  0  0  0  0  0
   -1.3624    0.5398   -1.2522 H   0  0  0  0  0  0  0  0  0  0  0  0
    0.6758    1.1347   -1.0875 C   0  0  0  0  0  0  0  0  0  0  0  0
    2.0401    0.8052   -1.1058 C   0  0  0  0  0  0  0  0  0  0  0  0
    2.3510   -0.2273   -1.2355 H   0  0  0  0  0  0  0  0  0  0  0  0
    3.0130    1.7963   -0.9334 C   0  0  0  0  0  0  0  0  0  0  0  0
    4.0609    1.5178   -0.9380 H   0  0  0  0  0  0  0  0  0  0  0  0
    2.6346    3.1271   -0.7485 C   0  0  0  0  0  0  0  0  0  0  0  0
    3.5767    4.0988   -0.5735 O   0  0  0  0  0  0  0  0  0  0  0  0
    4.4547    3.6941   -0.4983 H   0  0  0  0  0  0  0  0  0  0  0  0
    1.2828    3.4640   -0.7384 C   0  0  0  0  0  0  0  0  0  0  0  0
    0.9993    4.5011   -0.5935 H   0  0  0  0  0  0  0  0  0  0  0  0
    0.3055    2.4767   -0.9042 C   0  0  0  0  0  0  0  0  0  0  0  0
   -0.7413    2.7633   -0.8853 H   0  0  0  0  0  0  0  0  0  0  0  0
   -0.0734   -0.5001    1.2153 C   0  0  0  0  0  0  0  0  0  0  0  0
    1.0517   -0.5575    1.6954 O   0  0  0  0  0  0  0  0  0  0  0  0
   -1.0787    0.1416    1.9174 N   0  0  0  0  0  0  0  0  0  0  0  0
   -2.0161    0.0736    1.5381 H   0  0  0  0  0  0  0  0  0  0  0  0
   -0.8974    0.6526    3.2696 C   0  0  0  0  0  0  0  0  0  0  0  0
   -0.0808    1.3819    3.2967 H   0  0  0  0  0  0  0  0  0  0  0  0
   -1.8110    1.1460    3.6142 H   0  0  0  0  0  0  0  0  0  0  0  0
   -0.6625   -0.1658    3.9583 H   0  0  0  0  0  0  0  0  0  0  0  0
  1  2  1  0  0  0  0
  2  3  1  0  0  0  0
  2  4  1  0  0  0  0
  2  5  1  0  0  0  0
  5  6  2  0  0  0  0
  5  7  1  0  0  0  0
  7  8  1  0  0  0  0
  7  9  1  0  0  0  0
  9 10  1  0  0  0  0
  9 11  1  0  0  0  0
  9 26  1  0  0  0  0
 11 12  1  0  0  0  0
 11 13  1  0  0  0  0
 11 14  1  0  0  0  0
 14 15  2  0  0  0  0
 14 24  1  0  0  0  0
 15 16  1  0  0  0  0
 15 17  1  0  0  0  0
 17 18  1  0  0  0  0
 17 19  2  0  0  0  0
 19 20  1  0  0  0  0
 19 22  1  0  0  0  0
 20 21  1  0  0  0  0
 22 23  1  0  0  0  0
 22 24  2  0  0  0  0
 24 25  1  0  0  0  0
 26 27  2  0  0  0  0
 26 28  1  0  0  0  0
 28 29  1  0  0  0  0
 28 30  1  0  0  0  0
 30 31  1  0  0  0  0
 30 32  1  0  0  0  0
 30 33  1  0  0  0  0
M  END
$$$$

  -OEChem-03222214083D

 33 33  0     1  0  0  0  0  0999 V2000
   -3.3068   -4.5286    0.7911 H   0  0  0  0  0  0  0  0  0  0  0  0
   -3.2397   -3.6388    0.1582 C   0  0  0  0  0  0  0  0  0  0  0  0
   -4.0846   -2.9835    0.3829 H   0  0  0  0  0  0  0  0  0  0  0  0
   -3.2936   -3.9481   -0.8885 H   0  0  0  0  0  0  0  0  0  0  0  0
   -1.9335   -2.9116    0.4182 C   0  0  0  0  0  0  0  0  0  0  0  0
   -1.1649   -3.3349    1.2617 O   0  0  0  0  0  0  0  0  0  0  0  0
   -1.6245   -1.7807   -0.3134 N   0  0  0  0  0  0  0  0  0  0  0  0
   -2.2687   -1.5301   -1.0572 H   0  0  0  0  0  0  0  0  0  0  0  0
   -0.3510   -1.0394   -0.2089 C   0  0  1  0  0  0  0  0  0  0  0  0
    0.4787   -1.7154   -0.4431 H   0  0  0  0  0  0  0  0  0  0  0  0
   -0.3925    0.0763   -1.2753 C   0  0  0  0  0  0  0  0  0  0  0  0
   -0.2711   -0.3719   -2.2667 H   0  0  0  0  0  0  0  0  0  0  0  0
   -1.3773    0.5543   -1.2550 H   0  0  0  0  0  0  0  0  0  0  0  0
    0.6588    1.1446   -1.0811 C   0  0  0  0  0  0  0  0  0  0  0  0
    1.9982    0.8819   -1.4029 C   0  0  0  0  0  0  0  0  0  0  0  0
    2.2861   -0.0965   -1.7761 H   0  0  0  0  0  0  0  0  0  0  0  0
    2.9761    1.8678   -1.2286 C   0  0  0  0  0  0  0  0  0  0  0  0
    4.0082    1.6424   -1.4733 H   0  0  0  0  0  0  0  0  0  0  0  0
    2.6245    3.1264   -0.7367 C   0  0  0  0  0  0  0  0  0  0  0  0
    3.5728    4.0918   -0.5580 O   0  0  0  0  0  0  0  0  0  0  0  0
    4.4554    3.7152   -0.6974 H   0  0  0  0  0  0  0  0  0  0  0  0
    1.2946    3.3964   -0.4208 C   0  0  0  0  0  0  0  0  0  0  0  0
    1.0322    4.3765   -0.0362 H   0  0  0  0  0  0  0  0  0  0  0  0
    0.3138    2.4128   -0.5875 C   0  0  0  0  0  0  0  0  0  0  0  0
   -0.7143    2.6409   -0.3239 H   0  0  0  0  0  0  0  0  0  0  0  0
   -0.0768   -0.4845    1.2104 C   0  0  0  0  0  0  0  0  0  0  0  0
    1.0541   -0.5173    1.6786 O   0  0  0  0  0  0  0  0  0  0  0  0
   -1.0851    0.1490    1.9159 N   0  0  0  0  0  0  0  0  0  0  0  0
   -2.0261    0.0472    1.5530 H   0  0  0  0  0  0  0  0  0  0  0  0
   -0.9001    0.6651    3.2656 C   0  0  0  0  0  0  0  0  0  0  0  0
   -0.0914    1.4035    3.2852 H   0  0  0  0  0  0  0  0  0  0  0  0
   -1.8167    1.1493    3.6149 H   0  0  0  0  0  0  0  0  0  0  0  0
   -0.6511   -0.1489    3.9547 H   0  0  0  0  0  0  0  0  0  0  0  0
  1  2  1  0  0  0  0
  2  3  1  0  0  0  0
  2  4  1  0  0  0  0
  2  5  1  0  0  0  0
  5  6  2  0  0  0  0
  5  7  1  0  0  0  0
  7  8  1  0  0  0  0
  7  9  1  0  0  0  0
  9 10  1  0  0  0  0
  9 11  1  0  0  0  0
  9 26  1  0  0  0  0
 11 12  1  0  0  0  0
 11 13  1  0  0  0  0
 11 14  1  0  0  0  0
 14 15  2  0  0  0  0
 14 24  1  0  0  0  0
 15 16  1  0  0  0  0
 15 17  1  0  0  0  0
 17 18  1  0  0  0  0
 17 19  2  0  0  0  0
 19 20  1  0  0  0  0
 19 22  1  0  0  0  0
 20 21  1  0  0  0  0
 22 23  1  0  0  0  0
 22 24  2  0  0  0  0
 24 25  1  0  0  0  0
 26 27  2  0  0  0  0
 26 28  1  0  0  0  0
 28 29  1  0  0  0  0
 28 30  1  0  0  0  0
 30 31  1  0  0  0  0
 30 32  1  0  0  0  0
 30 33  1  0  0  0  0
M  END
$$$$

  -OEChem-03222214083D

 33 33  0     1  0  0  0  0  0999 V2000
   -3.3221   -4.5261    0.7585 H   0  0  0  0  0  0  0  0  0  0  0  0
   -3.2489   -3.6279    0.1385 C   0  0  0  0  0  0  0  0  0  0  0  0
   -4.0919   -2.9720    0.3686 H   0  0  0  0  0  0  0  0  0  0  0  0
   -3.3002   -3.9226   -0.9123 H   0  0  0  0  0  0  0  0  0  0  0  0
   -1.9415   -2.9088    0.4140 C   0  0  0  0  0  0  0  0  0  0  0  0
   -1.1834   -3.3388    1.2636 O   0  0  0  0  0  0  0  0  0  0  0  0
   -1.6232   -1.7727   -0.3055 N   0  0  0  0  0  0  0  0  0  0  0  0
   -2.2593   -1.5167   -1.0545 H   0  0  0  0  0  0  0  0  0  0  0  0
   -0.3473   -1.0372   -0.1884 C   0  0  1  0  0  0  0  0  0  0  0  0
    0.4817   -1.7149   -0.4197 H   0  0  0  0  0  0  0  0  0  0  0  0
   -0.3765    0.0786   -1.2556 C   0  0  0  0  0  0  0  0  0  0  0  0
   -0.2583   -0.3733   -2.2456 H   0  0  0  0  0  0  0  0  0  0  0  0
   -1.3580    0.5636   -1.2384 H   0  0  0  0  0  0  0  0  0  0  0  0
    0.6730    1.1491   -1.0625 C   0  0  0  0  0  0  0  0  0  0  0  0
    1.9362    1.0119   -1.6561 C   0  0  0  0  0  0  0  0  0  0  0  0
    2.1740    0.1209   -2.2297 H   0  0  0  0  0  0  0  0  0  0  0  0
    2.9051    2.0107   -1.5027 C   0  0  0  0  0  0  0  0  0  0  0  0
    3.8796    1.8821   -1.9601 H   0  0  0  0  0  0  0  0  0  0  0  0
    2.6179    3.1603   -0.7640 C   0  0  0  0  0  0  0  0  0  0  0  0
    3.5573    4.1378   -0.6060 O   0  0  0  0  0  0  0  0  0  0  0  0
    4.4090    3.8357   -0.9568 H   0  0  0  0  0  0  0  0  0  0  0  0
    1.3611    3.3086   -0.1813 C   0  0  0  0  0  0  0  0  0  0  0  0
    1.1478    4.2033    0.3940 H   0  0  0  0  0  0  0  0  0  0  0  0
    0.3908    2.3117   -0.3274 C   0  0  0  0  0  0  0  0  0  0  0  0
   -0.5796    2.4438    0.1411 H   0  0  0  0  0  0  0  0  0  0  0  0
   -0.0816   -0.4978    1.2379 C   0  0  0  0  0  0  0  0  0  0  0  0
    1.0470   -0.5300    1.7111 O   0  0  0  0  0  0  0  0  0  0  0  0
   -1.0943    0.1312    1.9416 N   0  0  0  0  0  0  0  0  0  0  0  0
   -2.0335    0.0208    1.5761 H   0  0  0  0  0  0  0  0  0  0  0  0
   -0.9209    0.6172    3.3044 C   0  0  0  0  0  0  0  0  0  0  0  0
   -0.1131    1.3553    3.3473 H   0  0  0  0  0  0  0  0  0  0  0  0
   -1.8409    1.0928    3.6570 H   0  0  0  0  0  0  0  0  0  0  0  0
   -0.6765   -0.2114    3.9773 H   0  0  0  0  0  0  0  0  0  0  0  0
  1  2  1  0  0  0  0
  2  3  1  0  0  0  0
  2  4  1  0  0  0  0
  2  5  1  0  0  0  0
  5  6  2  0  0  0  0
  5  7  1  0  0  0  0
  7  8  1  0  0  0  0
  7  9  1  0  0  0  0
  9 10  1  0  0  0  0
  9 11  1  0  0  0  0
  9 26  1  0  0  0  0
 11 12  1  0  0  0  0
 11 13  1  0  0  0  0
 11 14  1  0  0  0  0
 14 15  2  0  0  0  0
 14 24  1  0  0  0  0
 15 16  1  0  0  0  0
 15 17  1  0  0  0  0
 17 18  1  0  0  0  0
 17 19  2  0  0  0  0
 19 20  1  0  0  0  0
 19 22  1  0  0  0  0
 20 21  1  0  0  0  0
 22 23  1  0  0  0  0
 22 24  2  0  0  0  0
 24 25  1  0  0  0  0
 26 27  2  0  0  0  0
 26 28  1  0  0  0  0
 28 29  1  0  0  0  0
 28 30  1  0  0  0  0
 30 31  1  0  0  0  0
 30 32  1  0  0  0  0
 30 33  1  0  0  0  0
M  END
$$$$

  -OEChem-03222214083D

 33 33  0     1  0  0  0  0  0999 V2000
   -3.3626   -4.5139    0.7116 H   0  0  0  0  0  0  0  0  0  0  0  0
   -3.2751   -3.6064    0.1071 C   0  0  0  0  0  0  0  0  0  0  0  0
   -4.1096   -2.9430    0.3462 H   0  0  0  0  0  0  0  0  0  0  0  0
   -3.3270   -3.8822   -0.9488 H   0  0  0  0  0  0  0  0  0  0  0  0
   -1.9584   -2.9108    0.3982 C   0  0  0  0  0  0  0  0  0  0  0  0
   -1.2069   -3.3698    1.2382 O   0  0  0  0  0  0  0  0  0  0  0  0
   -1.6240   -1.7627   -0.2948 N   0  0  0  0  0  0  0  0  0  0  0  0
   -2.2567   -1.4791   -1.0369 H   0  0  0  0  0  0  0  0  0  0  0  0
   -0.3424   -1.0410   -0.1526 C   0  0  1  0  0  0  0  0  0  0  0  0
    0.4809   -1.7279   -0.3783 H   0  0  0  0  0  0  0  0  0  0  0  0
   -0.3362    0.0777   -1.2205 C   0  0  0  0  0  0  0  0  0  0  0  0
   -0.2165   -0.3831   -2.2062 H   0  0  0  0  0  0  0  0  0  0  0  0
   -1.3121    0.5738   -1.2157 H   0  0  0  0  0  0  0  0  0  0  0  0
    0.7131    1.1542   -1.0340 C   0  0  0  0  0  0  0  0  0  0  0  0
    1.8511    1.1691   -1.8558 C   0  0  0  0  0  0  0  0  0  0  0  0
    2.0089    0.3784   -2.5830 H   0  0  0  0  0  0  0  0  0  0  0  0
    2.8019    2.1902   -1.7407 C   0  0  0  0  0  0  0  0  0  0  0  0
    3.6803    2.1752   -2.3763 H   0  0  0  0  0  0  0  0  0  0  0  0
    2.6178    3.2196   -0.8161 C   0  0  0  0  0  0  0  0  0  0  0  0
    3.5392    4.2195   -0.6954 O   0  0  0  0  0  0  0  0  0  0  0  0
    4.3203    4.0150   -1.2319 H   0  0  0  0  0  0  0  0  0  0  0  0
    1.4793    3.2284   -0.0143 C   0  0  0  0  0  0  0  0  0  0  0  0
    1.3414    4.0340    0.6990 H   0  0  0  0  0  0  0  0  0  0  0  0
    0.5277    2.2092   -0.1242 C   0  0  0  0  0  0  0  0  0  0  0  0
   -0.3546    2.2463    0.5064 H   0  0  0  0  0  0  0  0  0  0  0  0
   -0.0938   -0.5385    1.2895 C   0  0  0  0  0  0  0  0  0  0  0  0
    1.0294   -0.5783    1.7736 O   0  0  0  0  0  0  0  0  0  0  0  0
   -1.1123    0.0802    1.9946 N   0  0  0  0  0  0  0  0  0  0  0  0
   -2.0482   -0.0318    1.6210 H   0  0  0  0  0  0  0  0  0  0  0  0
   -0.9544    0.5273    3.3727 C   0  0  0  0  0  0  0  0  0  0  0  0
   -0.1436    1.2598    3.4472 H   0  0  0  0  0  0  0  0  0  0  0  0
   -1.8767    0.9973    3.7267 H   0  0  0  0  0  0  0  0  0  0  0  0
   -0.7226   -0.3212    4.0251 H   0  0  0  0  0  0  0  0  0  0  0  0
  1  2  1  0  0  0  0
  2  3  1  0  0  0  0
  2  4  1  0  0  0  0
  2  5  1  0  0  0  0
  5  6  2  0  0  0  0
  5  7  1  0  0  0  0
  7  8  1  0  0  0  0
  7  9  1  0  0  0  0
  9 10  1  0  0  0  0
  9 11  1  0  0  0  0
  9 26  1  0  0  0  0
 11 12  1  0  0  0  0
 11 13  1  0  0  0  0
 11 14  1  0  0  0  0
 14 15  2  0  0  0  0
 14 24  1  0  0  0  0
 15 16  1  0  0  0  0
 15 17  1  0  0  0  0
 17 18  1  0  0  0  0
 17 19  2  0  0  0  0
 19 20  1  0  0  0  0
 19 22  1  0  0  0  0
 20 21  1  0  0  0  0
 22 23  1  0  0  0  0
 22 24  2  0  0  0  0
 24 25  1  0  0  0  0
 26 27  2  0  0  0  0
 26 28  1  0  0  0  0
 28 29  1  0  0  0  0
 28 30  1  0  0  0  0
 30 31  1  0  0  0  0
 30 32  1  0  0  0  0
 30 33  1  0  0  0  0
M  END
$$$$

  -OEChem-03222214083D

 33 33  0     1  0  0  0  0  0999 V2000
   -3.4153   -4.4939    0.6398 H   0  0  0  0  0  0  0  0  0  0  0  0
   -3.3052   -3.5739    0.0583 C   0  0  0  0  0  0  0  0  0  0  0  0
   -4.1304   -2.9019    0.3055 H   0  0  0  0  0  0  0  0  0  0  0  0
   -3.3516   -3.8236   -1.0043 H   0  0  0  0  0  0  0  0  0  0  0  0
   -1.9790   -2.9097    0.3789 C   0  0  0  0  0  0  0  0  0  0  0  0
   -1.2434   -3.4042    1.2129 O   0  0  0  0  0  0  0  0  0  0  0  0
   -1.6182   -1.7498   -0.2809 N   0  0  0  0  0  0  0  0  0  0  0  0
   -2.2430   -1.4312   -1.0152 H   0  0  0  0  0  0  0  0  0  0  0  0
   -0.3286   -1.0490   -0.1049 C   0  0  1  0  0  0  0  0  0  0  0  0
    0.4874   -1.7470   -0.3229 H   0  0  0  0  0  0  0  0  0  0  0  0
   -0.2804    0.0730   -1.1730 C   0  0  0  0  0  0  0  0  0  0  0  0
   -0.1591   -0.4004   -2.1526 H   0  0  0  0  0  0  0  0  0  0  0  0
   -1.2509    0.5794   -1.1828 H   0  0  0  0  0  0  0  0  0  0  0  0
    0.7673    1.1600   -1.0036 C   0  0  0  0  0  0  0  0  0  0  0  0
    1.7293    1.3410   -2.0123 C   0  0  0  0  0  0  0  0  0  0  0  0
    1.7699    0.6590   -2.8565 H   0  0  0  0  0  0  0  0  0  0  0  0
    2.6588    2.3854   -1.9429 C   0  0  0  0  0  0  0  0  0  0  0  0
    3.4021    2.4911   -2.7254 H   0  0  0  0  0  0  0  0  0  0  0  0
    2.6240    3.2850   -0.8774 C   0  0  0  0  0  0  0  0  0  0  0  0
    3.5244    4.3080   -0.8003 O   0  0  0  0  0  0  0  0  0  0  0  0
    4.1861    4.2200   -1.5030 H   0  0  0  0  0  0  0  0  0  0  0  0
    1.6507    3.1437    0.1072 C   0  0  0  0  0  0  0  0  0  0  0  0
    1.6206    3.8542    0.9265 H   0  0  0  0  0  0  0  0  0  0  0  0
    0.7202    2.1013    0.0410 C   0  0  0  0  0  0  0  0  0  0  0  0
   -0.0403    2.0464    0.8114 H   0  0  0  0  0  0  0  0  0  0  0  0
   -0.1068   -0.5910    1.3556 C   0  0  0  0  0  0  0  0  0  0  0  0
    1.0066   -0.6471    1.8598 O   0  0  0  0  0  0  0  0  0  0  0  0
   -1.1341    0.0187    2.0564 N   0  0  0  0  0  0  0  0  0  0  0  0
   -2.0628   -0.0722    1.6590 H   0  0  0  0  0  0  0  0  0  0  0  0
   -1.0043    0.4137    3.4535 C   0  0  0  0  0  0  0  0  0  0  0  0
   -0.1912    1.1375    3.5735 H   0  0  0  0  0  0  0  0  0  0  0  0
   -1.9315    0.8766    3.8042 H   0  0  0  0  0  0  0  0  0  0  0  0
   -0.7925   -0.4599    4.0791 H   0  0  0  0  0  0  0  0  0  0  0  0
  1  2  1  0  0  0  0
  2  3  1  0  0  0  0
  2  4  1  0  0  0  0
  2  5  1  0  0  0  0
  5  6  2  0  0  0  0
  5  7  1  0  0  0  0
  7  8  1  0  0  0  0
  7  9  1  0  0  0  0
  9 10  1  0  0  0  0
  9 11  1  0  0  0  0
  9 26  1  0  0  0  0
 11 12  1  0  0  0  0
 11 13  1  0  0  0  0
 11 14  1  0  0  0  0
 14 15  2  0  0  0  0
 14 24  1  0  0  0  0
 15 16  1  0  0  0  0
 15 17  1  0  0  0  0
 17 18  1  0  0  0  0
 17 19  2  0  0  0  0
 19 20  1  0  0  0  0
 19 22  1  0  0  0  0
 20 21  1  0  0  0  0
 22 23  1  0  0  0  0
 22 24  2  0  0  0  0
 24 25  1  0  0  0  0
 26 27  2  0  0  0  0
 26 28  1  0  0  0  0
 28 29  1  0  0  0  0
 28 30  1  0  0  0  0
 30 31  1  0  0  0  0
 30 32  1  0  0  0  0
 30 33  1  0  0  0  0
M  END
$$$$

  -OEChem-03222214083D

 33 33  0     1  0  0  0  0  0999 V2000
   -3.4731   -4.4640    0.5587 H   0  0  0  0  0  0  0  0  0  0  0  0
   -3.3322   -3.5359   -0.0030 C   0  0  0  0  0  0  0  0  0  0  0  0
   -4.1468   -2.8502    0.2419 H   0  0  0  0  0  0  0  0  0  0  0  0
   -3.3638   -3.7640   -1.0712 H   0  0  0  0  0  0  0  0  0  0  0  0
   -1.9986   -2.9073    0.3550 C   0  0  0  0  0  0  0  0  0  0  0  0
   -1.2855   -3.4387    1.1858 O   0  0  0  0  0  0  0  0  0  0  0  0
   -1.6037   -1.7400   -0.2714 N   0  0  0  0  0  0  0  0  0  0  0  0
   -2.2113   -1.3896   -1.0058 H   0  0  0  0  0  0  0  0  0  0  0  0
   -0.3057   -1.0661   -0.0538 C   0  0  1  0  0  0  0  0  0  0  0  0
    0.5044   -1.7730   -0.2650 H   0  0  0  0  0  0  0  0  0  0  0  0
   -0.2234    0.0673   -1.1122 C   0  0  0  0  0  0  0  0  0  0  0  0
   -0.1005   -0.4146   -2.0874 H   0  0  0  0  0  0  0  0  0  0  0  0
   -1.1918    0.5776   -1.1294 H   0  0  0  0  0  0  0  0  0  0  0  0
    0.8174    1.1724   -0.9698 C   0  0  0  0  0  0  0  0  0  0  0  0
    1.5448    1.5359   -2.1185 C   0  0  0  0  0  0  0  0  0  0  0  0
    1.4146    0.9838   -3.0445 H   0  0  0  0  0  0  0  0  0  0  0  0
    2.4598    2.5944   -2.0975 C   0  0  0  0  0  0  0  0  0  0  0  0
    3.0207    2.8340   -2.9941 H   0  0  0  0  0  0  0  0  0  0  0  0
    2.6425    3.3382   -0.9331 C   0  0  0  0  0  0  0  0  0  0  0  0
    3.5308    4.3744   -0.8992 O   0  0  0  0  0  0  0  0  0  0  0  0
    4.0150    4.4240   -1.7374 H   0  0  0  0  0  0  0  0  0  0  0  0
    1.8955    3.0281    0.1985 C   0  0  0  0  0  0  0  0  0  0  0  0
    2.0273    3.6216    1.0974 H   0  0  0  0  0  0  0  0  0  0  0  0
    0.9801    1.9699    0.1805 C   0  0  0  0  0  0  0  0  0  0  0  0
    0.4006    1.8079    1.0802 H   0  0  0  0  0  0  0  0  0  0  0  0
   -0.1218   -0.6504    1.4234 C   0  0  0  0  0  0  0  0  0  0  0  0
    0.9740   -0.7379    1.9609 O   0  0  0  0  0  0  0  0  0  0  0  0
   -1.1608   -0.0426    2.1089 N   0  0  0  0  0  0  0  0  0  0  0  0
   -2.0761   -0.0942    1.6753 H   0  0  0  0  0  0  0  0  0  0  0  0
   -1.0727    0.3131    3.5198 C   0  0  0  0  0  0  0  0  0  0  0  0
   -0.2509    1.0172    3.6875 H   0  0  0  0  0  0  0  0  0  0  0  0
   -2.0032    0.7847    3.8504 H   0  0  0  0  0  0  0  0  0  0  0  0
   -0.8996   -0.5805    4.1288 H   0  0  0  0  0  0  0  0  0  0  0  0
  1  2  1  0  0  0  0
  2  3  1  0  0  0  0
  2  4  1  0  0  0  0
  2  5  1  0  0  0  0
  5  6  2  0  0  0  0
  5  7  1  0  0  0  0
  7  8  1  0  0  0  0
  7  9  1  0  0  0  0
  9 10  1  0  0  0  0
  9 11  1  0  0  0  0
  9 26  1  0  0  0  0
 11 12  1  0  0  0  0
 11 13  1  0  0  0  0
 11 14  1  0  0  0  0
 14 15  2  0  0  0  0
 14 24  1  0  0  0  0
 15 16  1  0  0  0  0
 15 17  1  0  0  0  0
 17 18  1  0  0  0  0
 17 19  2  0  0  0  0
 19 20  1  0  0  0  0
 19 22  1  0  0  0  0
 20 21  1  0  0  0  0
 22 23  1  0  0  0  0
 22 24  2  0  0  0  0
 24 25  1  0  0  0  0
 26 27  2  0  0  0  0
 26 28  1  0  0  0  0
 28 29  1  0  0  0  0
 28 30  1  0  0  0  0
 30 31  1  0  0  0  0
 30 32  1  0  0  0  0
 30 33  1  0  0  0  0
M  END
$$$$

  -OEChem-03222214083D

 33 33  0     1  0  0  0  0  0999 V2000
   -3.5372   -4.4208    0.4816 H   0  0  0  0  0  0  0  0  0  0  0  0
   -3.3622   -3.4880   -0.0625 C   0  0  0  0  0  0  0  0  0  0  0  0
   -4.1652   -2.7866    0.1759 H   0  0  0  0  0  0  0  0  0  0  0  0
   -3.3768   -3.7002   -1.1343 H   0  0  0  0  0  0  0  0  0  0  0  0
   -2.0215   -2.8978    0.3333 C   0  0  0  0  0  0  0  0  0  0  0  0
   -1.3407   -3.4592    1.1713 O   0  0  0  0  0  0  0  0  0  0  0  0
   -1.5833   -1.7325   -0.2680 N   0  0  0  0  0  0  0  0  0  0  0  0
   -2.1670   -1.3560   -1.0086 H   0  0  0  0  0  0  0  0  0  0  0  0
   -0.2763   -1.0900   -0.0077 C   0  0  1  0  0  0  0  0  0  0  0  0
    0.5299   -1.8034   -0.2119 H   0  0  0  0  0  0  0  0  0  0  0  0
   -0.1715    0.0592   -1.0504 C   0  0  0  0  0  0  0  0  0  0  0  0
   -0.0419   -0.4237   -2.0246 H   0  0  0  0  0  0  0  0  0  0  0  0
   -1.1406    0.5681   -1.0711 H   0  0  0  0  0  0  0  0  0  0  0  0
    0.8585    1.1833   -0.9366 C   0  0  0  0  0  0  0  0  0  0  0  0
    1.3103    1.7429   -2.1476 C   0  0  0  0  0  0  0  0  0  0  0  0
    0.9712    1.3349   -3.0952 H   0  0  0  0  0  0  0  0  0  0  0  0
    2.2096    2.8149   -2.1710 C   0  0  0  0  0  0  0  0  0  0  0  0
    2.5504    3.2070   -3.1228 H   0  0  0  0  0  0  0  0  0  0  0  0
    2.6597    3.3755   -0.9783 C   0  0  0  0  0  0  0  0  0  0  0  0
    3.5402    4.4186   -0.9844 O   0  0  0  0  0  0  0  0  0  0  0  0
    3.8242    4.6090   -1.8913 H   0  0  0  0  0  0  0  0  0  0  0  0
    2.1911    2.8711    0.2291 C   0  0  0  0  0  0  0  0  0  0  0  0
    2.5282    3.3223    1.1566 H   0  0  0  0  0  0  0  0  0  0  0  0
    1.2914    1.7999    0.2564 C   0  0  0  0  0  0  0  0  0  0  0  0
    0.9495    1.5005    1.2366 H   0  0  0  0  0  0  0  0  0  0  0  0
   -0.1343   -0.6998    1.4801 C   0  0  0  0  0  0  0  0  0  0  0  0
    0.9267   -0.8702    2.0668 O   0  0  0  0  0  0  0  0  0  0  0  0
   -1.1788   -0.0789    2.1435 N   0  0  0  0  0  0  0  0  0  0  0  0
   -2.0719   -0.0588    1.6636 H   0  0  0  0  0  0  0  0  0  0  0  0
   -1.1371    0.2333    3.5666 C   0  0  0  0  0  0  0  0  0  0  0  0
   -0.3100    0.9170    3.7852 H   0  0  0  0  0  0  0  0  0  0  0  0
   -2.0707    0.7120    3.8767 H   0  0  0  0  0  0  0  0  0  0  0  0
   -1.0032   -0.6811    4.1542 H   0  0  0  0  0  0  0  0  0  0  0  0
  1  2  1  0  0  0  0
  2  3  1  0  0  0  0
  2  4  1  0  0  0  0
  2  5  1  0  0  0  0
  5  6  2  0  0  0  0
  5  7  1  0  0  0  0
  7  8  1  0  0  0  0
  7  9  1  0  0  0  0
  9 10  1  0  0  0  0
  9 11  1  0  0  0  0
  9 26  1  0  0  0  0
 11 12  1  0  0  0  0
 11 13  1  0  0  0  0
 11 14  1  0  0  0  0
 14 15  2  0  0  0  0
 14 24  1  0  0  0  0
 15 16  1  0  0  0  0
 15 17  1  0  0  0  0
 17 18  1  0  0  0  0
 17 19  2  0  0  0  0
 19 20  1  0  0  0  0
 19 22  1  0  0  0  0
 20 21  1  0  0  0  0
 22 23  1  0  0  0  0
 22 24  2  0  0  0  0
 24 25  1  0  0  0  0
 26 27  2  0  0  0  0
 26 28  1  0  0  0  0
 28 29  1  0  0  0  0
 28 30  1  0  0  0  0
 30 31  1  0  0  0  0
 30 32  1  0  0  0  0
 30 33  1  0  0  0  0
M  END
$$$$

  -OEChem-03222214083D

 33 33  0     1  0  0  0  0  0999 V2000
   -3.5696   -4.3716    0.4873 H   0  0  0  0  0  0  0  0  0  0  0  0
   -3.3654   -3.4459   -0.0585 C   0  0  0  0  0  0  0  0  0  0  0  0
   -4.1550   -2.7249    0.1658 H   0  0  0  0  0  0  0  0  0  0  0  0
   -3.3701   -3.6624   -1.1294 H   0  0  0  0  0  0  0  0  0  0  0  0
   -2.0164   -2.8861    0.3531 C   0  0  0  0  0  0  0  0  0  0  0  0
   -1.3620   -3.4601    1.2033 O   0  0  0  0  0  0  0  0  0  0  0  0
   -1.5379   -1.7414   -0.2576 N   0  0  0  0  0  0  0  0  0  0  0  0
   -2.1022   -1.3594   -1.0102 H   0  0  0  0  0  0  0  0  0  0  0  0
   -0.2314   -1.1093    0.0341 C   0  0  1  0  0  0  0  0  0  0  0  0
    0.5853   -1.8177   -0.1425 H   0  0  0  0  0  0  0  0  0  0  0  0
   -0.1286    0.0470   -1.0006 C   0  0  0  0  0  0  0  0  0  0  0  0
    0.0160   -0.4309   -1.9753 H   0  0  0  0  0  0  0  0  0  0  0  0
   -1.1045    0.5434   -1.0249 H   0  0  0  0  0  0  0  0  0  0  0  0
    0.8821    1.1890   -0.9033 C   0  0  0  0  0  0  0  0  0  0  0  0
    1.0522    1.9513   -2.0747 C   0  0  0  0  0  0  0  0  0  0  0  0
    0.4786    1.7099   -2.9648 H   0  0  0  0  0  0  0  0  0  0  0  0
    1.9489    3.0241   -2.1303 C   0  0  0  0  0  0  0  0  0  0  0  0
    2.0529    3.5876   -3.0511 H   0  0  0  0  0  0  0  0  0  0  0  0
    2.7024    3.3624   -1.0088 C   0  0  0  0  0  0  0  0  0  0  0  0
    3.5842    4.4036   -1.0470 O   0  0  0  0  0  0  0  0  0  0  0  0
    3.6144    4.7831   -1.9383 H   0  0  0  0  0  0  0  0  0  0  0  0
    2.5538    2.6223    0.1587 C   0  0  0  0  0  0  0  0  0  0  0  0
    3.1467    2.8831    1.0295 H   0  0  0  0  0  0  0  0  0  0  0  0
    1.6597    1.5472    0.2173 C   0  0  0  0  0  0  0  0  0  0  0  0
    1.6215    1.0260    1.1609 H   0  0  0  0  0  0  0  0  0  0  0  0
   -0.1624   -0.6939    1.5227 C   0  0  0  0  0  0  0  0  0  0  0  0
    0.8232   -0.9621    2.1982 O   0  0  0  0  0  0  0  0  0  0  0  0
   -1.2321   -0.0507    2.1208 N   0  0  0  0  0  0  0  0  0  0  0  0
   -2.0783    0.0366    1.5697 H   0  0  0  0  0  0  0  0  0  0  0  0
   -1.2841    0.2444    3.5468 C   0  0  0  0  0  0  0  0  0  0  0  0
   -0.4612    0.9091    3.8299 H   0  0  0  0  0  0  0  0  0  0  0  0
   -2.2278    0.7377    3.7972 H   0  0  0  0  0  0  0  0  0  0  0  0
   -1.2090   -0.6789    4.1311 H   0  0  0  0  0  0  0  0  0  0  0  0
  1  2  1  0  0  0  0
  2  3  1  0  0  0  0
  2  4  1  0  0  0  0
  2  5  1  0  0  0  0
  5  6  2  0  0  0  0
  5  7  1  0  0  0  0
  7  8  1  0  0  0  0
  7  9  1  0  0  0  0
  9 10  1  0  0  0  0
  9 11  1  0  0  0  0
  9 26  1  0  0  0  0
 11 12  1  0  0  0  0
 11 13  1  0  0  0  0
 11 14  1  0  0  0  0
 14 15  2  0  0  0  0
 14 24  1  0  0  0  0
 15 16  1  0  0  0  0
 15 17  1  0  0  0  0
 17 18  1  0  0  0  0
 17 19  2  0  0  0  0
 19 20  1  0  0  0  0
 19 22  1  0  0  0  0
 20 21  1  0  0  0  0
 22 23  1  0  0  0  0
 22 24  2  0  0  0  0
 24 25  1  0  0  0  0
 26 27  2  0  0  0  0
 26 28  1  0  0  0  0
 28 29  1  0  0  0  0
 28 30  1  0  0  0  0
 30 31  1  0  0  0  0
 30 32  1  0  0  0  0
 30 33  1  0  0  0  0
M  END
$$$$
