default_name
  -OEChem-02102213163D

 33 33  0     1  0  0  0  0  0999 V2000
   -4.0702   -3.8485    1.4554 H   0  0  0  0  0  0  0  0  0  0  0  0
   -4.0012   -2.9605    0.8284 C   0  0  0  0  0  0  0  0  0  0  0  0
   -4.7652   -2.2435    1.1234 H   0  0  0  0  0  0  0  0  0  0  0  0
   -4.1352   -3.2385   -0.2156 H   0  0  0  0  0  0  0  0  0  0  0  0
   -2.6362   -2.3395    1.0094 C   0  0  0  0  0  0  0  0  0  0  0  0
   -1.8292   -2.8395    1.7814 O   0  0  0  0  0  0  0  0  0  0  0  0
   -2.3832   -1.2445    0.2964 N   0  0  0  0  0  0  0  0  0  0  0  0
   -3.1102   -0.8685   -0.2946 H   0  0  0  0  0  0  0  0  0  0  0  0
   -1.1292   -0.4875    0.3524 C   0  0  1  0  0  0  0  0  0  0  0  0
   -0.3087   -1.1556    0.0882 H   0  0  0  0  0  0  0  0  0  0  0  0
   -1.1749    0.6534   -0.6787 C   0  0  0  0  0  0  0  0  0  0  0  0
   -1.3179    0.2274   -1.6725 H   0  0  0  0  0  0  0  0  0  0  0  0
   -2.0383    1.2865   -0.4672 H   0  0  0  0  0  0  0  0  0  0  0  0
    0.0782    1.5070   -0.7082 C   0  0  0  0  0  0  0  0  0  0  0  0
    0.1800    2.5905   -1.6037 C   0  0  0  0  0  0  0  0  0  0  0  0
   -0.6274    2.8009   -2.2927 H   0  0  0  0  0  0  0  0  0  0  0  0
    1.3292    3.4049   -1.5992 C   0  0  0  0  0  0  0  0  0  0  0  0
    1.4044    4.2328   -2.2874 H   0  0  0  0  0  0  0  0  0  0  0  0
    2.3784    3.1367   -0.6932 C   0  0  0  0  0  0  0  0  0  0  0  0
    3.4894    3.9179   -0.6790 O   0  0  0  0  0  0  0  0  0  0  0  0
    3.4872    4.5618   -1.3885 H   0  0  0  0  0  0  0  0  0  0  0  0
    2.2726    2.0550    0.2056 C   0  0  0  0  0  0  0  0  0  0  0  0
    3.0834    1.8574    0.8905 H   0  0  0  0  0  0  0  0  0  0  0  0
    1.1247    1.2400    0.1955 C   0  0  0  0  0  0  0  0  0  0  0  0
    1.0483    0.4035    0.8800 H   0  0  0  0  0  0  0  0  0  0  0  0
   -0.8664    0.0378    1.7736 C   0  0  0  0  0  0  0  0  0  0  0  0
    0.2529   -0.0672    2.2760 O   0  0  0  0  0  0  0  0  0  0  0  0
   -1.8947    0.5991    2.4221 N   0  0  0  0  0  0  0  0  0  0  0  0
   -2.7942    0.5936    1.9635 H   0  0  0  0  0  0  0  0  0  0  0  0
   -1.8170    1.1453    3.7750 C   0  0  0  0  0  0  0  0  0  0  0  0
   -0.9697    1.8290    3.8506 H   0  0  0  0  0  0  0  0  0  0  0  0
   -2.7354    1.6828    4.0167 H   0  0  0  0  0  0  0  0  0  0  0  0
   -1.6754    0.3334    4.4914 H   0  0  0  0  0  0  0  0  0  0  0  0
  5  6  2  0  0  0  0
  5  7  1  0  0  0  0
  2  3  1  0  0  0  0
  2  4  1  0  0  0  0
  2  5  1  0  0  0  0
  1  2  1  0  0  0  0
 26 27  2  0  0  0  0
 26 28  1  0  0  0  0
 24 25  1  0  0  0  0
 22 23  1  0  0  0  0
 22 24  2  0  0  0  0
 20 21  1  0  0  0  0
 19 20  1  0  0  0  0
 19 22  1  0  0  0  0
 17 18  1  0  0  0  0
 17 19  2  0  0  0  0
 15 16  1  0  0  0  0
 15 17  1  0  0  0  0
 14 15  2  0  0  0  0
 14 24  1  0  0  0  0
 11 12  1  0  0  0  0
 11 13  1  0  0  0  0
 11 14  1  0  0  0  0
  9 10  1  0  0  0  0
  9 11  1  0  0  0  0
  9 26  1  0  0  0  0
  7  8  1  0  0  0  0
  7  9  1  0  0  0  0
 30 31  1  0  0  0  0
 30 32  1  0  0  0  0
 30 33  1  0  0  0  0
 28 29  1  0  0  0  0
 28 30  1  0  0  0  0
M  END
$$$$
default_name
  -OEChem-02102213163D

 33 33  0     1  0  0  0  0  0999 V2000
   -4.0702   -3.8485    1.4554 H   0  0  0  0  0  0  0  0  0  0  0  0
   -4.0012   -2.9605    0.8284 C   0  0  0  0  0  0  0  0  0  0  0  0
   -4.7652   -2.2435    1.1234 H   0  0  0  0  0  0  0  0  0  0  0  0
   -4.1352   -3.2385   -0.2156 H   0  0  0  0  0  0  0  0  0  0  0  0
   -2.6362   -2.3395    1.0094 C   0  0  0  0  0  0  0  0  0  0  0  0
   -1.8292   -2.8395    1.7814 O   0  0  0  0  0  0  0  0  0  0  0  0
   -2.3832   -1.2445    0.2964 N   0  0  0  0  0  0  0  0  0  0  0  0
   -3.1102   -0.8685   -0.2946 H   0  0  0  0  0  0  0  0  0  0  0  0
   -1.1292   -0.4875    0.3524 C   0  0  1  0  0  0  0  0  0  0  0  0
   -0.3087   -1.1556    0.0882 H   0  0  0  0  0  0  0  0  0  0  0  0
   -1.1749    0.6534   -0.6787 C   0  0  0  0  0  0  0  0  0  0  0  0
   -1.3179    0.2274   -1.6725 H   0  0  0  0  0  0  0  0  0  0  0  0
   -2.0383    1.2865   -0.4672 H   0  0  0  0  0  0  0  0  0  0  0  0
    0.0782    1.5070   -0.7082 C   0  0  0  0  0  0  0  0  0  0  0  0
    0.0716    2.7582   -1.3567 C   0  0  0  0  0  0  0  0  0  0  0  0
   -0.8227    3.1027   -1.8593 H   0  0  0  0  0  0  0  0  0  0  0  0
    1.2260    3.5651   -1.3466 C   0  0  0  0  0  0  0  0  0  0  0  0
    1.2178    4.5220   -1.8455 H   0  0  0  0  0  0  0  0  0  0  0  0
    2.3897    3.1204   -0.6821 C   0  0  0  0  0  0  0  0  0  0  0  0
    3.5071    3.8925   -0.6640 O   0  0  0  0  0  0  0  0  0  0  0  0
    3.4154    4.6733   -1.2116 H   0  0  0  0  0  0  0  0  0  0  0  0
    2.3930    1.8702   -0.0294 C   0  0  0  0  0  0  0  0  0  0  0  0
    3.2903    1.5392    0.4714 H   0  0  0  0  0  0  0  0  0  0  0  0
    1.2390    1.0639   -0.0453 C   0  0  0  0  0  0  0  0  0  0  0  0
    1.2452    0.0994    0.4485 H   0  0  0  0  0  0  0  0  0  0  0  0
   -0.8664    0.0378    1.7736 C   0  0  0  0  0  0  0  0  0  0  0  0
    0.2529   -0.0672    2.2760 O   0  0  0  0  0  0  0  0  0  0  0  0
   -1.8947    0.5991    2.4221 N   0  0  0  0  0  0  0  0  0  0  0  0
   -2.7942    0.5936    1.9635 H   0  0  0  0  0  0  0  0  0  0  0  0
   -1.8170    1.1453    3.7750 C   0  0  0  0  0  0  0  0  0  0  0  0
   -0.9697    1.8290    3.8506 H   0  0  0  0  0  0  0  0  0  0  0  0
   -2.7354    1.6828    4.0167 H   0  0  0  0  0  0  0  0  0  0  0  0
   -1.6754    0.3334    4.4914 H   0  0  0  0  0  0  0  0  0  0  0  0
  5  6  2  0  0  0  0
  5  7  1  0  0  0  0
  2  3  1  0  0  0  0
  2  4  1  0  0  0  0
  2  5  1  0  0  0  0
  1  2  1  0  0  0  0
 26 27  2  0  0  0  0
 26 28  1  0  0  0  0
 24 25  1  0  0  0  0
 22 23  1  0  0  0  0
 22 24  2  0  0  0  0
 20 21  1  0  0  0  0
 19 20  1  0  0  0  0
 19 22  1  0  0  0  0
 17 18  1  0  0  0  0
 17 19  2  0  0  0  0
 15 16  1  0  0  0  0
 15 17  1  0  0  0  0
 14 15  2  0  0  0  0
 14 24  1  0  0  0  0
 11 12  1  0  0  0  0
 11 13  1  0  0  0  0
 11 14  1  0  0  0  0
  9 10  1  0  0  0  0
  9 11  1  0  0  0  0
  9 26  1  0  0  0  0
  7  8  1  0  0  0  0
  7  9  1  0  0  0  0
 30 31  1  0  0  0  0
 30 32  1  0  0  0  0
 30 33  1  0  0  0  0
 28 29  1  0  0  0  0
 28 30  1  0  0  0  0
M  END
$$$$
default_name
  -OEChem-02102213163D

 33 33  0     1  0  0  0  0  0999 V2000
   -4.0702   -3.8485    1.4554 H   0  0  0  0  0  0  0  0  0  0  0  0
   -4.0012   -2.9605    0.8284 C   0  0  0  0  0  0  0  0  0  0  0  0
   -4.7652   -2.2435    1.1234 H   0  0  0  0  0  0  0  0  0  0  0  0
   -4.1352   -3.2385   -0.2156 H   0  0  0  0  0  0  0  0  0  0  0  0
   -2.6362   -2.3395    1.0094 C   0  0  0  0  0  0  0  0  0  0  0  0
   -1.8292   -2.8395    1.7814 O   0  0  0  0  0  0  0  0  0  0  0  0
   -2.3832   -1.2445    0.2964 N   0  0  0  0  0  0  0  0  0  0  0  0
   -3.1102   -0.8685   -0.2946 H   0  0  0  0  0  0  0  0  0  0  0  0
   -1.1292   -0.4875    0.3524 C   0  0  1  0  0  0  0  0  0  0  0  0
   -0.3087   -1.1556    0.0882 H   0  0  0  0  0  0  0  0  0  0  0  0
   -1.1749    0.6534   -0.6787 C   0  0  0  0  0  0  0  0  0  0  0  0
   -1.3179    0.2274   -1.6725 H   0  0  0  0  0  0  0  0  0  0  0  0
   -2.0383    1.2865   -0.4672 H   0  0  0  0  0  0  0  0  0  0  0  0
    0.0782    1.5070   -0.7082 C   0  0  0  0  0  0  0  0  0  0  0  0
    0.0037    2.8680   -1.0665 C   0  0  0  0  0  0  0  0  0  0  0  0
   -0.9467    3.3024   -1.3477 H   0  0  0  0  0  0  0  0  0  0  0  0
    1.1639    3.6664   -1.0532 C   0  0  0  0  0  0  0  0  0  0  0  0
    1.1034    4.7078   -1.3297 H   0  0  0  0  0  0  0  0  0  0  0  0
    2.4022    3.1022   -0.6765 C   0  0  0  0  0  0  0  0  0  0  0  0
    3.5263    3.8645   -0.6576 O   0  0  0  0  0  0  0  0  0  0  0  0
    3.3724    4.7435   -1.0065 H   0  0  0  0  0  0  0  0  0  0  0  0
    2.4740    1.7414   -0.3135 C   0  0  0  0  0  0  0  0  0  0  0  0
    3.4274    1.3205   -0.0315 H   0  0  0  0  0  0  0  0  0  0  0  0
    1.3134    0.9448   -0.3322 C   0  0  0  0  0  0  0  0  0  0  0  0
    1.3711   -0.1030   -0.0621 H   0  0  0  0  0  0  0  0  0  0  0  0
   -0.8664    0.0378    1.7736 C   0  0  0  0  0  0  0  0  0  0  0  0
    0.2529   -0.0672    2.2760 O   0  0  0  0  0  0  0  0  0  0  0  0
   -1.8947    0.5991    2.4221 N   0  0  0  0  0  0  0  0  0  0  0  0
   -2.7942    0.5936    1.9635 H   0  0  0  0  0  0  0  0  0  0  0  0
   -1.8170    1.1453    3.7750 C   0  0  0  0  0  0  0  0  0  0  0  0
   -0.9697    1.8290    3.8506 H   0  0  0  0  0  0  0  0  0  0  0  0
   -2.7354    1.6828    4.0167 H   0  0  0  0  0  0  0  0  0  0  0  0
   -1.6754    0.3334    4.4914 H   0  0  0  0  0  0  0  0  0  0  0  0
  5  6  2  0  0  0  0
  5  7  1  0  0  0  0
  2  3  1  0  0  0  0
  2  4  1  0  0  0  0
  2  5  1  0  0  0  0
  1  2  1  0  0  0  0
 26 27  2  0  0  0  0
 26 28  1  0  0  0  0
 24 25  1  0  0  0  0
 22 23  1  0  0  0  0
 22 24  2  0  0  0  0
 20 21  1  0  0  0  0
 19 20  1  0  0  0  0
 19 22  1  0  0  0  0
 17 18  1  0  0  0  0
 17 19  2  0  0  0  0
 15 16  1  0  0  0  0
 15 17  1  0  0  0  0
 14 15  2  0  0  0  0
 14 24  1  0  0  0  0
 11 12  1  0  0  0  0
 11 13  1  0  0  0  0
 11 14  1  0  0  0  0
  9 10  1  0  0  0  0
  9 11  1  0  0  0  0
  9 26  1  0  0  0  0
  7  8  1  0  0  0  0
  7  9  1  0  0  0  0
 30 31  1  0  0  0  0
 30 32  1  0  0  0  0
 30 33  1  0  0  0  0
 28 29  1  0  0  0  0
 28 30  1  0  0  0  0
M  END
$$$$
default_name
  -OEChem-02102213163D

 33 33  0     1  0  0  0  0  0999 V2000
   -4.0702   -3.8485    1.4554 H   0  0  0  0  0  0  0  0  0  0  0  0
   -4.0012   -2.9605    0.8284 C   0  0  0  0  0  0  0  0  0  0  0  0
   -4.7652   -2.2435    1.1234 H   0  0  0  0  0  0  0  0  0  0  0  0
   -4.1352   -3.2385   -0.2156 H   0  0  0  0  0  0  0  0  0  0  0  0
   -2.6362   -2.3395    1.0094 C   0  0  0  0  0  0  0  0  0  0  0  0
   -1.8292   -2.8395    1.7814 O   0  0  0  0  0  0  0  0  0  0  0  0
   -2.3832   -1.2445    0.2964 N   0  0  0  0  0  0  0  0  0  0  0  0
   -3.1102   -0.8685   -0.2946 H   0  0  0  0  0  0  0  0  0  0  0  0
   -1.1292   -0.4875    0.3524 C   0  0  1  0  0  0  0  0  0  0  0  0
   -0.3087   -1.1556    0.0882 H   0  0  0  0  0  0  0  0  0  0  0  0
   -1.1749    0.6534   -0.6787 C   0  0  0  0  0  0  0  0  0  0  0  0
   -1.3179    0.2274   -1.6725 H   0  0  0  0  0  0  0  0  0  0  0  0
   -2.0383    1.2865   -0.4672 H   0  0  0  0  0  0  0  0  0  0  0  0
    0.0782    1.5070   -0.7082 C   0  0  0  0  0  0  0  0  0  0  0  0
   -0.0191    2.9123   -0.7528 C   0  0  0  0  0  0  0  0  0  0  0  0
   -0.9910    3.3866   -0.7927 H   0  0  0  0  0  0  0  0  0  0  0  0
    1.1472    3.7018   -0.7392 C   0  0  0  0  0  0  0  0  0  0  0  0
    1.0690    4.7775   -0.7751 H   0  0  0  0  0  0  0  0  0  0  0  0
    2.4150    3.0834   -0.6768 C   0  0  0  0  0  0  0  0  0  0  0  0
    3.5456    3.8361   -0.6602 O   0  0  0  0  0  0  0  0  0  0  0  0
    3.3611    4.7677   -0.7870 H   0  0  0  0  0  0  0  0  0  0  0  0
    2.5103    1.6772   -0.6272 C   0  0  0  0  0  0  0  0  0  0  0  0
    3.4855    1.2160   -0.5841 H   0  0  0  0  0  0  0  0  0  0  0  0
    1.3429    0.8907   -0.6456 C   0  0  0  0  0  0  0  0  0  0  0  0
    1.4172   -0.1899   -0.6169 H   0  0  0  0  0  0  0  0  0  0  0  0
   -0.8664    0.0378    1.7736 C   0  0  0  0  0  0  0  0  0  0  0  0
    0.2529   -0.0672    2.2760 O   0  0  0  0  0  0  0  0  0  0  0  0
   -1.8947    0.5991    2.4221 N   0  0  0  0  0  0  0  0  0  0  0  0
   -2.7942    0.5936    1.9635 H   0  0  0  0  0  0  0  0  0  0  0  0
   -1.8170    1.1453    3.7750 C   0  0  0  0  0  0  0  0  0  0  0  0
   -0.9697    1.8290    3.8506 H   0  0  0  0  0  0  0  0  0  0  0  0
   -2.7354    1.6828    4.0167 H   0  0  0  0  0  0  0  0  0  0  0  0
   -1.6754    0.3334    4.4914 H   0  0  0  0  0  0  0  0  0  0  0  0
  5  6  2  0  0  0  0
  5  7  1  0  0  0  0
  2  3  1  0  0  0  0
  2  4  1  0  0  0  0
  2  5  1  0  0  0  0
  1  2  1  0  0  0  0
 26 27  2  0  0  0  0
 26 28  1  0  0  0  0
 24 25  1  0  0  0  0
 22 23  1  0  0  0  0
 22 24  2  0  0  0  0
 20 21  1  0  0  0  0
 19 20  1  0  0  0  0
 19 22  1  0  0  0  0
 17 18  1  0  0  0  0
 17 19  2  0  0  0  0
 15 16  1  0  0  0  0
 15 17  1  0  0  0  0
 14 15  2  0  0  0  0
 14 24  1  0  0  0  0
 11 12  1  0  0  0  0
 11 13  1  0  0  0  0
 11 14  1  0  0  0  0
  9 10  1  0  0  0  0
  9 11  1  0  0  0  0
  9 26  1  0  0  0  0
  7  8  1  0  0  0  0
  7  9  1  0  0  0  0
 30 31  1  0  0  0  0
 30 32  1  0  0  0  0
 30 33  1  0  0  0  0
 28 29  1  0  0  0  0
 28 30  1  0  0  0  0
M  END
$$$$
default_name
  -OEChem-02102213163D

 33 33  0     1  0  0  0  0  0999 V2000
   -4.0702   -3.8485    1.4554 H   0  0  0  0  0  0  0  0  0  0  0  0
   -4.0012   -2.9605    0.8284 C   0  0  0  0  0  0  0  0  0  0  0  0
   -4.7652   -2.2435    1.1234 H   0  0  0  0  0  0  0  0  0  0  0  0
   -4.1352   -3.2385   -0.2156 H   0  0  0  0  0  0  0  0  0  0  0  0
   -2.6362   -2.3395    1.0094 C   0  0  0  0  0  0  0  0  0  0  0  0
   -1.8292   -2.8395    1.7814 O   0  0  0  0  0  0  0  0  0  0  0  0
   -2.3832   -1.2445    0.2964 N   0  0  0  0  0  0  0  0  0  0  0  0
   -3.1102   -0.8685   -0.2946 H   0  0  0  0  0  0  0  0  0  0  0  0
   -1.1292   -0.4875    0.3524 C   0  0  1  0  0  0  0  0  0  0  0  0
   -0.3087   -1.1556    0.0882 H   0  0  0  0  0  0  0  0  0  0  0  0
   -1.1749    0.6534   -0.6787 C   0  0  0  0  0  0  0  0  0  0  0  0
   -1.3179    0.2274   -1.6725 H   0  0  0  0  0  0  0  0  0  0  0  0
   -2.0383    1.2865   -0.4672 H   0  0  0  0  0  0  0  0  0  0  0  0
    0.0782    1.5070   -0.7082 C   0  0  0  0  0  0  0  0  0  0  0  0
    0.0048    2.8881   -0.4371 C   0  0  0  0  0  0  0  0  0  0  0  0
   -0.9524    3.3494   -0.2322 H   0  0  0  0  0  0  0  0  0  0  0  0
    1.1770    3.6689   -0.4258 C   0  0  0  0  0  0  0  0  0  0  0  0
    1.1169    4.7265   -0.2194 H   0  0  0  0  0  0  0  0  0  0  0  0
    2.4272    3.0653   -0.6830 C   0  0  0  0  0  0  0  0  0  0  0  0
    3.5637    3.8091   -0.6716 O   0  0  0  0  0  0  0  0  0  0  0  0
    3.3823    4.7442   -0.5682 H   0  0  0  0  0  0  0  0  0  0  0  0
    2.4993    1.6822   -0.9492 C   0  0  0  0  0  0  0  0  0  0  0  0
    3.4606    1.2331   -1.1487 H   0  0  0  0  0  0  0  0  0  0  0  0
    1.3254    0.9053   -0.9643 C   0  0  0  0  0  0  0  0  0  0  0  0
    1.3806   -0.1555   -1.1781 H   0  0  0  0  0  0  0  0  0  0  0  0
   -0.8664    0.0378    1.7736 C   0  0  0  0  0  0  0  0  0  0  0  0
    0.2529   -0.0672    2.2760 O   0  0  0  0  0  0  0  0  0  0  0  0
   -1.8947    0.5991    2.4221 N   0  0  0  0  0  0  0  0  0  0  0  0
   -2.7942    0.5936    1.9635 H   0  0  0  0  0  0  0  0  0  0  0  0
   -1.8170    1.1453    3.7750 C   0  0  0  0  0  0  0  0  0  0  0  0
   -0.9697    1.8290    3.8506 H   0  0  0  0  0  0  0  0  0  0  0  0
   -2.7354    1.6828    4.0167 H   0  0  0  0  0  0  0  0  0  0  0  0
   -1.6754    0.3334    4.4914 H   0  0  0  0  0  0  0  0  0  0  0  0
  5  6  2  0  0  0  0
  5  7  1  0  0  0  0
  2  3  1  0  0  0  0
  2  4  1  0  0  0  0
  2  5  1  0  0  0  0
  1  2  1  0  0  0  0
 26 27  2  0  0  0  0
 26 28  1  0  0  0  0
 24 25  1  0  0  0  0
 22 23  1  0  0  0  0
 22 24  2  0  0  0  0
 20 21  1  0  0  0  0
 19 20  1  0  0  0  0
 19 22  1  0  0  0  0
 17 18  1  0  0  0  0
 17 19  2  0  0  0  0
 15 16  1  0  0  0  0
 15 17  1  0  0  0  0
 14 15  2  0  0  0  0
 14 24  1  0  0  0  0
 11 12  1  0  0  0  0
 11 13  1  0  0  0  0
 11 14  1  0  0  0  0
  9 10  1  0  0  0  0
  9 11  1  0  0  0  0
  9 26  1  0  0  0  0
  7  8  1  0  0  0  0
  7  9  1  0  0  0  0
 30 31  1  0  0  0  0
 30 32  1  0  0  0  0
 30 33  1  0  0  0  0
 28 29  1  0  0  0  0
 28 30  1  0  0  0  0
M  END
$$$$
default_name
  -OEChem-02102213163D

 33 33  0     1  0  0  0  0  0999 V2000
   -4.0702   -3.8485    1.4554 H   0  0  0  0  0  0  0  0  0  0  0  0
   -4.0012   -2.9605    0.8284 C   0  0  0  0  0  0  0  0  0  0  0  0
   -4.7652   -2.2435    1.1234 H   0  0  0  0  0  0  0  0  0  0  0  0
   -4.1352   -3.2385   -0.2156 H   0  0  0  0  0  0  0  0  0  0  0  0
   -2.6362   -2.3395    1.0094 C   0  0  0  0  0  0  0  0  0  0  0  0
   -1.8292   -2.8395    1.7814 O   0  0  0  0  0  0  0  0  0  0  0  0
   -2.3832   -1.2445    0.2964 N   0  0  0  0  0  0  0  0  0  0  0  0
   -3.1102   -0.8685   -0.2946 H   0  0  0  0  0  0  0  0  0  0  0  0
   -1.1292   -0.4875    0.3524 C   0  0  1  0  0  0  0  0  0  0  0  0
   -0.3087   -1.1556    0.0882 H   0  0  0  0  0  0  0  0  0  0  0  0
   -1.1749    0.6534   -0.6787 C   0  0  0  0  0  0  0  0  0  0  0  0
   -1.3179    0.2274   -1.6725 H   0  0  0  0  0  0  0  0  0  0  0  0
   -2.0383    1.2865   -0.4672 H   0  0  0  0  0  0  0  0  0  0  0  0
    0.0782    1.5070   -0.7082 C   0  0  0  0  0  0  0  0  0  0  0  0
    0.0738    2.7970   -0.1407 C   0  0  0  0  0  0  0  0  0  0  0  0
   -0.8337    3.1934    0.2956 H   0  0  0  0  0  0  0  0  0  0  0  0
    1.2512    3.5700   -0.1345 C   0  0  0  0  0  0  0  0  0  0  0  0
    1.2438    4.5580    0.2994 H   0  0  0  0  0  0  0  0  0  0  0  0
    2.4380    3.0490   -0.6946 C   0  0  0  0  0  0  0  0  0  0  0  0
    3.5795    3.7854   -0.6909 O   0  0  0  0  0  0  0  0  0  0  0  0
    3.4345    4.6745   -0.3649 H   0  0  0  0  0  0  0  0  0  0  0  0
    2.4419    1.7560   -1.2576 C   0  0  0  0  0  0  0  0  0  0  0  0
    3.3544    1.3704   -1.6867 H   0  0  0  0  0  0  0  0  0  0  0  0
    1.2622    0.9877   -1.2664 C   0  0  0  0  0  0  0  0  0  0  0  0
    1.2636   -0.0020   -1.7074 H   0  0  0  0  0  0  0  0  0  0  0  0
   -0.8664    0.0378    1.7736 C   0  0  0  0  0  0  0  0  0  0  0  0
    0.2529   -0.0672    2.2760 O   0  0  0  0  0  0  0  0  0  0  0  0
   -1.8947    0.5991    2.4221 N   0  0  0  0  0  0  0  0  0  0  0  0
   -2.7942    0.5936    1.9635 H   0  0  0  0  0  0  0  0  0  0  0  0
   -1.8170    1.1453    3.7750 C   0  0  0  0  0  0  0  0  0  0  0  0
   -0.9697    1.8290    3.8506 H   0  0  0  0  0  0  0  0  0  0  0  0
   -2.7354    1.6828    4.0167 H   0  0  0  0  0  0  0  0  0  0  0  0
   -1.6754    0.3334    4.4914 H   0  0  0  0  0  0  0  0  0  0  0  0
  5  6  2  0  0  0  0
  5  7  1  0  0  0  0
  2  3  1  0  0  0  0
  2  4  1  0  0  0  0
  2  5  1  0  0  0  0
  1  2  1  0  0  0  0
 26 27  2  0  0  0  0
 26 28  1  0  0  0  0
 24 25  1  0  0  0  0
 22 23  1  0  0  0  0
 22 24  2  0  0  0  0
 20 21  1  0  0  0  0
 19 20  1  0  0  0  0
 19 22  1  0  0  0  0
 17 18  1  0  0  0  0
 17 19  2  0  0  0  0
 15 16  1  0  0  0  0
 15 17  1  0  0  0  0
 14 15  2  0  0  0  0
 14 24  1  0  0  0  0
 11 12  1  0  0  0  0
 11 13  1  0  0  0  0
 11 14  1  0  0  0  0
  9 10  1  0  0  0  0
  9 11  1  0  0  0  0
  9 26  1  0  0  0  0
  7  8  1  0  0  0  0
  7  9  1  0  0  0  0
 30 31  1  0  0  0  0
 30 32  1  0  0  0  0
 30 33  1  0  0  0  0
 28 29  1  0  0  0  0
 28 30  1  0  0  0  0
M  END
$$$$
default_name
  -OEChem-02102213163D

 33 33  0     1  0  0  0  0  0999 V2000
   -4.0702   -3.8485    1.4554 H   0  0  0  0  0  0  0  0  0  0  0  0
   -4.0012   -2.9605    0.8284 C   0  0  0  0  0  0  0  0  0  0  0  0
   -4.7652   -2.2435    1.1234 H   0  0  0  0  0  0  0  0  0  0  0  0
   -4.1352   -3.2385   -0.2156 H   0  0  0  0  0  0  0  0  0  0  0  0
   -2.6362   -2.3395    1.0094 C   0  0  0  0  0  0  0  0  0  0  0  0
   -1.8292   -2.8395    1.7814 O   0  0  0  0  0  0  0  0  0  0  0  0
   -2.3832   -1.2445    0.2964 N   0  0  0  0  0  0  0  0  0  0  0  0
   -3.1102   -0.8685   -0.2946 H   0  0  0  0  0  0  0  0  0  0  0  0
   -1.1292   -0.4875    0.3524 C   0  0  1  0  0  0  0  0  0  0  0  0
   -0.3087   -1.1556    0.0882 H   0  0  0  0  0  0  0  0  0  0  0  0
   -1.1749    0.6534   -0.6787 C   0  0  0  0  0  0  0  0  0  0  0  0
   -1.3179    0.2274   -1.6725 H   0  0  0  0  0  0  0  0  0  0  0  0
   -2.0383    1.2865   -0.4672 H   0  0  0  0  0  0  0  0  0  0  0  0
    0.0782    1.5070   -0.7082 C   0  0  0  0  0  0  0  0  0  0  0  0
    0.1831    2.6454    0.1160 C   0  0  0  0  0  0  0  0  0  0  0  0
   -0.6430    2.9292    0.7548 H   0  0  0  0  0  0  0  0  0  0  0  0
    1.3649    3.4117    0.1149 C   0  0  0  0  0  0  0  0  0  0  0  0
    1.4412    4.2837    0.7461 H   0  0  0  0  0  0  0  0  0  0  0  0
    2.4467    3.0357   -0.7109 C   0  0  0  0  0  0  0  0  0  0  0  0
    3.5917    3.7665   -0.7171 O   0  0  0  0  0  0  0  0  0  0  0  0
    3.5142    4.5635   -0.1911 H   0  0  0  0  0  0  0  0  0  0  0  0
    2.3418    1.8935   -1.5314 C   0  0  0  0  0  0  0  0  0  0  0  0
    3.1741    1.6187   -2.1616 H   0  0  0  0  0  0  0  0  0  0  0  0
    1.1576    1.1321   -1.5314 C   0  0  0  0  0  0  0  0  0  0  0  0
    1.0742    0.2600   -2.1689 H   0  0  0  0  0  0  0  0  0  0  0  0
   -0.8664    0.0378    1.7736 C   0  0  0  0  0  0  0  0  0  0  0  0
    0.2529   -0.0672    2.2760 O   0  0  0  0  0  0  0  0  0  0  0  0
   -1.8947    0.5991    2.4221 N   0  0  0  0  0  0  0  0  0  0  0  0
   -2.7942    0.5936    1.9635 H   0  0  0  0  0  0  0  0  0  0  0  0
   -1.8170    1.1453    3.7750 C   0  0  0  0  0  0  0  0  0  0  0  0
   -0.9697    1.8290    3.8506 H   0  0  0  0  0  0  0  0  0  0  0  0
   -2.7354    1.6828    4.0167 H   0  0  0  0  0  0  0  0  0  0  0  0
   -1.6754    0.3334    4.4914 H   0  0  0  0  0  0  0  0  0  0  0  0
  5  6  2  0  0  0  0
  5  7  1  0  0  0  0
  2  3  1  0  0  0  0
  2  4  1  0  0  0  0
  2  5  1  0  0  0  0
  1  2  1  0  0  0  0
 26 27  2  0  0  0  0
 26 28  1  0  0  0  0
 24 25  1  0  0  0  0
 22 23  1  0  0  0  0
 22 24  2  0  0  0  0
 20 21  1  0  0  0  0
 19 20  1  0  0  0  0
 19 22  1  0  0  0  0
 17 18  1  0  0  0  0
 17 19  2  0  0  0  0
 15 16  1  0  0  0  0
 15 17  1  0  0  0  0
 14 15  2  0  0  0  0
 14 24  1  0  0  0  0
 11 12  1  0  0  0  0
 11 13  1  0  0  0  0
 11 14  1  0  0  0  0
  9 10  1  0  0  0  0
  9 11  1  0  0  0  0
  9 26  1  0  0  0  0
  7  8  1  0  0  0  0
  7  9  1  0  0  0  0
 30 31  1  0  0  0  0
 30 32  1  0  0  0  0
 30 33  1  0  0  0  0
 28 29  1  0  0  0  0
 28 30  1  0  0  0  0
M  END
$$$$
default_name
  -OEChem-02102213163D

 33 33  0     1  0  0  0  0  0999 V2000
   -4.0702   -3.8485    1.4554 H   0  0  0  0  0  0  0  0  0  0  0  0
   -4.0012   -2.9605    0.8284 C   0  0  0  0  0  0  0  0  0  0  0  0
   -4.7652   -2.2435    1.1234 H   0  0  0  0  0  0  0  0  0  0  0  0
   -4.1352   -3.2385   -0.2156 H   0  0  0  0  0  0  0  0  0  0  0  0
   -2.6362   -2.3395    1.0094 C   0  0  0  0  0  0  0  0  0  0  0  0
   -1.8292   -2.8395    1.7814 O   0  0  0  0  0  0  0  0  0  0  0  0
   -2.3832   -1.2445    0.2964 N   0  0  0  0  0  0  0  0  0  0  0  0
   -3.1102   -0.8685   -0.2946 H   0  0  0  0  0  0  0  0  0  0  0  0
   -1.1292   -0.4875    0.3524 C   0  0  1  0  0  0  0  0  0  0  0  0
   -0.3087   -1.1556    0.0882 H   0  0  0  0  0  0  0  0  0  0  0  0
   -1.1749    0.6534   -0.6787 C   0  0  0  0  0  0  0  0  0  0  0  0
   -1.3179    0.2274   -1.6725 H   0  0  0  0  0  0  0  0  0  0  0  0
   -2.0383    1.2865   -0.4672 H   0  0  0  0  0  0  0  0  0  0  0  0
    0.0782    1.5070   -0.7082 C   0  0  0  0  0  0  0  0  0  0  0  0
    0.3254    2.4434    0.3157 C   0  0  0  0  0  0  0  0  0  0  0  0
   -0.3932    2.5748    1.1141 H   0  0  0  0  0  0  0  0  0  0  0  0
    1.5102    3.2050    0.3054 C   0  0  0  0  0  0  0  0  0  0  0  0
    1.6955    3.9223    1.0901 H   0  0  0  0  0  0  0  0  0  0  0  0
    2.4526    3.0263   -0.7307 C   0  0  0  0  0  0  0  0  0  0  0  0
    3.5996    3.7538   -0.7481 O   0  0  0  0  0  0  0  0  0  0  0  0
    3.6159    4.4188   -0.0585 H   0  0  0  0  0  0  0  0  0  0  0  0
    2.2059    2.0853   -1.7518 C   0  0  0  0  0  0  0  0  0  0  0  0
    2.9321    1.9609   -2.5409 H   0  0  0  0  0  0  0  0  0  0  0  0
    1.0186    1.3289   -1.7412 C   0  0  0  0  0  0  0  0  0  0  0  0
    0.8255    0.6127   -2.5310 H   0  0  0  0  0  0  0  0  0  0  0  0
   -0.8664    0.0378    1.7736 C   0  0  0  0  0  0  0  0  0  0  0  0
    0.2529   -0.0672    2.2760 O   0  0  0  0  0  0  0  0  0  0  0  0
   -1.8947    0.5991    2.4221 N   0  0  0  0  0  0  0  0  0  0  0  0
   -2.7942    0.5936    1.9635 H   0  0  0  0  0  0  0  0  0  0  0  0
   -1.8170    1.1453    3.7750 C   0  0  0  0  0  0  0  0  0  0  0  0
   -0.9697    1.8290    3.8506 H   0  0  0  0  0  0  0  0  0  0  0  0
   -2.7354    1.6828    4.0167 H   0  0  0  0  0  0  0  0  0  0  0  0
   -1.6754    0.3334    4.4914 H   0  0  0  0  0  0  0  0  0  0  0  0
  5  6  2  0  0  0  0
  5  7  1  0  0  0  0
  2  3  1  0  0  0  0
  2  4  1  0  0  0  0
  2  5  1  0  0  0  0
  1  2  1  0  0  0  0
 26 27  2  0  0  0  0
 26 28  1  0  0  0  0
 24 25  1  0  0  0  0
 22 23  1  0  0  0  0
 22 24  2  0  0  0  0
 20 21  1  0  0  0  0
 19 20  1  0  0  0  0
 19 22  1  0  0  0  0
 17 18  1  0  0  0  0
 17 19  2  0  0  0  0
 15 16  1  0  0  0  0
 15 17  1  0  0  0  0
 14 15  2  0  0  0  0
 14 24  1  0  0  0  0
 11 12  1  0  0  0  0
 11 13  1  0  0  0  0
 11 14  1  0  0  0  0
  9 10  1  0  0  0  0
  9 11  1  0  0  0  0
  9 26  1  0  0  0  0
  7  8  1  0  0  0  0
  7  9  1  0  0  0  0
 30 31  1  0  0  0  0
 30 32  1  0  0  0  0
 30 33  1  0  0  0  0
 28 29  1  0  0  0  0
 28 30  1  0  0  0  0
M  END
$$$$
default_name
  -OEChem-02102213163D

 33 33  0     1  0  0  0  0  0999 V2000
   -4.0702   -3.8485    1.4554 H   0  0  0  0  0  0  0  0  0  0  0  0
   -4.0012   -2.9605    0.8284 C   0  0  0  0  0  0  0  0  0  0  0  0
   -4.7652   -2.2435    1.1234 H   0  0  0  0  0  0  0  0  0  0  0  0
   -4.1352   -3.2385   -0.2156 H   0  0  0  0  0  0  0  0  0  0  0  0
   -2.6362   -2.3395    1.0094 C   0  0  0  0  0  0  0  0  0  0  0  0
   -1.8292   -2.8395    1.7814 O   0  0  0  0  0  0  0  0  0  0  0  0
   -2.3832   -1.2445    0.2964 N   0  0  0  0  0  0  0  0  0  0  0  0
   -3.1102   -0.8685   -0.2946 H   0  0  0  0  0  0  0  0  0  0  0  0
   -1.1292   -0.4875    0.3524 C   0  0  1  0  0  0  0  0  0  0  0  0
   -0.3087   -1.1556    0.0882 H   0  0  0  0  0  0  0  0  0  0  0  0
   -1.1749    0.6534   -0.6787 C   0  0  0  0  0  0  0  0  0  0  0  0
   -1.3179    0.2274   -1.6725 H   0  0  0  0  0  0  0  0  0  0  0  0
   -2.0383    1.2865   -0.4672 H   0  0  0  0  0  0  0  0  0  0  0  0
    0.0782    1.5070   -0.7082 C   0  0  0  0  0  0  0  0  0  0  0  0
    0.4908    2.2049    0.4446 C   0  0  0  0  0  0  0  0  0  0  0  0
   -0.1014    2.1545    1.3489 H   0  0  0  0  0  0  0  0  0  0  0  0
    1.6772    2.9638    0.4240 C   0  0  0  0  0  0  0  0  0  0  0  0
    1.9894    3.4982    1.3080 H   0  0  0  0  0  0  0  0  0  0  0  0
    2.4554    3.0215   -0.7528 C   0  0  0  0  0  0  0  0  0  0  0  0
    3.6027    3.7481   -0.7819 O   0  0  0  0  0  0  0  0  0  0  0  0
    3.7328    4.2500    0.0237 H   0  0  0  0  0  0  0  0  0  0  0  0
    2.0435    2.3184   -1.9039 C   0  0  0  0  0  0  0  0  0  0  0  0
    2.6447    2.3739   -2.7989 H   0  0  0  0  0  0  0  0  0  0  0  0
    0.8548    1.5645   -1.8815 C   0  0  0  0  0  0  0  0  0  0  0  0
    0.5342    1.0322   -2.7691 H   0  0  0  0  0  0  0  0  0  0  0  0
   -0.8664    0.0378    1.7736 C   0  0  0  0  0  0  0  0  0  0  0  0
    0.2529   -0.0672    2.2760 O   0  0  0  0  0  0  0  0  0  0  0  0
   -1.8947    0.5991    2.4221 N   0  0  0  0  0  0  0  0  0  0  0  0
   -2.7942    0.5936    1.9635 H   0  0  0  0  0  0  0  0  0  0  0  0
   -1.8170    1.1453    3.7750 C   0  0  0  0  0  0  0  0  0  0  0  0
   -0.9697    1.8290    3.8506 H   0  0  0  0  0  0  0  0  0  0  0  0
   -2.7354    1.6828    4.0167 H   0  0  0  0  0  0  0  0  0  0  0  0
   -1.6754    0.3334    4.4914 H   0  0  0  0  0  0  0  0  0  0  0  0
  5  6  2  0  0  0  0
  5  7  1  0  0  0  0
  2  3  1  0  0  0  0
  2  4  1  0  0  0  0
  2  5  1  0  0  0  0
  1  2  1  0  0  0  0
 26 27  2  0  0  0  0
 26 28  1  0  0  0  0
 24 25  1  0  0  0  0
 22 23  1  0  0  0  0
 22 24  2  0  0  0  0
 20 21  1  0  0  0  0
 19 20  1  0  0  0  0
 19 22  1  0  0  0  0
 17 18  1  0  0  0  0
 17 19  2  0  0  0  0
 15 16  1  0  0  0  0
 15 17  1  0  0  0  0
 14 15  2  0  0  0  0
 14 24  1  0  0  0  0
 11 12  1  0  0  0  0
 11 13  1  0  0  0  0
 11 14  1  0  0  0  0
  9 10  1  0  0  0  0
  9 11  1  0  0  0  0
  9 26  1  0  0  0  0
  7  8  1  0  0  0  0
  7  9  1  0  0  0  0
 30 31  1  0  0  0  0
 30 32  1  0  0  0  0
 30 33  1  0  0  0  0
 28 29  1  0  0  0  0
 28 30  1  0  0  0  0
M  END
$$$$
default_name
  -OEChem-02102213163D

 33 33  0     1  0  0  0  0  0999 V2000
   -4.0702   -3.8485    1.4554 H   0  0  0  0  0  0  0  0  0  0  0  0
   -4.0012   -2.9605    0.8284 C   0  0  0  0  0  0  0  0  0  0  0  0
   -4.7652   -2.2435    1.1234 H   0  0  0  0  0  0  0  0  0  0  0  0
   -4.1352   -3.2385   -0.2156 H   0  0  0  0  0  0  0  0  0  0  0  0
   -2.6362   -2.3395    1.0094 C   0  0  0  0  0  0  0  0  0  0  0  0
   -1.8292   -2.8395    1.7814 O   0  0  0  0  0  0  0  0  0  0  0  0
   -2.3832   -1.2445    0.2964 N   0  0  0  0  0  0  0  0  0  0  0  0
   -3.1102   -0.8685   -0.2946 H   0  0  0  0  0  0  0  0  0  0  0  0
   -1.1292   -0.4875    0.3524 C   0  0  1  0  0  0  0  0  0  0  0  0
   -0.3087   -1.1556    0.0882 H   0  0  0  0  0  0  0  0  0  0  0  0
   -1.1749    0.6534   -0.6787 C   0  0  0  0  0  0  0  0  0  0  0  0
   -1.3179    0.2274   -1.6725 H   0  0  0  0  0  0  0  0  0  0  0  0
   -2.0383    1.2865   -0.4672 H   0  0  0  0  0  0  0  0  0  0  0  0
    0.0782    1.5070   -0.7082 C   0  0  0  0  0  0  0  0  0  0  0  0
    0.6682    1.9462    0.4940 C   0  0  0  0  0  0  0  0  0  0  0  0
    0.2126    1.6967    1.4433 H   0  0  0  0  0  0  0  0  0  0  0  0
    1.8547    2.7046    0.4626 C   0  0  0  0  0  0  0  0  0  0  0  0
    2.3029    3.0406    1.3850 H   0  0  0  0  0  0  0  0  0  0  0  0
    2.4549    3.0215   -0.7755 C   0  0  0  0  0  0  0  0  0  0  0  0
    3.6007    3.7498   -0.8163 O   0  0  0  0  0  0  0  0  0  0  0  0
    3.8568    4.0689    0.0501 H   0  0  0  0  0  0  0  0  0  0  0  0
    1.8657    2.5770   -1.9773 C   0  0  0  0  0  0  0  0  0  0  0  0
    2.3317    2.8294   -2.9179 H   0  0  0  0  0  0  0  0  0  0  0  0
    0.6773    1.8230   -1.9428 C   0  0  0  0  0  0  0  0  0  0  0  0
    0.2202    1.4897   -2.8669 H   0  0  0  0  0  0  0  0  0  0  0  0
   -0.8664    0.0378    1.7736 C   0  0  0  0  0  0  0  0  0  0  0  0
    0.2529   -0.0672    2.2760 O   0  0  0  0  0  0  0  0  0  0  0  0
   -1.8947    0.5991    2.4221 N   0  0  0  0  0  0  0  0  0  0  0  0
   -2.7942    0.5936    1.9635 H   0  0  0  0  0  0  0  0  0  0  0  0
   -1.8170    1.1453    3.7750 C   0  0  0  0  0  0  0  0  0  0  0  0
   -0.9697    1.8290    3.8506 H   0  0  0  0  0  0  0  0  0  0  0  0
   -2.7354    1.6828    4.0167 H   0  0  0  0  0  0  0  0  0  0  0  0
   -1.6754    0.3334    4.4914 H   0  0  0  0  0  0  0  0  0  0  0  0
  5  6  2  0  0  0  0
  5  7  1  0  0  0  0
  2  3  1  0  0  0  0
  2  4  1  0  0  0  0
  2  5  1  0  0  0  0
  1  2  1  0  0  0  0
 26 27  2  0  0  0  0
 26 28  1  0  0  0  0
 24 25  1  0  0  0  0
 22 23  1  0  0  0  0
 22 24  2  0  0  0  0
 20 21  1  0  0  0  0
 19 20  1  0  0  0  0
 19 22  1  0  0  0  0
 17 18  1  0  0  0  0
 17 19  2  0  0  0  0
 15 16  1  0  0  0  0
 15 17  1  0  0  0  0
 14 15  2  0  0  0  0
 14 24  1  0  0  0  0
 11 12  1  0  0  0  0
 11 13  1  0  0  0  0
 11 14  1  0  0  0  0
  9 10  1  0  0  0  0
  9 11  1  0  0  0  0
  9 26  1  0  0  0  0
  7  8  1  0  0  0  0
  7  9  1  0  0  0  0
 30 31  1  0  0  0  0
 30 32  1  0  0  0  0
 30 33  1  0  0  0  0
 28 29  1  0  0  0  0
 28 30  1  0  0  0  0
M  END
$$$$
default_name
  -OEChem-02102213163D

 33 33  0     1  0  0  0  0  0999 V2000
   -4.0702   -3.8485    1.4554 H   0  0  0  0  0  0  0  0  0  0  0  0
   -4.0012   -2.9605    0.8284 C   0  0  0  0  0  0  0  0  0  0  0  0
   -4.7652   -2.2435    1.1234 H   0  0  0  0  0  0  0  0  0  0  0  0
   -4.1352   -3.2385   -0.2156 H   0  0  0  0  0  0  0  0  0  0  0  0
   -2.6362   -2.3395    1.0094 C   0  0  0  0  0  0  0  0  0  0  0  0
   -1.8292   -2.8395    1.7814 O   0  0  0  0  0  0  0  0  0  0  0  0
   -2.3832   -1.2445    0.2964 N   0  0  0  0  0  0  0  0  0  0  0  0
   -3.1102   -0.8685   -0.2946 H   0  0  0  0  0  0  0  0  0  0  0  0
   -1.1292   -0.4875    0.3524 C   0  0  1  0  0  0  0  0  0  0  0  0
   -0.3087   -1.1556    0.0882 H   0  0  0  0  0  0  0  0  0  0  0  0
   -1.1749    0.6534   -0.6787 C   0  0  0  0  0  0  0  0  0  0  0  0
   -1.3179    0.2274   -1.6725 H   0  0  0  0  0  0  0  0  0  0  0  0
   -2.0383    1.2865   -0.4672 H   0  0  0  0  0  0  0  0  0  0  0  0
    0.0782    1.5070   -0.7082 C   0  0  0  0  0  0  0  0  0  0  0  0
    0.8455    1.6848    0.4605 C   0  0  0  0  0  0  0  0  0  0  0  0
    0.5274    1.2328    1.3909 H   0  0  0  0  0  0  0  0  0  0  0  0
    2.0304    2.4451    0.4187 C   0  0  0  0  0  0  0  0  0  0  0  0
    2.6147    2.5805    1.3159 H   0  0  0  0  0  0  0  0  0  0  0  0
    2.4510    3.0263   -0.7974 C   0  0  0  0  0  0  0  0  0  0  0  0
    3.5938    3.7589   -0.8488 O   0  0  0  0  0  0  0  0  0  0  0  0
    3.9795    3.8877    0.0187 H   0  0  0  0  0  0  0  0  0  0  0  0
    1.6846    2.8433   -1.9670 C   0  0  0  0  0  0  0  0  0  0  0  0
    2.0143    3.2964   -2.8898 H   0  0  0  0  0  0  0  0  0  0  0  0
    0.4983    2.0866   -1.9209 C   0  0  0  0  0  0  0  0  0  0  0  0
   -0.0950    1.9542   -2.8179 H   0  0  0  0  0  0  0  0  0  0  0  0
   -0.8664    0.0378    1.7736 C   0  0  0  0  0  0  0  0  0  0  0  0
    0.2529   -0.0672    2.2760 O   0  0  0  0  0  0  0  0  0  0  0  0
   -1.8947    0.5991    2.4221 N   0  0  0  0  0  0  0  0  0  0  0  0
   -2.7942    0.5936    1.9635 H   0  0  0  0  0  0  0  0  0  0  0  0
   -1.8170    1.1453    3.7750 C   0  0  0  0  0  0  0  0  0  0  0  0
   -0.9697    1.8290    3.8506 H   0  0  0  0  0  0  0  0  0  0  0  0
   -2.7354    1.6828    4.0167 H   0  0  0  0  0  0  0  0  0  0  0  0
   -1.6754    0.3334    4.4914 H   0  0  0  0  0  0  0  0  0  0  0  0
  5  6  2  0  0  0  0
  5  7  1  0  0  0  0
  2  3  1  0  0  0  0
  2  4  1  0  0  0  0
  2  5  1  0  0  0  0
  1  2  1  0  0  0  0
 26 27  2  0  0  0  0
 26 28  1  0  0  0  0
 24 25  1  0  0  0  0
 22 23  1  0  0  0  0
 22 24  2  0  0  0  0
 20 21  1  0  0  0  0
 19 20  1  0  0  0  0
 19 22  1  0  0  0  0
 17 18  1  0  0  0  0
 17 19  2  0  0  0  0
 15 16  1  0  0  0  0
 15 17  1  0  0  0  0
 14 15  2  0  0  0  0
 14 24  1  0  0  0  0
 11 12  1  0  0  0  0
 11 13  1  0  0  0  0
 11 14  1  0  0  0  0
  9 10  1  0  0  0  0
  9 11  1  0  0  0  0
  9 26  1  0  0  0  0
  7  8  1  0  0  0  0
  7  9  1  0  0  0  0
 30 31  1  0  0  0  0
 30 32  1  0  0  0  0
 30 33  1  0  0  0  0
 28 29  1  0  0  0  0
 28 30  1  0  0  0  0
M  END
$$$$
default_name
  -OEChem-02102213163D

 33 33  0     1  0  0  0  0  0999 V2000
   -4.0702   -3.8485    1.4554 H   0  0  0  0  0  0  0  0  0  0  0  0
   -4.0012   -2.9605    0.8284 C   0  0  0  0  0  0  0  0  0  0  0  0
   -4.7652   -2.2435    1.1234 H   0  0  0  0  0  0  0  0  0  0  0  0
   -4.1352   -3.2385   -0.2156 H   0  0  0  0  0  0  0  0  0  0  0  0
   -2.6362   -2.3395    1.0094 C   0  0  0  0  0  0  0  0  0  0  0  0
   -1.8292   -2.8395    1.7814 O   0  0  0  0  0  0  0  0  0  0  0  0
   -2.3832   -1.2445    0.2964 N   0  0  0  0  0  0  0  0  0  0  0  0
   -3.1102   -0.8685   -0.2946 H   0  0  0  0  0  0  0  0  0  0  0  0
   -1.1292   -0.4875    0.3524 C   0  0  1  0  0  0  0  0  0  0  0  0
   -0.3087   -1.1556    0.0882 H   0  0  0  0  0  0  0  0  0  0  0  0
   -1.1749    0.6534   -0.6787 C   0  0  0  0  0  0  0  0  0  0  0  0
   -1.3179    0.2274   -1.6725 H   0  0  0  0  0  0  0  0  0  0  0  0
   -2.0383    1.2865   -0.4672 H   0  0  0  0  0  0  0  0  0  0  0  0
    0.0782    1.5070   -0.7082 C   0  0  0  0  0  0  0  0  0  0  0  0
    1.0105    1.4386    0.3465 C   0  0  0  0  0  0  0  0  0  0  0  0
    0.8214    0.7943    1.1952 H   0  0  0  0  0  0  0  0  0  0  0  0
    2.1924    2.2030    0.2951 C   0  0  0  0  0  0  0  0  0  0  0  0
    2.9034    2.1493    1.1052 H   0  0  0  0  0  0  0  0  0  0  0  0
    2.4442    3.0357   -0.8169 C   0  0  0  0  0  0  0  0  0  0  0  0
    3.5824    3.7746   -0.8773 O   0  0  0  0  0  0  0  0  0  0  0  0
    4.0925    3.7187   -0.0682 H   0  0  0  0  0  0  0  0  0  0  0  0
    1.5124    3.0992   -1.8737 C   0  0  0  0  0  0  0  0  0  0  0  0
    1.7141    3.7431   -2.7165 H   0  0  0  0  0  0  0  0  0  0  0  0
    0.3298    2.3375   -1.8173 C   0  0  0  0  0  0  0  0  0  0  0  0
   -0.3899    2.3939   -2.6252 H   0  0  0  0  0  0  0  0  0  0  0  0
   -0.8664    0.0378    1.7736 C   0  0  0  0  0  0  0  0  0  0  0  0
    0.2529   -0.0672    2.2760 O   0  0  0  0  0  0  0  0  0  0  0  0
   -1.8947    0.5991    2.4221 N   0  0  0  0  0  0  0  0  0  0  0  0
   -2.7942    0.5936    1.9635 H   0  0  0  0  0  0  0  0  0  0  0  0
   -1.8170    1.1453    3.7750 C   0  0  0  0  0  0  0  0  0  0  0  0
   -0.9697    1.8290    3.8506 H   0  0  0  0  0  0  0  0  0  0  0  0
   -2.7354    1.6828    4.0167 H   0  0  0  0  0  0  0  0  0  0  0  0
   -1.6754    0.3334    4.4914 H   0  0  0  0  0  0  0  0  0  0  0  0
  5  6  2  0  0  0  0
  5  7  1  0  0  0  0
  2  3  1  0  0  0  0
  2  4  1  0  0  0  0
  2  5  1  0  0  0  0
  1  2  1  0  0  0  0
 26 27  2  0  0  0  0
 26 28  1  0  0  0  0
 24 25  1  0  0  0  0
 22 23  1  0  0  0  0
 22 24  2  0  0  0  0
 20 21  1  0  0  0  0
 19 20  1  0  0  0  0
 19 22  1  0  0  0  0
 17 18  1  0  0  0  0
 17 19  2  0  0  0  0
 15 16  1  0  0  0  0
 15 17  1  0  0  0  0
 14 15  2  0  0  0  0
 14 24  1  0  0  0  0
 11 12  1  0  0  0  0
 11 13  1  0  0  0  0
 11 14  1  0  0  0  0
  9 10  1  0  0  0  0
  9 11  1  0  0  0  0
  9 26  1  0  0  0  0
  7  8  1  0  0  0  0
  7  9  1  0  0  0  0
 30 31  1  0  0  0  0
 30 32  1  0  0  0  0
 30 33  1  0  0  0  0
 28 29  1  0  0  0  0
 28 30  1  0  0  0  0
M  END
$$$$
default_name
  -OEChem-02102213163D

 33 33  0     1  0  0  0  0  0999 V2000
   -4.0702   -3.8485    1.4554 H   0  0  0  0  0  0  0  0  0  0  0  0
   -4.0012   -2.9605    0.8284 C   0  0  0  0  0  0  0  0  0  0  0  0
   -4.7652   -2.2435    1.1234 H   0  0  0  0  0  0  0  0  0  0  0  0
   -4.1352   -3.2385   -0.2156 H   0  0  0  0  0  0  0  0  0  0  0  0
   -2.6362   -2.3395    1.0094 C   0  0  0  0  0  0  0  0  0  0  0  0
   -1.8292   -2.8395    1.7814 O   0  0  0  0  0  0  0  0  0  0  0  0
   -2.3832   -1.2445    0.2964 N   0  0  0  0  0  0  0  0  0  0  0  0
   -3.1102   -0.8685   -0.2946 H   0  0  0  0  0  0  0  0  0  0  0  0
   -1.1292   -0.4875    0.3524 C   0  0  1  0  0  0  0  0  0  0  0  0
   -0.3087   -1.1556    0.0882 H   0  0  0  0  0  0  0  0  0  0  0  0
   -1.1749    0.6534   -0.6787 C   0  0  0  0  0  0  0  0  0  0  0  0
   -1.3179    0.2274   -1.6725 H   0  0  0  0  0  0  0  0  0  0  0  0
   -2.0383    1.2865   -0.4672 H   0  0  0  0  0  0  0  0  0  0  0  0
    0.0782    1.5070   -0.7082 C   0  0  0  0  0  0  0  0  0  0  0  0
    1.1521    1.2243    0.1596 C   0  0  0  0  0  0  0  0  0  0  0  0
    1.0747    0.4112    0.8696 H   0  0  0  0  0  0  0  0  0  0  0  0
    2.3297    1.9947    0.1004 C   0  0  0  0  0  0  0  0  0  0  0  0
    3.1495    1.7764    0.7675 H   0  0  0  0  0  0  0  0  0  0  0  0
    2.4347    3.0490   -0.8328 C   0  0  0  0  0  0  0  0  0  0  0  0
    3.5673    3.7959   -0.8998 O   0  0  0  0  0  0  0  0  0  0  0  0
    4.1882    3.5735   -0.2048 H   0  0  0  0  0  0  0  0  0  0  0  0
    1.3610    3.3274   -1.7037 C   0  0  0  0  0  0  0  0  0  0  0  0
    1.4517    4.1390   -2.4099 H   0  0  0  0  0  0  0  0  0  0  0  0
    0.1835    2.5585   -1.6390 C   0  0  0  0  0  0  0  0  0  0  0  0
   -0.6445    2.7789   -2.3021 H   0  0  0  0  0  0  0  0  0  0  0  0
   -0.8664    0.0378    1.7736 C   0  0  0  0  0  0  0  0  0  0  0  0
    0.2529   -0.0672    2.2760 O   0  0  0  0  0  0  0  0  0  0  0  0
   -1.8947    0.5991    2.4221 N   0  0  0  0  0  0  0  0  0  0  0  0
   -2.7942    0.5936    1.9635 H   0  0  0  0  0  0  0  0  0  0  0  0
   -1.8170    1.1453    3.7750 C   0  0  0  0  0  0  0  0  0  0  0  0
   -0.9697    1.8290    3.8506 H   0  0  0  0  0  0  0  0  0  0  0  0
   -2.7354    1.6828    4.0167 H   0  0  0  0  0  0  0  0  0  0  0  0
   -1.6754    0.3334    4.4914 H   0  0  0  0  0  0  0  0  0  0  0  0
  5  6  2  0  0  0  0
  5  7  1  0  0  0  0
  2  3  1  0  0  0  0
  2  4  1  0  0  0  0
  2  5  1  0  0  0  0
  1  2  1  0  0  0  0
 26 27  2  0  0  0  0
 26 28  1  0  0  0  0
 24 25  1  0  0  0  0
 22 23  1  0  0  0  0
 22 24  2  0  0  0  0
 20 21  1  0  0  0  0
 19 20  1  0  0  0  0
 19 22  1  0  0  0  0
 17 18  1  0  0  0  0
 17 19  2  0  0  0  0
 15 16  1  0  0  0  0
 15 17  1  0  0  0  0
 14 15  2  0  0  0  0
 14 24  1  0  0  0  0
 11 12  1  0  0  0  0
 11 13  1  0  0  0  0
 11 14  1  0  0  0  0
  9 10  1  0  0  0  0
  9 11  1  0  0  0  0
  9 26  1  0  0  0  0
  7  8  1  0  0  0  0
  7  9  1  0  0  0  0
 30 31  1  0  0  0  0
 30 32  1  0  0  0  0
 30 33  1  0  0  0  0
 28 29  1  0  0  0  0
 28 30  1  0  0  0  0
M  END
$$$$
default_name
  -OEChem-02102213163D

 33 33  0     1  0  0  0  0  0999 V2000
   -4.0702   -3.8485    1.4554 H   0  0  0  0  0  0  0  0  0  0  0  0
   -4.0012   -2.9605    0.8284 C   0  0  0  0  0  0  0  0  0  0  0  0
   -4.7652   -2.2435    1.1234 H   0  0  0  0  0  0  0  0  0  0  0  0
   -4.1352   -3.2385   -0.2156 H   0  0  0  0  0  0  0  0  0  0  0  0
   -2.6362   -2.3395    1.0094 C   0  0  0  0  0  0  0  0  0  0  0  0
   -1.8292   -2.8395    1.7814 O   0  0  0  0  0  0  0  0  0  0  0  0
   -2.3832   -1.2445    0.2964 N   0  0  0  0  0  0  0  0  0  0  0  0
   -3.1102   -0.8685   -0.2946 H   0  0  0  0  0  0  0  0  0  0  0  0
   -1.1292   -0.4875    0.3524 C   0  0  1  0  0  0  0  0  0  0  0  0
   -0.3087   -1.1556    0.0882 H   0  0  0  0  0  0  0  0  0  0  0  0
   -1.1749    0.6534   -0.6787 C   0  0  0  0  0  0  0  0  0  0  0  0
   -1.3179    0.2274   -1.6725 H   0  0  0  0  0  0  0  0  0  0  0  0
   -2.0383    1.2865   -0.4672 H   0  0  0  0  0  0  0  0  0  0  0  0
    0.0782    1.5070   -0.7082 C   0  0  0  0  0  0  0  0  0  0  0  0
    1.2605    1.0565   -0.0873 C   0  0  0  0  0  0  0  0  0  0  0  0
    1.2701    0.1094    0.4362 H   0  0  0  0  0  0  0  0  0  0  0  0
    2.4329    1.8344   -0.1522 C   0  0  0  0  0  0  0  0  0  0  0  0
    3.3360    1.4871    0.3257 H   0  0  0  0  0  0  0  0  0  0  0  0
    2.4234    3.0653   -0.8439 C   0  0  0  0  0  0  0  0  0  0  0  0
    3.5496    3.8214   -0.9147 O   0  0  0  0  0  0  0  0  0  0  0  0
    4.2600    3.4620   -0.3817 H   0  0  0  0  0  0  0  0  0  0  0  0
    1.2407    3.5122   -1.4688 C   0  0  0  0  0  0  0  0  0  0  0  0
    1.2448    4.4572   -1.9908 H   0  0  0  0  0  0  0  0  0  0  0  0
    0.0692    2.7346   -1.3982 C   0  0  0  0  0  0  0  0  0  0  0  0
   -0.8415    3.0830   -1.8706 H   0  0  0  0  0  0  0  0  0  0  0  0
   -0.8664    0.0378    1.7736 C   0  0  0  0  0  0  0  0  0  0  0  0
    0.2529   -0.0672    2.2760 O   0  0  0  0  0  0  0  0  0  0  0  0
   -1.8947    0.5991    2.4221 N   0  0  0  0  0  0  0  0  0  0  0  0
   -2.7942    0.5936    1.9635 H   0  0  0  0  0  0  0  0  0  0  0  0
   -1.8170    1.1453    3.7750 C   0  0  0  0  0  0  0  0  0  0  0  0
   -0.9697    1.8290    3.8506 H   0  0  0  0  0  0  0  0  0  0  0  0
   -2.7354    1.6828    4.0167 H   0  0  0  0  0  0  0  0  0  0  0  0
   -1.6754    0.3334    4.4914 H   0  0  0  0  0  0  0  0  0  0  0  0
  5  6  2  0  0  0  0
  5  7  1  0  0  0  0
  2  3  1  0  0  0  0
  2  4  1  0  0  0  0
  2  5  1  0  0  0  0
  1  2  1  0  0  0  0
 26 27  2  0  0  0  0
 26 28  1  0  0  0  0
 24 25  1  0  0  0  0
 22 23  1  0  0  0  0
 22 24  2  0  0  0  0
 20 21  1  0  0  0  0
 19 20  1  0  0  0  0
 19 22  1  0  0  0  0
 17 18  1  0  0  0  0
 17 19  2  0  0  0  0
 15 16  1  0  0  0  0
 15 17  1  0  0  0  0
 14 15  2  0  0  0  0
 14 24  1  0  0  0  0
 11 12  1  0  0  0  0
 11 13  1  0  0  0  0
 11 14  1  0  0  0  0
  9 10  1  0  0  0  0
  9 11  1  0  0  0  0
  9 26  1  0  0  0  0
  7  8  1  0  0  0  0
  7  9  1  0  0  0  0
 30 31  1  0  0  0  0
 30 32  1  0  0  0  0
 30 33  1  0  0  0  0
 28 29  1  0  0  0  0
 28 30  1  0  0  0  0
M  END
$$$$
default_name
  -OEChem-02102213163D

 33 33  0     1  0  0  0  0  0999 V2000
   -4.0702   -3.8485    1.4554 H   0  0  0  0  0  0  0  0  0  0  0  0
   -4.0012   -2.9605    0.8284 C   0  0  0  0  0  0  0  0  0  0  0  0
   -4.7652   -2.2435    1.1234 H   0  0  0  0  0  0  0  0  0  0  0  0
   -4.1352   -3.2385   -0.2156 H   0  0  0  0  0  0  0  0  0  0  0  0
   -2.6362   -2.3395    1.0094 C   0  0  0  0  0  0  0  0  0  0  0  0
   -1.8292   -2.8395    1.7814 O   0  0  0  0  0  0  0  0  0  0  0  0
   -2.3832   -1.2445    0.2964 N   0  0  0  0  0  0  0  0  0  0  0  0
   -3.1102   -0.8685   -0.2946 H   0  0  0  0  0  0  0  0  0  0  0  0
   -1.1292   -0.4875    0.3524 C   0  0  1  0  0  0  0  0  0  0  0  0
   -0.3087   -1.1556    0.0882 H   0  0  0  0  0  0  0  0  0  0  0  0
   -1.1749    0.6534   -0.6787 C   0  0  0  0  0  0  0  0  0  0  0  0
   -1.3179    0.2274   -1.6725 H   0  0  0  0  0  0  0  0  0  0  0  0
   -2.0383    1.2865   -0.4672 H   0  0  0  0  0  0  0  0  0  0  0  0
    0.0782    1.5070   -0.7082 C   0  0  0  0  0  0  0  0  0  0  0  0
    1.3284    0.9468   -0.3775 C   0  0  0  0  0  0  0  0  0  0  0  0
    1.3941   -0.0903   -0.0755 H   0  0  0  0  0  0  0  0  0  0  0  0
    2.4950    1.7331   -0.4456 C   0  0  0  0  0  0  0  0  0  0  0  0
    3.4505    1.3013   -0.1901 H   0  0  0  0  0  0  0  0  0  0  0  0
    2.4109    3.0835   -0.8495 C   0  0  0  0  0  0  0  0  0  0  0  0
    3.5305    3.8493   -0.9212 O   0  0  0  0  0  0  0  0  0  0  0  0
    4.3030    3.3918   -0.5869 H   0  0  0  0  0  0  0  0  0  0  0  0
    1.1596    3.6410   -1.1847 C   0  0  0  0  0  0  0  0  0  0  0  0
    1.1077    4.6759   -1.4879 H   0  0  0  0  0  0  0  0  0  0  0  0
   -0.0052    2.8537   -1.1113 C   0  0  0  0  0  0  0  0  0  0  0  0
   -0.9673    3.2854   -1.3601 H   0  0  0  0  0  0  0  0  0  0  0  0
   -0.8664    0.0378    1.7736 C   0  0  0  0  0  0  0  0  0  0  0  0
    0.2529   -0.0672    2.2760 O   0  0  0  0  0  0  0  0  0  0  0  0
   -1.8947    0.5991    2.4221 N   0  0  0  0  0  0  0  0  0  0  0  0
   -2.7942    0.5936    1.9635 H   0  0  0  0  0  0  0  0  0  0  0  0
   -1.8170    1.1453    3.7750 C   0  0  0  0  0  0  0  0  0  0  0  0
   -0.9697    1.8290    3.8506 H   0  0  0  0  0  0  0  0  0  0  0  0
   -2.7354    1.6828    4.0167 H   0  0  0  0  0  0  0  0  0  0  0  0
   -1.6754    0.3334    4.4914 H   0  0  0  0  0  0  0  0  0  0  0  0
  5  6  2  0  0  0  0
  5  7  1  0  0  0  0
  2  3  1  0  0  0  0
  2  4  1  0  0  0  0
  2  5  1  0  0  0  0
  1  2  1  0  0  0  0
 26 27  2  0  0  0  0
 26 28  1  0  0  0  0
 24 25  1  0  0  0  0
 22 23  1  0  0  0  0
 22 24  2  0  0  0  0
 20 21  1  0  0  0  0
 19 20  1  0  0  0  0
 19 22  1  0  0  0  0
 17 18  1  0  0  0  0
 17 19  2  0  0  0  0
 15 16  1  0  0  0  0
 15 17  1  0  0  0  0
 14 15  2  0  0  0  0
 14 24  1  0  0  0  0
 11 12  1  0  0  0  0
 11 13  1  0  0  0  0
 11 14  1  0  0  0  0
  9 10  1  0  0  0  0
  9 11  1  0  0  0  0
  9 26  1  0  0  0  0
  7  8  1  0  0  0  0
  7  9  1  0  0  0  0
 30 31  1  0  0  0  0
 30 32  1  0  0  0  0
 30 33  1  0  0  0  0
 28 29  1  0  0  0  0
 28 30  1  0  0  0  0
M  END
$$$$
default_name
  -OEChem-02102213163D

 33 33  0     1  0  0  0  0  0999 V2000
   -4.0702   -3.8485    1.4554 H   0  0  0  0  0  0  0  0  0  0  0  0
   -4.0012   -2.9605    0.8284 C   0  0  0  0  0  0  0  0  0  0  0  0
   -4.7652   -2.2435    1.1234 H   0  0  0  0  0  0  0  0  0  0  0  0
   -4.1352   -3.2385   -0.2156 H   0  0  0  0  0  0  0  0  0  0  0  0
   -2.6362   -2.3395    1.0094 C   0  0  0  0  0  0  0  0  0  0  0  0
   -1.8292   -2.8395    1.7814 O   0  0  0  0  0  0  0  0  0  0  0  0
   -2.3832   -1.2445    0.2964 N   0  0  0  0  0  0  0  0  0  0  0  0
   -3.1102   -0.8685   -0.2946 H   0  0  0  0  0  0  0  0  0  0  0  0
   -1.1292   -0.4875    0.3524 C   0  0  1  0  0  0  0  0  0  0  0  0
   -0.3087   -1.1556    0.0882 H   0  0  0  0  0  0  0  0  0  0  0  0
   -1.1749    0.6534   -0.6787 C   0  0  0  0  0  0  0  0  0  0  0  0
   -1.3179    0.2274   -1.6725 H   0  0  0  0  0  0  0  0  0  0  0  0
   -2.0383    1.2865   -0.4672 H   0  0  0  0  0  0  0  0  0  0  0  0
    0.0782    1.5070   -0.7082 C   0  0  0  0  0  0  0  0  0  0  0  0
    1.3512    0.9025   -0.6912 C   0  0  0  0  0  0  0  0  0  0  0  0
    1.4383   -0.1744   -0.6304 H   0  0  0  0  0  0  0  0  0  0  0  0
    2.5117    1.6977   -0.7596 C   0  0  0  0  0  0  0  0  0  0  0  0
    3.4849    1.2316   -0.7448 H   0  0  0  0  0  0  0  0  0  0  0  0
    2.3981    3.1023   -0.8492 C   0  0  0  0  0  0  0  0  0  0  0  0
    3.5112    3.8778   -0.9186 O   0  0  0  0  0  0  0  0  0  0  0  0
    4.3143    3.3676   -0.8064 H   0  0  0  0  0  0  0  0  0  0  0  0
    1.1234    3.7051   -0.8710 C   0  0  0  0  0  0  0  0  0  0  0  0
    1.0496    4.7803   -0.9353 H   0  0  0  0  0  0  0  0  0  0  0  0
   -0.0346    2.9078   -0.7978 C   0  0  0  0  0  0  0  0  0  0  0  0
   -1.0135    3.3723   -0.8053 H   0  0  0  0  0  0  0  0  0  0  0  0
   -0.8664    0.0378    1.7736 C   0  0  0  0  0  0  0  0  0  0  0  0
    0.2529   -0.0672    2.2760 O   0  0  0  0  0  0  0  0  0  0  0  0
   -1.8947    0.5991    2.4221 N   0  0  0  0  0  0  0  0  0  0  0  0
   -2.7942    0.5936    1.9635 H   0  0  0  0  0  0  0  0  0  0  0  0
   -1.8170    1.1453    3.7750 C   0  0  0  0  0  0  0  0  0  0  0  0
   -0.9697    1.8290    3.8506 H   0  0  0  0  0  0  0  0  0  0  0  0
   -2.7354    1.6828    4.0167 H   0  0  0  0  0  0  0  0  0  0  0  0
   -1.6754    0.3334    4.4914 H   0  0  0  0  0  0  0  0  0  0  0  0
  5  6  2  0  0  0  0
  5  7  1  0  0  0  0
  2  3  1  0  0  0  0
  2  4  1  0  0  0  0
  2  5  1  0  0  0  0
  1  2  1  0  0  0  0
 26 27  2  0  0  0  0
 26 28  1  0  0  0  0
 24 25  1  0  0  0  0
 22 23  1  0  0  0  0
 22 24  2  0  0  0  0
 20 21  1  0  0  0  0
 19 20  1  0  0  0  0
 19 22  1  0  0  0  0
 17 18  1  0  0  0  0
 17 19  2  0  0  0  0
 15 16  1  0  0  0  0
 15 17  1  0  0  0  0
 14 15  2  0  0  0  0
 14 24  1  0  0  0  0
 11 12  1  0  0  0  0
 11 13  1  0  0  0  0
 11 14  1  0  0  0  0
  9 10  1  0  0  0  0
  9 11  1  0  0  0  0
  9 26  1  0  0  0  0
  7  8  1  0  0  0  0
  7  9  1  0  0  0  0
 30 31  1  0  0  0  0
 30 32  1  0  0  0  0
 30 33  1  0  0  0  0
 28 29  1  0  0  0  0
 28 30  1  0  0  0  0
M  END
$$$$
default_name
  -OEChem-02102213163D

 33 33  0     1  0  0  0  0  0999 V2000
   -4.0702   -3.8485    1.4554 H   0  0  0  0  0  0  0  0  0  0  0  0
   -4.0012   -2.9605    0.8284 C   0  0  0  0  0  0  0  0  0  0  0  0
   -4.7652   -2.2435    1.1234 H   0  0  0  0  0  0  0  0  0  0  0  0
   -4.1352   -3.2385   -0.2156 H   0  0  0  0  0  0  0  0  0  0  0  0
   -2.6362   -2.3395    1.0094 C   0  0  0  0  0  0  0  0  0  0  0  0
   -1.8292   -2.8395    1.7814 O   0  0  0  0  0  0  0  0  0  0  0  0
   -2.3832   -1.2445    0.2964 N   0  0  0  0  0  0  0  0  0  0  0  0
   -3.1102   -0.8685   -0.2946 H   0  0  0  0  0  0  0  0  0  0  0  0
   -1.1292   -0.4875    0.3524 C   0  0  1  0  0  0  0  0  0  0  0  0
   -0.3087   -1.1556    0.0882 H   0  0  0  0  0  0  0  0  0  0  0  0
   -1.1749    0.6534   -0.6787 C   0  0  0  0  0  0  0  0  0  0  0  0
   -1.3179    0.2274   -1.6725 H   0  0  0  0  0  0  0  0  0  0  0  0
   -2.0383    1.2865   -0.4672 H   0  0  0  0  0  0  0  0  0  0  0  0
    0.0782    1.5070   -0.7082 C   0  0  0  0  0  0  0  0  0  0  0  0
    1.3273    0.9267   -1.0069 C   0  0  0  0  0  0  0  0  0  0  0  0
    1.3998   -0.1372   -1.1909 H   0  0  0  0  0  0  0  0  0  0  0  0
    2.4819    1.7306   -1.0729 C   0  0  0  0  0  0  0  0  0  0  0  0
    3.4370    1.2827   -1.3005 H   0  0  0  0  0  0  0  0  0  0  0  0
    2.3859    3.1204   -0.8430 C   0  0  0  0  0  0  0  0  0  0  0  0
    3.4930    3.9048   -0.9072 O   0  0  0  0  0  0  0  0  0  0  0  0
    4.2931    3.3911   -1.0252 H   0  0  0  0  0  0  0  0  0  0  0  0
    1.1343    3.7002   -0.5490 C   0  0  0  0  0  0  0  0  0  0  0  0
    1.0745    4.7633   -0.3707 H   0  0  0  0  0  0  0  0  0  0  0  0
   -0.0172    2.8932   -0.4792 C   0  0  0  0  0  0  0  0  0  0  0  0
   -0.9769    3.3379   -0.2441 H   0  0  0  0  0  0  0  0  0  0  0  0
   -0.8664    0.0378    1.7736 C   0  0  0  0  0  0  0  0  0  0  0  0
    0.2529   -0.0672    2.2760 O   0  0  0  0  0  0  0  0  0  0  0  0
   -1.8947    0.5991    2.4221 N   0  0  0  0  0  0  0  0  0  0  0  0
   -2.7942    0.5936    1.9635 H   0  0  0  0  0  0  0  0  0  0  0  0
   -1.8170    1.1453    3.7750 C   0  0  0  0  0  0  0  0  0  0  0  0
   -0.9697    1.8290    3.8506 H   0  0  0  0  0  0  0  0  0  0  0  0
   -2.7354    1.6828    4.0167 H   0  0  0  0  0  0  0  0  0  0  0  0
   -1.6754    0.3334    4.4914 H   0  0  0  0  0  0  0  0  0  0  0  0
  5  6  2  0  0  0  0
  5  7  1  0  0  0  0
  2  3  1  0  0  0  0
  2  4  1  0  0  0  0
  2  5  1  0  0  0  0
  1  2  1  0  0  0  0
 26 27  2  0  0  0  0
 26 28  1  0  0  0  0
 24 25  1  0  0  0  0
 22 23  1  0  0  0  0
 22 24  2  0  0  0  0
 20 21  1  0  0  0  0
 19 20  1  0  0  0  0
 19 22  1  0  0  0  0
 17 18  1  0  0  0  0
 17 19  2  0  0  0  0
 15 16  1  0  0  0  0
 15 17  1  0  0  0  0
 14 15  2  0  0  0  0
 14 24  1  0  0  0  0
 11 12  1  0  0  0  0
 11 13  1  0  0  0  0
 11 14  1  0  0  0  0
  9 10  1  0  0  0  0
  9 11  1  0  0  0  0
  9 26  1  0  0  0  0
  7  8  1  0  0  0  0
  7  9  1  0  0  0  0
 30 31  1  0  0  0  0
 30 32  1  0  0  0  0
 30 33  1  0  0  0  0
 28 29  1  0  0  0  0
 28 30  1  0  0  0  0
M  END
$$$$
default_name
  -OEChem-02102213163D

 33 33  0     1  0  0  0  0  0999 V2000
   -4.0702   -3.8485    1.4554 H   0  0  0  0  0  0  0  0  0  0  0  0
   -4.0012   -2.9605    0.8284 C   0  0  0  0  0  0  0  0  0  0  0  0
   -4.7652   -2.2435    1.1234 H   0  0  0  0  0  0  0  0  0  0  0  0
   -4.1352   -3.2385   -0.2156 H   0  0  0  0  0  0  0  0  0  0  0  0
   -2.6362   -2.3395    1.0094 C   0  0  0  0  0  0  0  0  0  0  0  0
   -1.8292   -2.8395    1.7814 O   0  0  0  0  0  0  0  0  0  0  0  0
   -2.3832   -1.2445    0.2964 N   0  0  0  0  0  0  0  0  0  0  0  0
   -3.1102   -0.8685   -0.2946 H   0  0  0  0  0  0  0  0  0  0  0  0
   -1.1292   -0.4875    0.3524 C   0  0  1  0  0  0  0  0  0  0  0  0
   -0.3087   -1.1556    0.0882 H   0  0  0  0  0  0  0  0  0  0  0  0
   -1.1749    0.6534   -0.6787 C   0  0  0  0  0  0  0  0  0  0  0  0
   -1.3179    0.2274   -1.6725 H   0  0  0  0  0  0  0  0  0  0  0  0
   -2.0383    1.2865   -0.4672 H   0  0  0  0  0  0  0  0  0  0  0  0
    0.0782    1.5070   -0.7082 C   0  0  0  0  0  0  0  0  0  0  0  0
    1.2583    1.0177   -1.3033 C   0  0  0  0  0  0  0  0  0  0  0  0
    1.2811    0.0188   -1.7188 H   0  0  0  0  0  0  0  0  0  0  0  0
    2.4077    1.8296   -1.3642 C   0  0  0  0  0  0  0  0  0  0  0  0
    3.3101    1.4511   -1.8193 H   0  0  0  0  0  0  0  0  0  0  0  0
    2.3751    3.1367   -0.8313 C   0  0  0  0  0  0  0  0  0  0  0  0
    3.4773    3.9285   -0.8878 O   0  0  0  0  0  0  0  0  0  0  0  0
    4.2409    3.4607   -1.2284 H   0  0  0  0  0  0  0  0  0  0  0  0
    1.1918    3.6264   -0.2406 C   0  0  0  0  0  0  0  0  0  0  0  0
    1.1807    4.6259    0.1673 H   0  0  0  0  0  0  0  0  0  0  0  0
    0.0460    2.8108   -0.1771 C   0  0  0  0  0  0  0  0  0  0  0  0
   -0.8599    3.1845    0.2853 H   0  0  0  0  0  0  0  0  0  0  0  0
   -0.8664    0.0378    1.7736 C   0  0  0  0  0  0  0  0  0  0  0  0
    0.2529   -0.0672    2.2760 O   0  0  0  0  0  0  0  0  0  0  0  0
   -1.8947    0.5991    2.4221 N   0  0  0  0  0  0  0  0  0  0  0  0
   -2.7942    0.5936    1.9635 H   0  0  0  0  0  0  0  0  0  0  0  0
   -1.8170    1.1453    3.7750 C   0  0  0  0  0  0  0  0  0  0  0  0
   -0.9697    1.8290    3.8506 H   0  0  0  0  0  0  0  0  0  0  0  0
   -2.7354    1.6828    4.0167 H   0  0  0  0  0  0  0  0  0  0  0  0
   -1.6754    0.3334    4.4914 H   0  0  0  0  0  0  0  0  0  0  0  0
  5  6  2  0  0  0  0
  5  7  1  0  0  0  0
  2  3  1  0  0  0  0
  2  4  1  0  0  0  0
  2  5  1  0  0  0  0
  1  2  1  0  0  0  0
 26 27  2  0  0  0  0
 26 28  1  0  0  0  0
 24 25  1  0  0  0  0
 22 23  1  0  0  0  0
 22 24  2  0  0  0  0
 20 21  1  0  0  0  0
 19 20  1  0  0  0  0
 19 22  1  0  0  0  0
 17 18  1  0  0  0  0
 17 19  2  0  0  0  0
 15 16  1  0  0  0  0
 15 17  1  0  0  0  0
 14 15  2  0  0  0  0
 14 24  1  0  0  0  0
 11 12  1  0  0  0  0
 11 13  1  0  0  0  0
 11 14  1  0  0  0  0
  9 10  1  0  0  0  0
  9 11  1  0  0  0  0
  9 26  1  0  0  0  0
  7  8  1  0  0  0  0
  7  9  1  0  0  0  0
 30 31  1  0  0  0  0
 30 32  1  0  0  0  0
 30 33  1  0  0  0  0
 28 29  1  0  0  0  0
 28 30  1  0  0  0  0
M  END
$$$$
default_name
  -OEChem-02102213163D

 33 33  0     1  0  0  0  0  0999 V2000
   -4.0702   -3.8485    1.4554 H   0  0  0  0  0  0  0  0  0  0  0  0
   -4.0012   -2.9605    0.8284 C   0  0  0  0  0  0  0  0  0  0  0  0
   -4.7652   -2.2435    1.1234 H   0  0  0  0  0  0  0  0  0  0  0  0
   -4.1352   -3.2385   -0.2156 H   0  0  0  0  0  0  0  0  0  0  0  0
   -2.6362   -2.3395    1.0094 C   0  0  0  0  0  0  0  0  0  0  0  0
   -1.8292   -2.8395    1.7814 O   0  0  0  0  0  0  0  0  0  0  0  0
   -2.3832   -1.2445    0.2964 N   0  0  0  0  0  0  0  0  0  0  0  0
   -3.1102   -0.8685   -0.2946 H   0  0  0  0  0  0  0  0  0  0  0  0
   -1.1292   -0.4875    0.3524 C   0  0  1  0  0  0  0  0  0  0  0  0
   -0.3087   -1.1556    0.0882 H   0  0  0  0  0  0  0  0  0  0  0  0
   -1.1749    0.6534   -0.6787 C   0  0  0  0  0  0  0  0  0  0  0  0
   -1.3179    0.2274   -1.6725 H   0  0  0  0  0  0  0  0  0  0  0  0
   -2.0383    1.2865   -0.4672 H   0  0  0  0  0  0  0  0  0  0  0  0
    0.0782    1.5070   -0.7082 C   0  0  0  0  0  0  0  0  0  0  0  0
    1.1490    1.1694   -1.5600 C   0  0  0  0  0  0  0  0  0  0  0  0
    1.0903    0.2829   -2.1780 H   0  0  0  0  0  0  0  0  0  0  0  0
    2.2940    1.9878   -1.6136 C   0  0  0  0  0  0  0  0  0  0  0  0
    3.1127    1.7254   -2.2659 H   0  0  0  0  0  0  0  0  0  0  0  0
    2.3664    3.1500   -0.8151 C   0  0  0  0  0  0  0  0  0  0  0  0
    3.4651    3.9474   -0.8617 O   0  0  0  0  0  0  0  0  0  0  0  0
    4.1612    3.5717   -1.4023 H   0  0  0  0  0  0  0  0  0  0  0  0
    1.2919    3.4889    0.0332 C   0  0  0  0  0  0  0  0  0  0  0  0
    1.3610    4.3777    0.6422 H   0  0  0  0  0  0  0  0  0  0  0  0
    0.1507    2.6664    0.0879 C   0  0  0  0  0  0  0  0  0  0  0  0
   -0.6705    2.9224    0.7467 H   0  0  0  0  0  0  0  0  0  0  0  0
   -0.8664    0.0378    1.7736 C   0  0  0  0  0  0  0  0  0  0  0  0
    0.2529   -0.0672    2.2760 O   0  0  0  0  0  0  0  0  0  0  0  0
   -1.8947    0.5991    2.4221 N   0  0  0  0  0  0  0  0  0  0  0  0
   -2.7942    0.5936    1.9635 H   0  0  0  0  0  0  0  0  0  0  0  0
   -1.8170    1.1453    3.7750 C   0  0  0  0  0  0  0  0  0  0  0  0
   -0.9697    1.8290    3.8506 H   0  0  0  0  0  0  0  0  0  0  0  0
   -2.7354    1.6828    4.0167 H   0  0  0  0  0  0  0  0  0  0  0  0
   -1.6754    0.3334    4.4914 H   0  0  0  0  0  0  0  0  0  0  0  0
  5  6  2  0  0  0  0
  5  7  1  0  0  0  0
  2  3  1  0  0  0  0
  2  4  1  0  0  0  0
  2  5  1  0  0  0  0
  1  2  1  0  0  0  0
 26 27  2  0  0  0  0
 26 28  1  0  0  0  0
 24 25  1  0  0  0  0
 22 23  1  0  0  0  0
 22 24  2  0  0  0  0
 20 21  1  0  0  0  0
 19 20  1  0  0  0  0
 19 22  1  0  0  0  0
 17 18  1  0  0  0  0
 17 19  2  0  0  0  0
 15 16  1  0  0  0  0
 15 17  1  0  0  0  0
 14 15  2  0  0  0  0
 14 24  1  0  0  0  0
 11 12  1  0  0  0  0
 11 13  1  0  0  0  0
 11 14  1  0  0  0  0
  9 10  1  0  0  0  0
  9 11  1  0  0  0  0
  9 26  1  0  0  0  0
  7  8  1  0  0  0  0
  7  9  1  0  0  0  0
 30 31  1  0  0  0  0
 30 32  1  0  0  0  0
 30 33  1  0  0  0  0
 28 29  1  0  0  0  0
 28 30  1  0  0  0  0
M  END
$$$$
default_name
  -OEChem-02102213163D

 33 33  0     1  0  0  0  0  0999 V2000
   -4.0702   -3.8485    1.4554 H   0  0  0  0  0  0  0  0  0  0  0  0
   -4.0012   -2.9605    0.8284 C   0  0  0  0  0  0  0  0  0  0  0  0
   -4.7652   -2.2435    1.1234 H   0  0  0  0  0  0  0  0  0  0  0  0
   -4.1352   -3.2385   -0.2156 H   0  0  0  0  0  0  0  0  0  0  0  0
   -2.6362   -2.3395    1.0094 C   0  0  0  0  0  0  0  0  0  0  0  0
   -1.8292   -2.8395    1.7814 O   0  0  0  0  0  0  0  0  0  0  0  0
   -2.3832   -1.2445    0.2964 N   0  0  0  0  0  0  0  0  0  0  0  0
   -3.1102   -0.8685   -0.2946 H   0  0  0  0  0  0  0  0  0  0  0  0
   -1.1292   -0.4875    0.3524 C   0  0  1  0  0  0  0  0  0  0  0  0
   -0.3087   -1.1556    0.0882 H   0  0  0  0  0  0  0  0  0  0  0  0
   -1.1749    0.6534   -0.6787 C   0  0  0  0  0  0  0  0  0  0  0  0
   -1.3179    0.2274   -1.6725 H   0  0  0  0  0  0  0  0  0  0  0  0
   -2.0383    1.2865   -0.4672 H   0  0  0  0  0  0  0  0  0  0  0  0
    0.0782    1.5070   -0.7082 C   0  0  0  0  0  0  0  0  0  0  0  0
    1.0067    1.3713   -1.7597 C   0  0  0  0  0  0  0  0  0  0  0  0
    0.8405    0.6373   -2.5372 H   0  0  0  0  0  0  0  0  0  0  0  0
    2.1487    2.1946   -1.8041 C   0  0  0  0  0  0  0  0  0  0  0  0
    2.8584    2.0869   -2.6099 H   0  0  0  0  0  0  0  0  0  0  0  0
    2.3605    3.1594   -0.7952 C   0  0  0  0  0  0  0  0  0  0  0  0
    3.4571    3.9601   -0.8307 O   0  0  0  0  0  0  0  0  0  0  0  0
    4.0595    3.7165   -1.5348 H   0  0  0  0  0  0  0  0  0  0  0  0
    1.4278    3.2971    0.2536 C   0  0  0  0  0  0  0  0  0  0  0  0
    1.6030    4.0354    1.0215 H   0  0  0  0  0  0  0  0  0  0  0  0
    0.2897    2.4696    0.2977 C   0  0  0  0  0  0  0  0  0  0  0  0
   -0.4217    2.5697    1.1089 H   0  0  0  0  0  0  0  0  0  0  0  0
   -0.8664    0.0378    1.7736 C   0  0  0  0  0  0  0  0  0  0  0  0
    0.2529   -0.0672    2.2760 O   0  0  0  0  0  0  0  0  0  0  0  0
   -1.8947    0.5991    2.4221 N   0  0  0  0  0  0  0  0  0  0  0  0
   -2.7942    0.5936    1.9635 H   0  0  0  0  0  0  0  0  0  0  0  0
   -1.8170    1.1453    3.7750 C   0  0  0  0  0  0  0  0  0  0  0  0
   -0.9697    1.8290    3.8506 H   0  0  0  0  0  0  0  0  0  0  0  0
   -2.7354    1.6828    4.0167 H   0  0  0  0  0  0  0  0  0  0  0  0
   -1.6754    0.3334    4.4914 H   0  0  0  0  0  0  0  0  0  0  0  0
  5  6  2  0  0  0  0
  5  7  1  0  0  0  0
  2  3  1  0  0  0  0
  2  4  1  0  0  0  0
  2  5  1  0  0  0  0
  1  2  1  0  0  0  0
 26 27  2  0  0  0  0
 26 28  1  0  0  0  0
 24 25  1  0  0  0  0
 22 23  1  0  0  0  0
 22 24  2  0  0  0  0
 20 21  1  0  0  0  0
 19 20  1  0  0  0  0
 19 22  1  0  0  0  0
 17 18  1  0  0  0  0
 17 19  2  0  0  0  0
 15 16  1  0  0  0  0
 15 17  1  0  0  0  0
 14 15  2  0  0  0  0
 14 24  1  0  0  0  0
 11 12  1  0  0  0  0
 11 13  1  0  0  0  0
 11 14  1  0  0  0  0
  9 10  1  0  0  0  0
  9 11  1  0  0  0  0
  9 26  1  0  0  0  0
  7  8  1  0  0  0  0
  7  9  1  0  0  0  0
 30 31  1  0  0  0  0
 30 32  1  0  0  0  0
 30 33  1  0  0  0  0
 28 29  1  0  0  0  0
 28 30  1  0  0  0  0
M  END
$$$$
default_name
  -OEChem-02102213163D

 33 33  0     1  0  0  0  0  0999 V2000
   -4.0702   -3.8485    1.4554 H   0  0  0  0  0  0  0  0  0  0  0  0
   -4.0012   -2.9605    0.8284 C   0  0  0  0  0  0  0  0  0  0  0  0
   -4.7652   -2.2435    1.1234 H   0  0  0  0  0  0  0  0  0  0  0  0
   -4.1352   -3.2385   -0.2156 H   0  0  0  0  0  0  0  0  0  0  0  0
   -2.6362   -2.3395    1.0094 C   0  0  0  0  0  0  0  0  0  0  0  0
   -1.8292   -2.8395    1.7814 O   0  0  0  0  0  0  0  0  0  0  0  0
   -2.3832   -1.2445    0.2964 N   0  0  0  0  0  0  0  0  0  0  0  0
   -3.1102   -0.8685   -0.2946 H   0  0  0  0  0  0  0  0  0  0  0  0
   -1.1292   -0.4875    0.3524 C   0  0  1  0  0  0  0  0  0  0  0  0
   -0.3087   -1.1556    0.0882 H   0  0  0  0  0  0  0  0  0  0  0  0
   -1.1749    0.6534   -0.6787 C   0  0  0  0  0  0  0  0  0  0  0  0
   -1.3179    0.2274   -1.6725 H   0  0  0  0  0  0  0  0  0  0  0  0
   -2.0383    1.2865   -0.4672 H   0  0  0  0  0  0  0  0  0  0  0  0
    0.0782    1.5070   -0.7082 C   0  0  0  0  0  0  0  0  0  0  0  0
    0.8413    1.6098   -1.8886 C   0  0  0  0  0  0  0  0  0  0  0  0
    0.5487    1.0576   -2.7721 H   0  0  0  0  0  0  0  0  0  0  0  0
    1.9816    2.4358   -1.9228 C   0  0  0  0  0  0  0  0  0  0  0  0
    2.5645    2.5109   -2.8279 H   0  0  0  0  0  0  0  0  0  0  0  0
    2.3577    3.1642   -0.7732 C   0  0  0  0  0  0  0  0  0  0  0  0
    3.4541    3.9658   -0.7968 O   0  0  0  0  0  0  0  0  0  0  0  0
    3.9426    3.8852   -1.6171 H   0  0  0  0  0  0  0  0  0  0  0  0
    1.5901    3.0639    0.4057 C   0  0  0  0  0  0  0  0  0  0  0  0
    1.8904    3.6225    1.2795 H   0  0  0  0  0  0  0  0  0  0  0  0
    0.4535    2.2340    0.4381 C   0  0  0  0  0  0  0  0  0  0  0  0
   -0.1305    2.1502    1.3470 H   0  0  0  0  0  0  0  0  0  0  0  0
   -0.8664    0.0378    1.7736 C   0  0  0  0  0  0  0  0  0  0  0  0
    0.2529   -0.0672    2.2760 O   0  0  0  0  0  0  0  0  0  0  0  0
   -1.8947    0.5991    2.4221 N   0  0  0  0  0  0  0  0  0  0  0  0
   -2.7942    0.5936    1.9635 H   0  0  0  0  0  0  0  0  0  0  0  0
   -1.8170    1.1453    3.7750 C   0  0  0  0  0  0  0  0  0  0  0  0
   -0.9697    1.8290    3.8506 H   0  0  0  0  0  0  0  0  0  0  0  0
   -2.7354    1.6828    4.0167 H   0  0  0  0  0  0  0  0  0  0  0  0
   -1.6754    0.3334    4.4914 H   0  0  0  0  0  0  0  0  0  0  0  0
  5  6  2  0  0  0  0
  5  7  1  0  0  0  0
  2  3  1  0  0  0  0
  2  4  1  0  0  0  0
  2  5  1  0  0  0  0
  1  2  1  0  0  0  0
 26 27  2  0  0  0  0
 26 28  1  0  0  0  0
 24 25  1  0  0  0  0
 22 23  1  0  0  0  0
 22 24  2  0  0  0  0
 20 21  1  0  0  0  0
 19 20  1  0  0  0  0
 19 22  1  0  0  0  0
 17 18  1  0  0  0  0
 17 19  2  0  0  0  0
 15 16  1  0  0  0  0
 15 17  1  0  0  0  0
 14 15  2  0  0  0  0
 14 24  1  0  0  0  0
 11 12  1  0  0  0  0
 11 13  1  0  0  0  0
 11 14  1  0  0  0  0
  9 10  1  0  0  0  0
  9 11  1  0  0  0  0
  9 26  1  0  0  0  0
  7  8  1  0  0  0  0
  7  9  1  0  0  0  0
 30 31  1  0  0  0  0
 30 32  1  0  0  0  0
 30 33  1  0  0  0  0
 28 29  1  0  0  0  0
 28 30  1  0  0  0  0
M  END
$$$$
default_name
  -OEChem-02102213163D

 33 33  0     1  0  0  0  0  0999 V2000
   -4.0702   -3.8485    1.4554 H   0  0  0  0  0  0  0  0  0  0  0  0
   -4.0012   -2.9605    0.8284 C   0  0  0  0  0  0  0  0  0  0  0  0
   -4.7652   -2.2435    1.1234 H   0  0  0  0  0  0  0  0  0  0  0  0
   -4.1352   -3.2385   -0.2156 H   0  0  0  0  0  0  0  0  0  0  0  0
   -2.6362   -2.3395    1.0094 C   0  0  0  0  0  0  0  0  0  0  0  0
   -1.8292   -2.8395    1.7814 O   0  0  0  0  0  0  0  0  0  0  0  0
   -2.3832   -1.2445    0.2964 N   0  0  0  0  0  0  0  0  0  0  0  0
   -3.1102   -0.8685   -0.2946 H   0  0  0  0  0  0  0  0  0  0  0  0
   -1.1292   -0.4875    0.3524 C   0  0  1  0  0  0  0  0  0  0  0  0
   -0.3087   -1.1556    0.0882 H   0  0  0  0  0  0  0  0  0  0  0  0
   -1.1749    0.6534   -0.6787 C   0  0  0  0  0  0  0  0  0  0  0  0
   -1.3179    0.2274   -1.6725 H   0  0  0  0  0  0  0  0  0  0  0  0
   -2.0383    1.2865   -0.4672 H   0  0  0  0  0  0  0  0  0  0  0  0
    0.0782    1.5070   -0.7082 C   0  0  0  0  0  0  0  0  0  0  0  0
    0.6639    1.8686   -1.9380 C   0  0  0  0  0  0  0  0  0  0  0  0
    0.2347    1.5154   -2.8665 H   0  0  0  0  0  0  0  0  0  0  0  0
    1.8042    2.6949   -1.9614 C   0  0  0  0  0  0  0  0  0  0  0  0
    2.2510    2.9686   -2.9049 H   0  0  0  0  0  0  0  0  0  0  0  0
    2.3582    3.1642   -0.7504 C   0  0  0  0  0  0  0  0  0  0  0  0
    3.4561    3.9641   -0.7625 O   0  0  0  0  0  0  0  0  0  0  0  0
    3.8186    4.0664   -1.6434 H   0  0  0  0  0  0  0  0  0  0  0  0
    1.7680    2.8054    0.4791 C   0  0  0  0  0  0  0  0  0  0  0  0
    2.2034    3.1670    1.3985 H   0  0  0  0  0  0  0  0  0  0  0  0
    0.6309    1.9755    0.4994 C   0  0  0  0  0  0  0  0  0  0  0  0
    0.1835    1.6927    1.4448 H   0  0  0  0  0  0  0  0  0  0  0  0
   -0.8664    0.0378    1.7736 C   0  0  0  0  0  0  0  0  0  0  0  0
    0.2529   -0.0672    2.2760 O   0  0  0  0  0  0  0  0  0  0  0  0
   -1.8947    0.5991    2.4221 N   0  0  0  0  0  0  0  0  0  0  0  0
   -2.7942    0.5936    1.9635 H   0  0  0  0  0  0  0  0  0  0  0  0
   -1.8170    1.1453    3.7750 C   0  0  0  0  0  0  0  0  0  0  0  0
   -0.9697    1.8290    3.8506 H   0  0  0  0  0  0  0  0  0  0  0  0
   -2.7354    1.6828    4.0167 H   0  0  0  0  0  0  0  0  0  0  0  0
   -1.6754    0.3334    4.4914 H   0  0  0  0  0  0  0  0  0  0  0  0
  5  6  2  0  0  0  0
  5  7  1  0  0  0  0
  2  3  1  0  0  0  0
  2  4  1  0  0  0  0
  2  5  1  0  0  0  0
  1  2  1  0  0  0  0
 26 27  2  0  0  0  0
 26 28  1  0  0  0  0
 24 25  1  0  0  0  0
 22 23  1  0  0  0  0
 22 24  2  0  0  0  0
 20 21  1  0  0  0  0
 19 20  1  0  0  0  0
 19 22  1  0  0  0  0
 17 18  1  0  0  0  0
 17 19  2  0  0  0  0
 15 16  1  0  0  0  0
 15 17  1  0  0  0  0
 14 15  2  0  0  0  0
 14 24  1  0  0  0  0
 11 12  1  0  0  0  0
 11 13  1  0  0  0  0
 11 14  1  0  0  0  0
  9 10  1  0  0  0  0
  9 11  1  0  0  0  0
  9 26  1  0  0  0  0
  7  8  1  0  0  0  0
  7  9  1  0  0  0  0
 30 31  1  0  0  0  0
 30 32  1  0  0  0  0
 30 33  1  0  0  0  0
 28 29  1  0  0  0  0
 28 30  1  0  0  0  0
M  END
$$$$
default_name
  -OEChem-02102213163D

 33 33  0     1  0  0  0  0  0999 V2000
   -4.0702   -3.8485    1.4554 H   0  0  0  0  0  0  0  0  0  0  0  0
   -4.0012   -2.9605    0.8284 C   0  0  0  0  0  0  0  0  0  0  0  0
   -4.7652   -2.2435    1.1234 H   0  0  0  0  0  0  0  0  0  0  0  0
   -4.1352   -3.2385   -0.2156 H   0  0  0  0  0  0  0  0  0  0  0  0
   -2.6362   -2.3395    1.0094 C   0  0  0  0  0  0  0  0  0  0  0  0
   -1.8292   -2.8395    1.7814 O   0  0  0  0  0  0  0  0  0  0  0  0
   -2.3832   -1.2445    0.2964 N   0  0  0  0  0  0  0  0  0  0  0  0
   -3.1102   -0.8685   -0.2946 H   0  0  0  0  0  0  0  0  0  0  0  0
   -1.1292   -0.4875    0.3524 C   0  0  1  0  0  0  0  0  0  0  0  0
   -0.3087   -1.1556    0.0882 H   0  0  0  0  0  0  0  0  0  0  0  0
   -1.1749    0.6534   -0.6787 C   0  0  0  0  0  0  0  0  0  0  0  0
   -1.3179    0.2274   -1.6725 H   0  0  0  0  0  0  0  0  0  0  0  0
   -2.0383    1.2865   -0.4672 H   0  0  0  0  0  0  0  0  0  0  0  0
    0.0782    1.5070   -0.7082 C   0  0  0  0  0  0  0  0  0  0  0  0
    0.4866    2.1300   -1.9046 C   0  0  0  0  0  0  0  0  0  0  0  0
   -0.0800    1.9793   -2.8141 H   0  0  0  0  0  0  0  0  0  0  0  0
    1.6285    2.9545   -1.9175 C   0  0  0  0  0  0  0  0  0  0  0  0
    1.9392    3.4287   -2.8357 H   0  0  0  0  0  0  0  0  0  0  0  0
    2.3621    3.1594   -0.7286 C   0  0  0  0  0  0  0  0  0  0  0  0
    3.4630    3.9550   -0.7300 O   0  0  0  0  0  0  0  0  0  0  0  0
    3.6959    4.2476   -1.6120 H   0  0  0  0  0  0  0  0  0  0  0  0
    1.9491    2.5391    0.4688 C   0  0  0  0  0  0  0  0  0  0  0  0
    2.5208    2.7000    1.3704 H   0  0  0  0  0  0  0  0  0  0  0  0
    0.8100    1.7119    0.4775 C   0  0  0  0  0  0  0  0  0  0  0  0
    0.4987    1.2283    1.3957 H   0  0  0  0  0  0  0  0  0  0  0  0
   -0.8664    0.0378    1.7736 C   0  0  0  0  0  0  0  0  0  0  0  0
    0.2529   -0.0672    2.2760 O   0  0  0  0  0  0  0  0  0  0  0  0
   -1.8947    0.5991    2.4221 N   0  0  0  0  0  0  0  0  0  0  0  0
   -2.7942    0.5936    1.9635 H   0  0  0  0  0  0  0  0  0  0  0  0
   -1.8170    1.1453    3.7750 C   0  0  0  0  0  0  0  0  0  0  0  0
   -0.9697    1.8290    3.8506 H   0  0  0  0  0  0  0  0  0  0  0  0
   -2.7354    1.6828    4.0167 H   0  0  0  0  0  0  0  0  0  0  0  0
   -1.6754    0.3334    4.4914 H   0  0  0  0  0  0  0  0  0  0  0  0
  5  6  2  0  0  0  0
  5  7  1  0  0  0  0
  2  3  1  0  0  0  0
  2  4  1  0  0  0  0
  2  5  1  0  0  0  0
  1  2  1  0  0  0  0
 26 27  2  0  0  0  0
 26 28  1  0  0  0  0
 24 25  1  0  0  0  0
 22 23  1  0  0  0  0
 22 24  2  0  0  0  0
 20 21  1  0  0  0  0
 19 20  1  0  0  0  0
 19 22  1  0  0  0  0
 17 18  1  0  0  0  0
 17 19  2  0  0  0  0
 15 16  1  0  0  0  0
 15 17  1  0  0  0  0
 14 15  2  0  0  0  0
 14 24  1  0  0  0  0
 11 12  1  0  0  0  0
 11 13  1  0  0  0  0
 11 14  1  0  0  0  0
  9 10  1  0  0  0  0
  9 11  1  0  0  0  0
  9 26  1  0  0  0  0
  7  8  1  0  0  0  0
  7  9  1  0  0  0  0
 30 31  1  0  0  0  0
 30 32  1  0  0  0  0
 30 33  1  0  0  0  0
 28 29  1  0  0  0  0
 28 30  1  0  0  0  0
M  END
$$$$
default_name
  -OEChem-02102213163D

 33 33  0     1  0  0  0  0  0999 V2000
   -4.0702   -3.8485    1.4554 H   0  0  0  0  0  0  0  0  0  0  0  0
   -4.0012   -2.9605    0.8284 C   0  0  0  0  0  0  0  0  0  0  0  0
   -4.7652   -2.2435    1.1234 H   0  0  0  0  0  0  0  0  0  0  0  0
   -4.1352   -3.2385   -0.2156 H   0  0  0  0  0  0  0  0  0  0  0  0
   -2.6362   -2.3395    1.0094 C   0  0  0  0  0  0  0  0  0  0  0  0
   -1.8292   -2.8395    1.7814 O   0  0  0  0  0  0  0  0  0  0  0  0
   -2.3832   -1.2445    0.2964 N   0  0  0  0  0  0  0  0  0  0  0  0
   -3.1102   -0.8685   -0.2946 H   0  0  0  0  0  0  0  0  0  0  0  0
   -1.1292   -0.4875    0.3524 C   0  0  1  0  0  0  0  0  0  0  0  0
   -0.3087   -1.1556    0.0882 H   0  0  0  0  0  0  0  0  0  0  0  0
   -1.1749    0.6534   -0.6787 C   0  0  0  0  0  0  0  0  0  0  0  0
   -1.3179    0.2274   -1.6725 H   0  0  0  0  0  0  0  0  0  0  0  0
   -2.0383    1.2865   -0.4672 H   0  0  0  0  0  0  0  0  0  0  0  0
    0.0782    1.5070   -0.7082 C   0  0  0  0  0  0  0  0  0  0  0  0
    0.3216    2.3762   -1.7905 C   0  0  0  0  0  0  0  0  0  0  0  0
   -0.3741    2.4178   -2.6184 H   0  0  0  0  0  0  0  0  0  0  0  0
    1.4665    3.1966   -1.7939 C   0  0  0  0  0  0  0  0  0  0  0  0
    1.6505    3.8599   -2.6251 H   0  0  0  0  0  0  0  0  0  0  0  0
    2.3689    3.1500   -0.7090 C   0  0  0  0  0  0  0  0  0  0  0  0
    3.4744    3.9393   -0.7015 O   0  0  0  0  0  0  0  0  0  0  0  0
    3.5829    4.4166   -1.5251 H   0  0  0  0  0  0  0  0  0  0  0  0
    2.1212    2.2831    0.3755 C   0  0  0  0  0  0  0  0  0  0  0  0
    2.8210    2.2533    1.1971 H   0  0  0  0  0  0  0  0  0  0  0  0
    0.9784    1.4610    0.3738 C   0  0  0  0  0  0  0  0  0  0  0  0
    0.7936    0.7885    1.2031 H   0  0  0  0  0  0  0  0  0  0  0  0
   -0.8664    0.0378    1.7736 C   0  0  0  0  0  0  0  0  0  0  0  0
    0.2529   -0.0672    2.2760 O   0  0  0  0  0  0  0  0  0  0  0  0
   -1.8947    0.5991    2.4221 N   0  0  0  0  0  0  0  0  0  0  0  0
   -2.7942    0.5936    1.9635 H   0  0  0  0  0  0  0  0  0  0  0  0
   -1.8170    1.1453    3.7750 C   0  0  0  0  0  0  0  0  0  0  0  0
   -0.9697    1.8290    3.8506 H   0  0  0  0  0  0  0  0  0  0  0  0
   -2.7354    1.6828    4.0167 H   0  0  0  0  0  0  0  0  0  0  0  0
   -1.6754    0.3334    4.4914 H   0  0  0  0  0  0  0  0  0  0  0  0
  5  6  2  0  0  0  0
  5  7  1  0  0  0  0
  2  3  1  0  0  0  0
  2  4  1  0  0  0  0
  2  5  1  0  0  0  0
  1  2  1  0  0  0  0
 26 27  2  0  0  0  0
 26 28  1  0  0  0  0
 24 25  1  0  0  0  0
 22 23  1  0  0  0  0
 22 24  2  0  0  0  0
 20 21  1  0  0  0  0
 19 20  1  0  0  0  0
 19 22  1  0  0  0  0
 17 18  1  0  0  0  0
 17 19  2  0  0  0  0
 15 16  1  0  0  0  0
 15 17  1  0  0  0  0
 14 15  2  0  0  0  0
 14 24  1  0  0  0  0
 11 12  1  0  0  0  0
 11 13  1  0  0  0  0
 11 14  1  0  0  0  0
  9 10  1  0  0  0  0
  9 11  1  0  0  0  0
  9 26  1  0  0  0  0
  7  8  1  0  0  0  0
  7  9  1  0  0  0  0
 30 31  1  0  0  0  0
 30 32  1  0  0  0  0
 30 33  1  0  0  0  0
 28 29  1  0  0  0  0
 28 30  1  0  0  0  0
M  END
$$$$
default_name
  -OEChem-02102213163D

 33 33  0     1  0  0  0  0  0999 V2000
   -4.0702   -3.8485    1.4554 H   0  0  0  0  0  0  0  0  0  0  0  0
   -4.0012   -2.9605    0.8284 C   0  0  0  0  0  0  0  0  0  0  0  0
   -4.7652   -2.2435    1.1234 H   0  0  0  0  0  0  0  0  0  0  0  0
   -4.1352   -3.2385   -0.2156 H   0  0  0  0  0  0  0  0  0  0  0  0
   -2.6362   -2.3395    1.0094 C   0  0  0  0  0  0  0  0  0  0  0  0
   -1.8292   -2.8395    1.7814 O   0  0  0  0  0  0  0  0  0  0  0  0
   -2.3832   -1.2445    0.2964 N   0  0  0  0  0  0  0  0  0  0  0  0
   -3.1102   -0.8685   -0.2946 H   0  0  0  0  0  0  0  0  0  0  0  0
   -1.1292   -0.4875    0.3524 C   0  0  1  0  0  0  0  0  0  0  0  0
   -0.3087   -1.1556    0.0882 H   0  0  0  0  0  0  0  0  0  0  0  0
   -1.1749    0.6534   -0.6787 C   0  0  0  0  0  0  0  0  0  0  0  0
   -1.5781    0.2680   -1.6161 H   0  0  0  0  0  0  0  0  0  0  0  0
   -1.8589    1.4252   -0.3216 H   0  0  0  0  0  0  0  0  0  0  0  0
    0.1773    1.2759   -0.9683 C   0  0  0  0  0  0  0  0  0  0  0  0
    0.2903    2.3333   -1.8931 C   0  0  0  0  0  0  0  0  0  0  0  0
   -0.5861    2.6875   -2.4200 H   0  0  0  0  0  0  0  0  0  0  0  0
    1.5418    2.9350   -2.1286 C   0  0  0  0  0  0  0  0  0  0  0  0
    1.6249    3.7434   -2.8386 H   0  0  0  0  0  0  0  0  0  0  0  0
    2.6835    2.4797   -1.4337 C   0  0  0  0  0  0  0  0  0  0  0  0
    3.8944    3.0553   -1.6515 O   0  0  0  0  0  0  0  0  0  0  0  0
    3.8668    3.6962   -2.3632 H   0  0  0  0  0  0  0  0  0  0  0  0
    2.5676    1.4247   -0.5049 C   0  0  0  0  0  0  0  0  0  0  0  0
    3.4486    1.0825    0.0169 H   0  0  0  0  0  0  0  0  0  0  0  0
    1.3161    0.8223   -0.2752 C   0  0  0  0  0  0  0  0  0  0  0  0
    1.2296    0.0056    0.4317 H   0  0  0  0  0  0  0  0  0  0  0  0
   -0.8664    0.0378    1.7736 C   0  0  0  0  0  0  0  0  0  0  0  0
    0.2529   -0.0672    2.2760 O   0  0  0  0  0  0  0  0  0  0  0  0
   -1.8947    0.5991    2.4221 N   0  0  0  0  0  0  0  0  0  0  0  0
   -2.7942    0.5936    1.9635 H   0  0  0  0  0  0  0  0  0  0  0  0
   -1.8170    1.1453    3.7750 C   0  0  0  0  0  0  0  0  0  0  0  0
   -0.9697    1.8290    3.8506 H   0  0  0  0  0  0  0  0  0  0  0  0
   -2.7354    1.6828    4.0167 H   0  0  0  0  0  0  0  0  0  0  0  0
   -1.6754    0.3334    4.4914 H   0  0  0  0  0  0  0  0  0  0  0  0
  5  6  2  0  0  0  0
  5  7  1  0  0  0  0
  2  3  1  0  0  0  0
  2  4  1  0  0  0  0
  2  5  1  0  0  0  0
  1  2  1  0  0  0  0
 26 27  2  0  0  0  0
 26 28  1  0  0  0  0
 24 25  1  0  0  0  0
 22 23  1  0  0  0  0
 22 24  2  0  0  0  0
 20 21  1  0  0  0  0
 19 20  1  0  0  0  0
 19 22  1  0  0  0  0
 17 18  1  0  0  0  0
 17 19  2  0  0  0  0
 15 16  1  0  0  0  0
 15 17  1  0  0  0  0
 14 15  2  0  0  0  0
 14 24  1  0  0  0  0
 11 12  1  0  0  0  0
 11 13  1  0  0  0  0
 11 14  1  0  0  0  0
  9 10  1  0  0  0  0
  9 11  1  0  0  0  0
  9 26  1  0  0  0  0
  7  8  1  0  0  0  0
  7  9  1  0  0  0  0
 30 31  1  0  0  0  0
 30 32  1  0  0  0  0
 30 33  1  0  0  0  0
 28 29  1  0  0  0  0
 28 30  1  0  0  0  0
M  END
$$$$
default_name
  -OEChem-02102213163D

 33 33  0     1  0  0  0  0  0999 V2000
   -4.0702   -3.8485    1.4554 H   0  0  0  0  0  0  0  0  0  0  0  0
   -4.0012   -2.9605    0.8284 C   0  0  0  0  0  0  0  0  0  0  0  0
   -4.7652   -2.2435    1.1234 H   0  0  0  0  0  0  0  0  0  0  0  0
   -4.1352   -3.2385   -0.2156 H   0  0  0  0  0  0  0  0  0  0  0  0
   -2.6362   -2.3395    1.0094 C   0  0  0  0  0  0  0  0  0  0  0  0
   -1.8292   -2.8395    1.7814 O   0  0  0  0  0  0  0  0  0  0  0  0
   -2.3832   -1.2445    0.2964 N   0  0  0  0  0  0  0  0  0  0  0  0
   -3.1102   -0.8685   -0.2946 H   0  0  0  0  0  0  0  0  0  0  0  0
   -1.1292   -0.4875    0.3524 C   0  0  1  0  0  0  0  0  0  0  0  0
   -0.3087   -1.1556    0.0882 H   0  0  0  0  0  0  0  0  0  0  0  0
   -1.1749    0.6534   -0.6787 C   0  0  0  0  0  0  0  0  0  0  0  0
   -1.5781    0.2680   -1.6161 H   0  0  0  0  0  0  0  0  0  0  0  0
   -1.8589    1.4252   -0.3216 H   0  0  0  0  0  0  0  0  0  0  0  0
    0.1773    1.2759   -0.9683 C   0  0  0  0  0  0  0  0  0  0  0  0
    0.2621    2.5151   -1.6342 C   0  0  0  0  0  0  0  0  0  0  0  0
   -0.6391    3.0147   -1.9648 H   0  0  0  0  0  0  0  0  0  0  0  0
    1.5185    3.1084   -1.8649 C   0  0  0  0  0  0  0  0  0  0  0  0
    1.5798    4.0566   -2.3765 H   0  0  0  0  0  0  0  0  0  0  0  0
    2.6937    2.4616   -1.4245 C   0  0  0  0  0  0  0  0  0  0  0  0
    3.9100    3.0270   -1.6396 O   0  0  0  0  0  0  0  0  0  0  0  0
    3.8508    3.8169   -2.1786 H   0  0  0  0  0  0  0  0  0  0  0  0
    2.6067    1.2240   -0.7540 C   0  0  0  0  0  0  0  0  0  0  0  0
    3.5128    0.7371   -0.4260 H   0  0  0  0  0  0  0  0  0  0  0  0
    1.3497    0.6312   -0.5290 C   0  0  0  0  0  0  0  0  0  0  0  0
    1.2842   -0.3241   -0.0219 H   0  0  0  0  0  0  0  0  0  0  0  0
   -0.8664    0.0378    1.7736 C   0  0  0  0  0  0  0  0  0  0  0  0
    0.2529   -0.0672    2.2760 O   0  0  0  0  0  0  0  0  0  0  0  0
   -1.8947    0.5991    2.4221 N   0  0  0  0  0  0  0  0  0  0  0  0
   -2.7942    0.5936    1.9635 H   0  0  0  0  0  0  0  0  0  0  0  0
   -1.8170    1.1453    3.7750 C   0  0  0  0  0  0  0  0  0  0  0  0
   -0.9697    1.8290    3.8506 H   0  0  0  0  0  0  0  0  0  0  0  0
   -2.7354    1.6828    4.0167 H   0  0  0  0  0  0  0  0  0  0  0  0
   -1.6754    0.3334    4.4914 H   0  0  0  0  0  0  0  0  0  0  0  0
  5  6  2  0  0  0  0
  5  7  1  0  0  0  0
  2  3  1  0  0  0  0
  2  4  1  0  0  0  0
  2  5  1  0  0  0  0
  1  2  1  0  0  0  0
 26 27  2  0  0  0  0
 26 28  1  0  0  0  0
 24 25  1  0  0  0  0
 22 23  1  0  0  0  0
 22 24  2  0  0  0  0
 20 21  1  0  0  0  0
 19 20  1  0  0  0  0
 19 22  1  0  0  0  0
 17 18  1  0  0  0  0
 17 19  2  0  0  0  0
 15 16  1  0  0  0  0
 15 17  1  0  0  0  0
 14 15  2  0  0  0  0
 14 24  1  0  0  0  0
 11 12  1  0  0  0  0
 11 13  1  0  0  0  0
 11 14  1  0  0  0  0
  9 10  1  0  0  0  0
  9 11  1  0  0  0  0
  9 26  1  0  0  0  0
  7  8  1  0  0  0  0
  7  9  1  0  0  0  0
 30 31  1  0  0  0  0
 30 32  1  0  0  0  0
 30 33  1  0  0  0  0
 28 29  1  0  0  0  0
 28 30  1  0  0  0  0
M  END
$$$$
default_name
  -OEChem-02102213163D

 33 33  0     1  0  0  0  0  0999 V2000
   -4.0702   -3.8485    1.4554 H   0  0  0  0  0  0  0  0  0  0  0  0
   -4.0012   -2.9605    0.8284 C   0  0  0  0  0  0  0  0  0  0  0  0
   -4.7652   -2.2435    1.1234 H   0  0  0  0  0  0  0  0  0  0  0  0
   -4.1352   -3.2385   -0.2156 H   0  0  0  0  0  0  0  0  0  0  0  0
   -2.6362   -2.3395    1.0094 C   0  0  0  0  0  0  0  0  0  0  0  0
   -1.8292   -2.8395    1.7814 O   0  0  0  0  0  0  0  0  0  0  0  0
   -2.3832   -1.2445    0.2964 N   0  0  0  0  0  0  0  0  0  0  0  0
   -3.1102   -0.8685   -0.2946 H   0  0  0  0  0  0  0  0  0  0  0  0
   -1.1292   -0.4875    0.3524 C   0  0  1  0  0  0  0  0  0  0  0  0
   -0.3087   -1.1556    0.0882 H   0  0  0  0  0  0  0  0  0  0  0  0
   -1.1749    0.6534   -0.6787 C   0  0  0  0  0  0  0  0  0  0  0  0
   -1.5781    0.2680   -1.6161 H   0  0  0  0  0  0  0  0  0  0  0  0
   -1.8589    1.4252   -0.3216 H   0  0  0  0  0  0  0  0  0  0  0  0
    0.1773    1.2759   -0.9683 C   0  0  0  0  0  0  0  0  0  0  0  0
    0.2713    2.6323   -1.3392 C   0  0  0  0  0  0  0  0  0  0  0  0
   -0.6259    3.2282   -1.4440 H   0  0  0  0  0  0  0  0  0  0  0  0
    1.5325    3.2162   -1.5677 C   0  0  0  0  0  0  0  0  0  0  0  0
    1.6007    4.2547   -1.8531 H   0  0  0  0  0  0  0  0  0  0  0  0
    2.7038    2.4415   -1.4210 C   0  0  0  0  0  0  0  0  0  0  0  0
    3.9249    2.9961   -1.6362 O   0  0  0  0  0  0  0  0  0  0  0  0
    3.8609    3.8916   -1.9708 H   0  0  0  0  0  0  0  0  0  0  0  0
    2.6080    1.0856   -1.0450 C   0  0  0  0  0  0  0  0  0  0  0  0
    3.5106    0.5025   -0.9404 H   0  0  0  0  0  0  0  0  0  0  0  0
    1.3457    0.5036   -0.8218 C   0  0  0  0  0  0  0  0  0  0  0  0
    1.2725   -0.5406   -0.5420 H   0  0  0  0  0  0  0  0  0  0  0  0
   -0.8664    0.0378    1.7736 C   0  0  0  0  0  0  0  0  0  0  0  0
    0.2529   -0.0672    2.2760 O   0  0  0  0  0  0  0  0  0  0  0  0
   -1.8947    0.5991    2.4221 N   0  0  0  0  0  0  0  0  0  0  0  0
   -2.7942    0.5936    1.9635 H   0  0  0  0  0  0  0  0  0  0  0  0
   -1.8170    1.1453    3.7750 C   0  0  0  0  0  0  0  0  0  0  0  0
   -0.9697    1.8290    3.8506 H   0  0  0  0  0  0  0  0  0  0  0  0
   -2.7354    1.6828    4.0167 H   0  0  0  0  0  0  0  0  0  0  0  0
   -1.6754    0.3334    4.4914 H   0  0  0  0  0  0  0  0  0  0  0  0
  5  6  2  0  0  0  0
  5  7  1  0  0  0  0
  2  3  1  0  0  0  0
  2  4  1  0  0  0  0
  2  5  1  0  0  0  0
  1  2  1  0  0  0  0
 26 27  2  0  0  0  0
 26 28  1  0  0  0  0
 24 25  1  0  0  0  0
 22 23  1  0  0  0  0
 22 24  2  0  0  0  0
 20 21  1  0  0  0  0
 19 20  1  0  0  0  0
 19 22  1  0  0  0  0
 17 18  1  0  0  0  0
 17 19  2  0  0  0  0
 15 16  1  0  0  0  0
 15 17  1  0  0  0  0
 14 15  2  0  0  0  0
 14 24  1  0  0  0  0
 11 12  1  0  0  0  0
 11 13  1  0  0  0  0
 11 14  1  0  0  0  0
  9 10  1  0  0  0  0
  9 11  1  0  0  0  0
  9 26  1  0  0  0  0
  7  8  1  0  0  0  0
  7  9  1  0  0  0  0
 30 31  1  0  0  0  0
 30 32  1  0  0  0  0
 30 33  1  0  0  0  0
 28 29  1  0  0  0  0
 28 30  1  0  0  0  0
M  END
$$$$
default_name
  -OEChem-02102213163D

 33 33  0     1  0  0  0  0  0999 V2000
   -4.0702   -3.8485    1.4554 H   0  0  0  0  0  0  0  0  0  0  0  0
   -4.0012   -2.9605    0.8284 C   0  0  0  0  0  0  0  0  0  0  0  0
   -4.7652   -2.2435    1.1234 H   0  0  0  0  0  0  0  0  0  0  0  0
   -4.1352   -3.2385   -0.2156 H   0  0  0  0  0  0  0  0  0  0  0  0
   -2.6362   -2.3395    1.0094 C   0  0  0  0  0  0  0  0  0  0  0  0
   -1.8292   -2.8395    1.7814 O   0  0  0  0  0  0  0  0  0  0  0  0
   -2.3832   -1.2445    0.2964 N   0  0  0  0  0  0  0  0  0  0  0  0
   -3.1102   -0.8685   -0.2946 H   0  0  0  0  0  0  0  0  0  0  0  0
   -1.1292   -0.4875    0.3524 C   0  0  1  0  0  0  0  0  0  0  0  0
   -0.3087   -1.1556    0.0882 H   0  0  0  0  0  0  0  0  0  0  0  0
   -1.1749    0.6534   -0.6787 C   0  0  0  0  0  0  0  0  0  0  0  0
   -1.5781    0.2680   -1.6161 H   0  0  0  0  0  0  0  0  0  0  0  0
   -1.8589    1.4252   -0.3216 H   0  0  0  0  0  0  0  0  0  0  0  0
    0.1773    1.2759   -0.9683 C   0  0  0  0  0  0  0  0  0  0  0  0
    0.3174    2.6769   -1.0281 C   0  0  0  0  0  0  0  0  0  0  0  0
   -0.5472    3.3136   -0.8931 H   0  0  0  0  0  0  0  0  0  0  0  0
    1.5830    3.2511   -1.2572 C   0  0  0  0  0  0  0  0  0  0  0  0
    1.6863    4.3243   -1.3040 H   0  0  0  0  0  0  0  0  0  0  0  0
    2.7128    2.4208   -1.4233 C   0  0  0  0  0  0  0  0  0  0  0  0
    3.9381    2.9648   -1.6418 O   0  0  0  0  0  0  0  0  0  0  0  0
    3.8964    3.9154   -1.7538 H   0  0  0  0  0  0  0  0  0  0  0  0
    2.5716    1.0191   -1.3582 C   0  0  0  0  0  0  0  0  0  0  0  0
    3.4422    0.3946   -1.4911 H   0  0  0  0  0  0  0  0  0  0  0  0
    1.3045    0.4481   -1.1337 C   0  0  0  0  0  0  0  0  0  0  0  0
    1.1952   -0.6291   -1.0930 H   0  0  0  0  0  0  0  0  0  0  0  0
   -0.8664    0.0378    1.7736 C   0  0  0  0  0  0  0  0  0  0  0  0
    0.2529   -0.0672    2.2760 O   0  0  0  0  0  0  0  0  0  0  0  0
   -1.8947    0.5991    2.4221 N   0  0  0  0  0  0  0  0  0  0  0  0
   -2.7942    0.5936    1.9635 H   0  0  0  0  0  0  0  0  0  0  0  0
   -1.8170    1.1453    3.7750 C   0  0  0  0  0  0  0  0  0  0  0  0
   -0.9697    1.8290    3.8506 H   0  0  0  0  0  0  0  0  0  0  0  0
   -2.7354    1.6828    4.0167 H   0  0  0  0  0  0  0  0  0  0  0  0
   -1.6754    0.3334    4.4914 H   0  0  0  0  0  0  0  0  0  0  0  0
  5  6  2  0  0  0  0
  5  7  1  0  0  0  0
  2  3  1  0  0  0  0
  2  4  1  0  0  0  0
  2  5  1  0  0  0  0
  1  2  1  0  0  0  0
 26 27  2  0  0  0  0
 26 28  1  0  0  0  0
 24 25  1  0  0  0  0
 22 23  1  0  0  0  0
 22 24  2  0  0  0  0
 20 21  1  0  0  0  0
 19 20  1  0  0  0  0
 19 22  1  0  0  0  0
 17 18  1  0  0  0  0
 17 19  2  0  0  0  0
 15 16  1  0  0  0  0
 15 17  1  0  0  0  0
 14 15  2  0  0  0  0
 14 24  1  0  0  0  0
 11 12  1  0  0  0  0
 11 13  1  0  0  0  0
 11 14  1  0  0  0  0
  9 10  1  0  0  0  0
  9 11  1  0  0  0  0
  9 26  1  0  0  0  0
  7  8  1  0  0  0  0
  7  9  1  0  0  0  0
 30 31  1  0  0  0  0
 30 32  1  0  0  0  0
 30 33  1  0  0  0  0
 28 29  1  0  0  0  0
 28 30  1  0  0  0  0
M  END
$$$$
default_name
  -OEChem-02102213163D

 33 33  0     1  0  0  0  0  0999 V2000
   -4.0702   -3.8485    1.4554 H   0  0  0  0  0  0  0  0  0  0  0  0
   -4.0012   -2.9605    0.8284 C   0  0  0  0  0  0  0  0  0  0  0  0
   -4.7652   -2.2435    1.1234 H   0  0  0  0  0  0  0  0  0  0  0  0
   -4.1352   -3.2385   -0.2156 H   0  0  0  0  0  0  0  0  0  0  0  0
   -2.6362   -2.3395    1.0094 C   0  0  0  0  0  0  0  0  0  0  0  0
   -1.8292   -2.8395    1.7814 O   0  0  0  0  0  0  0  0  0  0  0  0
   -2.3832   -1.2445    0.2964 N   0  0  0  0  0  0  0  0  0  0  0  0
   -3.1102   -0.8685   -0.2946 H   0  0  0  0  0  0  0  0  0  0  0  0
   -1.1292   -0.4875    0.3524 C   0  0  1  0  0  0  0  0  0  0  0  0
   -0.3087   -1.1556    0.0882 H   0  0  0  0  0  0  0  0  0  0  0  0
   -1.1749    0.6534   -0.6787 C   0  0  0  0  0  0  0  0  0  0  0  0
   -1.5781    0.2680   -1.6161 H   0  0  0  0  0  0  0  0  0  0  0  0
   -1.8589    1.4252   -0.3216 H   0  0  0  0  0  0  0  0  0  0  0  0
    0.1773    1.2759   -0.9683 C   0  0  0  0  0  0  0  0  0  0  0  0
    0.3971    2.6460   -0.7223 C   0  0  0  0  0  0  0  0  0  0  0  0
   -0.4084    3.2651   -0.3495 H   0  0  0  0  0  0  0  0  0  0  0  0
    1.6664    3.2106   -0.9547 C   0  0  0  0  0  0  0  0  0  0  0  0
    1.8308    4.2605   -0.7667 H   0  0  0  0  0  0  0  0  0  0  0  0
    2.7203    2.4008   -1.4312 C   0  0  0  0  0  0  0  0  0  0  0  0
    3.9488    2.9351   -1.6557 O   0  0  0  0  0  0  0  0  0  0  0  0
    3.9549    3.8865   -1.5426 H   0  0  0  0  0  0  0  0  0  0  0  0
    2.4998    1.0289   -1.6722 C   0  0  0  0  0  0  0  0  0  0  0  0
    3.3124    0.4210   -2.0407 H   0  0  0  0  0  0  0  0  0  0  0  0
    1.2288    0.4685   -1.4433 C   0  0  0  0  0  0  0  0  0  0  0  0
    1.0577   -0.5837   -1.6375 H   0  0  0  0  0  0  0  0  0  0  0  0
   -0.8664    0.0378    1.7736 C   0  0  0  0  0  0  0  0  0  0  0  0
    0.2529   -0.0672    2.2760 O   0  0  0  0  0  0  0  0  0  0  0  0
   -1.8947    0.5991    2.4221 N   0  0  0  0  0  0  0  0  0  0  0  0
   -2.7942    0.5936    1.9635 H   0  0  0  0  0  0  0  0  0  0  0  0
   -1.8170    1.1453    3.7750 C   0  0  0  0  0  0  0  0  0  0  0  0
   -0.9697    1.8290    3.8506 H   0  0  0  0  0  0  0  0  0  0  0  0
   -2.7354    1.6828    4.0167 H   0  0  0  0  0  0  0  0  0  0  0  0
   -1.6754    0.3334    4.4914 H   0  0  0  0  0  0  0  0  0  0  0  0
  5  6  2  0  0  0  0
  5  7  1  0  0  0  0
  2  3  1  0  0  0  0
  2  4  1  0  0  0  0
  2  5  1  0  0  0  0
  1  2  1  0  0  0  0
 26 27  2  0  0  0  0
 26 28  1  0  0  0  0
 24 25  1  0  0  0  0
 22 23  1  0  0  0  0
 22 24  2  0  0  0  0
 20 21  1  0  0  0  0
 19 20  1  0  0  0  0
 19 22  1  0  0  0  0
 17 18  1  0  0  0  0
 17 19  2  0  0  0  0
 15 16  1  0  0  0  0
 15 17  1  0  0  0  0
 14 15  2  0  0  0  0
 14 24  1  0  0  0  0
 11 12  1  0  0  0  0
 11 13  1  0  0  0  0
 11 14  1  0  0  0  0
  9 10  1  0  0  0  0
  9 11  1  0  0  0  0
  9 26  1  0  0  0  0
  7  8  1  0  0  0  0
  7  9  1  0  0  0  0
 30 31  1  0  0  0  0
 30 32  1  0  0  0  0
 30 33  1  0  0  0  0
 28 29  1  0  0  0  0
 28 30  1  0  0  0  0
M  END
$$$$
default_name
  -OEChem-02102213163D

 33 33  0     1  0  0  0  0  0999 V2000
   -4.0702   -3.8485    1.4554 H   0  0  0  0  0  0  0  0  0  0  0  0
   -4.0012   -2.9605    0.8284 C   0  0  0  0  0  0  0  0  0  0  0  0
   -4.7652   -2.2435    1.1234 H   0  0  0  0  0  0  0  0  0  0  0  0
   -4.1352   -3.2385   -0.2156 H   0  0  0  0  0  0  0  0  0  0  0  0
   -2.6362   -2.3395    1.0094 C   0  0  0  0  0  0  0  0  0  0  0  0
   -1.8292   -2.8395    1.7814 O   0  0  0  0  0  0  0  0  0  0  0  0
   -2.3832   -1.2445    0.2964 N   0  0  0  0  0  0  0  0  0  0  0  0
   -3.1102   -0.8685   -0.2946 H   0  0  0  0  0  0  0  0  0  0  0  0
   -1.1292   -0.4875    0.3524 C   0  0  1  0  0  0  0  0  0  0  0  0
   -0.3087   -1.1556    0.0882 H   0  0  0  0  0  0  0  0  0  0  0  0
   -1.1749    0.6534   -0.6787 C   0  0  0  0  0  0  0  0  0  0  0  0
   -1.5781    0.2680   -1.6161 H   0  0  0  0  0  0  0  0  0  0  0  0
   -1.8589    1.4252   -0.3216 H   0  0  0  0  0  0  0  0  0  0  0  0
    0.1773    1.2759   -0.9683 C   0  0  0  0  0  0  0  0  0  0  0  0
    0.5051    2.5416   -0.4424 C   0  0  0  0  0  0  0  0  0  0  0  0
   -0.2190    3.0860    0.1495 H   0  0  0  0  0  0  0  0  0  0  0  0
    1.7771    3.0976   -0.6806 C   0  0  0  0  0  0  0  0  0  0  0  0
    2.0242    4.0677   -0.2777 H   0  0  0  0  0  0  0  0  0  0  0  0
    2.7257    2.3830   -1.4443 C   0  0  0  0  0  0  0  0  0  0  0  0
    3.9561    2.9092   -1.6772 O   0  0  0  0  0  0  0  0  0  0  0  0
    4.0325    3.8070   -1.3514 H   0  0  0  0  0  0  0  0  0  0  0  0
    2.3976    1.1143   -1.9657 C   0  0  0  0  0  0  0  0  0  0  0  0
    3.1299    0.5797   -2.5518 H   0  0  0  0  0  0  0  0  0  0  0  0
    1.1237    0.5634   -1.7297 C   0  0  0  0  0  0  0  0  0  0  0  0
    0.8692   -0.4073   -2.1384 H   0  0  0  0  0  0  0  0  0  0  0  0
   -0.8664    0.0378    1.7736 C   0  0  0  0  0  0  0  0  0  0  0  0
    0.2529   -0.0672    2.2760 O   0  0  0  0  0  0  0  0  0  0  0  0
   -1.8947    0.5991    2.4221 N   0  0  0  0  0  0  0  0  0  0  0  0
   -2.7942    0.5936    1.9635 H   0  0  0  0  0  0  0  0  0  0  0  0
   -1.8170    1.1453    3.7750 C   0  0  0  0  0  0  0  0  0  0  0  0
   -0.9697    1.8290    3.8506 H   0  0  0  0  0  0  0  0  0  0  0  0
   -2.7354    1.6828    4.0167 H   0  0  0  0  0  0  0  0  0  0  0  0
   -1.6754    0.3334    4.4914 H   0  0  0  0  0  0  0  0  0  0  0  0
  5  6  2  0  0  0  0
  5  7  1  0  0  0  0
  2  3  1  0  0  0  0
  2  4  1  0  0  0  0
  2  5  1  0  0  0  0
  1  2  1  0  0  0  0
 26 27  2  0  0  0  0
 26 28  1  0  0  0  0
 24 25  1  0  0  0  0
 22 23  1  0  0  0  0
 22 24  2  0  0  0  0
 20 21  1  0  0  0  0
 19 20  1  0  0  0  0
 19 22  1  0  0  0  0
 17 18  1  0  0  0  0
 17 19  2  0  0  0  0
 15 16  1  0  0  0  0
 15 17  1  0  0  0  0
 14 15  2  0  0  0  0
 14 24  1  0  0  0  0
 11 12  1  0  0  0  0
 11 13  1  0  0  0  0
 11 14  1  0  0  0  0
  9 10  1  0  0  0  0
  9 11  1  0  0  0  0
  9 26  1  0  0  0  0
  7  8  1  0  0  0  0
  7  9  1  0  0  0  0
 30 31  1  0  0  0  0
 30 32  1  0  0  0  0
 30 33  1  0  0  0  0
 28 29  1  0  0  0  0
 28 30  1  0  0  0  0
M  END
$$$$
default_name
  -OEChem-02102213163D

 33 33  0     1  0  0  0  0  0999 V2000
   -4.0702   -3.8485    1.4554 H   0  0  0  0  0  0  0  0  0  0  0  0
   -4.0012   -2.9605    0.8284 C   0  0  0  0  0  0  0  0  0  0  0  0
   -4.7652   -2.2435    1.1234 H   0  0  0  0  0  0  0  0  0  0  0  0
   -4.1352   -3.2385   -0.2156 H   0  0  0  0  0  0  0  0  0  0  0  0
   -2.6362   -2.3395    1.0094 C   0  0  0  0  0  0  0  0  0  0  0  0
   -1.8292   -2.8395    1.7814 O   0  0  0  0  0  0  0  0  0  0  0  0
   -2.3832   -1.2445    0.2964 N   0  0  0  0  0  0  0  0  0  0  0  0
   -3.1102   -0.8685   -0.2946 H   0  0  0  0  0  0  0  0  0  0  0  0
   -1.1292   -0.4875    0.3524 C   0  0  1  0  0  0  0  0  0  0  0  0
   -0.3087   -1.1556    0.0882 H   0  0  0  0  0  0  0  0  0  0  0  0
   -1.1749    0.6534   -0.6787 C   0  0  0  0  0  0  0  0  0  0  0  0
   -1.5781    0.2680   -1.6161 H   0  0  0  0  0  0  0  0  0  0  0  0
   -1.8589    1.4252   -0.3216 H   0  0  0  0  0  0  0  0  0  0  0  0
    0.1773    1.2759   -0.9683 C   0  0  0  0  0  0  0  0  0  0  0  0
    0.6340    2.3709   -0.2077 C   0  0  0  0  0  0  0  0  0  0  0  0
    0.0080    2.7884    0.5701 H   0  0  0  0  0  0  0  0  0  0  0  0
    1.9076    2.9196   -0.4537 C   0  0  0  0  0  0  0  0  0  0  0  0
    2.2535    3.7591    0.1296 H   0  0  0  0  0  0  0  0  0  0  0  0
    2.7286    2.3686   -1.4616 C   0  0  0  0  0  0  0  0  0  0  0  0
    3.9597    2.8887   -1.7047 O   0  0  0  0  0  0  0  0  0  0  0  0
    4.1238    3.6822   -1.1934 H   0  0  0  0  0  0  0  0  0  0  0  0
    2.2720    1.2697   -2.2185 C   0  0  0  0  0  0  0  0  0  0  0  0
    2.9071    0.8599   -2.9893 H   0  0  0  0  0  0  0  0  0  0  0  0
    0.9966    0.7263   -1.9733 C   0  0  0  0  0  0  0  0  0  0  0  0
    0.6427   -0.1120   -2.5614 H   0  0  0  0  0  0  0  0  0  0  0  0
   -0.8664    0.0378    1.7736 C   0  0  0  0  0  0  0  0  0  0  0  0
    0.2529   -0.0672    2.2760 O   0  0  0  0  0  0  0  0  0  0  0  0
   -1.8947    0.5991    2.4221 N   0  0  0  0  0  0  0  0  0  0  0  0
   -2.7942    0.5936    1.9635 H   0  0  0  0  0  0  0  0  0  0  0  0
   -1.8170    1.1453    3.7750 C   0  0  0  0  0  0  0  0  0  0  0  0
   -0.9697    1.8290    3.8506 H   0  0  0  0  0  0  0  0  0  0  0  0
   -2.7354    1.6828    4.0167 H   0  0  0  0  0  0  0  0  0  0  0  0
   -1.6754    0.3334    4.4914 H   0  0  0  0  0  0  0  0  0  0  0  0
  5  6  2  0  0  0  0
  5  7  1  0  0  0  0
  2  3  1  0  0  0  0
  2  4  1  0  0  0  0
  2  5  1  0  0  0  0
  1  2  1  0  0  0  0
 26 27  2  0  0  0  0
 26 28  1  0  0  0  0
 24 25  1  0  0  0  0
 22 23  1  0  0  0  0
 22 24  2  0  0  0  0
 20 21  1  0  0  0  0
 19 20  1  0  0  0  0
 19 22  1  0  0  0  0
 17 18  1  0  0  0  0
 17 19  2  0  0  0  0
 15 16  1  0  0  0  0
 15 17  1  0  0  0  0
 14 15  2  0  0  0  0
 14 24  1  0  0  0  0
 11 12  1  0  0  0  0
 11 13  1  0  0  0  0
 11 14  1  0  0  0  0
  9 10  1  0  0  0  0
  9 11  1  0  0  0  0
  9 26  1  0  0  0  0
  7  8  1  0  0  0  0
  7  9  1  0  0  0  0
 30 31  1  0  0  0  0
 30 32  1  0  0  0  0
 30 33  1  0  0  0  0
 28 29  1  0  0  0  0
 28 30  1  0  0  0  0
M  END
$$$$
default_name
  -OEChem-02102213163D

 33 33  0     1  0  0  0  0  0999 V2000
   -4.0702   -3.8485    1.4554 H   0  0  0  0  0  0  0  0  0  0  0  0
   -4.0012   -2.9605    0.8284 C   0  0  0  0  0  0  0  0  0  0  0  0
   -4.7652   -2.2435    1.1234 H   0  0  0  0  0  0  0  0  0  0  0  0
   -4.1352   -3.2385   -0.2156 H   0  0  0  0  0  0  0  0  0  0  0  0
   -2.6362   -2.3395    1.0094 C   0  0  0  0  0  0  0  0  0  0  0  0
   -1.8292   -2.8395    1.7814 O   0  0  0  0  0  0  0  0  0  0  0  0
   -2.3832   -1.2445    0.2964 N   0  0  0  0  0  0  0  0  0  0  0  0
   -3.1102   -0.8685   -0.2946 H   0  0  0  0  0  0  0  0  0  0  0  0
   -1.1292   -0.4875    0.3524 C   0  0  1  0  0  0  0  0  0  0  0  0
   -0.3087   -1.1556    0.0882 H   0  0  0  0  0  0  0  0  0  0  0  0
   -1.1749    0.6534   -0.6787 C   0  0  0  0  0  0  0  0  0  0  0  0
   -1.5781    0.2680   -1.6161 H   0  0  0  0  0  0  0  0  0  0  0  0
   -1.8589    1.4252   -0.3216 H   0  0  0  0  0  0  0  0  0  0  0  0
    0.1773    1.2759   -0.9683 C   0  0  0  0  0  0  0  0  0  0  0  0
    0.7750    2.1454   -0.0340 C   0  0  0  0  0  0  0  0  0  0  0  0
    0.2573    2.3926    0.8836 H   0  0  0  0  0  0  0  0  0  0  0  0
    2.0490    2.6890   -0.2895 C   0  0  0  0  0  0  0  0  0  0  0  0
    2.5030    3.3557    0.4274 H   0  0  0  0  0  0  0  0  0  0  0  0
    2.7289    2.3585   -1.4820 C   0  0  0  0  0  0  0  0  0  0  0  0
    3.9592    2.8751   -1.7363 O   0  0  0  0  0  0  0  0  0  0  0  0
    4.2226    3.5207   -1.0792 H   0  0  0  0  0  0  0  0  0  0  0  0
    2.1314    1.4843   -2.4135 C   0  0  0  0  0  0  0  0  0  0  0  0
    2.6594    1.2426   -3.3237 H   0  0  0  0  0  0  0  0  0  0  0  0
    0.8559    0.9462   -2.1574 C   0  0  0  0  0  0  0  0  0  0  0  0
    0.3935    0.2820   -2.8778 H   0  0  0  0  0  0  0  0  0  0  0  0
   -0.8664    0.0378    1.7736 C   0  0  0  0  0  0  0  0  0  0  0  0
    0.2529   -0.0672    2.2760 O   0  0  0  0  0  0  0  0  0  0  0  0
   -1.8947    0.5991    2.4221 N   0  0  0  0  0  0  0  0  0  0  0  0
   -2.7942    0.5936    1.9635 H   0  0  0  0  0  0  0  0  0  0  0  0
   -1.8170    1.1453    3.7750 C   0  0  0  0  0  0  0  0  0  0  0  0
   -0.9697    1.8290    3.8506 H   0  0  0  0  0  0  0  0  0  0  0  0
   -2.7354    1.6828    4.0167 H   0  0  0  0  0  0  0  0  0  0  0  0
   -1.6754    0.3334    4.4914 H   0  0  0  0  0  0  0  0  0  0  0  0
  5  6  2  0  0  0  0
  5  7  1  0  0  0  0
  2  3  1  0  0  0  0
  2  4  1  0  0  0  0
  2  5  1  0  0  0  0
  1  2  1  0  0  0  0
 26 27  2  0  0  0  0
 26 28  1  0  0  0  0
 24 25  1  0  0  0  0
 22 23  1  0  0  0  0
 22 24  2  0  0  0  0
 20 21  1  0  0  0  0
 19 20  1  0  0  0  0
 19 22  1  0  0  0  0
 17 18  1  0  0  0  0
 17 19  2  0  0  0  0
 15 16  1  0  0  0  0
 15 17  1  0  0  0  0
 14 15  2  0  0  0  0
 14 24  1  0  0  0  0
 11 12  1  0  0  0  0
 11 13  1  0  0  0  0
 11 14  1  0  0  0  0
  9 10  1  0  0  0  0
  9 11  1  0  0  0  0
  9 26  1  0  0  0  0
  7  8  1  0  0  0  0
  7  9  1  0  0  0  0
 30 31  1  0  0  0  0
 30 32  1  0  0  0  0
 30 33  1  0  0  0  0
 28 29  1  0  0  0  0
 28 30  1  0  0  0  0
M  END
$$$$
default_name
  -OEChem-02102213163D

 33 33  0     1  0  0  0  0  0999 V2000
   -4.0702   -3.8485    1.4554 H   0  0  0  0  0  0  0  0  0  0  0  0
   -4.0012   -2.9605    0.8284 C   0  0  0  0  0  0  0  0  0  0  0  0
   -4.7652   -2.2435    1.1234 H   0  0  0  0  0  0  0  0  0  0  0  0
   -4.1352   -3.2385   -0.2156 H   0  0  0  0  0  0  0  0  0  0  0  0
   -2.6362   -2.3395    1.0094 C   0  0  0  0  0  0  0  0  0  0  0  0
   -1.8292   -2.8395    1.7814 O   0  0  0  0  0  0  0  0  0  0  0  0
   -2.3832   -1.2445    0.2964 N   0  0  0  0  0  0  0  0  0  0  0  0
   -3.1102   -0.8685   -0.2946 H   0  0  0  0  0  0  0  0  0  0  0  0
   -1.1292   -0.4875    0.3524 C   0  0  1  0  0  0  0  0  0  0  0  0
   -0.3087   -1.1556    0.0882 H   0  0  0  0  0  0  0  0  0  0  0  0
   -1.1749    0.6534   -0.6787 C   0  0  0  0  0  0  0  0  0  0  0  0
   -1.5781    0.2680   -1.6161 H   0  0  0  0  0  0  0  0  0  0  0  0
   -1.8589    1.4252   -0.3216 H   0  0  0  0  0  0  0  0  0  0  0  0
    0.1773    1.2759   -0.9683 C   0  0  0  0  0  0  0  0  0  0  0  0
    0.9184    1.8806    0.0667 C   0  0  0  0  0  0  0  0  0  0  0  0
    0.5119    1.9257    1.0686 H   0  0  0  0  0  0  0  0  0  0  0  0
    2.1915    2.4213   -0.1991 C   0  0  0  0  0  0  0  0  0  0  0  0
    2.7556    2.8850    0.5955 H   0  0  0  0  0  0  0  0  0  0  0  0
    2.7265    2.3534   -1.5040 C   0  0  0  0  0  0  0  0  0  0  0  0
    3.9546    2.8693   -1.7700 O   0  0  0  0  0  0  0  0  0  0  0  0
    4.3222    3.3334   -1.0167 H   0  0  0  0  0  0  0  0  0  0  0  0
    1.9855    1.7435   -2.5374 C   0  0  0  0  0  0  0  0  0  0  0  0
    2.4034    1.7017   -3.5320 H   0  0  0  0  0  0  0  0  0  0  0  0
    0.7114    1.2081   -2.2696 C   0  0  0  0  0  0  0  0  0  0  0  0
    0.1387    0.7480   -3.0661 H   0  0  0  0  0  0  0  0  0  0  0  0
   -0.8664    0.0378    1.7736 C   0  0  0  0  0  0  0  0  0  0  0  0
    0.2529   -0.0672    2.2760 O   0  0  0  0  0  0  0  0  0  0  0  0
   -1.8947    0.5991    2.4221 N   0  0  0  0  0  0  0  0  0  0  0  0
   -2.7942    0.5936    1.9635 H   0  0  0  0  0  0  0  0  0  0  0  0
   -1.8170    1.1453    3.7750 C   0  0  0  0  0  0  0  0  0  0  0  0
   -0.9697    1.8290    3.8506 H   0  0  0  0  0  0  0  0  0  0  0  0
   -2.7354    1.6828    4.0167 H   0  0  0  0  0  0  0  0  0  0  0  0
   -1.6754    0.3334    4.4914 H   0  0  0  0  0  0  0  0  0  0  0  0
  5  6  2  0  0  0  0
  5  7  1  0  0  0  0
  2  3  1  0  0  0  0
  2  4  1  0  0  0  0
  2  5  1  0  0  0  0
  1  2  1  0  0  0  0
 26 27  2  0  0  0  0
 26 28  1  0  0  0  0
 24 25  1  0  0  0  0
 22 23  1  0  0  0  0
 22 24  2  0  0  0  0
 20 21  1  0  0  0  0
 19 20  1  0  0  0  0
 19 22  1  0  0  0  0
 17 18  1  0  0  0  0
 17 19  2  0  0  0  0
 15 16  1  0  0  0  0
 15 17  1  0  0  0  0
 14 15  2  0  0  0  0
 14 24  1  0  0  0  0
 11 12  1  0  0  0  0
 11 13  1  0  0  0  0
 11 14  1  0  0  0  0
  9 10  1  0  0  0  0
  9 11  1  0  0  0  0
  9 26  1  0  0  0  0
  7  8  1  0  0  0  0
  7  9  1  0  0  0  0
 30 31  1  0  0  0  0
 30 32  1  0  0  0  0
 30 33  1  0  0  0  0
 28 29  1  0  0  0  0
 28 30  1  0  0  0  0
M  END
$$$$
default_name
  -OEChem-02102213163D

 33 33  0     1  0  0  0  0  0999 V2000
   -4.0702   -3.8485    1.4554 H   0  0  0  0  0  0  0  0  0  0  0  0
   -4.0012   -2.9605    0.8284 C   0  0  0  0  0  0  0  0  0  0  0  0
   -4.7652   -2.2435    1.1234 H   0  0  0  0  0  0  0  0  0  0  0  0
   -4.1352   -3.2385   -0.2156 H   0  0  0  0  0  0  0  0  0  0  0  0
   -2.6362   -2.3395    1.0094 C   0  0  0  0  0  0  0  0  0  0  0  0
   -1.8292   -2.8395    1.7814 O   0  0  0  0  0  0  0  0  0  0  0  0
   -2.3832   -1.2445    0.2964 N   0  0  0  0  0  0  0  0  0  0  0  0
   -3.1102   -0.8685   -0.2946 H   0  0  0  0  0  0  0  0  0  0  0  0
   -1.1292   -0.4875    0.3524 C   0  0  1  0  0  0  0  0  0  0  0  0
   -0.3087   -1.1556    0.0882 H   0  0  0  0  0  0  0  0  0  0  0  0
   -1.1749    0.6534   -0.6787 C   0  0  0  0  0  0  0  0  0  0  0  0
   -1.5781    0.2680   -1.6161 H   0  0  0  0  0  0  0  0  0  0  0  0
   -1.8589    1.4252   -0.3216 H   0  0  0  0  0  0  0  0  0  0  0  0
    0.1773    1.2759   -0.9683 C   0  0  0  0  0  0  0  0  0  0  0  0
    1.0546    1.5944    0.0876 C   0  0  0  0  0  0  0  0  0  0  0  0
    0.7543    1.4194    1.1124 H   0  0  0  0  0  0  0  0  0  0  0  0
    2.3256    2.1348   -0.1888 C   0  0  0  0  0  0  0  0  0  0  0  0
    2.9943    2.3790    0.6223 H   0  0  0  0  0  0  0  0  0  0  0  0
    2.7216    2.3537   -1.5262 C   0  0  0  0  0  0  0  0  0  0  0  0
    3.9464    2.8717   -1.8034 O   0  0  0  0  0  0  0  0  0  0  0  0
    4.4157    3.1332   -1.0101 H   0  0  0  0  0  0  0  0  0  0  0  0
    1.8443    2.0298   -2.5818 C   0  0  0  0  0  0  0  0  0  0  0  0
    2.1568    2.2058   -3.6001 H   0  0  0  0  0  0  0  0  0  0  0  0
    0.5728    1.4941   -2.3022 C   0  0  0  0  0  0  0  0  0  0  0  0
   -0.1043    1.2541   -3.1133 H   0  0  0  0  0  0  0  0  0  0  0  0
   -0.8664    0.0378    1.7736 C   0  0  0  0  0  0  0  0  0  0  0  0
    0.2529   -0.0672    2.2760 O   0  0  0  0  0  0  0  0  0  0  0  0
   -1.8947    0.5991    2.4221 N   0  0  0  0  0  0  0  0  0  0  0  0
   -2.7942    0.5936    1.9635 H   0  0  0  0  0  0  0  0  0  0  0  0
   -1.8170    1.1453    3.7750 C   0  0  0  0  0  0  0  0  0  0  0  0
   -0.9697    1.8290    3.8506 H   0  0  0  0  0  0  0  0  0  0  0  0
   -2.7354    1.6828    4.0167 H   0  0  0  0  0  0  0  0  0  0  0  0
   -1.6754    0.3334    4.4914 H   0  0  0  0  0  0  0  0  0  0  0  0
  5  6  2  0  0  0  0
  5  7  1  0  0  0  0
  2  3  1  0  0  0  0
  2  4  1  0  0  0  0
  2  5  1  0  0  0  0
  1  2  1  0  0  0  0
 26 27  2  0  0  0  0
 26 28  1  0  0  0  0
 24 25  1  0  0  0  0
 22 23  1  0  0  0  0
 22 24  2  0  0  0  0
 20 21  1  0  0  0  0
 19 20  1  0  0  0  0
 19 22  1  0  0  0  0
 17 18  1  0  0  0  0
 17 19  2  0  0  0  0
 15 16  1  0  0  0  0
 15 17  1  0  0  0  0
 14 15  2  0  0  0  0
 14 24  1  0  0  0  0
 11 12  1  0  0  0  0
 11 13  1  0  0  0  0
 11 14  1  0  0  0  0
  9 10  1  0  0  0  0
  9 11  1  0  0  0  0
  9 26  1  0  0  0  0
  7  8  1  0  0  0  0
  7  9  1  0  0  0  0
 30 31  1  0  0  0  0
 30 32  1  0  0  0  0
 30 33  1  0  0  0  0
 28 29  1  0  0  0  0
 28 30  1  0  0  0  0
M  END
$$$$
default_name
  -OEChem-02102213163D

 33 33  0     1  0  0  0  0  0999 V2000
   -4.0702   -3.8485    1.4554 H   0  0  0  0  0  0  0  0  0  0  0  0
   -4.0012   -2.9605    0.8284 C   0  0  0  0  0  0  0  0  0  0  0  0
   -4.7652   -2.2435    1.1234 H   0  0  0  0  0  0  0  0  0  0  0  0
   -4.1352   -3.2385   -0.2156 H   0  0  0  0  0  0  0  0  0  0  0  0
   -2.6362   -2.3395    1.0094 C   0  0  0  0  0  0  0  0  0  0  0  0
   -1.8292   -2.8395    1.7814 O   0  0  0  0  0  0  0  0  0  0  0  0
   -2.3832   -1.2445    0.2964 N   0  0  0  0  0  0  0  0  0  0  0  0
   -3.1102   -0.8685   -0.2946 H   0  0  0  0  0  0  0  0  0  0  0  0
   -1.1292   -0.4875    0.3524 C   0  0  1  0  0  0  0  0  0  0  0  0
   -0.3087   -1.1556    0.0882 H   0  0  0  0  0  0  0  0  0  0  0  0
   -1.1749    0.6534   -0.6787 C   0  0  0  0  0  0  0  0  0  0  0  0
   -1.5781    0.2680   -1.6161 H   0  0  0  0  0  0  0  0  0  0  0  0
   -1.8589    1.4252   -0.3216 H   0  0  0  0  0  0  0  0  0  0  0  0
    0.1773    1.2759   -0.9683 C   0  0  0  0  0  0  0  0  0  0  0  0
    1.1743    1.3065    0.0273 C   0  0  0  0  0  0  0  0  0  0  0  0
    0.9681    0.9082    1.0122 H   0  0  0  0  0  0  0  0  0  0  0  0
    2.4421    1.8491   -0.2591 C   0  0  0  0  0  0  0  0  0  0  0  0
    3.2026    1.8723    0.5062 H   0  0  0  0  0  0  0  0  0  0  0  0
    2.7145    2.3594   -1.5471 C   0  0  0  0  0  0  0  0  0  0  0  0
    3.9350    2.8821   -1.8342 O   0  0  0  0  0  0  0  0  0  0  0  0
    4.4969    2.9337   -1.0599 H   0  0  0  0  0  0  0  0  0  0  0  0
    1.7173    2.3235   -2.5436 C   0  0  0  0  0  0  0  0  0  0  0  0
    1.9363    2.7207   -3.5233 H   0  0  0  0  0  0  0  0  0  0  0  0
    0.4496    1.7846   -2.2529 C   0  0  0  0  0  0  0  0  0  0  0  0
   -0.3191    1.7658   -3.0163 H   0  0  0  0  0  0  0  0  0  0  0  0
   -0.8664    0.0378    1.7736 C   0  0  0  0  0  0  0  0  0  0  0  0
    0.2529   -0.0672    2.2760 O   0  0  0  0  0  0  0  0  0  0  0  0
   -1.8947    0.5991    2.4221 N   0  0  0  0  0  0  0  0  0  0  0  0
   -2.7942    0.5936    1.9635 H   0  0  0  0  0  0  0  0  0  0  0  0
   -1.8170    1.1453    3.7750 C   0  0  0  0  0  0  0  0  0  0  0  0
   -0.9697    1.8290    3.8506 H   0  0  0  0  0  0  0  0  0  0  0  0
   -2.7354    1.6828    4.0167 H   0  0  0  0  0  0  0  0  0  0  0  0
   -1.6754    0.3334    4.4914 H   0  0  0  0  0  0  0  0  0  0  0  0
  5  6  2  0  0  0  0
  5  7  1  0  0  0  0
  2  3  1  0  0  0  0
  2  4  1  0  0  0  0
  2  5  1  0  0  0  0
  1  2  1  0  0  0  0
 26 27  2  0  0  0  0
 26 28  1  0  0  0  0
 24 25  1  0  0  0  0
 22 23  1  0  0  0  0
 22 24  2  0  0  0  0
 20 21  1  0  0  0  0
 19 20  1  0  0  0  0
 19 22  1  0  0  0  0
 17 18  1  0  0  0  0
 17 19  2  0  0  0  0
 15 16  1  0  0  0  0
 15 17  1  0  0  0  0
 14 15  2  0  0  0  0
 14 24  1  0  0  0  0
 11 12  1  0  0  0  0
 11 13  1  0  0  0  0
 11 14  1  0  0  0  0
  9 10  1  0  0  0  0
  9 11  1  0  0  0  0
  9 26  1  0  0  0  0
  7  8  1  0  0  0  0
  7  9  1  0  0  0  0
 30 31  1  0  0  0  0
 30 32  1  0  0  0  0
 30 33  1  0  0  0  0
 28 29  1  0  0  0  0
 28 30  1  0  0  0  0
M  END
$$$$
default_name
  -OEChem-02102213163D

 33 33  0     1  0  0  0  0  0999 V2000
   -4.0702   -3.8485    1.4554 H   0  0  0  0  0  0  0  0  0  0  0  0
   -4.0012   -2.9605    0.8284 C   0  0  0  0  0  0  0  0  0  0  0  0
   -4.7652   -2.2435    1.1234 H   0  0  0  0  0  0  0  0  0  0  0  0
   -4.1352   -3.2385   -0.2156 H   0  0  0  0  0  0  0  0  0  0  0  0
   -2.6362   -2.3395    1.0094 C   0  0  0  0  0  0  0  0  0  0  0  0
   -1.8292   -2.8395    1.7814 O   0  0  0  0  0  0  0  0  0  0  0  0
   -2.3832   -1.2445    0.2964 N   0  0  0  0  0  0  0  0  0  0  0  0
   -3.1102   -0.8685   -0.2946 H   0  0  0  0  0  0  0  0  0  0  0  0
   -1.1292   -0.4875    0.3524 C   0  0  1  0  0  0  0  0  0  0  0  0
   -0.3087   -1.1556    0.0882 H   0  0  0  0  0  0  0  0  0  0  0  0
   -1.1749    0.6534   -0.6787 C   0  0  0  0  0  0  0  0  0  0  0  0
   -1.5781    0.2680   -1.6161 H   0  0  0  0  0  0  0  0  0  0  0  0
   -1.8589    1.4252   -0.3216 H   0  0  0  0  0  0  0  0  0  0  0  0
    0.1773    1.2759   -0.9683 C   0  0  0  0  0  0  0  0  0  0  0  0
    1.2692    1.0363   -0.1101 C   0  0  0  0  0  0  0  0  0  0  0  0
    1.1387    0.4271    0.7747 H   0  0  0  0  0  0  0  0  0  0  0  0
    2.5330    1.5836   -0.4053 C   0  0  0  0  0  0  0  0  0  0  0  0
    3.3665    1.3994    0.2549 H   0  0  0  0  0  0  0  0  0  0  0  0
    2.7058    2.3700   -1.5652 C   0  0  0  0  0  0  0  0  0  0  0  0
    3.9212    2.8998   -1.8603 O   0  0  0  0  0  0  0  0  0  0  0  0
    4.5602    2.7484   -1.1626 H   0  0  0  0  0  0  0  0  0  0  0  0
    1.6132    2.6046   -2.4255 C   0  0  0  0  0  0  0  0  0  0  0  0
    1.7568    3.2112   -3.3069 H   0  0  0  0  0  0  0  0  0  0  0  0
    0.3501    2.0600   -2.1252 C   0  0  0  0  0  0  0  0  0  0  0  0
   -0.4910    2.2484   -2.7817 H   0  0  0  0  0  0  0  0  0  0  0  0
   -0.8664    0.0378    1.7736 C   0  0  0  0  0  0  0  0  0  0  0  0
    0.2529   -0.0672    2.2760 O   0  0  0  0  0  0  0  0  0  0  0  0
   -1.8947    0.5991    2.4221 N   0  0  0  0  0  0  0  0  0  0  0  0
   -2.7942    0.5936    1.9635 H   0  0  0  0  0  0  0  0  0  0  0  0
   -1.8170    1.1453    3.7750 C   0  0  0  0  0  0  0  0  0  0  0  0
   -0.9697    1.8290    3.8506 H   0  0  0  0  0  0  0  0  0  0  0  0
   -2.7354    1.6828    4.0167 H   0  0  0  0  0  0  0  0  0  0  0  0
   -1.6754    0.3334    4.4914 H   0  0  0  0  0  0  0  0  0  0  0  0
  5  6  2  0  0  0  0
  5  7  1  0  0  0  0
  2  3  1  0  0  0  0
  2  4  1  0  0  0  0
  2  5  1  0  0  0  0
  1  2  1  0  0  0  0
 26 27  2  0  0  0  0
 26 28  1  0  0  0  0
 24 25  1  0  0  0  0
 22 23  1  0  0  0  0
 22 24  2  0  0  0  0
 20 21  1  0  0  0  0
 19 20  1  0  0  0  0
 19 22  1  0  0  0  0
 17 18  1  0  0  0  0
 17 19  2  0  0  0  0
 15 16  1  0  0  0  0
 15 17  1  0  0  0  0
 14 15  2  0  0  0  0
 14 24  1  0  0  0  0
 11 12  1  0  0  0  0
 11 13  1  0  0  0  0
 11 14  1  0  0  0  0
  9 10  1  0  0  0  0
  9 11  1  0  0  0  0
  9 26  1  0  0  0  0
  7  8  1  0  0  0  0
  7  9  1  0  0  0  0
 30 31  1  0  0  0  0
 30 32  1  0  0  0  0
 30 33  1  0  0  0  0
 28 29  1  0  0  0  0
 28 30  1  0  0  0  0
M  END
$$$$
default_name
  -OEChem-02102213163D

 33 33  0     1  0  0  0  0  0999 V2000
   -4.0702   -3.8485    1.4554 H   0  0  0  0  0  0  0  0  0  0  0  0
   -4.0012   -2.9605    0.8284 C   0  0  0  0  0  0  0  0  0  0  0  0
   -4.7652   -2.2435    1.1234 H   0  0  0  0  0  0  0  0  0  0  0  0
   -4.1352   -3.2385   -0.2156 H   0  0  0  0  0  0  0  0  0  0  0  0
   -2.6362   -2.3395    1.0094 C   0  0  0  0  0  0  0  0  0  0  0  0
   -1.8292   -2.8395    1.7814 O   0  0  0  0  0  0  0  0  0  0  0  0
   -2.3832   -1.2445    0.2964 N   0  0  0  0  0  0  0  0  0  0  0  0
   -3.1102   -0.8685   -0.2946 H   0  0  0  0  0  0  0  0  0  0  0  0
   -1.1292   -0.4875    0.3524 C   0  0  1  0  0  0  0  0  0  0  0  0
   -0.3087   -1.1556    0.0882 H   0  0  0  0  0  0  0  0  0  0  0  0
   -1.1749    0.6534   -0.6787 C   0  0  0  0  0  0  0  0  0  0  0  0
   -1.5781    0.2680   -1.6161 H   0  0  0  0  0  0  0  0  0  0  0  0
   -1.8589    1.4252   -0.3216 H   0  0  0  0  0  0  0  0  0  0  0  0
    0.1773    1.2759   -0.9683 C   0  0  0  0  0  0  0  0  0  0  0  0
    1.3329    0.8024   -0.3152 C   0  0  0  0  0  0  0  0  0  0  0  0
    1.2545    0.0087    0.4162 H   0  0  0  0  0  0  0  0  0  0  0  0
    2.5921    1.3563   -0.6175 C   0  0  0  0  0  0  0  0  0  0  0  0
    3.4747    0.9924   -0.1144 H   0  0  0  0  0  0  0  0  0  0  0  0
    2.6959    2.3849   -1.5793 C   0  0  0  0  0  0  0  0  0  0  0  0
    3.9060    2.9236   -1.8800 O   0  0  0  0  0  0  0  0  0  0  0  0
    4.6012    2.5900   -1.3114 H   0  0  0  0  0  0  0  0  0  0  0  0
    1.5391    2.8541   -2.2354 C   0  0  0  0  0  0  0  0  0  0  0  0
    1.6308    3.6440   -2.9656 H   0  0  0  0  0  0  0  0  0  0  0  0
    0.2813    2.3015   -1.9277 C   0  0  0  0  0  0  0  0  0  0  0  0
   -0.6082    2.6689   -2.4254 H   0  0  0  0  0  0  0  0  0  0  0  0
   -0.8664    0.0378    1.7736 C   0  0  0  0  0  0  0  0  0  0  0  0
    0.2529   -0.0672    2.2760 O   0  0  0  0  0  0  0  0  0  0  0  0
   -1.8947    0.5991    2.4221 N   0  0  0  0  0  0  0  0  0  0  0  0
   -2.7942    0.5936    1.9635 H   0  0  0  0  0  0  0  0  0  0  0  0
   -1.8170    1.1453    3.7750 C   0  0  0  0  0  0  0  0  0  0  0  0
   -0.9697    1.8290    3.8506 H   0  0  0  0  0  0  0  0  0  0  0  0
   -2.7354    1.6828    4.0167 H   0  0  0  0  0  0  0  0  0  0  0  0
   -1.6754    0.3334    4.4914 H   0  0  0  0  0  0  0  0  0  0  0  0
  5  6  2  0  0  0  0
  5  7  1  0  0  0  0
  2  3  1  0  0  0  0
  2  4  1  0  0  0  0
  2  5  1  0  0  0  0
  1  2  1  0  0  0  0
 26 27  2  0  0  0  0
 26 28  1  0  0  0  0
 24 25  1  0  0  0  0
 22 23  1  0  0  0  0
 22 24  2  0  0  0  0
 20 21  1  0  0  0  0
 19 20  1  0  0  0  0
 19 22  1  0  0  0  0
 17 18  1  0  0  0  0
 17 19  2  0  0  0  0
 15 16  1  0  0  0  0
 15 17  1  0  0  0  0
 14 15  2  0  0  0  0
 14 24  1  0  0  0  0
 11 12  1  0  0  0  0
 11 13  1  0  0  0  0
 11 14  1  0  0  0  0
  9 10  1  0  0  0  0
  9 11  1  0  0  0  0
  9 26  1  0  0  0  0
  7  8  1  0  0  0  0
  7  9  1  0  0  0  0
 30 31  1  0  0  0  0
 30 32  1  0  0  0  0
 30 33  1  0  0  0  0
 28 29  1  0  0  0  0
 28 30  1  0  0  0  0
M  END
$$$$
default_name
  -OEChem-02102213163D

 33 33  0     1  0  0  0  0  0999 V2000
   -4.0702   -3.8485    1.4554 H   0  0  0  0  0  0  0  0  0  0  0  0
   -4.0012   -2.9605    0.8284 C   0  0  0  0  0  0  0  0  0  0  0  0
   -4.7652   -2.2435    1.1234 H   0  0  0  0  0  0  0  0  0  0  0  0
   -4.1352   -3.2385   -0.2156 H   0  0  0  0  0  0  0  0  0  0  0  0
   -2.6362   -2.3395    1.0094 C   0  0  0  0  0  0  0  0  0  0  0  0
   -1.8292   -2.8395    1.7814 O   0  0  0  0  0  0  0  0  0  0  0  0
   -2.3832   -1.2445    0.2964 N   0  0  0  0  0  0  0  0  0  0  0  0
   -3.1102   -0.8685   -0.2946 H   0  0  0  0  0  0  0  0  0  0  0  0
   -1.1292   -0.4875    0.3524 C   0  0  1  0  0  0  0  0  0  0  0  0
   -0.3087   -1.1556    0.0882 H   0  0  0  0  0  0  0  0  0  0  0  0
   -1.1749    0.6534   -0.6787 C   0  0  0  0  0  0  0  0  0  0  0  0
   -1.5781    0.2680   -1.6161 H   0  0  0  0  0  0  0  0  0  0  0  0
   -1.8589    1.4252   -0.3216 H   0  0  0  0  0  0  0  0  0  0  0  0
    0.1773    1.2759   -0.9683 C   0  0  0  0  0  0  0  0  0  0  0  0
    1.3611    0.6206   -0.5741 C   0  0  0  0  0  0  0  0  0  0  0  0
    1.3076   -0.3185   -0.0390 H   0  0  0  0  0  0  0  0  0  0  0  0
    2.6155    1.1829   -0.8812 C   0  0  0  0  0  0  0  0  0  0  0  0
    3.5199    0.6792   -0.5765 H   0  0  0  0  0  0  0  0  0  0  0  0
    2.6856    2.4030   -1.5884 C   0  0  0  0  0  0  0  0  0  0  0  0
    3.8904    2.9520   -1.8919 O   0  0  0  0  0  0  0  0  0  0  0  0
    4.6172    2.4694   -1.4959 H   0  0  0  0  0  0  0  0  0  0  0  0
    1.5000    3.0548   -1.9863 C   0  0  0  0  0  0  0  0  0  0  0  0
    1.5666    3.9894   -2.5227 H   0  0  0  0  0  0  0  0  0  0  0  0
    0.2477    2.4926   -1.6739 C   0  0  0  0  0  0  0  0  0  0  0  0
   -0.6628    2.9986   -1.9718 H   0  0  0  0  0  0  0  0  0  0  0  0
   -0.8664    0.0378    1.7736 C   0  0  0  0  0  0  0  0  0  0  0  0
    0.2529   -0.0672    2.2760 O   0  0  0  0  0  0  0  0  0  0  0  0
   -1.8947    0.5991    2.4221 N   0  0  0  0  0  0  0  0  0  0  0  0
   -2.7942    0.5936    1.9635 H   0  0  0  0  0  0  0  0  0  0  0  0
   -1.8170    1.1453    3.7750 C   0  0  0  0  0  0  0  0  0  0  0  0
   -0.9697    1.8290    3.8506 H   0  0  0  0  0  0  0  0  0  0  0  0
   -2.7354    1.6828    4.0167 H   0  0  0  0  0  0  0  0  0  0  0  0
   -1.6754    0.3334    4.4914 H   0  0  0  0  0  0  0  0  0  0  0  0
  5  6  2  0  0  0  0
  5  7  1  0  0  0  0
  2  3  1  0  0  0  0
  2  4  1  0  0  0  0
  2  5  1  0  0  0  0
  1  2  1  0  0  0  0
 26 27  2  0  0  0  0
 26 28  1  0  0  0  0
 24 25  1  0  0  0  0
 22 23  1  0  0  0  0
 22 24  2  0  0  0  0
 20 21  1  0  0  0  0
 19 20  1  0  0  0  0
 19 22  1  0  0  0  0
 17 18  1  0  0  0  0
 17 19  2  0  0  0  0
 15 16  1  0  0  0  0
 15 17  1  0  0  0  0
 14 15  2  0  0  0  0
 14 24  1  0  0  0  0
 11 12  1  0  0  0  0
 11 13  1  0  0  0  0
 11 14  1  0  0  0  0
  9 10  1  0  0  0  0
  9 11  1  0  0  0  0
  9 26  1  0  0  0  0
  7  8  1  0  0  0  0
  7  9  1  0  0  0  0
 30 31  1  0  0  0  0
 30 32  1  0  0  0  0
 30 33  1  0  0  0  0
 28 29  1  0  0  0  0
 28 30  1  0  0  0  0
M  END
$$$$
default_name
  -OEChem-02102213163D

 33 33  0     1  0  0  0  0  0999 V2000
   -4.0702   -3.8485    1.4554 H   0  0  0  0  0  0  0  0  0  0  0  0
   -4.0012   -2.9605    0.8284 C   0  0  0  0  0  0  0  0  0  0  0  0
   -4.7652   -2.2435    1.1234 H   0  0  0  0  0  0  0  0  0  0  0  0
   -4.1352   -3.2385   -0.2156 H   0  0  0  0  0  0  0  0  0  0  0  0
   -2.6362   -2.3395    1.0094 C   0  0  0  0  0  0  0  0  0  0  0  0
   -1.8292   -2.8395    1.7814 O   0  0  0  0  0  0  0  0  0  0  0  0
   -2.3832   -1.2445    0.2964 N   0  0  0  0  0  0  0  0  0  0  0  0
   -3.1102   -0.8685   -0.2946 H   0  0  0  0  0  0  0  0  0  0  0  0
   -1.1292   -0.4875    0.3524 C   0  0  1  0  0  0  0  0  0  0  0  0
   -0.3087   -1.1556    0.0882 H   0  0  0  0  0  0  0  0  0  0  0  0
   -1.1749    0.6534   -0.6787 C   0  0  0  0  0  0  0  0  0  0  0  0
   -1.5781    0.2680   -1.6161 H   0  0  0  0  0  0  0  0  0  0  0  0
   -1.8589    1.4252   -0.3216 H   0  0  0  0  0  0  0  0  0  0  0  0
    0.1773    1.2759   -0.9683 C   0  0  0  0  0  0  0  0  0  0  0  0
    1.3519    0.5034   -0.8692 C   0  0  0  0  0  0  0  0  0  0  0  0
    1.2943   -0.5320   -0.5598 H   0  0  0  0  0  0  0  0  0  0  0  0
    2.6014    1.0751   -1.1784 C   0  0  0  0  0  0  0  0  0  0  0  0
    3.4990    0.4811   -1.0999 H   0  0  0  0  0  0  0  0  0  0  0  0
    2.6756    2.4231   -1.5919 C   0  0  0  0  0  0  0  0  0  0  0  0
    3.8755    2.9829   -1.8953 O   0  0  0  0  0  0  0  0  0  0  0  0
    4.6071    2.3946   -1.7038 H   0  0  0  0  0  0  0  0  0  0  0  0
    1.4987    3.1932   -1.6953 C   0  0  0  0  0  0  0  0  0  0  0  0
    1.5688    4.2240   -2.0083 H   0  0  0  0  0  0  0  0  0  0  0  0
    0.2517    2.6202   -1.3810 C   0  0  0  0  0  0  0  0  0  0  0  0
   -0.6511    3.2152   -1.4518 H   0  0  0  0  0  0  0  0  0  0  0  0
   -0.8664    0.0378    1.7736 C   0  0  0  0  0  0  0  0  0  0  0  0
    0.2529   -0.0672    2.2760 O   0  0  0  0  0  0  0  0  0  0  0  0
   -1.8947    0.5991    2.4221 N   0  0  0  0  0  0  0  0  0  0  0  0
   -2.7942    0.5936    1.9635 H   0  0  0  0  0  0  0  0  0  0  0  0
   -1.8170    1.1453    3.7750 C   0  0  0  0  0  0  0  0  0  0  0  0
   -0.9697    1.8290    3.8506 H   0  0  0  0  0  0  0  0  0  0  0  0
   -2.7354    1.6828    4.0167 H   0  0  0  0  0  0  0  0  0  0  0  0
   -1.6754    0.3334    4.4914 H   0  0  0  0  0  0  0  0  0  0  0  0
  5  6  2  0  0  0  0
  5  7  1  0  0  0  0
  2  3  1  0  0  0  0
  2  4  1  0  0  0  0
  2  5  1  0  0  0  0
  1  2  1  0  0  0  0
 26 27  2  0  0  0  0
 26 28  1  0  0  0  0
 24 25  1  0  0  0  0
 22 23  1  0  0  0  0
 22 24  2  0  0  0  0
 20 21  1  0  0  0  0
 19 20  1  0  0  0  0
 19 22  1  0  0  0  0
 17 18  1  0  0  0  0
 17 19  2  0  0  0  0
 15 16  1  0  0  0  0
 15 17  1  0  0  0  0
 14 15  2  0  0  0  0
 14 24  1  0  0  0  0
 11 12  1  0  0  0  0
 11 13  1  0  0  0  0
 11 14  1  0  0  0  0
  9 10  1  0  0  0  0
  9 11  1  0  0  0  0
  9 26  1  0  0  0  0
  7  8  1  0  0  0  0
  7  9  1  0  0  0  0
 30 31  1  0  0  0  0
 30 32  1  0  0  0  0
 30 33  1  0  0  0  0
 28 29  1  0  0  0  0
 28 30  1  0  0  0  0
M  END
$$$$
default_name
  -OEChem-02102213163D

 33 33  0     1  0  0  0  0  0999 V2000
   -4.0702   -3.8485    1.4554 H   0  0  0  0  0  0  0  0  0  0  0  0
   -4.0012   -2.9605    0.8284 C   0  0  0  0  0  0  0  0  0  0  0  0
   -4.7652   -2.2435    1.1234 H   0  0  0  0  0  0  0  0  0  0  0  0
   -4.1352   -3.2385   -0.2156 H   0  0  0  0  0  0  0  0  0  0  0  0
   -2.6362   -2.3395    1.0094 C   0  0  0  0  0  0  0  0  0  0  0  0
   -1.8292   -2.8395    1.7814 O   0  0  0  0  0  0  0  0  0  0  0  0
   -2.3832   -1.2445    0.2964 N   0  0  0  0  0  0  0  0  0  0  0  0
   -3.1102   -0.8685   -0.2946 H   0  0  0  0  0  0  0  0  0  0  0  0
   -1.1292   -0.4875    0.3524 C   0  0  1  0  0  0  0  0  0  0  0  0
   -0.3087   -1.1556    0.0882 H   0  0  0  0  0  0  0  0  0  0  0  0
   -1.1749    0.6534   -0.6787 C   0  0  0  0  0  0  0  0  0  0  0  0
   -1.5781    0.2680   -1.6161 H   0  0  0  0  0  0  0  0  0  0  0  0
   -1.8589    1.4252   -0.3216 H   0  0  0  0  0  0  0  0  0  0  0  0
    0.1773    1.2759   -0.9683 C   0  0  0  0  0  0  0  0  0  0  0  0
    1.3058    0.4587   -1.1802 C   0  0  0  0  0  0  0  0  0  0  0  0
    1.2156   -0.6174   -1.1108 H   0  0  0  0  0  0  0  0  0  0  0  0
    2.5510    1.0402   -1.4889 C   0  0  0  0  0  0  0  0  0  0  0  0
    3.4134    0.4116   -1.6490 H   0  0  0  0  0  0  0  0  0  0  0  0
    2.6666    2.4438   -1.5896 C   0  0  0  0  0  0  0  0  0  0  0  0
    3.8623    3.0142   -1.8898 O   0  0  0  0  0  0  0  0  0  0  0  0
    4.5716    2.3709   -1.9207 H   0  0  0  0  0  0  0  0  0  0  0  0
    1.5351    3.2597   -1.3821 C   0  0  0  0  0  0  0  0  0  0  0  0
    1.6372    4.3319   -1.4575 H   0  0  0  0  0  0  0  0  0  0  0  0
    0.2930    2.6757   -1.0692 C   0  0  0  0  0  0  0  0  0  0  0  0
   -0.5738    3.3037   -0.9007 H   0  0  0  0  0  0  0  0  0  0  0  0
   -0.8664    0.0378    1.7736 C   0  0  0  0  0  0  0  0  0  0  0  0
    0.2529   -0.0672    2.2760 O   0  0  0  0  0  0  0  0  0  0  0  0
   -1.8947    0.5991    2.4221 N   0  0  0  0  0  0  0  0  0  0  0  0
   -2.7942    0.5936    1.9635 H   0  0  0  0  0  0  0  0  0  0  0  0
   -1.8170    1.1453    3.7750 C   0  0  0  0  0  0  0  0  0  0  0  0
   -0.9697    1.8290    3.8506 H   0  0  0  0  0  0  0  0  0  0  0  0
   -2.7354    1.6828    4.0167 H   0  0  0  0  0  0  0  0  0  0  0  0
   -1.6754    0.3334    4.4914 H   0  0  0  0  0  0  0  0  0  0  0  0
  5  6  2  0  0  0  0
  5  7  1  0  0  0  0
  2  3  1  0  0  0  0
  2  4  1  0  0  0  0
  2  5  1  0  0  0  0
  1  2  1  0  0  0  0
 26 27  2  0  0  0  0
 26 28  1  0  0  0  0
 24 25  1  0  0  0  0
 22 23  1  0  0  0  0
 22 24  2  0  0  0  0
 20 21  1  0  0  0  0
 19 20  1  0  0  0  0
 19 22  1  0  0  0  0
 17 18  1  0  0  0  0
 17 19  2  0  0  0  0
 15 16  1  0  0  0  0
 15 17  1  0  0  0  0
 14 15  2  0  0  0  0
 14 24  1  0  0  0  0
 11 12  1  0  0  0  0
 11 13  1  0  0  0  0
 11 14  1  0  0  0  0
  9 10  1  0  0  0  0
  9 11  1  0  0  0  0
  9 26  1  0  0  0  0
  7  8  1  0  0  0  0
  7  9  1  0  0  0  0
 30 31  1  0  0  0  0
 30 32  1  0  0  0  0
 30 33  1  0  0  0  0
 28 29  1  0  0  0  0
 28 30  1  0  0  0  0
M  END
$$$$
default_name
  -OEChem-02102213163D

 33 33  0     1  0  0  0  0  0999 V2000
   -4.0702   -3.8485    1.4554 H   0  0  0  0  0  0  0  0  0  0  0  0
   -4.0012   -2.9605    0.8284 C   0  0  0  0  0  0  0  0  0  0  0  0
   -4.7652   -2.2435    1.1234 H   0  0  0  0  0  0  0  0  0  0  0  0
   -4.1352   -3.2385   -0.2156 H   0  0  0  0  0  0  0  0  0  0  0  0
   -2.6362   -2.3395    1.0094 C   0  0  0  0  0  0  0  0  0  0  0  0
   -1.8292   -2.8395    1.7814 O   0  0  0  0  0  0  0  0  0  0  0  0
   -2.3832   -1.2445    0.2964 N   0  0  0  0  0  0  0  0  0  0  0  0
   -3.1102   -0.8685   -0.2946 H   0  0  0  0  0  0  0  0  0  0  0  0
   -1.1292   -0.4875    0.3524 C   0  0  1  0  0  0  0  0  0  0  0  0
   -0.3087   -1.1556    0.0882 H   0  0  0  0  0  0  0  0  0  0  0  0
   -1.1749    0.6534   -0.6787 C   0  0  0  0  0  0  0  0  0  0  0  0
   -1.5781    0.2680   -1.6161 H   0  0  0  0  0  0  0  0  0  0  0  0
   -1.8589    1.4252   -0.3216 H   0  0  0  0  0  0  0  0  0  0  0  0
    0.1773    1.2759   -0.9683 C   0  0  0  0  0  0  0  0  0  0  0  0
    1.2261    0.4896   -1.4861 C   0  0  0  0  0  0  0  0  0  0  0  0
    1.0769   -0.5689   -1.6543 H   0  0  0  0  0  0  0  0  0  0  0  0
    2.4675    1.0807   -1.7915 C   0  0  0  0  0  0  0  0  0  0  0  0
    3.2689    0.4753   -2.1864 H   0  0  0  0  0  0  0  0  0  0  0  0
    2.6591    2.4638   -1.5817 C   0  0  0  0  0  0  0  0  0  0  0  0
    3.8516    3.0438   -1.8758 O   0  0  0  0  0  0  0  0  0  0  0  0
    4.5130    2.3997   -2.1319 H   0  0  0  0  0  0  0  0  0  0  0  0
    1.6069    3.2499   -1.0681 C   0  0  0  0  0  0  0  0  0  0  0  0
    1.7670    4.3055   -0.9079 H   0  0  0  0  0  0  0  0  0  0  0  0
    0.3687    2.6553   -0.7595 C   0  0  0  0  0  0  0  0  0  0  0  0
   -0.4363    3.2582   -0.3562 H   0  0  0  0  0  0  0  0  0  0  0  0
   -0.8664    0.0378    1.7736 C   0  0  0  0  0  0  0  0  0  0  0  0
    0.2529   -0.0672    2.2760 O   0  0  0  0  0  0  0  0  0  0  0  0
   -1.8947    0.5991    2.4221 N   0  0  0  0  0  0  0  0  0  0  0  0
   -2.7942    0.5936    1.9635 H   0  0  0  0  0  0  0  0  0  0  0  0
   -1.8170    1.1453    3.7750 C   0  0  0  0  0  0  0  0  0  0  0  0
   -0.9697    1.8290    3.8506 H   0  0  0  0  0  0  0  0  0  0  0  0
   -2.7354    1.6828    4.0167 H   0  0  0  0  0  0  0  0  0  0  0  0
   -1.6754    0.3334    4.4914 H   0  0  0  0  0  0  0  0  0  0  0  0
  5  6  2  0  0  0  0
  5  7  1  0  0  0  0
  2  3  1  0  0  0  0
  2  4  1  0  0  0  0
  2  5  1  0  0  0  0
  1  2  1  0  0  0  0
 26 27  2  0  0  0  0
 26 28  1  0  0  0  0
 24 25  1  0  0  0  0
 22 23  1  0  0  0  0
 22 24  2  0  0  0  0
 20 21  1  0  0  0  0
 19 20  1  0  0  0  0
 19 22  1  0  0  0  0
 17 18  1  0  0  0  0
 17 19  2  0  0  0  0
 15 16  1  0  0  0  0
 15 17  1  0  0  0  0
 14 15  2  0  0  0  0
 14 24  1  0  0  0  0
 11 12  1  0  0  0  0
 11 13  1  0  0  0  0
 11 14  1  0  0  0  0
  9 10  1  0  0  0  0
  9 11  1  0  0  0  0
  9 26  1  0  0  0  0
  7  8  1  0  0  0  0
  7  9  1  0  0  0  0
 30 31  1  0  0  0  0
 30 32  1  0  0  0  0
 30 33  1  0  0  0  0
 28 29  1  0  0  0  0
 28 30  1  0  0  0  0
M  END
$$$$
default_name
  -OEChem-02102213163D

 33 33  0     1  0  0  0  0  0999 V2000
   -4.0702   -3.8485    1.4554 H   0  0  0  0  0  0  0  0  0  0  0  0
   -4.0012   -2.9605    0.8284 C   0  0  0  0  0  0  0  0  0  0  0  0
   -4.7652   -2.2435    1.1234 H   0  0  0  0  0  0  0  0  0  0  0  0
   -4.1352   -3.2385   -0.2156 H   0  0  0  0  0  0  0  0  0  0  0  0
   -2.6362   -2.3395    1.0094 C   0  0  0  0  0  0  0  0  0  0  0  0
   -1.8292   -2.8395    1.7814 O   0  0  0  0  0  0  0  0  0  0  0  0
   -2.3832   -1.2445    0.2964 N   0  0  0  0  0  0  0  0  0  0  0  0
   -3.1102   -0.8685   -0.2946 H   0  0  0  0  0  0  0  0  0  0  0  0
   -1.1292   -0.4875    0.3524 C   0  0  1  0  0  0  0  0  0  0  0  0
   -0.3087   -1.1556    0.0882 H   0  0  0  0  0  0  0  0  0  0  0  0
   -1.1749    0.6534   -0.6787 C   0  0  0  0  0  0  0  0  0  0  0  0
   -1.5781    0.2680   -1.6161 H   0  0  0  0  0  0  0  0  0  0  0  0
   -1.8589    1.4252   -0.3216 H   0  0  0  0  0  0  0  0  0  0  0  0
    0.1773    1.2759   -0.9683 C   0  0  0  0  0  0  0  0  0  0  0  0
    1.1181    0.5940   -1.7659 C   0  0  0  0  0  0  0  0  0  0  0  0
    0.8875   -0.3897   -2.1534 H   0  0  0  0  0  0  0  0  0  0  0  0
    2.3568    1.1938   -2.0656 C   0  0  0  0  0  0  0  0  0  0  0  0
    3.0755    0.6681   -2.6753 H   0  0  0  0  0  0  0  0  0  0  0  0
    2.6537    2.4816   -1.5686 C   0  0  0  0  0  0  0  0  0  0  0  0
    3.8443    3.0698   -1.8543 O   0  0  0  0  0  0  0  0  0  0  0  0
    4.4355    2.4793   -2.3231 H   0  0  0  0  0  0  0  0  0  0  0  0
    1.7091    3.1645   -0.7747 C   0  0  0  0  0  0  0  0  0  0  0  0
    1.9495    4.1468   -0.3969 H   0  0  0  0  0  0  0  0  0  0  0  0
    0.4737    2.5604   -0.4731 C   0  0  0  0  0  0  0  0  0  0  0  0
   -0.2478    3.0818    0.1446 H   0  0  0  0  0  0  0  0  0  0  0  0
   -0.8664    0.0378    1.7736 C   0  0  0  0  0  0  0  0  0  0  0  0
    0.2529   -0.0672    2.2760 O   0  0  0  0  0  0  0  0  0  0  0  0
   -1.8947    0.5991    2.4221 N   0  0  0  0  0  0  0  0  0  0  0  0
   -2.7942    0.5936    1.9635 H   0  0  0  0  0  0  0  0  0  0  0  0
   -1.8170    1.1453    3.7750 C   0  0  0  0  0  0  0  0  0  0  0  0
   -0.9697    1.8290    3.8506 H   0  0  0  0  0  0  0  0  0  0  0  0
   -2.7354    1.6828    4.0167 H   0  0  0  0  0  0  0  0  0  0  0  0
   -1.6754    0.3334    4.4914 H   0  0  0  0  0  0  0  0  0  0  0  0
  5  6  2  0  0  0  0
  5  7  1  0  0  0  0
  2  3  1  0  0  0  0
  2  4  1  0  0  0  0
  2  5  1  0  0  0  0
  1  2  1  0  0  0  0
 26 27  2  0  0  0  0
 26 28  1  0  0  0  0
 24 25  1  0  0  0  0
 22 23  1  0  0  0  0
 22 24  2  0  0  0  0
 20 21  1  0  0  0  0
 19 20  1  0  0  0  0
 19 22  1  0  0  0  0
 17 18  1  0  0  0  0
 17 19  2  0  0  0  0
 15 16  1  0  0  0  0
 15 17  1  0  0  0  0
 14 15  2  0  0  0  0
 14 24  1  0  0  0  0
 11 12  1  0  0  0  0
 11 13  1  0  0  0  0
 11 14  1  0  0  0  0
  9 10  1  0  0  0  0
  9 11  1  0  0  0  0
  9 26  1  0  0  0  0
  7  8  1  0  0  0  0
  7  9  1  0  0  0  0
 30 31  1  0  0  0  0
 30 32  1  0  0  0  0
 30 33  1  0  0  0  0
 28 29  1  0  0  0  0
 28 30  1  0  0  0  0
M  END
$$$$
default_name
  -OEChem-02102213163D

 33 33  0     1  0  0  0  0  0999 V2000
   -4.0702   -3.8485    1.4554 H   0  0  0  0  0  0  0  0  0  0  0  0
   -4.0012   -2.9605    0.8284 C   0  0  0  0  0  0  0  0  0  0  0  0
   -4.7652   -2.2435    1.1234 H   0  0  0  0  0  0  0  0  0  0  0  0
   -4.1352   -3.2385   -0.2156 H   0  0  0  0  0  0  0  0  0  0  0  0
   -2.6362   -2.3395    1.0094 C   0  0  0  0  0  0  0  0  0  0  0  0
   -1.8292   -2.8395    1.7814 O   0  0  0  0  0  0  0  0  0  0  0  0
   -2.3832   -1.2445    0.2964 N   0  0  0  0  0  0  0  0  0  0  0  0
   -3.1102   -0.8685   -0.2946 H   0  0  0  0  0  0  0  0  0  0  0  0
   -1.1292   -0.4875    0.3524 C   0  0  1  0  0  0  0  0  0  0  0  0
   -0.3087   -1.1556    0.0882 H   0  0  0  0  0  0  0  0  0  0  0  0
   -1.1749    0.6534   -0.6787 C   0  0  0  0  0  0  0  0  0  0  0  0
   -1.5781    0.2680   -1.6161 H   0  0  0  0  0  0  0  0  0  0  0  0
   -1.8589    1.4252   -0.3216 H   0  0  0  0  0  0  0  0  0  0  0  0
    0.1773    1.2759   -0.9683 C   0  0  0  0  0  0  0  0  0  0  0  0
    0.9892    0.7648   -2.0007 C   0  0  0  0  0  0  0  0  0  0  0  0
    0.6604   -0.0922   -2.5740 H   0  0  0  0  0  0  0  0  0  0  0  0
    2.2263    1.3717   -2.2924 C   0  0  0  0  0  0  0  0  0  0  0  0
    2.8462    0.9767   -3.0826 H   0  0  0  0  0  0  0  0  0  0  0  0
    2.6508    2.4960   -1.5513 C   0  0  0  0  0  0  0  0  0  0  0  0
    3.8407    3.0903   -1.8268 O   0  0  0  0  0  0  0  0  0  0  0  0
    4.3442    2.6041   -2.4811 H   0  0  0  0  0  0  0  0  0  0  0  0
    1.8347    3.0091   -0.5218 C   0  0  0  0  0  0  0  0  0  0  0  0
    2.1722    3.8666    0.0407 H   0  0  0  0  0  0  0  0  0  0  0  0
    0.6009    2.3975   -0.2296 C   0  0  0  0  0  0  0  0  0  0  0  0
   -0.0213    2.7866    0.5676 H   0  0  0  0  0  0  0  0  0  0  0  0
   -0.8664    0.0378    1.7736 C   0  0  0  0  0  0  0  0  0  0  0  0
    0.2529   -0.0672    2.2760 O   0  0  0  0  0  0  0  0  0  0  0  0
   -1.8947    0.5991    2.4221 N   0  0  0  0  0  0  0  0  0  0  0  0
   -2.7942    0.5936    1.9635 H   0  0  0  0  0  0  0  0  0  0  0  0
   -1.8170    1.1453    3.7750 C   0  0  0  0  0  0  0  0  0  0  0  0
   -0.9697    1.8290    3.8506 H   0  0  0  0  0  0  0  0  0  0  0  0
   -2.7354    1.6828    4.0167 H   0  0  0  0  0  0  0  0  0  0  0  0
   -1.6754    0.3334    4.4914 H   0  0  0  0  0  0  0  0  0  0  0  0
  5  6  2  0  0  0  0
  5  7  1  0  0  0  0
  2  3  1  0  0  0  0
  2  4  1  0  0  0  0
  2  5  1  0  0  0  0
  1  2  1  0  0  0  0
 26 27  2  0  0  0  0
 26 28  1  0  0  0  0
 24 25  1  0  0  0  0
 22 23  1  0  0  0  0
 22 24  2  0  0  0  0
 20 21  1  0  0  0  0
 19 20  1  0  0  0  0
 19 22  1  0  0  0  0
 17 18  1  0  0  0  0
 17 19  2  0  0  0  0
 15 16  1  0  0  0  0
 15 17  1  0  0  0  0
 14 15  2  0  0  0  0
 14 24  1  0  0  0  0
 11 12  1  0  0  0  0
 11 13  1  0  0  0  0
 11 14  1  0  0  0  0
  9 10  1  0  0  0  0
  9 11  1  0  0  0  0
  9 26  1  0  0  0  0
  7  8  1  0  0  0  0
  7  9  1  0  0  0  0
 30 31  1  0  0  0  0
 30 32  1  0  0  0  0
 30 33  1  0  0  0  0
 28 29  1  0  0  0  0
 28 30  1  0  0  0  0
M  END
$$$$
default_name
  -OEChem-02102213163D

 33 33  0     1  0  0  0  0  0999 V2000
   -4.0702   -3.8485    1.4554 H   0  0  0  0  0  0  0  0  0  0  0  0
   -4.0012   -2.9605    0.8284 C   0  0  0  0  0  0  0  0  0  0  0  0
   -4.7652   -2.2435    1.1234 H   0  0  0  0  0  0  0  0  0  0  0  0
   -4.1352   -3.2385   -0.2156 H   0  0  0  0  0  0  0  0  0  0  0  0
   -2.6362   -2.3395    1.0094 C   0  0  0  0  0  0  0  0  0  0  0  0
   -1.8292   -2.8395    1.7814 O   0  0  0  0  0  0  0  0  0  0  0  0
   -2.3832   -1.2445    0.2964 N   0  0  0  0  0  0  0  0  0  0  0  0
   -3.1102   -0.8685   -0.2946 H   0  0  0  0  0  0  0  0  0  0  0  0
   -1.1292   -0.4875    0.3524 C   0  0  1  0  0  0  0  0  0  0  0  0
   -0.3087   -1.1556    0.0882 H   0  0  0  0  0  0  0  0  0  0  0  0
   -1.1749    0.6534   -0.6787 C   0  0  0  0  0  0  0  0  0  0  0  0
   -1.5781    0.2680   -1.6161 H   0  0  0  0  0  0  0  0  0  0  0  0
   -1.8589    1.4252   -0.3216 H   0  0  0  0  0  0  0  0  0  0  0  0
    0.1773    1.2759   -0.9683 C   0  0  0  0  0  0  0  0  0  0  0  0
    0.8482    0.9902   -2.1743 C   0  0  0  0  0  0  0  0  0  0  0  0
    0.4111    0.3036   -2.8874 H   0  0  0  0  0  0  0  0  0  0  0  0
    2.0849    1.6023   -2.4566 C   0  0  0  0  0  0  0  0  0  0  0  0
    2.5967    1.3801   -3.3804 H   0  0  0  0  0  0  0  0  0  0  0  0
    2.6505    2.5061   -1.5309 C   0  0  0  0  0  0  0  0  0  0  0  0
    3.8412    3.1039   -1.7952 O   0  0  0  0  0  0  0  0  0  0  0  0
    4.2454    2.7656   -2.5953 H   0  0  0  0  0  0  0  0  0  0  0  0
    1.9753    2.7945   -0.3268 C   0  0  0  0  0  0  0  0  0  0  0  0
    2.4200    3.4839    0.3750 H   0  0  0  0  0  0  0  0  0  0  0  0
    0.7415    2.1776   -0.0454 C   0  0  0  0  0  0  0  0  0  0  0  0
    0.2279    2.3925    0.8841 H   0  0  0  0  0  0  0  0  0  0  0  0
   -0.8664    0.0378    1.7736 C   0  0  0  0  0  0  0  0  0  0  0  0
    0.2529   -0.0672    2.2760 O   0  0  0  0  0  0  0  0  0  0  0  0
   -1.8947    0.5991    2.4221 N   0  0  0  0  0  0  0  0  0  0  0  0
   -2.7942    0.5936    1.9635 H   0  0  0  0  0  0  0  0  0  0  0  0
   -1.8170    1.1453    3.7750 C   0  0  0  0  0  0  0  0  0  0  0  0
   -0.9697    1.8290    3.8506 H   0  0  0  0  0  0  0  0  0  0  0  0
   -2.7354    1.6828    4.0167 H   0  0  0  0  0  0  0  0  0  0  0  0
   -1.6754    0.3334    4.4914 H   0  0  0  0  0  0  0  0  0  0  0  0
  5  6  2  0  0  0  0
  5  7  1  0  0  0  0
  2  3  1  0  0  0  0
  2  4  1  0  0  0  0
  2  5  1  0  0  0  0
  1  2  1  0  0  0  0
 26 27  2  0  0  0  0
 26 28  1  0  0  0  0
 24 25  1  0  0  0  0
 22 23  1  0  0  0  0
 22 24  2  0  0  0  0
 20 21  1  0  0  0  0
 19 20  1  0  0  0  0
 19 22  1  0  0  0  0
 17 18  1  0  0  0  0
 17 19  2  0  0  0  0
 15 16  1  0  0  0  0
 15 17  1  0  0  0  0
 14 15  2  0  0  0  0
 14 24  1  0  0  0  0
 11 12  1  0  0  0  0
 11 13  1  0  0  0  0
 11 14  1  0  0  0  0
  9 10  1  0  0  0  0
  9 11  1  0  0  0  0
  9 26  1  0  0  0  0
  7  8  1  0  0  0  0
  7  9  1  0  0  0  0
 30 31  1  0  0  0  0
 30 32  1  0  0  0  0
 30 33  1  0  0  0  0
 28 29  1  0  0  0  0
 28 30  1  0  0  0  0
M  END
$$$$
default_name
  -OEChem-02102213163D

 33 33  0     1  0  0  0  0  0999 V2000
   -4.0702   -3.8485    1.4554 H   0  0  0  0  0  0  0  0  0  0  0  0
   -4.0012   -2.9605    0.8284 C   0  0  0  0  0  0  0  0  0  0  0  0
   -4.7652   -2.2435    1.1234 H   0  0  0  0  0  0  0  0  0  0  0  0
   -4.1352   -3.2385   -0.2156 H   0  0  0  0  0  0  0  0  0  0  0  0
   -2.6362   -2.3395    1.0094 C   0  0  0  0  0  0  0  0  0  0  0  0
   -1.8292   -2.8395    1.7814 O   0  0  0  0  0  0  0  0  0  0  0  0
   -2.3832   -1.2445    0.2964 N   0  0  0  0  0  0  0  0  0  0  0  0
   -3.1102   -0.8685   -0.2946 H   0  0  0  0  0  0  0  0  0  0  0  0
   -1.1292   -0.4875    0.3524 C   0  0  1  0  0  0  0  0  0  0  0  0
   -0.3087   -1.1556    0.0882 H   0  0  0  0  0  0  0  0  0  0  0  0
   -1.1749    0.6534   -0.6787 C   0  0  0  0  0  0  0  0  0  0  0  0
   -1.5781    0.2680   -1.6161 H   0  0  0  0  0  0  0  0  0  0  0  0
   -1.8589    1.4252   -0.3216 H   0  0  0  0  0  0  0  0  0  0  0  0
    0.1773    1.2759   -0.9683 C   0  0  0  0  0  0  0  0  0  0  0  0
    0.7047    1.2551   -2.2750 C   0  0  0  0  0  0  0  0  0  0  0  0
    0.1566    0.7705   -3.0724 H   0  0  0  0  0  0  0  0  0  0  0  0
    1.9424    1.8700   -2.5470 C   0  0  0  0  0  0  0  0  0  0  0  0
    2.3440    1.8508   -3.5485 H   0  0  0  0  0  0  0  0  0  0  0  0
    2.6529    2.5112   -1.5089 C   0  0  0  0  0  0  0  0  0  0  0  0
    3.8458    3.1097   -1.7615 O   0  0  0  0  0  0  0  0  0  0  0  0
    4.1458    2.9528   -2.6578 H   0  0  0  0  0  0  0  0  0  0  0  0
    2.1212    2.5353   -0.2029 C   0  0  0  0  0  0  0  0  0  0  0  0
    2.6759    3.0248    0.5833 H   0  0  0  0  0  0  0  0  0  0  0  0
    0.8861    1.9157    0.0667 C   0  0  0  0  0  0  0  0  0  0  0  0
    0.4827    1.9266    1.0723 H   0  0  0  0  0  0  0  0  0  0  0  0
   -0.8664    0.0378    1.7736 C   0  0  0  0  0  0  0  0  0  0  0  0
    0.2529   -0.0672    2.2760 O   0  0  0  0  0  0  0  0  0  0  0  0
   -1.8947    0.5991    2.4221 N   0  0  0  0  0  0  0  0  0  0  0  0
   -2.7942    0.5936    1.9635 H   0  0  0  0  0  0  0  0  0  0  0  0
   -1.8170    1.1453    3.7750 C   0  0  0  0  0  0  0  0  0  0  0  0
   -0.9697    1.8290    3.8506 H   0  0  0  0  0  0  0  0  0  0  0  0
   -2.7354    1.6828    4.0167 H   0  0  0  0  0  0  0  0  0  0  0  0
   -1.6754    0.3334    4.4914 H   0  0  0  0  0  0  0  0  0  0  0  0
  5  6  2  0  0  0  0
  5  7  1  0  0  0  0
  2  3  1  0  0  0  0
  2  4  1  0  0  0  0
  2  5  1  0  0  0  0
  1  2  1  0  0  0  0
 26 27  2  0  0  0  0
 26 28  1  0  0  0  0
 24 25  1  0  0  0  0
 22 23  1  0  0  0  0
 22 24  2  0  0  0  0
 20 21  1  0  0  0  0
 19 20  1  0  0  0  0
 19 22  1  0  0  0  0
 17 18  1  0  0  0  0
 17 19  2  0  0  0  0
 15 16  1  0  0  0  0
 15 17  1  0  0  0  0
 14 15  2  0  0  0  0
 14 24  1  0  0  0  0
 11 12  1  0  0  0  0
 11 13  1  0  0  0  0
 11 14  1  0  0  0  0
  9 10  1  0  0  0  0
  9 11  1  0  0  0  0
  9 26  1  0  0  0  0
  7  8  1  0  0  0  0
  7  9  1  0  0  0  0
 30 31  1  0  0  0  0
 30 32  1  0  0  0  0
 30 33  1  0  0  0  0
 28 29  1  0  0  0  0
 28 30  1  0  0  0  0
M  END
$$$$
default_name
  -OEChem-02102213163D

 33 33  0     1  0  0  0  0  0999 V2000
   -4.0702   -3.8485    1.4554 H   0  0  0  0  0  0  0  0  0  0  0  0
   -4.0012   -2.9605    0.8284 C   0  0  0  0  0  0  0  0  0  0  0  0
   -4.7652   -2.2435    1.1234 H   0  0  0  0  0  0  0  0  0  0  0  0
   -4.1352   -3.2385   -0.2156 H   0  0  0  0  0  0  0  0  0  0  0  0
   -2.6362   -2.3395    1.0094 C   0  0  0  0  0  0  0  0  0  0  0  0
   -1.8292   -2.8395    1.7814 O   0  0  0  0  0  0  0  0  0  0  0  0
   -2.3832   -1.2445    0.2964 N   0  0  0  0  0  0  0  0  0  0  0  0
   -3.1102   -0.8685   -0.2946 H   0  0  0  0  0  0  0  0  0  0  0  0
   -1.1292   -0.4875    0.3524 C   0  0  1  0  0  0  0  0  0  0  0  0
   -0.3087   -1.1556    0.0882 H   0  0  0  0  0  0  0  0  0  0  0  0
   -1.1749    0.6534   -0.6787 C   0  0  0  0  0  0  0  0  0  0  0  0
   -1.5781    0.2680   -1.6161 H   0  0  0  0  0  0  0  0  0  0  0  0
   -1.8589    1.4252   -0.3216 H   0  0  0  0  0  0  0  0  0  0  0  0
    0.1773    1.2759   -0.9683 C   0  0  0  0  0  0  0  0  0  0  0  0
    0.5686    1.5412   -2.2960 C   0  0  0  0  0  0  0  0  0  0  0  0
   -0.0858    1.2768   -3.1163 H   0  0  0  0  0  0  0  0  0  0  0  0
    1.8083    2.1565   -2.5574 C   0  0  0  0  0  0  0  0  0  0  0  0
    2.1054    2.3568   -3.5754 H   0  0  0  0  0  0  0  0  0  0  0  0
    2.6578    2.5109   -1.4867 C   0  0  0  0  0  0  0  0  0  0  0  0
    3.8540    3.1073   -1.7282 O   0  0  0  0  0  0  0  0  0  0  0  0
    4.0523    3.1530   -2.6644 H   0  0  0  0  0  0  0  0  0  0  0  0
    2.2624    2.2490   -0.1585 C   0  0  0  0  0  0  0  0  0  0  0  0
    2.9226    2.5207    0.6514 H   0  0  0  0  0  0  0  0  0  0  0  0
    1.0247    1.6298    0.0993 C   0  0  0  0  0  0  0  0  0  0  0  0
    0.7257    1.4205    1.1195 H   0  0  0  0  0  0  0  0  0  0  0  0
   -0.8664    0.0378    1.7736 C   0  0  0  0  0  0  0  0  0  0  0  0
    0.2529   -0.0672    2.2760 O   0  0  0  0  0  0  0  0  0  0  0  0
   -1.8947    0.5991    2.4221 N   0  0  0  0  0  0  0  0  0  0  0  0
   -2.7942    0.5936    1.9635 H   0  0  0  0  0  0  0  0  0  0  0  0
   -1.8170    1.1453    3.7750 C   0  0  0  0  0  0  0  0  0  0  0  0
   -0.9697    1.8290    3.8506 H   0  0  0  0  0  0  0  0  0  0  0  0
   -2.7354    1.6828    4.0167 H   0  0  0  0  0  0  0  0  0  0  0  0
   -1.6754    0.3334    4.4914 H   0  0  0  0  0  0  0  0  0  0  0  0
  5  6  2  0  0  0  0
  5  7  1  0  0  0  0
  2  3  1  0  0  0  0
  2  4  1  0  0  0  0
  2  5  1  0  0  0  0
  1  2  1  0  0  0  0
 26 27  2  0  0  0  0
 26 28  1  0  0  0  0
 24 25  1  0  0  0  0
 22 23  1  0  0  0  0
 22 24  2  0  0  0  0
 20 21  1  0  0  0  0
 19 20  1  0  0  0  0
 19 22  1  0  0  0  0
 17 18  1  0  0  0  0
 17 19  2  0  0  0  0
 15 16  1  0  0  0  0
 15 17  1  0  0  0  0
 14 15  2  0  0  0  0
 14 24  1  0  0  0  0
 11 12  1  0  0  0  0
 11 13  1  0  0  0  0
 11 14  1  0  0  0  0
  9 10  1  0  0  0  0
  9 11  1  0  0  0  0
  9 26  1  0  0  0  0
  7  8  1  0  0  0  0
  7  9  1  0  0  0  0
 30 31  1  0  0  0  0
 30 32  1  0  0  0  0
 30 33  1  0  0  0  0
 28 29  1  0  0  0  0
 28 30  1  0  0  0  0
M  END
$$$$
default_name
  -OEChem-02102213163D

 33 33  0     1  0  0  0  0  0999 V2000
   -4.0702   -3.8485    1.4554 H   0  0  0  0  0  0  0  0  0  0  0  0
   -4.0012   -2.9605    0.8284 C   0  0  0  0  0  0  0  0  0  0  0  0
   -4.7652   -2.2435    1.1234 H   0  0  0  0  0  0  0  0  0  0  0  0
   -4.1352   -3.2385   -0.2156 H   0  0  0  0  0  0  0  0  0  0  0  0
   -2.6362   -2.3395    1.0094 C   0  0  0  0  0  0  0  0  0  0  0  0
   -1.8292   -2.8395    1.7814 O   0  0  0  0  0  0  0  0  0  0  0  0
   -2.3832   -1.2445    0.2964 N   0  0  0  0  0  0  0  0  0  0  0  0
   -3.1102   -0.8685   -0.2946 H   0  0  0  0  0  0  0  0  0  0  0  0
   -1.1292   -0.4875    0.3524 C   0  0  1  0  0  0  0  0  0  0  0  0
   -0.3087   -1.1556    0.0882 H   0  0  0  0  0  0  0  0  0  0  0  0
   -1.1749    0.6534   -0.6787 C   0  0  0  0  0  0  0  0  0  0  0  0
   -1.5781    0.2680   -1.6161 H   0  0  0  0  0  0  0  0  0  0  0  0
   -1.8589    1.4252   -0.3216 H   0  0  0  0  0  0  0  0  0  0  0  0
    0.1773    1.2759   -0.9683 C   0  0  0  0  0  0  0  0  0  0  0  0
    0.4489    1.8292   -2.2357 C   0  0  0  0  0  0  0  0  0  0  0  0
   -0.2997    1.7880   -3.0161 H   0  0  0  0  0  0  0  0  0  0  0  0
    1.6918    2.4422   -2.4871 C   0  0  0  0  0  0  0  0  0  0  0  0
    1.8970    2.8635   -3.4592 H   0  0  0  0  0  0  0  0  0  0  0  0
    2.6648    2.5052   -1.4658 C   0  0  0  0  0  0  0  0  0  0  0  0
    3.8654    3.0969   -1.6973 O   0  0  0  0  0  0  0  0  0  0  0  0
    3.9711    3.3526   -2.6146 H   0  0  0  0  0  0  0  0  0  0  0  0
    2.3894    1.9553   -0.1967 C   0  0  0  0  0  0  0  0  0  0  0  0
    3.1431    2.0058    0.5747 H   0  0  0  0  0  0  0  0  0  0  0  0
    1.1479    1.3392    0.0501 C   0  0  0  0  0  0  0  0  0  0  0  0
    0.9405    0.9087    1.0225 H   0  0  0  0  0  0  0  0  0  0  0  0
   -0.8664    0.0378    1.7736 C   0  0  0  0  0  0  0  0  0  0  0  0
    0.2529   -0.0672    2.2760 O   0  0  0  0  0  0  0  0  0  0  0  0
   -1.8947    0.5991    2.4221 N   0  0  0  0  0  0  0  0  0  0  0  0
   -2.7942    0.5936    1.9635 H   0  0  0  0  0  0  0  0  0  0  0  0
   -1.8170    1.1453    3.7750 C   0  0  0  0  0  0  0  0  0  0  0  0
   -0.9697    1.8290    3.8506 H   0  0  0  0  0  0  0  0  0  0  0  0
   -2.7354    1.6828    4.0167 H   0  0  0  0  0  0  0  0  0  0  0  0
   -1.6754    0.3334    4.4914 H   0  0  0  0  0  0  0  0  0  0  0  0
  5  6  2  0  0  0  0
  5  7  1  0  0  0  0
  2  3  1  0  0  0  0
  2  4  1  0  0  0  0
  2  5  1  0  0  0  0
  1  2  1  0  0  0  0
 26 27  2  0  0  0  0
 26 28  1  0  0  0  0
 24 25  1  0  0  0  0
 22 23  1  0  0  0  0
 22 24  2  0  0  0  0
 20 21  1  0  0  0  0
 19 20  1  0  0  0  0
 19 22  1  0  0  0  0
 17 18  1  0  0  0  0
 17 19  2  0  0  0  0
 15 16  1  0  0  0  0
 15 17  1  0  0  0  0
 14 15  2  0  0  0  0
 14 24  1  0  0  0  0
 11 12  1  0  0  0  0
 11 13  1  0  0  0  0
 11 14  1  0  0  0  0
  9 10  1  0  0  0  0
  9 11  1  0  0  0  0
  9 26  1  0  0  0  0
  7  8  1  0  0  0  0
  7  9  1  0  0  0  0
 30 31  1  0  0  0  0
 30 32  1  0  0  0  0
 30 33  1  0  0  0  0
 28 29  1  0  0  0  0
 28 30  1  0  0  0  0
M  END
$$$$
default_name
  -OEChem-02102213163D

 33 33  0     1  0  0  0  0  0999 V2000
   -4.0702   -3.8485    1.4554 H   0  0  0  0  0  0  0  0  0  0  0  0
   -4.0012   -2.9605    0.8284 C   0  0  0  0  0  0  0  0  0  0  0  0
   -4.7652   -2.2435    1.1234 H   0  0  0  0  0  0  0  0  0  0  0  0
   -4.1352   -3.2385   -0.2156 H   0  0  0  0  0  0  0  0  0  0  0  0
   -2.6362   -2.3395    1.0094 C   0  0  0  0  0  0  0  0  0  0  0  0
   -1.8292   -2.8395    1.7814 O   0  0  0  0  0  0  0  0  0  0  0  0
   -2.3832   -1.2445    0.2964 N   0  0  0  0  0  0  0  0  0  0  0  0
   -3.1102   -0.8685   -0.2946 H   0  0  0  0  0  0  0  0  0  0  0  0
   -1.1292   -0.4875    0.3524 C   0  0  1  0  0  0  0  0  0  0  0  0
   -0.3087   -1.1556    0.0882 H   0  0  0  0  0  0  0  0  0  0  0  0
   -1.1749    0.6534   -0.6787 C   0  0  0  0  0  0  0  0  0  0  0  0
   -1.5781    0.2680   -1.6161 H   0  0  0  0  0  0  0  0  0  0  0  0
   -1.8589    1.4252   -0.3216 H   0  0  0  0  0  0  0  0  0  0  0  0
    0.1773    1.2759   -0.9683 C   0  0  0  0  0  0  0  0  0  0  0  0
    0.3540    2.0994   -2.0983 C   0  0  0  0  0  0  0  0  0  0  0  0
   -0.4703    2.2691   -2.7786 H   0  0  0  0  0  0  0  0  0  0  0  0
    1.6009    2.7078   -2.3408 C   0  0  0  0  0  0  0  0  0  0  0  0
    1.7331    3.3365   -3.2079 H   0  0  0  0  0  0  0  0  0  0  0  0
    2.6736    2.4946   -1.4477 C   0  0  0  0  0  0  0  0  0  0  0  0
    3.8792    3.0792   -1.6712 O   0  0  0  0  0  0  0  0  0  0  0  0
    3.9078    3.5378   -2.5119 H   0  0  0  0  0  0  0  0  0  0  0  0
    2.4935    1.6742   -0.3149 C   0  0  0  0  0  0  0  0  0  0  0  0
    3.3225    1.5153    0.3582 H   0  0  0  0  0  0  0  0  0  0  0  0
    1.2473    1.0638   -0.0777 C   0  0  0  0  0  0  0  0  0  0  0  0
    1.1124    0.4261    0.7879 H   0  0  0  0  0  0  0  0  0  0  0  0
   -0.8664    0.0378    1.7736 C   0  0  0  0  0  0  0  0  0  0  0  0
    0.2529   -0.0672    2.2760 O   0  0  0  0  0  0  0  0  0  0  0  0
   -1.8947    0.5991    2.4221 N   0  0  0  0  0  0  0  0  0  0  0  0
   -2.7942    0.5936    1.9635 H   0  0  0  0  0  0  0  0  0  0  0  0
   -1.8170    1.1453    3.7750 C   0  0  0  0  0  0  0  0  0  0  0  0
   -0.9697    1.8290    3.8506 H   0  0  0  0  0  0  0  0  0  0  0  0
   -2.7354    1.6828    4.0167 H   0  0  0  0  0  0  0  0  0  0  0  0
   -1.6754    0.3334    4.4914 H   0  0  0  0  0  0  0  0  0  0  0  0
  5  6  2  0  0  0  0
  5  7  1  0  0  0  0
  2  3  1  0  0  0  0
  2  4  1  0  0  0  0
  2  5  1  0  0  0  0
  1  2  1  0  0  0  0
 26 27  2  0  0  0  0
 26 28  1  0  0  0  0
 24 25  1  0  0  0  0
 22 23  1  0  0  0  0
 22 24  2  0  0  0  0
 20 21  1  0  0  0  0
 19 20  1  0  0  0  0
 19 22  1  0  0  0  0
 17 18  1  0  0  0  0
 17 19  2  0  0  0  0
 15 16  1  0  0  0  0
 15 17  1  0  0  0  0
 14 15  2  0  0  0  0
 14 24  1  0  0  0  0
 11 12  1  0  0  0  0
 11 13  1  0  0  0  0
 11 14  1  0  0  0  0
  9 10  1  0  0  0  0
  9 11  1  0  0  0  0
  9 26  1  0  0  0  0
  7  8  1  0  0  0  0
  7  9  1  0  0  0  0
 30 31  1  0  0  0  0
 30 32  1  0  0  0  0
 30 33  1  0  0  0  0
 28 29  1  0  0  0  0
 28 30  1  0  0  0  0
M  END
$$$$
default_name
  -OEChem-02102213163D

 33 33  0     1  0  0  0  0  0999 V2000
   -4.0702   -3.8485    1.4554 H   0  0  0  0  0  0  0  0  0  0  0  0
   -4.0012   -2.9605    0.8284 C   0  0  0  0  0  0  0  0  0  0  0  0
   -4.7652   -2.2435    1.1234 H   0  0  0  0  0  0  0  0  0  0  0  0
   -4.1352   -3.2385   -0.2156 H   0  0  0  0  0  0  0  0  0  0  0  0
   -2.6362   -2.3395    1.0094 C   0  0  0  0  0  0  0  0  0  0  0  0
   -1.8292   -2.8395    1.7814 O   0  0  0  0  0  0  0  0  0  0  0  0
   -2.3832   -1.2445    0.2964 N   0  0  0  0  0  0  0  0  0  0  0  0
   -3.1102   -0.8685   -0.2946 H   0  0  0  0  0  0  0  0  0  0  0  0
   -1.1292   -0.4875    0.3524 C   0  0  1  0  0  0  0  0  0  0  0  0
   -0.3087   -1.1556    0.0882 H   0  0  0  0  0  0  0  0  0  0  0  0
   -1.1749    0.6534   -0.6787 C   0  0  0  0  0  0  0  0  0  0  0  0
   -1.8115    0.3528   -1.5119 H   0  0  0  0  0  0  0  0  0  0  0  0
   -1.6335    1.5292   -0.2165 H   0  0  0  0  0  0  0  0  0  0  0  0
    0.1829    1.0334   -1.2368 C   0  0  0  0  0  0  0  0  0  0  0  0
    0.2966    2.0635   -2.1919 C   0  0  0  0  0  0  0  0  0  0  0  0
   -0.5902    2.5699   -2.5501 H   0  0  0  0  0  0  0  0  0  0  0  0
    1.5641    2.4401   -2.6772 C   0  0  0  0  0  0  0  0  0  0  0  0
    1.6472    3.2282   -3.4097 H   0  0  0  0  0  0  0  0  0  0  0  0
    2.7221    1.7865   -2.2024 C   0  0  0  0  0  0  0  0  0  0  0  0
    3.9492    2.1444   -2.6619 O   0  0  0  0  0  0  0  0  0  0  0  0
    3.8962    2.7868   -3.3707 H   0  0  0  0  0  0  0  0  0  0  0  0
    2.6069    0.7593   -1.2430 C   0  0  0  0  0  0  0  0  0  0  0  0
    3.4993    0.2641   -0.8910 H   0  0  0  0  0  0  0  0  0  0  0  0
    1.3382    0.3820   -0.7633 C   0  0  0  0  0  0  0  0  0  0  0  0
    1.2498   -0.4136   -0.0331 H   0  0  0  0  0  0  0  0  0  0  0  0
   -0.8664    0.0378    1.7736 C   0  0  0  0  0  0  0  0  0  0  0  0
    0.2529   -0.0672    2.2760 O   0  0  0  0  0  0  0  0  0  0  0  0
   -1.8947    0.5991    2.4221 N   0  0  0  0  0  0  0  0  0  0  0  0
   -2.7942    0.5936    1.9635 H   0  0  0  0  0  0  0  0  0  0  0  0
   -1.8170    1.1453    3.7750 C   0  0  0  0  0  0  0  0  0  0  0  0
   -0.9697    1.8290    3.8506 H   0  0  0  0  0  0  0  0  0  0  0  0
   -2.7354    1.6828    4.0167 H   0  0  0  0  0  0  0  0  0  0  0  0
   -1.6754    0.3334    4.4914 H   0  0  0  0  0  0  0  0  0  0  0  0
  5  6  2  0  0  0  0
  5  7  1  0  0  0  0
  2  3  1  0  0  0  0
  2  4  1  0  0  0  0
  2  5  1  0  0  0  0
  1  2  1  0  0  0  0
 26 27  2  0  0  0  0
 26 28  1  0  0  0  0
 24 25  1  0  0  0  0
 22 23  1  0  0  0  0
 22 24  2  0  0  0  0
 20 21  1  0  0  0  0
 19 20  1  0  0  0  0
 19 22  1  0  0  0  0
 17 18  1  0  0  0  0
 17 19  2  0  0  0  0
 15 16  1  0  0  0  0
 15 17  1  0  0  0  0
 14 15  2  0  0  0  0
 14 24  1  0  0  0  0
 11 12  1  0  0  0  0
 11 13  1  0  0  0  0
 11 14  1  0  0  0  0
  9 10  1  0  0  0  0
  9 11  1  0  0  0  0
  9 26  1  0  0  0  0
  7  8  1  0  0  0  0
  7  9  1  0  0  0  0
 30 31  1  0  0  0  0
 30 32  1  0  0  0  0
 30 33  1  0  0  0  0
 28 29  1  0  0  0  0
 28 30  1  0  0  0  0
M  END
$$$$
default_name
  -OEChem-02102213163D

 33 33  0     1  0  0  0  0  0999 V2000
   -4.0702   -3.8485    1.4554 H   0  0  0  0  0  0  0  0  0  0  0  0
   -4.0012   -2.9605    0.8284 C   0  0  0  0  0  0  0  0  0  0  0  0
   -4.7652   -2.2435    1.1234 H   0  0  0  0  0  0  0  0  0  0  0  0
   -4.1352   -3.2385   -0.2156 H   0  0  0  0  0  0  0  0  0  0  0  0
   -2.6362   -2.3395    1.0094 C   0  0  0  0  0  0  0  0  0  0  0  0
   -1.8292   -2.8395    1.7814 O   0  0  0  0  0  0  0  0  0  0  0  0
   -2.3832   -1.2445    0.2964 N   0  0  0  0  0  0  0  0  0  0  0  0
   -3.1102   -0.8685   -0.2946 H   0  0  0  0  0  0  0  0  0  0  0  0
   -1.1292   -0.4875    0.3524 C   0  0  1  0  0  0  0  0  0  0  0  0
   -0.3087   -1.1556    0.0882 H   0  0  0  0  0  0  0  0  0  0  0  0
   -1.1749    0.6534   -0.6787 C   0  0  0  0  0  0  0  0  0  0  0  0
   -1.8115    0.3528   -1.5119 H   0  0  0  0  0  0  0  0  0  0  0  0
   -1.6335    1.5292   -0.2165 H   0  0  0  0  0  0  0  0  0  0  0  0
    0.1829    1.0334   -1.2368 C   0  0  0  0  0  0  0  0  0  0  0  0
    0.3506    2.2450   -1.9370 C   0  0  0  0  0  0  0  0  0  0  0  0
   -0.4973    2.8970   -2.1013 H   0  0  0  0  0  0  0  0  0  0  0  0
    1.6223    2.6125   -2.4182 C   0  0  0  0  0  0  0  0  0  0  0  0
    1.7467    3.5402   -2.9553 H   0  0  0  0  0  0  0  0  0  0  0  0
    2.7307    1.7668   -2.1950 C   0  0  0  0  0  0  0  0  0  0  0  0
    3.9617    2.1136   -2.6525 O   0  0  0  0  0  0  0  0  0  0  0  0
    3.9371    2.9067   -3.1895 H   0  0  0  0  0  0  0  0  0  0  0  0
    2.5620    0.5571   -1.4899 C   0  0  0  0  0  0  0  0  0  0  0  0
    3.4163   -0.0832   -1.3294 H   0  0  0  0  0  0  0  0  0  0  0  0
    1.2888    0.1904   -1.0141 C   0  0  0  0  0  0  0  0  0  0  0  0
    1.1582   -0.7436   -0.4805 H   0  0  0  0  0  0  0  0  0  0  0  0
   -0.8664    0.0378    1.7736 C   0  0  0  0  0  0  0  0  0  0  0  0
    0.2529   -0.0672    2.2760 O   0  0  0  0  0  0  0  0  0  0  0  0
   -1.8947    0.5991    2.4221 N   0  0  0  0  0  0  0  0  0  0  0  0
   -2.7942    0.5936    1.9635 H   0  0  0  0  0  0  0  0  0  0  0  0
   -1.8170    1.1453    3.7750 C   0  0  0  0  0  0  0  0  0  0  0  0
   -0.9697    1.8290    3.8506 H   0  0  0  0  0  0  0  0  0  0  0  0
   -2.7354    1.6828    4.0167 H   0  0  0  0  0  0  0  0  0  0  0  0
   -1.6754    0.3334    4.4914 H   0  0  0  0  0  0  0  0  0  0  0  0
  5  6  2  0  0  0  0
  5  7  1  0  0  0  0
  2  3  1  0  0  0  0
  2  4  1  0  0  0  0
  2  5  1  0  0  0  0
  1  2  1  0  0  0  0
 26 27  2  0  0  0  0
 26 28  1  0  0  0  0
 24 25  1  0  0  0  0
 22 23  1  0  0  0  0
 22 24  2  0  0  0  0
 20 21  1  0  0  0  0
 19 20  1  0  0  0  0
 19 22  1  0  0  0  0
 17 18  1  0  0  0  0
 17 19  2  0  0  0  0
 15 16  1  0  0  0  0
 15 17  1  0  0  0  0
 14 15  2  0  0  0  0
 14 24  1  0  0  0  0
 11 12  1  0  0  0  0
 11 13  1  0  0  0  0
 11 14  1  0  0  0  0
  9 10  1  0  0  0  0
  9 11  1  0  0  0  0
  9 26  1  0  0  0  0
  7  8  1  0  0  0  0
  7  9  1  0  0  0  0
 30 31  1  0  0  0  0
 30 32  1  0  0  0  0
 30 33  1  0  0  0  0
 28 29  1  0  0  0  0
 28 30  1  0  0  0  0
M  END
$$$$
default_name
  -OEChem-02102213163D

 33 33  0     1  0  0  0  0  0999 V2000
   -4.0702   -3.8485    1.4554 H   0  0  0  0  0  0  0  0  0  0  0  0
   -4.0012   -2.9605    0.8284 C   0  0  0  0  0  0  0  0  0  0  0  0
   -4.7652   -2.2435    1.1234 H   0  0  0  0  0  0  0  0  0  0  0  0
   -4.1352   -3.2385   -0.2156 H   0  0  0  0  0  0  0  0  0  0  0  0
   -2.6362   -2.3395    1.0094 C   0  0  0  0  0  0  0  0  0  0  0  0
   -1.8292   -2.8395    1.7814 O   0  0  0  0  0  0  0  0  0  0  0  0
   -2.3832   -1.2445    0.2964 N   0  0  0  0  0  0  0  0  0  0  0  0
   -3.1102   -0.8685   -0.2946 H   0  0  0  0  0  0  0  0  0  0  0  0
   -1.1292   -0.4875    0.3524 C   0  0  1  0  0  0  0  0  0  0  0  0
   -0.3087   -1.1556    0.0882 H   0  0  0  0  0  0  0  0  0  0  0  0
   -1.1749    0.6534   -0.6787 C   0  0  0  0  0  0  0  0  0  0  0  0
   -1.8115    0.3528   -1.5119 H   0  0  0  0  0  0  0  0  0  0  0  0
   -1.6335    1.5292   -0.2165 H   0  0  0  0  0  0  0  0  0  0  0  0
    0.1829    1.0334   -1.2368 C   0  0  0  0  0  0  0  0  0  0  0  0
    0.4366    2.3561   -1.6521 C   0  0  0  0  0  0  0  0  0  0  0  0
   -0.3473    3.1002   -1.5981 H   0  0  0  0  0  0  0  0  0  0  0  0
    1.7117    2.7135   -2.1320 C   0  0  0  0  0  0  0  0  0  0  0  0
    1.9019    3.7268   -2.4506 H   0  0  0  0  0  0  0  0  0  0  0  0
    2.7375    1.7452   -2.1929 C   0  0  0  0  0  0  0  0  0  0  0  0
    3.9714    2.0806   -2.6514 O   0  0  0  0  0  0  0  0  0  0  0  0
    3.9998    2.9766   -2.9894 H   0  0  0  0  0  0  0  0  0  0  0  0
    2.4833    0.4233   -1.7723 C   0  0  0  0  0  0  0  0  0  0  0  0
    3.2746   -0.3091   -1.8279 H   0  0  0  0  0  0  0  0  0  0  0  0
    1.2065    0.0681   -1.2975 C   0  0  0  0  0  0  0  0  0  0  0  0
    1.0093   -0.9499   -0.9832 H   0  0  0  0  0  0  0  0  0  0  0  0
   -0.8664    0.0378    1.7736 C   0  0  0  0  0  0  0  0  0  0  0  0
    0.2529   -0.0672    2.2760 O   0  0  0  0  0  0  0  0  0  0  0  0
   -1.8947    0.5991    2.4221 N   0  0  0  0  0  0  0  0  0  0  0  0
   -2.7942    0.5936    1.9635 H   0  0  0  0  0  0  0  0  0  0  0  0
   -1.8170    1.1453    3.7750 C   0  0  0  0  0  0  0  0  0  0  0  0
   -0.9697    1.8290    3.8506 H   0  0  0  0  0  0  0  0  0  0  0  0
   -2.7354    1.6828    4.0167 H   0  0  0  0  0  0  0  0  0  0  0  0
   -1.6754    0.3334    4.4914 H   0  0  0  0  0  0  0  0  0  0  0  0
  5  6  2  0  0  0  0
  5  7  1  0  0  0  0
  2  3  1  0  0  0  0
  2  4  1  0  0  0  0
  2  5  1  0  0  0  0
  1  2  1  0  0  0  0
 26 27  2  0  0  0  0
 26 28  1  0  0  0  0
 24 25  1  0  0  0  0
 22 23  1  0  0  0  0
 22 24  2  0  0  0  0
 20 21  1  0  0  0  0
 19 20  1  0  0  0  0
 19 22  1  0  0  0  0
 17 18  1  0  0  0  0
 17 19  2  0  0  0  0
 15 16  1  0  0  0  0
 15 17  1  0  0  0  0
 14 15  2  0  0  0  0
 14 24  1  0  0  0  0
 11 12  1  0  0  0  0
 11 13  1  0  0  0  0
 11 14  1  0  0  0  0
  9 10  1  0  0  0  0
  9 11  1  0  0  0  0
  9 26  1  0  0  0  0
  7  8  1  0  0  0  0
  7  9  1  0  0  0  0
 30 31  1  0  0  0  0
 30 32  1  0  0  0  0
 30 33  1  0  0  0  0
 28 29  1  0  0  0  0
 28 30  1  0  0  0  0
M  END
$$$$
default_name
  -OEChem-02102213163D

 33 33  0     1  0  0  0  0  0999 V2000
   -4.0702   -3.8485    1.4554 H   0  0  0  0  0  0  0  0  0  0  0  0
   -4.0012   -2.9605    0.8284 C   0  0  0  0  0  0  0  0  0  0  0  0
   -4.7652   -2.2435    1.1234 H   0  0  0  0  0  0  0  0  0  0  0  0
   -4.1352   -3.2385   -0.2156 H   0  0  0  0  0  0  0  0  0  0  0  0
   -2.6362   -2.3395    1.0094 C   0  0  0  0  0  0  0  0  0  0  0  0
   -1.8292   -2.8395    1.7814 O   0  0  0  0  0  0  0  0  0  0  0  0
   -2.3832   -1.2445    0.2964 N   0  0  0  0  0  0  0  0  0  0  0  0
   -3.1102   -0.8685   -0.2946 H   0  0  0  0  0  0  0  0  0  0  0  0
   -1.1292   -0.4875    0.3524 C   0  0  1  0  0  0  0  0  0  0  0  0
   -0.3087   -1.1556    0.0882 H   0  0  0  0  0  0  0  0  0  0  0  0
   -1.1749    0.6534   -0.6787 C   0  0  0  0  0  0  0  0  0  0  0  0
   -1.8115    0.3528   -1.5119 H   0  0  0  0  0  0  0  0  0  0  0  0
   -1.6335    1.5292   -0.2165 H   0  0  0  0  0  0  0  0  0  0  0  0
    0.1829    1.0334   -1.2368 C   0  0  0  0  0  0  0  0  0  0  0  0
    0.5487    2.3892   -1.3568 C   0  0  0  0  0  0  0  0  0  0  0  0
   -0.1504    3.1655   -1.0746 H   0  0  0  0  0  0  0  0  0  0  0  0
    1.8263    2.7362   -1.8378 C   0  0  0  0  0  0  0  0  0  0  0  0
    2.1024    3.7753   -1.9299 H   0  0  0  0  0  0  0  0  0  0  0  0
    2.7423    1.7233   -2.1964 C   0  0  0  0  0  0  0  0  0  0  0  0
    3.9777    2.0475   -2.6585 O   0  0  0  0  0  0  0  0  0  0  0  0
    4.0800    2.9918   -2.7839 H   0  0  0  0  0  0  0  0  0  0  0  0
    2.3763    0.3671   -2.0710 C   0  0  0  0  0  0  0  0  0  0  0  0
    3.0838   -0.3982   -2.3526 H   0  0  0  0  0  0  0  0  0  0  0  0
    1.0970    0.0235   -1.5943 C   0  0  0  0  0  0  0  0  0  0  0  0
    0.8132   -1.0186   -1.5070 H   0  0  0  0  0  0  0  0  0  0  0  0
   -0.8664    0.0378    1.7736 C   0  0  0  0  0  0  0  0  0  0  0  0
    0.2529   -0.0672    2.2760 O   0  0  0  0  0  0  0  0  0  0  0  0
   -1.8947    0.5991    2.4221 N   0  0  0  0  0  0  0  0  0  0  0  0
   -2.7942    0.5936    1.9635 H   0  0  0  0  0  0  0  0  0  0  0  0
   -1.8170    1.1453    3.7750 C   0  0  0  0  0  0  0  0  0  0  0  0
   -0.9697    1.8290    3.8506 H   0  0  0  0  0  0  0  0  0  0  0  0
   -2.7354    1.6828    4.0167 H   0  0  0  0  0  0  0  0  0  0  0  0
   -1.6754    0.3334    4.4914 H   0  0  0  0  0  0  0  0  0  0  0  0
  5  6  2  0  0  0  0
  5  7  1  0  0  0  0
  2  3  1  0  0  0  0
  2  4  1  0  0  0  0
  2  5  1  0  0  0  0
  1  2  1  0  0  0  0
 26 27  2  0  0  0  0
 26 28  1  0  0  0  0
 24 25  1  0  0  0  0
 22 23  1  0  0  0  0
 22 24  2  0  0  0  0
 20 21  1  0  0  0  0
 19 20  1  0  0  0  0
 19 22  1  0  0  0  0
 17 18  1  0  0  0  0
 17 19  2  0  0  0  0
 15 16  1  0  0  0  0
 15 17  1  0  0  0  0
 14 15  2  0  0  0  0
 14 24  1  0  0  0  0
 11 12  1  0  0  0  0
 11 13  1  0  0  0  0
 11 14  1  0  0  0  0
  9 10  1  0  0  0  0
  9 11  1  0  0  0  0
  9 26  1  0  0  0  0
  7  8  1  0  0  0  0
  7  9  1  0  0  0  0
 30 31  1  0  0  0  0
 30 32  1  0  0  0  0
 30 33  1  0  0  0  0
 28 29  1  0  0  0  0
 28 30  1  0  0  0  0
M  END
$$$$
default_name
  -OEChem-02102213163D

 33 33  0     1  0  0  0  0  0999 V2000
   -4.0702   -3.8485    1.4554 H   0  0  0  0  0  0  0  0  0  0  0  0
   -4.0012   -2.9605    0.8284 C   0  0  0  0  0  0  0  0  0  0  0  0
   -4.7652   -2.2435    1.1234 H   0  0  0  0  0  0  0  0  0  0  0  0
   -4.1352   -3.2385   -0.2156 H   0  0  0  0  0  0  0  0  0  0  0  0
   -2.6362   -2.3395    1.0094 C   0  0  0  0  0  0  0  0  0  0  0  0
   -1.8292   -2.8395    1.7814 O   0  0  0  0  0  0  0  0  0  0  0  0
   -2.3832   -1.2445    0.2964 N   0  0  0  0  0  0  0  0  0  0  0  0
   -3.1102   -0.8685   -0.2946 H   0  0  0  0  0  0  0  0  0  0  0  0
   -1.1292   -0.4875    0.3524 C   0  0  1  0  0  0  0  0  0  0  0  0
   -0.3087   -1.1556    0.0882 H   0  0  0  0  0  0  0  0  0  0  0  0
   -1.1749    0.6534   -0.6787 C   0  0  0  0  0  0  0  0  0  0  0  0
   -1.8115    0.3528   -1.5119 H   0  0  0  0  0  0  0  0  0  0  0  0
   -1.6335    1.5292   -0.2165 H   0  0  0  0  0  0  0  0  0  0  0  0
    0.1829    1.0334   -1.2368 C   0  0  0  0  0  0  0  0  0  0  0  0
    0.6793    2.3420   -1.0712 C   0  0  0  0  0  0  0  0  0  0  0  0
    0.0799    3.0885   -0.5666 H   0  0  0  0  0  0  0  0  0  0  0  0
    1.9581    2.6790   -1.5559 C   0  0  0  0  0  0  0  0  0  0  0  0
    2.3344    3.6824   -1.4287 H   0  0  0  0  0  0  0  0  0  0  0  0
    2.7445    1.7024   -2.2051 C   0  0  0  0  0  0  0  0  0  0  0  0
    3.9802    2.0166   -2.6735 O   0  0  0  0  0  0  0  0  0  0  0  0
    4.1723    2.9512   -2.5871 H   0  0  0  0  0  0  0  0  0  0  0  0
    2.2482    0.3921   -2.3657 C   0  0  0  0  0  0  0  0  0  0  0  0
    2.8571   -0.3446   -2.8677 H   0  0  0  0  0  0  0  0  0  0  0  0
    0.9677    0.0596   -1.8842 C   0  0  0  0  0  0  0  0  0  0  0  0
    0.5833   -0.9448   -2.0161 H   0  0  0  0  0  0  0  0  0  0  0  0
   -0.8664    0.0378    1.7736 C   0  0  0  0  0  0  0  0  0  0  0  0
    0.2529   -0.0672    2.2760 O   0  0  0  0  0  0  0  0  0  0  0  0
   -1.8947    0.5991    2.4221 N   0  0  0  0  0  0  0  0  0  0  0  0
   -2.7942    0.5936    1.9635 H   0  0  0  0  0  0  0  0  0  0  0  0
   -1.8170    1.1453    3.7750 C   0  0  0  0  0  0  0  0  0  0  0  0
   -0.9697    1.8290    3.8506 H   0  0  0  0  0  0  0  0  0  0  0  0
   -2.7354    1.6828    4.0167 H   0  0  0  0  0  0  0  0  0  0  0  0
   -1.6754    0.3334    4.4914 H   0  0  0  0  0  0  0  0  0  0  0  0
  5  6  2  0  0  0  0
  5  7  1  0  0  0  0
  2  3  1  0  0  0  0
  2  4  1  0  0  0  0
  2  5  1  0  0  0  0
  1  2  1  0  0  0  0
 26 27  2  0  0  0  0
 26 28  1  0  0  0  0
 24 25  1  0  0  0  0
 22 23  1  0  0  0  0
 22 24  2  0  0  0  0
 20 21  1  0  0  0  0
 19 20  1  0  0  0  0
 19 22  1  0  0  0  0
 17 18  1  0  0  0  0
 17 19  2  0  0  0  0
 15 16  1  0  0  0  0
 15 17  1  0  0  0  0
 14 15  2  0  0  0  0
 14 24  1  0  0  0  0
 11 12  1  0  0  0  0
 11 13  1  0  0  0  0
 11 14  1  0  0  0  0
  9 10  1  0  0  0  0
  9 11  1  0  0  0  0
  9 26  1  0  0  0  0
  7  8  1  0  0  0  0
  7  9  1  0  0  0  0
 30 31  1  0  0  0  0
 30 32  1  0  0  0  0
 30 33  1  0  0  0  0
 28 29  1  0  0  0  0
 28 30  1  0  0  0  0
M  END
$$$$
default_name
  -OEChem-02102213163D

 33 33  0     1  0  0  0  0  0999 V2000
   -4.0702   -3.8485    1.4554 H   0  0  0  0  0  0  0  0  0  0  0  0
   -4.0012   -2.9605    0.8284 C   0  0  0  0  0  0  0  0  0  0  0  0
   -4.7652   -2.2435    1.1234 H   0  0  0  0  0  0  0  0  0  0  0  0
   -4.1352   -3.2385   -0.2156 H   0  0  0  0  0  0  0  0  0  0  0  0
   -2.6362   -2.3395    1.0094 C   0  0  0  0  0  0  0  0  0  0  0  0
   -1.8292   -2.8395    1.7814 O   0  0  0  0  0  0  0  0  0  0  0  0
   -2.3832   -1.2445    0.2964 N   0  0  0  0  0  0  0  0  0  0  0  0
   -3.1102   -0.8685   -0.2946 H   0  0  0  0  0  0  0  0  0  0  0  0
   -1.1292   -0.4875    0.3524 C   0  0  1  0  0  0  0  0  0  0  0  0
   -0.3087   -1.1556    0.0882 H   0  0  0  0  0  0  0  0  0  0  0  0
   -1.1749    0.6534   -0.6787 C   0  0  0  0  0  0  0  0  0  0  0  0
   -1.8115    0.3528   -1.5119 H   0  0  0  0  0  0  0  0  0  0  0  0
   -1.6335    1.5292   -0.2165 H   0  0  0  0  0  0  0  0  0  0  0  0
    0.1829    1.0334   -1.2368 C   0  0  0  0  0  0  0  0  0  0  0  0
    0.8195    2.2178   -0.8147 C   0  0  0  0  0  0  0  0  0  0  0  0
    0.3281    2.8745   -0.1087 H   0  0  0  0  0  0  0  0  0  0  0  0
    2.0984    2.5458   -1.3054 C   0  0  0  0  0  0  0  0  0  0  0  0
    2.5822    3.4543   -0.9812 H   0  0  0  0  0  0  0  0  0  0  0  0
    2.7441    1.6840   -2.2186 C   0  0  0  0  0  0  0  0  0  0  0  0
    3.9787    1.9899   -2.6953 O   0  0  0  0  0  0  0  0  0  0  0  0
    4.2703    2.8576   -2.4124 H   0  0  0  0  0  0  0  0  0  0  0  0
    2.1077    0.4968   -2.6361 C   0  0  0  0  0  0  0  0  0  0  0  0
    2.6098   -0.1518   -3.3381 H   0  0  0  0  0  0  0  0  0  0  0  0
    0.8275    0.1740   -2.1474 C   0  0  0  0  0  0  0  0  0  0  0  0
    0.3352   -0.7336   -2.4758 H   0  0  0  0  0  0  0  0  0  0  0  0
   -0.8664    0.0378    1.7736 C   0  0  0  0  0  0  0  0  0  0  0  0
    0.2529   -0.0672    2.2760 O   0  0  0  0  0  0  0  0  0  0  0  0
   -1.8947    0.5991    2.4221 N   0  0  0  0  0  0  0  0  0  0  0  0
   -2.7942    0.5936    1.9635 H   0  0  0  0  0  0  0  0  0  0  0  0
   -1.8170    1.1453    3.7750 C   0  0  0  0  0  0  0  0  0  0  0  0
   -0.9697    1.8290    3.8506 H   0  0  0  0  0  0  0  0  0  0  0  0
   -2.7354    1.6828    4.0167 H   0  0  0  0  0  0  0  0  0  0  0  0
   -1.6754    0.3334    4.4914 H   0  0  0  0  0  0  0  0  0  0  0  0
  5  6  2  0  0  0  0
  5  7  1  0  0  0  0
  2  3  1  0  0  0  0
  2  4  1  0  0  0  0
  2  5  1  0  0  0  0
  1  2  1  0  0  0  0
 26 27  2  0  0  0  0
 26 28  1  0  0  0  0
 24 25  1  0  0  0  0
 22 23  1  0  0  0  0
 22 24  2  0  0  0  0
 20 21  1  0  0  0  0
 19 20  1  0  0  0  0
 19 22  1  0  0  0  0
 17 18  1  0  0  0  0
 17 19  2  0  0  0  0
 15 16  1  0  0  0  0
 15 17  1  0  0  0  0
 14 15  2  0  0  0  0
 14 24  1  0  0  0  0
 11 12  1  0  0  0  0
 11 13  1  0  0  0  0
 11 14  1  0  0  0  0
  9 10  1  0  0  0  0
  9 11  1  0  0  0  0
  9 26  1  0  0  0  0
  7  8  1  0  0  0  0
  7  9  1  0  0  0  0
 30 31  1  0  0  0  0
 30 32  1  0  0  0  0
 30 33  1  0  0  0  0
 28 29  1  0  0  0  0
 28 30  1  0  0  0  0
M  END
$$$$
default_name
  -OEChem-02102213163D

 33 33  0     1  0  0  0  0  0999 V2000
   -4.0702   -3.8485    1.4554 H   0  0  0  0  0  0  0  0  0  0  0  0
   -4.0012   -2.9605    0.8284 C   0  0  0  0  0  0  0  0  0  0  0  0
   -4.7652   -2.2435    1.1234 H   0  0  0  0  0  0  0  0  0  0  0  0
   -4.1352   -3.2385   -0.2156 H   0  0  0  0  0  0  0  0  0  0  0  0
   -2.6362   -2.3395    1.0094 C   0  0  0  0  0  0  0  0  0  0  0  0
   -1.8292   -2.8395    1.7814 O   0  0  0  0  0  0  0  0  0  0  0  0
   -2.3832   -1.2445    0.2964 N   0  0  0  0  0  0  0  0  0  0  0  0
   -3.1102   -0.8685   -0.2946 H   0  0  0  0  0  0  0  0  0  0  0  0
   -1.1292   -0.4875    0.3524 C   0  0  1  0  0  0  0  0  0  0  0  0
   -0.3087   -1.1556    0.0882 H   0  0  0  0  0  0  0  0  0  0  0  0
   -1.1749    0.6534   -0.6787 C   0  0  0  0  0  0  0  0  0  0  0  0
   -1.8115    0.3528   -1.5119 H   0  0  0  0  0  0  0  0  0  0  0  0
   -1.6335    1.5292   -0.2165 H   0  0  0  0  0  0  0  0  0  0  0  0
    0.1829    1.0334   -1.2368 C   0  0  0  0  0  0  0  0  0  0  0  0
    0.9597    2.0251   -0.6048 C   0  0  0  0  0  0  0  0  0  0  0  0
    0.5770    2.5380    0.2679 H   0  0  0  0  0  0  0  0  0  0  0  0
    2.2374    2.3458   -1.1033 C   0  0  0  0  0  0  0  0  0  0  0  0
    2.8288    3.1068   -0.6178 H   0  0  0  0  0  0  0  0  0  0  0  0
    2.7411    1.6695   -2.2358 C   0  0  0  0  0  0  0  0  0  0  0  0
    3.9733    1.9694   -2.7225 O   0  0  0  0  0  0  0  0  0  0  0  0
    4.3673    2.7174   -2.2717 H   0  0  0  0  0  0  0  0  0  0  0  0
    1.9644    0.6740   -2.8640 C   0  0  0  0  0  0  0  0  0  0  0  0
    2.3588    0.1670   -3.7318 H   0  0  0  0  0  0  0  0  0  0  0  0
    0.6859    0.3589   -2.3661 C   0  0  0  0  0  0  0  0  0  0  0  0
    0.0859   -0.3995   -2.8549 H   0  0  0  0  0  0  0  0  0  0  0  0
   -0.8664    0.0378    1.7736 C   0  0  0  0  0  0  0  0  0  0  0  0
    0.2529   -0.0672    2.2760 O   0  0  0  0  0  0  0  0  0  0  0  0
   -1.8947    0.5991    2.4221 N   0  0  0  0  0  0  0  0  0  0  0  0
   -2.7942    0.5936    1.9635 H   0  0  0  0  0  0  0  0  0  0  0  0
   -1.8170    1.1453    3.7750 C   0  0  0  0  0  0  0  0  0  0  0  0
   -0.9697    1.8290    3.8506 H   0  0  0  0  0  0  0  0  0  0  0  0
   -2.7354    1.6828    4.0167 H   0  0  0  0  0  0  0  0  0  0  0  0
   -1.6754    0.3334    4.4914 H   0  0  0  0  0  0  0  0  0  0  0  0
  5  6  2  0  0  0  0
  5  7  1  0  0  0  0
  2  3  1  0  0  0  0
  2  4  1  0  0  0  0
  2  5  1  0  0  0  0
  1  2  1  0  0  0  0
 26 27  2  0  0  0  0
 26 28  1  0  0  0  0
 24 25  1  0  0  0  0
 22 23  1  0  0  0  0
 22 24  2  0  0  0  0
 20 21  1  0  0  0  0
 19 20  1  0  0  0  0
 19 22  1  0  0  0  0
 17 18  1  0  0  0  0
 17 19  2  0  0  0  0
 15 16  1  0  0  0  0
 15 17  1  0  0  0  0
 14 15  2  0  0  0  0
 14 24  1  0  0  0  0
 11 12  1  0  0  0  0
 11 13  1  0  0  0  0
 11 14  1  0  0  0  0
  9 10  1  0  0  0  0
  9 11  1  0  0  0  0
  9 26  1  0  0  0  0
  7  8  1  0  0  0  0
  7  9  1  0  0  0  0
 30 31  1  0  0  0  0
 30 32  1  0  0  0  0
 30 33  1  0  0  0  0
 28 29  1  0  0  0  0
 28 30  1  0  0  0  0
M  END
$$$$
default_name
  -OEChem-02102213163D

 33 33  0     1  0  0  0  0  0999 V2000
   -4.0702   -3.8485    1.4554 H   0  0  0  0  0  0  0  0  0  0  0  0
   -4.0012   -2.9605    0.8284 C   0  0  0  0  0  0  0  0  0  0  0  0
   -4.7652   -2.2435    1.1234 H   0  0  0  0  0  0  0  0  0  0  0  0
   -4.1352   -3.2385   -0.2156 H   0  0  0  0  0  0  0  0  0  0  0  0
   -2.6362   -2.3395    1.0094 C   0  0  0  0  0  0  0  0  0  0  0  0
   -1.8292   -2.8395    1.7814 O   0  0  0  0  0  0  0  0  0  0  0  0
   -2.3832   -1.2445    0.2964 N   0  0  0  0  0  0  0  0  0  0  0  0
   -3.1102   -0.8685   -0.2946 H   0  0  0  0  0  0  0  0  0  0  0  0
   -1.1292   -0.4875    0.3524 C   0  0  1  0  0  0  0  0  0  0  0  0
   -0.3087   -1.1556    0.0882 H   0  0  0  0  0  0  0  0  0  0  0  0
   -1.1749    0.6534   -0.6787 C   0  0  0  0  0  0  0  0  0  0  0  0
   -1.8115    0.3528   -1.5119 H   0  0  0  0  0  0  0  0  0  0  0  0
   -1.6335    1.5292   -0.2165 H   0  0  0  0  0  0  0  0  0  0  0  0
    0.1829    1.0334   -1.2368 C   0  0  0  0  0  0  0  0  0  0  0  0
    1.0904    1.7769   -0.4558 C   0  0  0  0  0  0  0  0  0  0  0  0
    0.8099    2.1020    0.5375 H   0  0  0  0  0  0  0  0  0  0  0  0
    2.3657    2.0925   -0.9635 C   0  0  0  0  0  0  0  0  0  0  0  0
    3.0575    2.6633   -0.3633 H   0  0  0  0  0  0  0  0  0  0  0  0
    2.7357    1.6597   -2.2556 C   0  0  0  0  0  0  0  0  0  0  0  0
    3.9643    1.9564   -2.7531 O   0  0  0  0  0  0  0  0  0  0  0  0
    4.4569    2.5401   -2.1746 H   0  0  0  0  0  0  0  0  0  0  0  0
    1.8282    0.9116   -3.0338 C   0  0  0  0  0  0  0  0  0  0  0  0
    2.1211    0.5901   -4.0219 H   0  0  0  0  0  0  0  0  0  0  0  0
    0.5525    0.6016   -2.5253 C   0  0  0  0  0  0  0  0  0  0  0  0
   -0.1476    0.0348   -3.1274 H   0  0  0  0  0  0  0  0  0  0  0  0
   -0.8664    0.0378    1.7736 C   0  0  0  0  0  0  0  0  0  0  0  0
    0.2529   -0.0672    2.2760 O   0  0  0  0  0  0  0  0  0  0  0  0
   -1.8947    0.5991    2.4221 N   0  0  0  0  0  0  0  0  0  0  0  0
   -2.7942    0.5936    1.9635 H   0  0  0  0  0  0  0  0  0  0  0  0
   -1.8170    1.1453    3.7750 C   0  0  0  0  0  0  0  0  0  0  0  0
   -0.9697    1.8290    3.8506 H   0  0  0  0  0  0  0  0  0  0  0  0
   -2.7354    1.6828    4.0167 H   0  0  0  0  0  0  0  0  0  0  0  0
   -1.6754    0.3334    4.4914 H   0  0  0  0  0  0  0  0  0  0  0  0
  5  6  2  0  0  0  0
  5  7  1  0  0  0  0
  2  3  1  0  0  0  0
  2  4  1  0  0  0  0
  2  5  1  0  0  0  0
  1  2  1  0  0  0  0
 26 27  2  0  0  0  0
 26 28  1  0  0  0  0
 24 25  1  0  0  0  0
 22 23  1  0  0  0  0
 22 24  2  0  0  0  0
 20 21  1  0  0  0  0
 19 20  1  0  0  0  0
 19 22  1  0  0  0  0
 17 18  1  0  0  0  0
 17 19  2  0  0  0  0
 15 16  1  0  0  0  0
 15 17  1  0  0  0  0
 14 15  2  0  0  0  0
 14 24  1  0  0  0  0
 11 12  1  0  0  0  0
 11 13  1  0  0  0  0
 11 14  1  0  0  0  0
  9 10  1  0  0  0  0
  9 11  1  0  0  0  0
  9 26  1  0  0  0  0
  7  8  1  0  0  0  0
  7  9  1  0  0  0  0
 30 31  1  0  0  0  0
 30 32  1  0  0  0  0
 30 33  1  0  0  0  0
 28 29  1  0  0  0  0
 28 30  1  0  0  0  0
M  END
$$$$
default_name
  -OEChem-02102213163D

 33 33  0     1  0  0  0  0  0999 V2000
   -4.0702   -3.8485    1.4554 H   0  0  0  0  0  0  0  0  0  0  0  0
   -4.0012   -2.9605    0.8284 C   0  0  0  0  0  0  0  0  0  0  0  0
   -4.7652   -2.2435    1.1234 H   0  0  0  0  0  0  0  0  0  0  0  0
   -4.1352   -3.2385   -0.2156 H   0  0  0  0  0  0  0  0  0  0  0  0
   -2.6362   -2.3395    1.0094 C   0  0  0  0  0  0  0  0  0  0  0  0
   -1.8292   -2.8395    1.7814 O   0  0  0  0  0  0  0  0  0  0  0  0
   -2.3832   -1.2445    0.2964 N   0  0  0  0  0  0  0  0  0  0  0  0
   -3.1102   -0.8685   -0.2946 H   0  0  0  0  0  0  0  0  0  0  0  0
   -1.1292   -0.4875    0.3524 C   0  0  1  0  0  0  0  0  0  0  0  0
   -0.3087   -1.1556    0.0882 H   0  0  0  0  0  0  0  0  0  0  0  0
   -1.1749    0.6534   -0.6787 C   0  0  0  0  0  0  0  0  0  0  0  0
   -1.8115    0.3528   -1.5119 H   0  0  0  0  0  0  0  0  0  0  0  0
   -1.6335    1.5292   -0.2165 H   0  0  0  0  0  0  0  0  0  0  0  0
    0.1829    1.0334   -1.2368 C   0  0  0  0  0  0  0  0  0  0  0  0
    1.2027    1.4902   -0.3779 C   0  0  0  0  0  0  0  0  0  0  0  0
    1.0107    1.5962    0.6818 H   0  0  0  0  0  0  0  0  0  0  0  0
    2.4746    1.8033   -0.8955 C   0  0  0  0  0  0  0  0  0  0  0  0
    3.2527    2.1543   -0.2352 H   0  0  0  0  0  0  0  0  0  0  0  0
    2.7283    1.6553   -2.2766 C   0  0  0  0  0  0  0  0  0  0  0  0
    3.9525    1.9518   -2.7851 O   0  0  0  0  0  0  0  0  0  0  0  0
    4.5328    2.3378   -2.1277 H   0  0  0  0  0  0  0  0  0  0  0  0
    1.7082    1.1934   -3.1339 C   0  0  0  0  0  0  0  0  0  0  0  0
    1.9131    1.0886   -4.1887 H   0  0  0  0  0  0  0  0  0  0  0  0
    0.4365    0.8857   -2.6142 C   0  0  0  0  0  0  0  0  0  0  0  0
   -0.3495    0.5397   -3.2748 H   0  0  0  0  0  0  0  0  0  0  0  0
   -0.8664    0.0378    1.7736 C   0  0  0  0  0  0  0  0  0  0  0  0
    0.2529   -0.0672    2.2760 O   0  0  0  0  0  0  0  0  0  0  0  0
   -1.8947    0.5991    2.4221 N   0  0  0  0  0  0  0  0  0  0  0  0
   -2.7942    0.5936    1.9635 H   0  0  0  0  0  0  0  0  0  0  0  0
   -1.8170    1.1453    3.7750 C   0  0  0  0  0  0  0  0  0  0  0  0
   -0.9697    1.8290    3.8506 H   0  0  0  0  0  0  0  0  0  0  0  0
   -2.7354    1.6828    4.0167 H   0  0  0  0  0  0  0  0  0  0  0  0
   -1.6754    0.3334    4.4914 H   0  0  0  0  0  0  0  0  0  0  0  0
  5  6  2  0  0  0  0
  5  7  1  0  0  0  0
  2  3  1  0  0  0  0
  2  4  1  0  0  0  0
  2  5  1  0  0  0  0
  1  2  1  0  0  0  0
 26 27  2  0  0  0  0
 26 28  1  0  0  0  0
 24 25  1  0  0  0  0
 22 23  1  0  0  0  0
 22 24  2  0  0  0  0
 20 21  1  0  0  0  0
 19 20  1  0  0  0  0
 19 22  1  0  0  0  0
 17 18  1  0  0  0  0
 17 19  2  0  0  0  0
 15 16  1  0  0  0  0
 15 17  1  0  0  0  0
 14 15  2  0  0  0  0
 14 24  1  0  0  0  0
 11 12  1  0  0  0  0
 11 13  1  0  0  0  0
 11 14  1  0  0  0  0
  9 10  1  0  0  0  0
  9 11  1  0  0  0  0
  9 26  1  0  0  0  0
  7  8  1  0  0  0  0
  7  9  1  0  0  0  0
 30 31  1  0  0  0  0
 30 32  1  0  0  0  0
 30 33  1  0  0  0  0
 28 29  1  0  0  0  0
 28 30  1  0  0  0  0
M  END
$$$$
default_name
  -OEChem-02102213163D

 33 33  0     1  0  0  0  0  0999 V2000
   -4.0702   -3.8485    1.4554 H   0  0  0  0  0  0  0  0  0  0  0  0
   -4.0012   -2.9605    0.8284 C   0  0  0  0  0  0  0  0  0  0  0  0
   -4.7652   -2.2435    1.1234 H   0  0  0  0  0  0  0  0  0  0  0  0
   -4.1352   -3.2385   -0.2156 H   0  0  0  0  0  0  0  0  0  0  0  0
   -2.6362   -2.3395    1.0094 C   0  0  0  0  0  0  0  0  0  0  0  0
   -1.8292   -2.8395    1.7814 O   0  0  0  0  0  0  0  0  0  0  0  0
   -2.3832   -1.2445    0.2964 N   0  0  0  0  0  0  0  0  0  0  0  0
   -3.1102   -0.8685   -0.2946 H   0  0  0  0  0  0  0  0  0  0  0  0
   -1.1292   -0.4875    0.3524 C   0  0  1  0  0  0  0  0  0  0  0  0
   -0.3087   -1.1556    0.0882 H   0  0  0  0  0  0  0  0  0  0  0  0
   -1.1749    0.6534   -0.6787 C   0  0  0  0  0  0  0  0  0  0  0  0
   -1.8115    0.3528   -1.5119 H   0  0  0  0  0  0  0  0  0  0  0  0
   -1.6335    1.5292   -0.2165 H   0  0  0  0  0  0  0  0  0  0  0  0
    0.1829    1.0334   -1.2368 C   0  0  0  0  0  0  0  0  0  0  0  0
    1.2888    1.1845   -0.3764 C   0  0  0  0  0  0  0  0  0  0  0  0
    1.1659    1.0550    0.6910 H   0  0  0  0  0  0  0  0  0  0  0  0
    2.5567    1.4977   -0.9039 C   0  0  0  0  0  0  0  0  0  0  0  0
    3.4010    1.6142   -0.2420 H   0  0  0  0  0  0  0  0  0  0  0  0
    2.7194    1.6567   -2.2975 C   0  0  0  0  0  0  0  0  0  0  0  0
    3.9385    1.9559   -2.8164 O   0  0  0  0  0  0  0  0  0  0  0  0
    4.5898    2.1243   -2.1342 H   0  0  0  0  0  0  0  0  0  0  0  0
    1.6126    1.5003   -3.1575 C   0  0  0  0  0  0  0  0  0  0  0  0
    1.7488    1.6286   -4.2207 H   0  0  0  0  0  0  0  0  0  0  0  0
    0.3457    1.1917   -2.6266 C   0  0  0  0  0  0  0  0  0  0  0  0
   -0.5060    1.0809   -3.2872 H   0  0  0  0  0  0  0  0  0  0  0  0
   -0.8664    0.0378    1.7736 C   0  0  0  0  0  0  0  0  0  0  0  0
    0.2529   -0.0672    2.2760 O   0  0  0  0  0  0  0  0  0  0  0  0
   -1.8947    0.5991    2.4221 N   0  0  0  0  0  0  0  0  0  0  0  0
   -2.7942    0.5936    1.9635 H   0  0  0  0  0  0  0  0  0  0  0  0
   -1.8170    1.1453    3.7750 C   0  0  0  0  0  0  0  0  0  0  0  0
   -0.9697    1.8290    3.8506 H   0  0  0  0  0  0  0  0  0  0  0  0
   -2.7354    1.6828    4.0167 H   0  0  0  0  0  0  0  0  0  0  0  0
   -1.6754    0.3334    4.4914 H   0  0  0  0  0  0  0  0  0  0  0  0
  5  6  2  0  0  0  0
  5  7  1  0  0  0  0
  2  3  1  0  0  0  0
  2  4  1  0  0  0  0
  2  5  1  0  0  0  0
  1  2  1  0  0  0  0
 26 27  2  0  0  0  0
 26 28  1  0  0  0  0
 24 25  1  0  0  0  0
 22 23  1  0  0  0  0
 22 24  2  0  0  0  0
 20 21  1  0  0  0  0
 19 20  1  0  0  0  0
 19 22  1  0  0  0  0
 17 18  1  0  0  0  0
 17 19  2  0  0  0  0
 15 16  1  0  0  0  0
 15 17  1  0  0  0  0
 14 15  2  0  0  0  0
 14 24  1  0  0  0  0
 11 12  1  0  0  0  0
 11 13  1  0  0  0  0
 11 14  1  0  0  0  0
  9 10  1  0  0  0  0
  9 11  1  0  0  0  0
  9 26  1  0  0  0  0
  7  8  1  0  0  0  0
  7  9  1  0  0  0  0
 30 31  1  0  0  0  0
 30 32  1  0  0  0  0
 30 33  1  0  0  0  0
 28 29  1  0  0  0  0
 28 30  1  0  0  0  0
M  END
$$$$
default_name
  -OEChem-02102213163D

 33 33  0     1  0  0  0  0  0999 V2000
   -4.0702   -3.8485    1.4554 H   0  0  0  0  0  0  0  0  0  0  0  0
   -4.0012   -2.9605    0.8284 C   0  0  0  0  0  0  0  0  0  0  0  0
   -4.7652   -2.2435    1.1234 H   0  0  0  0  0  0  0  0  0  0  0  0
   -4.1352   -3.2385   -0.2156 H   0  0  0  0  0  0  0  0  0  0  0  0
   -2.6362   -2.3395    1.0094 C   0  0  0  0  0  0  0  0  0  0  0  0
   -1.8292   -2.8395    1.7814 O   0  0  0  0  0  0  0  0  0  0  0  0
   -2.3832   -1.2445    0.2964 N   0  0  0  0  0  0  0  0  0  0  0  0
   -3.1102   -0.8685   -0.2946 H   0  0  0  0  0  0  0  0  0  0  0  0
   -1.1292   -0.4875    0.3524 C   0  0  1  0  0  0  0  0  0  0  0  0
   -0.3087   -1.1556    0.0882 H   0  0  0  0  0  0  0  0  0  0  0  0
   -1.1749    0.6534   -0.6787 C   0  0  0  0  0  0  0  0  0  0  0  0
   -1.8115    0.3528   -1.5119 H   0  0  0  0  0  0  0  0  0  0  0  0
   -1.6335    1.5292   -0.2165 H   0  0  0  0  0  0  0  0  0  0  0  0
    0.1829    1.0334   -1.2368 C   0  0  0  0  0  0  0  0  0  0  0  0
    1.3431    0.8807   -0.4513 C   0  0  0  0  0  0  0  0  0  0  0  0
    1.2649    0.5154    0.5643 H   0  0  0  0  0  0  0  0  0  0  0  0
    2.6063    1.1967   -0.9882 C   0  0  0  0  0  0  0  0  0  0  0  0
    3.4923    1.0800   -0.3833 H   0  0  0  0  0  0  0  0  0  0  0  0
    2.7095    1.6637   -2.3167 C   0  0  0  0  0  0  0  0  0  0  0  0
    3.9233    1.9684   -2.8447 O   0  0  0  0  0  0  0  0  0  0  0  0
    4.6242    1.9141   -2.1937 H   0  0  0  0  0  0  0  0  0  0  0  0
    1.5480    1.8113   -3.1029 C   0  0  0  0  0  0  0  0  0  0  0  0
    1.6394    2.1733   -4.1159 H   0  0  0  0  0  0  0  0  0  0  0  0
    0.2864    1.4988   -2.5619 C   0  0  0  0  0  0  0  0  0  0  0  0
   -0.6064    1.6213   -3.1635 H   0  0  0  0  0  0  0  0  0  0  0  0
   -0.8664    0.0378    1.7736 C   0  0  0  0  0  0  0  0  0  0  0  0
    0.2529   -0.0672    2.2760 O   0  0  0  0  0  0  0  0  0  0  0  0
   -1.8947    0.5991    2.4221 N   0  0  0  0  0  0  0  0  0  0  0  0
   -2.7942    0.5936    1.9635 H   0  0  0  0  0  0  0  0  0  0  0  0
   -1.8170    1.1453    3.7750 C   0  0  0  0  0  0  0  0  0  0  0  0
   -0.9697    1.8290    3.8506 H   0  0  0  0  0  0  0  0  0  0  0  0
   -2.7354    1.6828    4.0167 H   0  0  0  0  0  0  0  0  0  0  0  0
   -1.6754    0.3334    4.4914 H   0  0  0  0  0  0  0  0  0  0  0  0
  5  6  2  0  0  0  0
  5  7  1  0  0  0  0
  2  3  1  0  0  0  0
  2  4  1  0  0  0  0
  2  5  1  0  0  0  0
  1  2  1  0  0  0  0
 26 27  2  0  0  0  0
 26 28  1  0  0  0  0
 24 25  1  0  0  0  0
 22 23  1  0  0  0  0
 22 24  2  0  0  0  0
 20 21  1  0  0  0  0
 19 20  1  0  0  0  0
 19 22  1  0  0  0  0
 17 18  1  0  0  0  0
 17 19  2  0  0  0  0
 15 16  1  0  0  0  0
 15 17  1  0  0  0  0
 14 15  2  0  0  0  0
 14 24  1  0  0  0  0
 11 12  1  0  0  0  0
 11 13  1  0  0  0  0
 11 14  1  0  0  0  0
  9 10  1  0  0  0  0
  9 11  1  0  0  0  0
  9 26  1  0  0  0  0
  7  8  1  0  0  0  0
  7  9  1  0  0  0  0
 30 31  1  0  0  0  0
 30 32  1  0  0  0  0
 30 33  1  0  0  0  0
 28 29  1  0  0  0  0
 28 30  1  0  0  0  0
M  END
$$$$
default_name
  -OEChem-02102213163D

 33 33  0     1  0  0  0  0  0999 V2000
   -4.0702   -3.8485    1.4554 H   0  0  0  0  0  0  0  0  0  0  0  0
   -4.0012   -2.9605    0.8284 C   0  0  0  0  0  0  0  0  0  0  0  0
   -4.7652   -2.2435    1.1234 H   0  0  0  0  0  0  0  0  0  0  0  0
   -4.1352   -3.2385   -0.2156 H   0  0  0  0  0  0  0  0  0  0  0  0
   -2.6362   -2.3395    1.0094 C   0  0  0  0  0  0  0  0  0  0  0  0
   -1.8292   -2.8395    1.7814 O   0  0  0  0  0  0  0  0  0  0  0  0
   -2.3832   -1.2445    0.2964 N   0  0  0  0  0  0  0  0  0  0  0  0
   -3.1102   -0.8685   -0.2946 H   0  0  0  0  0  0  0  0  0  0  0  0
   -1.1292   -0.4875    0.3524 C   0  0  1  0  0  0  0  0  0  0  0  0
   -0.3087   -1.1556    0.0882 H   0  0  0  0  0  0  0  0  0  0  0  0
   -1.1749    0.6534   -0.6787 C   0  0  0  0  0  0  0  0  0  0  0  0
   -1.8115    0.3528   -1.5119 H   0  0  0  0  0  0  0  0  0  0  0  0
   -1.6335    1.5292   -0.2165 H   0  0  0  0  0  0  0  0  0  0  0  0
    0.1829    1.0334   -1.2368 C   0  0  0  0  0  0  0  0  0  0  0  0
    1.3616    0.5994   -0.5976 C   0  0  0  0  0  0  0  0  0  0  0  0
    1.3008    0.0140    0.3105 H   0  0  0  0  0  0  0  0  0  0  0  0
    2.6200    0.9208   -1.1425 C   0  0  0  0  0  0  0  0  0  0  0  0
    3.5205    0.5881   -0.6496 H   0  0  0  0  0  0  0  0  0  0  0  0
    2.6994    1.6758   -2.3330 C   0  0  0  0  0  0  0  0  0  0  0  0
    3.9081    1.9885   -2.8681 O   0  0  0  0  0  0  0  0  0  0  0  0
    4.6335    1.7216   -2.3020 H   0  0  0  0  0  0  0  0  0  0  0  0
    1.5188    2.1051   -2.9740 C   0  0  0  0  0  0  0  0  0  0  0  0
    1.5925    2.6856   -3.8813 H   0  0  0  0  0  0  0  0  0  0  0  0
    0.2625    1.7862   -2.4243 C   0  0  0  0  0  0  0  0  0  0  0  0
   -0.6439    2.1243   -2.9123 H   0  0  0  0  0  0  0  0  0  0  0  0
   -0.8664    0.0378    1.7736 C   0  0  0  0  0  0  0  0  0  0  0  0
    0.2529   -0.0672    2.2760 O   0  0  0  0  0  0  0  0  0  0  0  0
   -1.8947    0.5991    2.4221 N   0  0  0  0  0  0  0  0  0  0  0  0
   -2.7942    0.5936    1.9635 H   0  0  0  0  0  0  0  0  0  0  0  0
   -1.8170    1.1453    3.7750 C   0  0  0  0  0  0  0  0  0  0  0  0
   -0.9697    1.8290    3.8506 H   0  0  0  0  0  0  0  0  0  0  0  0
   -2.7354    1.6828    4.0167 H   0  0  0  0  0  0  0  0  0  0  0  0
   -1.6754    0.3334    4.4914 H   0  0  0  0  0  0  0  0  0  0  0  0
  5  6  2  0  0  0  0
  5  7  1  0  0  0  0
  2  3  1  0  0  0  0
  2  4  1  0  0  0  0
  2  5  1  0  0  0  0
  1  2  1  0  0  0  0
 26 27  2  0  0  0  0
 26 28  1  0  0  0  0
 24 25  1  0  0  0  0
 22 23  1  0  0  0  0
 22 24  2  0  0  0  0
 20 21  1  0  0  0  0
 19 20  1  0  0  0  0
 19 22  1  0  0  0  0
 17 18  1  0  0  0  0
 17 19  2  0  0  0  0
 15 16  1  0  0  0  0
 15 17  1  0  0  0  0
 14 15  2  0  0  0  0
 14 24  1  0  0  0  0
 11 12  1  0  0  0  0
 11 13  1  0  0  0  0
 11 14  1  0  0  0  0
  9 10  1  0  0  0  0
  9 11  1  0  0  0  0
  9 26  1  0  0  0  0
  7  8  1  0  0  0  0
  7  9  1  0  0  0  0
 30 31  1  0  0  0  0
 30 32  1  0  0  0  0
 30 33  1  0  0  0  0
 28 29  1  0  0  0  0
 28 30  1  0  0  0  0
M  END
$$$$
default_name
  -OEChem-02102213163D

 33 33  0     1  0  0  0  0  0999 V2000
   -4.0702   -3.8485    1.4554 H   0  0  0  0  0  0  0  0  0  0  0  0
   -4.0012   -2.9605    0.8284 C   0  0  0  0  0  0  0  0  0  0  0  0
   -4.7652   -2.2435    1.1234 H   0  0  0  0  0  0  0  0  0  0  0  0
   -4.1352   -3.2385   -0.2156 H   0  0  0  0  0  0  0  0  0  0  0  0
   -2.6362   -2.3395    1.0094 C   0  0  0  0  0  0  0  0  0  0  0  0
   -1.8292   -2.8395    1.7814 O   0  0  0  0  0  0  0  0  0  0  0  0
   -2.3832   -1.2445    0.2964 N   0  0  0  0  0  0  0  0  0  0  0  0
   -3.1102   -0.8685   -0.2946 H   0  0  0  0  0  0  0  0  0  0  0  0
   -1.1292   -0.4875    0.3524 C   0  0  1  0  0  0  0  0  0  0  0  0
   -0.3087   -1.1556    0.0882 H   0  0  0  0  0  0  0  0  0  0  0  0
   -1.1749    0.6534   -0.6787 C   0  0  0  0  0  0  0  0  0  0  0  0
   -1.8115    0.3528   -1.5119 H   0  0  0  0  0  0  0  0  0  0  0  0
   -1.6335    1.5292   -0.2165 H   0  0  0  0  0  0  0  0  0  0  0  0
    0.1829    1.0334   -1.2368 C   0  0  0  0  0  0  0  0  0  0  0  0
    1.3433    0.3598   -0.8054 C   0  0  0  0  0  0  0  0  0  0  0  0
    1.2713   -0.4148   -0.0531 H   0  0  0  0  0  0  0  0  0  0  0  0
    2.5970    0.6887   -1.3565 C   0  0  0  0  0  0  0  0  0  0  0  0
    3.4837    0.1720   -1.0226 H   0  0  0  0  0  0  0  0  0  0  0  0
    2.6897    1.6923   -2.3453 C   0  0  0  0  0  0  0  0  0  0  0  0
    3.8937    2.0148   -2.8852 O   0  0  0  0  0  0  0  0  0  0  0  0
    4.6172    1.5599   -2.4519 H   0  0  0  0  0  0  0  0  0  0  0  0
    1.5269    2.3619   -2.7794 C   0  0  0  0  0  0  0  0  0  0  0  0
    1.6112    3.1305   -3.5329 H   0  0  0  0  0  0  0  0  0  0  0  0
    0.2758    2.0341   -2.2233 C   0  0  0  0  0  0  0  0  0  0  0  0
   -0.6159    2.5554   -2.5507 H   0  0  0  0  0  0  0  0  0  0  0  0
   -0.8664    0.0378    1.7736 C   0  0  0  0  0  0  0  0  0  0  0  0
    0.2529   -0.0672    2.2760 O   0  0  0  0  0  0  0  0  0  0  0  0
   -1.8947    0.5991    2.4221 N   0  0  0  0  0  0  0  0  0  0  0  0
   -2.7942    0.5936    1.9635 H   0  0  0  0  0  0  0  0  0  0  0  0
   -1.8170    1.1453    3.7750 C   0  0  0  0  0  0  0  0  0  0  0  0
   -0.9697    1.8290    3.8506 H   0  0  0  0  0  0  0  0  0  0  0  0
   -2.7354    1.6828    4.0167 H   0  0  0  0  0  0  0  0  0  0  0  0
   -1.6754    0.3334    4.4914 H   0  0  0  0  0  0  0  0  0  0  0  0
  5  6  2  0  0  0  0
  5  7  1  0  0  0  0
  2  3  1  0  0  0  0
  2  4  1  0  0  0  0
  2  5  1  0  0  0  0
  1  2  1  0  0  0  0
 26 27  2  0  0  0  0
 26 28  1  0  0  0  0
 24 25  1  0  0  0  0
 22 23  1  0  0  0  0
 22 24  2  0  0  0  0
 20 21  1  0  0  0  0
 19 20  1  0  0  0  0
 19 22  1  0  0  0  0
 17 18  1  0  0  0  0
 17 19  2  0  0  0  0
 15 16  1  0  0  0  0
 15 17  1  0  0  0  0
 14 15  2  0  0  0  0
 14 24  1  0  0  0  0
 11 12  1  0  0  0  0
 11 13  1  0  0  0  0
 11 14  1  0  0  0  0
  9 10  1  0  0  0  0
  9 11  1  0  0  0  0
  9 26  1  0  0  0  0
  7  8  1  0  0  0  0
  7  9  1  0  0  0  0
 30 31  1  0  0  0  0
 30 32  1  0  0  0  0
 30 33  1  0  0  0  0
 28 29  1  0  0  0  0
 28 30  1  0  0  0  0
M  END
$$$$
default_name
  -OEChem-02102213163D

 33 33  0     1  0  0  0  0  0999 V2000
   -4.0702   -3.8485    1.4554 H   0  0  0  0  0  0  0  0  0  0  0  0
   -4.0012   -2.9605    0.8284 C   0  0  0  0  0  0  0  0  0  0  0  0
   -4.7652   -2.2435    1.1234 H   0  0  0  0  0  0  0  0  0  0  0  0
   -4.1352   -3.2385   -0.2156 H   0  0  0  0  0  0  0  0  0  0  0  0
   -2.6362   -2.3395    1.0094 C   0  0  0  0  0  0  0  0  0  0  0  0
   -1.8292   -2.8395    1.7814 O   0  0  0  0  0  0  0  0  0  0  0  0
   -2.3832   -1.2445    0.2964 N   0  0  0  0  0  0  0  0  0  0  0  0
   -3.1102   -0.8685   -0.2946 H   0  0  0  0  0  0  0  0  0  0  0  0
   -1.1292   -0.4875    0.3524 C   0  0  1  0  0  0  0  0  0  0  0  0
   -0.3087   -1.1556    0.0882 H   0  0  0  0  0  0  0  0  0  0  0  0
   -1.1749    0.6534   -0.6787 C   0  0  0  0  0  0  0  0  0  0  0  0
   -1.8115    0.3528   -1.5119 H   0  0  0  0  0  0  0  0  0  0  0  0
   -1.6335    1.5292   -0.2165 H   0  0  0  0  0  0  0  0  0  0  0  0
    0.1829    1.0334   -1.2368 C   0  0  0  0  0  0  0  0  0  0  0  0
    1.2893    0.1783   -1.0603 C   0  0  0  0  0  0  0  0  0  0  0  0
    1.1784   -0.7420   -0.5019 H   0  0  0  0  0  0  0  0  0  0  0  0
    2.5388    0.5163   -1.6154 C   0  0  0  0  0  0  0  0  0  0  0  0
    3.3842   -0.1400   -1.4770 H   0  0  0  0  0  0  0  0  0  0  0  0
    2.6811    1.7120   -2.3528 C   0  0  0  0  0  0  0  0  0  0  0  0
    3.8813    2.0455   -2.8946 O   0  0  0  0  0  0  0  0  0  0  0  0
    4.5762    1.4400   -2.6331 H   0  0  0  0  0  0  0  0  0  0  0  0
    1.5718    2.5641   -2.5325 C   0  0  0  0  0  0  0  0  0  0  0  0
    1.6943    3.4777   -3.0946 H   0  0  0  0  0  0  0  0  0  0  0  0
    0.3252    2.2257   -1.9726 C   0  0  0  0  0  0  0  0  0  0  0  0
   -0.5243    2.8854   -2.1032 H   0  0  0  0  0  0  0  0  0  0  0  0
   -0.8664    0.0378    1.7736 C   0  0  0  0  0  0  0  0  0  0  0  0
    0.2529   -0.0672    2.2760 O   0  0  0  0  0  0  0  0  0  0  0  0
   -1.8947    0.5991    2.4221 N   0  0  0  0  0  0  0  0  0  0  0  0
   -2.7942    0.5936    1.9635 H   0  0  0  0  0  0  0  0  0  0  0  0
   -1.8170    1.1453    3.7750 C   0  0  0  0  0  0  0  0  0  0  0  0
   -0.9697    1.8290    3.8506 H   0  0  0  0  0  0  0  0  0  0  0  0
   -2.7354    1.6828    4.0167 H   0  0  0  0  0  0  0  0  0  0  0  0
   -1.6754    0.3334    4.4914 H   0  0  0  0  0  0  0  0  0  0  0  0
  5  6  2  0  0  0  0
  5  7  1  0  0  0  0
  2  3  1  0  0  0  0
  2  4  1  0  0  0  0
  2  5  1  0  0  0  0
  1  2  1  0  0  0  0
 26 27  2  0  0  0  0
 26 28  1  0  0  0  0
 24 25  1  0  0  0  0
 22 23  1  0  0  0  0
 22 24  2  0  0  0  0
 20 21  1  0  0  0  0
 19 20  1  0  0  0  0
 19 22  1  0  0  0  0
 17 18  1  0  0  0  0
 17 19  2  0  0  0  0
 15 16  1  0  0  0  0
 15 17  1  0  0  0  0
 14 15  2  0  0  0  0
 14 24  1  0  0  0  0
 11 12  1  0  0  0  0
 11 13  1  0  0  0  0
 11 14  1  0  0  0  0
  9 10  1  0  0  0  0
  9 11  1  0  0  0  0
  9 26  1  0  0  0  0
  7  8  1  0  0  0  0
  7  9  1  0  0  0  0
 30 31  1  0  0  0  0
 30 32  1  0  0  0  0
 30 33  1  0  0  0  0
 28 29  1  0  0  0  0
 28 30  1  0  0  0  0
M  END
$$$$
default_name
  -OEChem-02102213163D

 33 33  0     1  0  0  0  0  0999 V2000
   -4.0702   -3.8485    1.4554 H   0  0  0  0  0  0  0  0  0  0  0  0
   -4.0012   -2.9605    0.8284 C   0  0  0  0  0  0  0  0  0  0  0  0
   -4.7652   -2.2435    1.1234 H   0  0  0  0  0  0  0  0  0  0  0  0
   -4.1352   -3.2385   -0.2156 H   0  0  0  0  0  0  0  0  0  0  0  0
   -2.6362   -2.3395    1.0094 C   0  0  0  0  0  0  0  0  0  0  0  0
   -1.8292   -2.8395    1.7814 O   0  0  0  0  0  0  0  0  0  0  0  0
   -2.3832   -1.2445    0.2964 N   0  0  0  0  0  0  0  0  0  0  0  0
   -3.1102   -0.8685   -0.2946 H   0  0  0  0  0  0  0  0  0  0  0  0
   -1.1292   -0.4875    0.3524 C   0  0  1  0  0  0  0  0  0  0  0  0
   -0.3087   -1.1556    0.0882 H   0  0  0  0  0  0  0  0  0  0  0  0
   -1.1749    0.6534   -0.6787 C   0  0  0  0  0  0  0  0  0  0  0  0
   -1.8115    0.3528   -1.5119 H   0  0  0  0  0  0  0  0  0  0  0  0
   -1.6335    1.5292   -0.2165 H   0  0  0  0  0  0  0  0  0  0  0  0
    0.1829    1.0334   -1.2368 C   0  0  0  0  0  0  0  0  0  0  0  0
    1.2033    0.0673   -1.3452 C   0  0  0  0  0  0  0  0  0  0  0  0
    1.0284   -0.9451   -1.0051 H   0  0  0  0  0  0  0  0  0  0  0  0
    2.4494    0.4154   -1.9017 C   0  0  0  0  0  0  0  0  0  0  0  0
    3.2290   -0.3266   -1.9817 H   0  0  0  0  0  0  0  0  0  0  0  0
    2.6742    1.7336   -2.3548 C   0  0  0  0  0  0  0  0  0  0  0  0
    3.8715    2.0785   -2.8957 O   0  0  0  0  0  0  0  0  0  0  0  0
    4.5135    1.3701   -2.8333 H   0  0  0  0  0  0  0  0  0  0  0  0
    1.6505    2.6979   -2.2501 C   0  0  0  0  0  0  0  0  0  0  0  0
    1.8360    3.7036   -2.5960 H   0  0  0  0  0  0  0  0  0  0  0  0
    0.4075    2.3480   -1.6892 C   0  0  0  0  0  0  0  0  0  0  0  0
   -0.3754    3.0918   -1.6005 H   0  0  0  0  0  0  0  0  0  0  0  0
   -0.8664    0.0378    1.7736 C   0  0  0  0  0  0  0  0  0  0  0  0
    0.2529   -0.0672    2.2760 O   0  0  0  0  0  0  0  0  0  0  0  0
   -1.8947    0.5991    2.4221 N   0  0  0  0  0  0  0  0  0  0  0  0
   -2.7942    0.5936    1.9635 H   0  0  0  0  0  0  0  0  0  0  0  0
   -1.8170    1.1453    3.7750 C   0  0  0  0  0  0  0  0  0  0  0  0
   -0.9697    1.8290    3.8506 H   0  0  0  0  0  0  0  0  0  0  0  0
   -2.7354    1.6828    4.0167 H   0  0  0  0  0  0  0  0  0  0  0  0
   -1.6754    0.3334    4.4914 H   0  0  0  0  0  0  0  0  0  0  0  0
  5  6  2  0  0  0  0
  5  7  1  0  0  0  0
  2  3  1  0  0  0  0
  2  4  1  0  0  0  0
  2  5  1  0  0  0  0
  1  2  1  0  0  0  0
 26 27  2  0  0  0  0
 26 28  1  0  0  0  0
 24 25  1  0  0  0  0
 22 23  1  0  0  0  0
 22 24  2  0  0  0  0
 20 21  1  0  0  0  0
 19 20  1  0  0  0  0
 19 22  1  0  0  0  0
 17 18  1  0  0  0  0
 17 19  2  0  0  0  0
 15 16  1  0  0  0  0
 15 17  1  0  0  0  0
 14 15  2  0  0  0  0
 14 24  1  0  0  0  0
 11 12  1  0  0  0  0
 11 13  1  0  0  0  0
 11 14  1  0  0  0  0
  9 10  1  0  0  0  0
  9 11  1  0  0  0  0
  9 26  1  0  0  0  0
  7  8  1  0  0  0  0
  7  9  1  0  0  0  0
 30 31  1  0  0  0  0
 30 32  1  0  0  0  0
 30 33  1  0  0  0  0
 28 29  1  0  0  0  0
 28 30  1  0  0  0  0
M  END
$$$$
default_name
  -OEChem-02102213163D

 33 33  0     1  0  0  0  0  0999 V2000
   -4.0702   -3.8485    1.4554 H   0  0  0  0  0  0  0  0  0  0  0  0
   -4.0012   -2.9605    0.8284 C   0  0  0  0  0  0  0  0  0  0  0  0
   -4.7652   -2.2435    1.1234 H   0  0  0  0  0  0  0  0  0  0  0  0
   -4.1352   -3.2385   -0.2156 H   0  0  0  0  0  0  0  0  0  0  0  0
   -2.6362   -2.3395    1.0094 C   0  0  0  0  0  0  0  0  0  0  0  0
   -1.8292   -2.8395    1.7814 O   0  0  0  0  0  0  0  0  0  0  0  0
   -2.3832   -1.2445    0.2964 N   0  0  0  0  0  0  0  0  0  0  0  0
   -3.1102   -0.8685   -0.2946 H   0  0  0  0  0  0  0  0  0  0  0  0
   -1.1292   -0.4875    0.3524 C   0  0  1  0  0  0  0  0  0  0  0  0
   -0.3087   -1.1556    0.0882 H   0  0  0  0  0  0  0  0  0  0  0  0
   -1.1749    0.6534   -0.6787 C   0  0  0  0  0  0  0  0  0  0  0  0
   -1.8115    0.3528   -1.5119 H   0  0  0  0  0  0  0  0  0  0  0  0
   -1.6335    1.5292   -0.2165 H   0  0  0  0  0  0  0  0  0  0  0  0
    0.1829    1.0334   -1.2368 C   0  0  0  0  0  0  0  0  0  0  0  0
    1.0911    0.0342   -1.6405 C   0  0  0  0  0  0  0  0  0  0  0  0
    0.8315   -1.0104   -1.5286 H   0  0  0  0  0  0  0  0  0  0  0  0
    2.3349    0.3927   -2.1958 C   0  0  0  0  0  0  0  0  0  0  0  0
    3.0285   -0.3751   -2.5024 H   0  0  0  0  0  0  0  0  0  0  0  0
    2.6695    1.7556   -2.3514 C   0  0  0  0  0  0  0  0  0  0  0  0
    3.8652    2.1117   -2.8886 O   0  0  0  0  0  0  0  0  0  0  0  0
    4.4333    1.3549   -3.0387 H   0  0  0  0  0  0  0  0  0  0  0  0
    1.7575    2.7542   -1.9514 C   0  0  0  0  0  0  0  0  0  0  0  0
    2.0267    3.7928   -2.0713 H   0  0  0  0  0  0  0  0  0  0  0  0
    0.5170    2.3926   -1.3924 C   0  0  0  0  0  0  0  0  0  0  0  0
   -0.1793    3.1604   -1.0768 H   0  0  0  0  0  0  0  0  0  0  0  0
   -0.8664    0.0378    1.7736 C   0  0  0  0  0  0  0  0  0  0  0  0
    0.2529   -0.0672    2.2760 O   0  0  0  0  0  0  0  0  0  0  0  0
   -1.8947    0.5991    2.4221 N   0  0  0  0  0  0  0  0  0  0  0  0
   -2.7942    0.5936    1.9635 H   0  0  0  0  0  0  0  0  0  0  0  0
   -1.8170    1.1453    3.7750 C   0  0  0  0  0  0  0  0  0  0  0  0
   -0.9697    1.8290    3.8506 H   0  0  0  0  0  0  0  0  0  0  0  0
   -2.7354    1.6828    4.0167 H   0  0  0  0  0  0  0  0  0  0  0  0
   -1.6754    0.3334    4.4914 H   0  0  0  0  0  0  0  0  0  0  0  0
  5  6  2  0  0  0  0
  5  7  1  0  0  0  0
  2  3  1  0  0  0  0
  2  4  1  0  0  0  0
  2  5  1  0  0  0  0
  1  2  1  0  0  0  0
 26 27  2  0  0  0  0
 26 28  1  0  0  0  0
 24 25  1  0  0  0  0
 22 23  1  0  0  0  0
 22 24  2  0  0  0  0
 20 21  1  0  0  0  0
 19 20  1  0  0  0  0
 19 22  1  0  0  0  0
 17 18  1  0  0  0  0
 17 19  2  0  0  0  0
 15 16  1  0  0  0  0
 15 17  1  0  0  0  0
 14 15  2  0  0  0  0
 14 24  1  0  0  0  0
 11 12  1  0  0  0  0
 11 13  1  0  0  0  0
 11 14  1  0  0  0  0
  9 10  1  0  0  0  0
  9 11  1  0  0  0  0
  9 26  1  0  0  0  0
  7  8  1  0  0  0  0
  7  9  1  0  0  0  0
 30 31  1  0  0  0  0
 30 32  1  0  0  0  0
 30 33  1  0  0  0  0
 28 29  1  0  0  0  0
 28 30  1  0  0  0  0
M  END
$$$$
default_name
  -OEChem-02102213163D

 33 33  0     1  0  0  0  0  0999 V2000
   -4.0702   -3.8485    1.4554 H   0  0  0  0  0  0  0  0  0  0  0  0
   -4.0012   -2.9605    0.8284 C   0  0  0  0  0  0  0  0  0  0  0  0
   -4.7652   -2.2435    1.1234 H   0  0  0  0  0  0  0  0  0  0  0  0
   -4.1352   -3.2385   -0.2156 H   0  0  0  0  0  0  0  0  0  0  0  0
   -2.6362   -2.3395    1.0094 C   0  0  0  0  0  0  0  0  0  0  0  0
   -1.8292   -2.8395    1.7814 O   0  0  0  0  0  0  0  0  0  0  0  0
   -2.3832   -1.2445    0.2964 N   0  0  0  0  0  0  0  0  0  0  0  0
   -3.1102   -0.8685   -0.2946 H   0  0  0  0  0  0  0  0  0  0  0  0
   -1.1292   -0.4875    0.3524 C   0  0  1  0  0  0  0  0  0  0  0  0
   -0.3087   -1.1556    0.0882 H   0  0  0  0  0  0  0  0  0  0  0  0
   -1.1749    0.6534   -0.6787 C   0  0  0  0  0  0  0  0  0  0  0  0
   -1.8115    0.3528   -1.5119 H   0  0  0  0  0  0  0  0  0  0  0  0
   -1.6335    1.5292   -0.2165 H   0  0  0  0  0  0  0  0  0  0  0  0
    0.1829    1.0334   -1.2368 C   0  0  0  0  0  0  0  0  0  0  0  0
    0.9605    0.0813   -1.9261 C   0  0  0  0  0  0  0  0  0  0  0  0
    0.6012   -0.9334   -2.0366 H   0  0  0  0  0  0  0  0  0  0  0  0
    2.2030    0.4499   -2.4778 C   0  0  0  0  0  0  0  0  0  0  0  0
    2.7965   -0.2821   -3.0036 H   0  0  0  0  0  0  0  0  0  0  0  0
    2.6673    1.7764   -2.3426 C   0  0  0  0  0  0  0  0  0  0  0  0
    3.8627    2.1426   -2.8736 O   0  0  0  0  0  0  0  0  0  0  0  0
    4.3411    1.3955   -3.2355 H   0  0  0  0  0  0  0  0  0  0  0  0
    1.8856    2.7291   -1.6568 C   0  0  0  0  0  0  0  0  0  0  0  0
    2.2534    3.7391   -1.5562 H   0  0  0  0  0  0  0  0  0  0  0  0
    0.6463    2.3565   -1.1025 C   0  0  0  0  0  0  0  0  0  0  0  0
    0.0506    3.0866   -0.5677 H   0  0  0  0  0  0  0  0  0  0  0  0
   -0.8664    0.0378    1.7736 C   0  0  0  0  0  0  0  0  0  0  0  0
    0.2529   -0.0672    2.2760 O   0  0  0  0  0  0  0  0  0  0  0  0
   -1.8947    0.5991    2.4221 N   0  0  0  0  0  0  0  0  0  0  0  0
   -2.7942    0.5936    1.9635 H   0  0  0  0  0  0  0  0  0  0  0  0
   -1.8170    1.1453    3.7750 C   0  0  0  0  0  0  0  0  0  0  0  0
   -0.9697    1.8290    3.8506 H   0  0  0  0  0  0  0  0  0  0  0  0
   -2.7354    1.6828    4.0167 H   0  0  0  0  0  0  0  0  0  0  0  0
   -1.6754    0.3334    4.4914 H   0  0  0  0  0  0  0  0  0  0  0  0
  5  6  2  0  0  0  0
  5  7  1  0  0  0  0
  2  3  1  0  0  0  0
  2  4  1  0  0  0  0
  2  5  1  0  0  0  0
  1  2  1  0  0  0  0
 26 27  2  0  0  0  0
 26 28  1  0  0  0  0
 24 25  1  0  0  0  0
 22 23  1  0  0  0  0
 22 24  2  0  0  0  0
 20 21  1  0  0  0  0
 19 20  1  0  0  0  0
 19 22  1  0  0  0  0
 17 18  1  0  0  0  0
 17 19  2  0  0  0  0
 15 16  1  0  0  0  0
 15 17  1  0  0  0  0
 14 15  2  0  0  0  0
 14 24  1  0  0  0  0
 11 12  1  0  0  0  0
 11 13  1  0  0  0  0
 11 14  1  0  0  0  0
  9 10  1  0  0  0  0
  9 11  1  0  0  0  0
  9 26  1  0  0  0  0
  7  8  1  0  0  0  0
  7  9  1  0  0  0  0
 30 31  1  0  0  0  0
 30 32  1  0  0  0  0
 30 33  1  0  0  0  0
 28 29  1  0  0  0  0
 28 30  1  0  0  0  0
M  END
$$$$
default_name
  -OEChem-02102213163D

 33 33  0     1  0  0  0  0  0999 V2000
   -4.0702   -3.8485    1.4554 H   0  0  0  0  0  0  0  0  0  0  0  0
   -4.0012   -2.9605    0.8284 C   0  0  0  0  0  0  0  0  0  0  0  0
   -4.7652   -2.2435    1.1234 H   0  0  0  0  0  0  0  0  0  0  0  0
   -4.1352   -3.2385   -0.2156 H   0  0  0  0  0  0  0  0  0  0  0  0
   -2.6362   -2.3395    1.0094 C   0  0  0  0  0  0  0  0  0  0  0  0
   -1.8292   -2.8395    1.7814 O   0  0  0  0  0  0  0  0  0  0  0  0
   -2.3832   -1.2445    0.2964 N   0  0  0  0  0  0  0  0  0  0  0  0
   -3.1102   -0.8685   -0.2946 H   0  0  0  0  0  0  0  0  0  0  0  0
   -1.1292   -0.4875    0.3524 C   0  0  1  0  0  0  0  0  0  0  0  0
   -0.3087   -1.1556    0.0882 H   0  0  0  0  0  0  0  0  0  0  0  0
   -1.1749    0.6534   -0.6787 C   0  0  0  0  0  0  0  0  0  0  0  0
   -1.8115    0.3528   -1.5119 H   0  0  0  0  0  0  0  0  0  0  0  0
   -1.6335    1.5292   -0.2165 H   0  0  0  0  0  0  0  0  0  0  0  0
    0.1829    1.0334   -1.2368 C   0  0  0  0  0  0  0  0  0  0  0  0
    0.8203    0.2055   -2.1826 C   0  0  0  0  0  0  0  0  0  0  0  0
    0.3531   -0.7194   -2.4945 H   0  0  0  0  0  0  0  0  0  0  0  0
    2.0627    0.5830   -2.7283 C   0  0  0  0  0  0  0  0  0  0  0  0
    2.5487   -0.0541   -3.4511 H   0  0  0  0  0  0  0  0  0  0  0  0
    2.6677    1.7948   -2.3292 C   0  0  0  0  0  0  0  0  0  0  0  0
    3.8643    2.1692   -2.8518 O   0  0  0  0  0  0  0  0  0  0  0  0
    4.2431    1.4891   -3.4102 H   0  0  0  0  0  0  0  0  0  0  0  0
    2.0261    2.6244   -1.3863 C   0  0  0  0  0  0  0  0  0  0  0  0
    2.5008    3.5463   -1.0858 H   0  0  0  0  0  0  0  0  0  0  0  0
    0.7865    2.2421   -0.8393 C   0  0  0  0  0  0  0  0  0  0  0  0
    0.2986    2.8755   -0.1080 H   0  0  0  0  0  0  0  0  0  0  0  0
   -0.8664    0.0378    1.7736 C   0  0  0  0  0  0  0  0  0  0  0  0
    0.2529   -0.0672    2.2760 O   0  0  0  0  0  0  0  0  0  0  0  0
   -1.8947    0.5991    2.4221 N   0  0  0  0  0  0  0  0  0  0  0  0
   -2.7942    0.5936    1.9635 H   0  0  0  0  0  0  0  0  0  0  0  0
   -1.8170    1.1453    3.7750 C   0  0  0  0  0  0  0  0  0  0  0  0
   -0.9697    1.8290    3.8506 H   0  0  0  0  0  0  0  0  0  0  0  0
   -2.7354    1.6828    4.0167 H   0  0  0  0  0  0  0  0  0  0  0  0
   -1.6754    0.3334    4.4914 H   0  0  0  0  0  0  0  0  0  0  0  0
  5  6  2  0  0  0  0
  5  7  1  0  0  0  0
  2  3  1  0  0  0  0
  2  4  1  0  0  0  0
  2  5  1  0  0  0  0
  1  2  1  0  0  0  0
 26 27  2  0  0  0  0
 26 28  1  0  0  0  0
 24 25  1  0  0  0  0
 22 23  1  0  0  0  0
 22 24  2  0  0  0  0
 20 21  1  0  0  0  0
 19 20  1  0  0  0  0
 19 22  1  0  0  0  0
 17 18  1  0  0  0  0
 17 19  2  0  0  0  0
 15 16  1  0  0  0  0
 15 17  1  0  0  0  0
 14 15  2  0  0  0  0
 14 24  1  0  0  0  0
 11 12  1  0  0  0  0
 11 13  1  0  0  0  0
 11 14  1  0  0  0  0
  9 10  1  0  0  0  0
  9 11  1  0  0  0  0
  9 26  1  0  0  0  0
  7  8  1  0  0  0  0
  7  9  1  0  0  0  0
 30 31  1  0  0  0  0
 30 32  1  0  0  0  0
 30 33  1  0  0  0  0
 28 29  1  0  0  0  0
 28 30  1  0  0  0  0
M  END
$$$$
default_name
  -OEChem-02102213163D

 33 33  0     1  0  0  0  0  0999 V2000
   -4.0702   -3.8485    1.4554 H   0  0  0  0  0  0  0  0  0  0  0  0
   -4.0012   -2.9605    0.8284 C   0  0  0  0  0  0  0  0  0  0  0  0
   -4.7652   -2.2435    1.1234 H   0  0  0  0  0  0  0  0  0  0  0  0
   -4.1352   -3.2385   -0.2156 H   0  0  0  0  0  0  0  0  0  0  0  0
   -2.6362   -2.3395    1.0094 C   0  0  0  0  0  0  0  0  0  0  0  0
   -1.8292   -2.8395    1.7814 O   0  0  0  0  0  0  0  0  0  0  0  0
   -2.3832   -1.2445    0.2964 N   0  0  0  0  0  0  0  0  0  0  0  0
   -3.1102   -0.8685   -0.2946 H   0  0  0  0  0  0  0  0  0  0  0  0
   -1.1292   -0.4875    0.3524 C   0  0  1  0  0  0  0  0  0  0  0  0
   -0.3087   -1.1556    0.0882 H   0  0  0  0  0  0  0  0  0  0  0  0
   -1.1749    0.6534   -0.6787 C   0  0  0  0  0  0  0  0  0  0  0  0
   -1.8115    0.3528   -1.5119 H   0  0  0  0  0  0  0  0  0  0  0  0
   -1.6335    1.5292   -0.2165 H   0  0  0  0  0  0  0  0  0  0  0  0
    0.1829    1.0334   -1.2368 C   0  0  0  0  0  0  0  0  0  0  0  0
    0.6801    0.3983   -2.3925 C   0  0  0  0  0  0  0  0  0  0  0  0
    0.1041   -0.3829   -2.8711 H   0  0  0  0  0  0  0  0  0  0  0  0
    1.9237    0.7831   -2.9303 C   0  0  0  0  0  0  0  0  0  0  0  0
    2.3021    0.2935   -3.8145 H   0  0  0  0  0  0  0  0  0  0  0  0
    2.6707    1.8094   -2.3120 C   0  0  0  0  0  0  0  0  0  0  0  0
    3.8697    2.1897   -2.8246 O   0  0  0  0  0  0  0  0  0  0  0  0
    4.1460    1.6293   -3.5509 H   0  0  0  0  0  0  0  0  0  0  0  0
    2.1693    2.4472   -1.1584 C   0  0  0  0  0  0  0  0  0  0  0  0
    2.7518    3.2275   -0.6921 H   0  0  0  0  0  0  0  0  0  0  0  0
    0.9281    2.0572   -0.6206 C   0  0  0  0  0  0  0  0  0  0  0  0
    0.5479    2.5414    0.2711 H   0  0  0  0  0  0  0  0  0  0  0  0
   -0.8664    0.0378    1.7736 C   0  0  0  0  0  0  0  0  0  0  0  0
    0.2529   -0.0672    2.2760 O   0  0  0  0  0  0  0  0  0  0  0  0
   -1.8947    0.5991    2.4221 N   0  0  0  0  0  0  0  0  0  0  0  0
   -2.7942    0.5936    1.9635 H   0  0  0  0  0  0  0  0  0  0  0  0
   -1.8170    1.1453    3.7750 C   0  0  0  0  0  0  0  0  0  0  0  0
   -0.9697    1.8290    3.8506 H   0  0  0  0  0  0  0  0  0  0  0  0
   -2.7354    1.6828    4.0167 H   0  0  0  0  0  0  0  0  0  0  0  0
   -1.6754    0.3334    4.4914 H   0  0  0  0  0  0  0  0  0  0  0  0
  5  6  2  0  0  0  0
  5  7  1  0  0  0  0
  2  3  1  0  0  0  0
  2  4  1  0  0  0  0
  2  5  1  0  0  0  0
  1  2  1  0  0  0  0
 26 27  2  0  0  0  0
 26 28  1  0  0  0  0
 24 25  1  0  0  0  0
 22 23  1  0  0  0  0
 22 24  2  0  0  0  0
 20 21  1  0  0  0  0
 19 20  1  0  0  0  0
 19 22  1  0  0  0  0
 17 18  1  0  0  0  0
 17 19  2  0  0  0  0
 15 16  1  0  0  0  0
 15 17  1  0  0  0  0
 14 15  2  0  0  0  0
 14 24  1  0  0  0  0
 11 12  1  0  0  0  0
 11 13  1  0  0  0  0
 11 14  1  0  0  0  0
  9 10  1  0  0  0  0
  9 11  1  0  0  0  0
  9 26  1  0  0  0  0
  7  8  1  0  0  0  0
  7  9  1  0  0  0  0
 30 31  1  0  0  0  0
 30 32  1  0  0  0  0
 30 33  1  0  0  0  0
 28 29  1  0  0  0  0
 28 30  1  0  0  0  0
M  END
$$$$
default_name
  -OEChem-02102213163D

 33 33  0     1  0  0  0  0  0999 V2000
   -4.0702   -3.8485    1.4554 H   0  0  0  0  0  0  0  0  0  0  0  0
   -4.0012   -2.9605    0.8284 C   0  0  0  0  0  0  0  0  0  0  0  0
   -4.7652   -2.2435    1.1234 H   0  0  0  0  0  0  0  0  0  0  0  0
   -4.1352   -3.2385   -0.2156 H   0  0  0  0  0  0  0  0  0  0  0  0
   -2.6362   -2.3395    1.0094 C   0  0  0  0  0  0  0  0  0  0  0  0
   -1.8292   -2.8395    1.7814 O   0  0  0  0  0  0  0  0  0  0  0  0
   -2.3832   -1.2445    0.2964 N   0  0  0  0  0  0  0  0  0  0  0  0
   -3.1102   -0.8685   -0.2946 H   0  0  0  0  0  0  0  0  0  0  0  0
   -1.1292   -0.4875    0.3524 C   0  0  1  0  0  0  0  0  0  0  0  0
   -0.3087   -1.1556    0.0882 H   0  0  0  0  0  0  0  0  0  0  0  0
   -1.1749    0.6534   -0.6787 C   0  0  0  0  0  0  0  0  0  0  0  0
   -1.8115    0.3528   -1.5119 H   0  0  0  0  0  0  0  0  0  0  0  0
   -1.6335    1.5292   -0.2165 H   0  0  0  0  0  0  0  0  0  0  0  0
    0.1829    1.0334   -1.2368 C   0  0  0  0  0  0  0  0  0  0  0  0
    0.5494    0.6465   -2.5415 C   0  0  0  0  0  0  0  0  0  0  0  0
   -0.1287    0.0531   -3.1407 H   0  0  0  0  0  0  0  0  0  0  0  0
    1.7954    1.0363   -3.0701 C   0  0  0  0  0  0  0  0  0  0  0  0
    2.0734    0.7369   -4.0690 H   0  0  0  0  0  0  0  0  0  0  0  0
    2.6760    1.8192   -2.2922 C   0  0  0  0  0  0  0  0  0  0  0  0
    3.8786    2.2027   -2.7940 O   0  0  0  0  0  0  0  0  0  0  0  0
    4.0565    1.8066   -3.6480 H   0  0  0  0  0  0  0  0  0  0  0  0
    2.3056    2.2096   -0.9886 C   0  0  0  0  0  0  0  0  0  0  0  0
    2.9894    2.8045   -0.4020 H   0  0  0  0  0  0  0  0  0  0  0  0
    1.0615    1.8145   -0.4614 C   0  0  0  0  0  0  0  0  0  0  0  0
    0.7815    2.1070    0.5436 H   0  0  0  0  0  0  0  0  0  0  0  0
   -0.8664    0.0378    1.7736 C   0  0  0  0  0  0  0  0  0  0  0  0
    0.2529   -0.0672    2.2760 O   0  0  0  0  0  0  0  0  0  0  0  0
   -1.8947    0.5991    2.4221 N   0  0  0  0  0  0  0  0  0  0  0  0
   -2.7942    0.5936    1.9635 H   0  0  0  0  0  0  0  0  0  0  0  0
   -1.8170    1.1453    3.7750 C   0  0  0  0  0  0  0  0  0  0  0  0
   -0.9697    1.8290    3.8506 H   0  0  0  0  0  0  0  0  0  0  0  0
   -2.7354    1.6828    4.0167 H   0  0  0  0  0  0  0  0  0  0  0  0
   -1.6754    0.3334    4.4914 H   0  0  0  0  0  0  0  0  0  0  0  0
  5  6  2  0  0  0  0
  5  7  1  0  0  0  0
  2  3  1  0  0  0  0
  2  4  1  0  0  0  0
  2  5  1  0  0  0  0
  1  2  1  0  0  0  0
 26 27  2  0  0  0  0
 26 28  1  0  0  0  0
 24 25  1  0  0  0  0
 22 23  1  0  0  0  0
 22 24  2  0  0  0  0
 20 21  1  0  0  0  0
 19 20  1  0  0  0  0
 19 22  1  0  0  0  0
 17 18  1  0  0  0  0
 17 19  2  0  0  0  0
 15 16  1  0  0  0  0
 15 17  1  0  0  0  0
 14 15  2  0  0  0  0
 14 24  1  0  0  0  0
 11 12  1  0  0  0  0
 11 13  1  0  0  0  0
 11 14  1  0  0  0  0
  9 10  1  0  0  0  0
  9 11  1  0  0  0  0
  9 26  1  0  0  0  0
  7  8  1  0  0  0  0
  7  9  1  0  0  0  0
 30 31  1  0  0  0  0
 30 32  1  0  0  0  0
 30 33  1  0  0  0  0
 28 29  1  0  0  0  0
 28 30  1  0  0  0  0
M  END
$$$$
default_name
  -OEChem-02102213163D

 33 33  0     1  0  0  0  0  0999 V2000
   -4.0702   -3.8485    1.4554 H   0  0  0  0  0  0  0  0  0  0  0  0
   -4.0012   -2.9605    0.8284 C   0  0  0  0  0  0  0  0  0  0  0  0
   -4.7652   -2.2435    1.1234 H   0  0  0  0  0  0  0  0  0  0  0  0
   -4.1352   -3.2385   -0.2156 H   0  0  0  0  0  0  0  0  0  0  0  0
   -2.6362   -2.3395    1.0094 C   0  0  0  0  0  0  0  0  0  0  0  0
   -1.8292   -2.8395    1.7814 O   0  0  0  0  0  0  0  0  0  0  0  0
   -2.3832   -1.2445    0.2964 N   0  0  0  0  0  0  0  0  0  0  0  0
   -3.1102   -0.8685   -0.2946 H   0  0  0  0  0  0  0  0  0  0  0  0
   -1.1292   -0.4875    0.3524 C   0  0  1  0  0  0  0  0  0  0  0  0
   -0.3087   -1.1556    0.0882 H   0  0  0  0  0  0  0  0  0  0  0  0
   -1.1749    0.6534   -0.6787 C   0  0  0  0  0  0  0  0  0  0  0  0
   -1.8115    0.3528   -1.5119 H   0  0  0  0  0  0  0  0  0  0  0  0
   -1.6335    1.5292   -0.2165 H   0  0  0  0  0  0  0  0  0  0  0  0
    0.1829    1.0334   -1.2368 C   0  0  0  0  0  0  0  0  0  0  0  0
    0.4372    0.9332   -2.6194 C   0  0  0  0  0  0  0  0  0  0  0  0
   -0.3296    0.5589   -3.2850 H   0  0  0  0  0  0  0  0  0  0  0  0
    1.6865    1.3256   -3.1381 C   0  0  0  0  0  0  0  0  0  0  0  0
    1.8782    1.2460   -4.1971 H   0  0  0  0  0  0  0  0  0  0  0  0
    2.6835    1.8235   -2.2712 C   0  0  0  0  0  0  0  0  0  0  0  0
    3.8905    2.2074   -2.7620 O   0  0  0  0  0  0  0  0  0  0  0  0
    3.9806    2.0089   -3.6949 H   0  0  0  0  0  0  0  0  0  0  0  0
    2.4256    1.9278   -0.8886 C   0  0  0  0  0  0  0  0  0  0  0  0
    3.1975    2.3059   -0.2353 H   0  0  0  0  0  0  0  0  0  0  0  0
    1.1775    1.5304   -0.3725 C   0  0  0  0  0  0  0  0  0  0  0  0
    0.9834    1.6021    0.6911 H   0  0  0  0  0  0  0  0  0  0  0  0
   -0.8664    0.0378    1.7736 C   0  0  0  0  0  0  0  0  0  0  0  0
    0.2529   -0.0672    2.2760 O   0  0  0  0  0  0  0  0  0  0  0  0
   -1.8947    0.5991    2.4221 N   0  0  0  0  0  0  0  0  0  0  0  0
   -2.7942    0.5936    1.9635 H   0  0  0  0  0  0  0  0  0  0  0  0
   -1.8170    1.1453    3.7750 C   0  0  0  0  0  0  0  0  0  0  0  0
   -0.9697    1.8290    3.8506 H   0  0  0  0  0  0  0  0  0  0  0  0
   -2.7354    1.6828    4.0167 H   0  0  0  0  0  0  0  0  0  0  0  0
   -1.6754    0.3334    4.4914 H   0  0  0  0  0  0  0  0  0  0  0  0
  5  6  2  0  0  0  0
  5  7  1  0  0  0  0
  2  3  1  0  0  0  0
  2  4  1  0  0  0  0
  2  5  1  0  0  0  0
  1  2  1  0  0  0  0
 26 27  2  0  0  0  0
 26 28  1  0  0  0  0
 24 25  1  0  0  0  0
 22 23  1  0  0  0  0
 22 24  2  0  0  0  0
 20 21  1  0  0  0  0
 19 20  1  0  0  0  0
 19 22  1  0  0  0  0
 17 18  1  0  0  0  0
 17 19  2  0  0  0  0
 15 16  1  0  0  0  0
 15 17  1  0  0  0  0
 14 15  2  0  0  0  0
 14 24  1  0  0  0  0
 11 12  1  0  0  0  0
 11 13  1  0  0  0  0
 11 14  1  0  0  0  0
  9 10  1  0  0  0  0
  9 11  1  0  0  0  0
  9 26  1  0  0  0  0
  7  8  1  0  0  0  0
  7  9  1  0  0  0  0
 30 31  1  0  0  0  0
 30 32  1  0  0  0  0
 30 33  1  0  0  0  0
 28 29  1  0  0  0  0
 28 30  1  0  0  0  0
M  END
$$$$
default_name
  -OEChem-02102213163D

 33 33  0     1  0  0  0  0  0999 V2000
   -4.0702   -3.8485    1.4554 H   0  0  0  0  0  0  0  0  0  0  0  0
   -4.0012   -2.9605    0.8284 C   0  0  0  0  0  0  0  0  0  0  0  0
   -4.7652   -2.2435    1.1234 H   0  0  0  0  0  0  0  0  0  0  0  0
   -4.1352   -3.2385   -0.2156 H   0  0  0  0  0  0  0  0  0  0  0  0
   -2.6362   -2.3395    1.0094 C   0  0  0  0  0  0  0  0  0  0  0  0
   -1.8292   -2.8395    1.7814 O   0  0  0  0  0  0  0  0  0  0  0  0
   -2.3832   -1.2445    0.2964 N   0  0  0  0  0  0  0  0  0  0  0  0
   -3.1102   -0.8685   -0.2946 H   0  0  0  0  0  0  0  0  0  0  0  0
   -1.1292   -0.4875    0.3524 C   0  0  1  0  0  0  0  0  0  0  0  0
   -0.3087   -1.1556    0.0882 H   0  0  0  0  0  0  0  0  0  0  0  0
   -1.1749    0.6534   -0.6787 C   0  0  0  0  0  0  0  0  0  0  0  0
   -1.8115    0.3528   -1.5119 H   0  0  0  0  0  0  0  0  0  0  0  0
   -1.6335    1.5292   -0.2165 H   0  0  0  0  0  0  0  0  0  0  0  0
    0.1829    1.0334   -1.2368 C   0  0  0  0  0  0  0  0  0  0  0  0
    0.3510    1.2388   -2.6209 C   0  0  0  0  0  0  0  0  0  0  0  0
   -0.4848    1.1001   -3.2942 H   0  0  0  0  0  0  0  0  0  0  0  0
    1.6044    1.6311   -3.1297 C   0  0  0  0  0  0  0  0  0  0  0  0
    1.7299    1.7860   -4.1903 H   0  0  0  0  0  0  0  0  0  0  0  0
    2.6924    1.8222   -2.2503 C   0  0  0  0  0  0  0  0  0  0  0  0
    3.9045    2.2033   -2.7307 O   0  0  0  0  0  0  0  0  0  0  0  0
    3.9235    2.2224   -3.6884 H   0  0  0  0  0  0  0  0  0  0  0  0
    2.5212    1.6209   -0.8650 C   0  0  0  0  0  0  0  0  0  0  0  0
    3.3618    1.7659   -0.2032 H   0  0  0  0  0  0  0  0  0  0  0  0
    1.2683    1.2244   -0.3600 C   0  0  0  0  0  0  0  0  0  0  0  0
    1.1399    1.0610    0.7034 H   0  0  0  0  0  0  0  0  0  0  0  0
   -0.8664    0.0378    1.7736 C   0  0  0  0  0  0  0  0  0  0  0  0
    0.2529   -0.0672    2.2760 O   0  0  0  0  0  0  0  0  0  0  0  0
   -1.8947    0.5991    2.4221 N   0  0  0  0  0  0  0  0  0  0  0  0
   -2.7942    0.5936    1.9635 H   0  0  0  0  0  0  0  0  0  0  0  0
   -1.8170    1.1453    3.7750 C   0  0  0  0  0  0  0  0  0  0  0  0
   -0.9697    1.8290    3.8506 H   0  0  0  0  0  0  0  0  0  0  0  0
   -2.7354    1.6828    4.0167 H   0  0  0  0  0  0  0  0  0  0  0  0
   -1.6754    0.3334    4.4914 H   0  0  0  0  0  0  0  0  0  0  0  0
  5  6  2  0  0  0  0
  5  7  1  0  0  0  0
  2  3  1  0  0  0  0
  2  4  1  0  0  0  0
  2  5  1  0  0  0  0
  1  2  1  0  0  0  0
 26 27  2  0  0  0  0
 26 28  1  0  0  0  0
 24 25  1  0  0  0  0
 22 23  1  0  0  0  0
 22 24  2  0  0  0  0
 20 21  1  0  0  0  0
 19 20  1  0  0  0  0
 19 22  1  0  0  0  0
 17 18  1  0  0  0  0
 17 19  2  0  0  0  0
 15 16  1  0  0  0  0
 15 17  1  0  0  0  0
 14 15  2  0  0  0  0
 14 24  1  0  0  0  0
 11 12  1  0  0  0  0
 11 13  1  0  0  0  0
 11 14  1  0  0  0  0
  9 10  1  0  0  0  0
  9 11  1  0  0  0  0
  9 26  1  0  0  0  0
  7  8  1  0  0  0  0
  7  9  1  0  0  0  0
 30 31  1  0  0  0  0
 30 32  1  0  0  0  0
 30 33  1  0  0  0  0
 28 29  1  0  0  0  0
 28 30  1  0  0  0  0
M  END
$$$$
default_name
  -OEChem-02102213163D

 33 33  0     1  0  0  0  0  0999 V2000
   -4.0702   -3.8485    1.4554 H   0  0  0  0  0  0  0  0  0  0  0  0
   -4.0012   -2.9605    0.8284 C   0  0  0  0  0  0  0  0  0  0  0  0
   -4.7652   -2.2435    1.1234 H   0  0  0  0  0  0  0  0  0  0  0  0
   -4.1352   -3.2385   -0.2156 H   0  0  0  0  0  0  0  0  0  0  0  0
   -2.6362   -2.3395    1.0094 C   0  0  0  0  0  0  0  0  0  0  0  0
   -1.8292   -2.8395    1.7814 O   0  0  0  0  0  0  0  0  0  0  0  0
   -2.3832   -1.2445    0.2964 N   0  0  0  0  0  0  0  0  0  0  0  0
   -3.1102   -0.8685   -0.2946 H   0  0  0  0  0  0  0  0  0  0  0  0
   -1.1292   -0.4875    0.3524 C   0  0  1  0  0  0  0  0  0  0  0  0
   -0.3087   -1.1556    0.0882 H   0  0  0  0  0  0  0  0  0  0  0  0
   -1.1749    0.6534   -0.6787 C   0  0  0  0  0  0  0  0  0  0  0  0
   -1.8115    0.3528   -1.5119 H   0  0  0  0  0  0  0  0  0  0  0  0
   -1.6335    1.5292   -0.2165 H   0  0  0  0  0  0  0  0  0  0  0  0
    0.1829    1.0334   -1.2368 C   0  0  0  0  0  0  0  0  0  0  0  0
    0.2968    1.5427   -2.5460 C   0  0  0  0  0  0  0  0  0  0  0  0
   -0.5837    1.6397   -3.1675 H   0  0  0  0  0  0  0  0  0  0  0  0
    1.5548    1.9321   -3.0455 C   0  0  0  0  0  0  0  0  0  0  0  0
    1.6386    2.3202   -4.0490 H   0  0  0  0  0  0  0  0  0  0  0  0
    2.7023    1.8152   -2.2310 C   0  0  0  0  0  0  0  0  0  0  0  0
    3.9196    2.1908   -2.7024 O   0  0  0  0  0  0  0  0  0  0  0  0
    3.8891    2.4326   -3.6290 H   0  0  0  0  0  0  0  0  0  0  0  0
    2.5858    1.3100   -0.9195 C   0  0  0  0  0  0  0  0  0  0  0  0
    3.4711    1.2212   -0.3080 H   0  0  0  0  0  0  0  0  0  0  0  0
    1.3276    0.9173   -0.4248 C   0  0  0  0  0  0  0  0  0  0  0  0
    1.2403    0.5205    0.5797 H   0  0  0  0  0  0  0  0  0  0  0  0
   -0.8664    0.0378    1.7736 C   0  0  0  0  0  0  0  0  0  0  0  0
    0.2529   -0.0672    2.2760 O   0  0  0  0  0  0  0  0  0  0  0  0
   -1.8947    0.5991    2.4221 N   0  0  0  0  0  0  0  0  0  0  0  0
   -2.7942    0.5936    1.9635 H   0  0  0  0  0  0  0  0  0  0  0  0
   -1.8170    1.1453    3.7750 C   0  0  0  0  0  0  0  0  0  0  0  0
   -0.9697    1.8290    3.8506 H   0  0  0  0  0  0  0  0  0  0  0  0
   -2.7354    1.6828    4.0167 H   0  0  0  0  0  0  0  0  0  0  0  0
   -1.6754    0.3334    4.4914 H   0  0  0  0  0  0  0  0  0  0  0  0
  5  6  2  0  0  0  0
  5  7  1  0  0  0  0
  2  3  1  0  0  0  0
  2  4  1  0  0  0  0
  2  5  1  0  0  0  0
  1  2  1  0  0  0  0
 26 27  2  0  0  0  0
 26 28  1  0  0  0  0
 24 25  1  0  0  0  0
 22 23  1  0  0  0  0
 22 24  2  0  0  0  0
 20 21  1  0  0  0  0
 19 20  1  0  0  0  0
 19 22  1  0  0  0  0
 17 18  1  0  0  0  0
 17 19  2  0  0  0  0
 15 16  1  0  0  0  0
 15 17  1  0  0  0  0
 14 15  2  0  0  0  0
 14 24  1  0  0  0  0
 11 12  1  0  0  0  0
 11 13  1  0  0  0  0
 11 14  1  0  0  0  0
  9 10  1  0  0  0  0
  9 11  1  0  0  0  0
  9 26  1  0  0  0  0
  7  8  1  0  0  0  0
  7  9  1  0  0  0  0
 30 31  1  0  0  0  0
 30 32  1  0  0  0  0
 30 33  1  0  0  0  0
 28 29  1  0  0  0  0
 28 30  1  0  0  0  0
M  END
$$$$
default_name
  -OEChem-02102213163D

 33 33  0     1  0  0  0  0  0999 V2000
   -4.0702   -3.8485    1.4554 H   0  0  0  0  0  0  0  0  0  0  0  0
   -4.0012   -2.9605    0.8284 C   0  0  0  0  0  0  0  0  0  0  0  0
   -4.7652   -2.2435    1.1234 H   0  0  0  0  0  0  0  0  0  0  0  0
   -4.1352   -3.2385   -0.2156 H   0  0  0  0  0  0  0  0  0  0  0  0
   -2.6362   -2.3395    1.0094 C   0  0  0  0  0  0  0  0  0  0  0  0
   -1.8292   -2.8395    1.7814 O   0  0  0  0  0  0  0  0  0  0  0  0
   -2.3832   -1.2445    0.2964 N   0  0  0  0  0  0  0  0  0  0  0  0
   -3.1102   -0.8685   -0.2946 H   0  0  0  0  0  0  0  0  0  0  0  0
   -1.1292   -0.4875    0.3524 C   0  0  1  0  0  0  0  0  0  0  0  0
   -0.3087   -1.1556    0.0882 H   0  0  0  0  0  0  0  0  0  0  0  0
   -1.1749    0.6534   -0.6787 C   0  0  0  0  0  0  0  0  0  0  0  0
   -1.8115    0.3528   -1.5119 H   0  0  0  0  0  0  0  0  0  0  0  0
   -1.6335    1.5292   -0.2165 H   0  0  0  0  0  0  0  0  0  0  0  0
    0.1829    1.0334   -1.2368 C   0  0  0  0  0  0  0  0  0  0  0  0
    0.2782    1.8240   -2.3997 C   0  0  0  0  0  0  0  0  0  0  0  0
   -0.6197    2.1410   -2.9137 H   0  0  0  0  0  0  0  0  0  0  0  0
    1.5411    2.2080   -2.8911 C   0  0  0  0  0  0  0  0  0  0  0  0
    1.6104    2.8121   -3.7827 H   0  0  0  0  0  0  0  0  0  0  0  0
    2.7124    1.8030   -2.2147 C   0  0  0  0  0  0  0  0  0  0  0  0
    3.9349    2.1707   -2.6789 O   0  0  0  0  0  0  0  0  0  0  0  0
    3.8798    2.6251   -3.5206 H   0  0  0  0  0  0  0  0  0  0  0  0
    2.6150    1.0161   -1.0485 C   0  0  0  0  0  0  0  0  0  0  0  0
    3.5180    0.7090   -0.5426 H   0  0  0  0  0  0  0  0  0  0  0  0
    1.3515    0.6299   -0.5623 C   0  0  0  0  0  0  0  0  0  0  0  0
    1.2778    0.0176    0.3285 H   0  0  0  0  0  0  0  0  0  0  0  0
   -0.8664    0.0378    1.7736 C   0  0  0  0  0  0  0  0  0  0  0  0
    0.2529   -0.0672    2.2760 O   0  0  0  0  0  0  0  0  0  0  0  0
   -1.8947    0.5991    2.4221 N   0  0  0  0  0  0  0  0  0  0  0  0
   -2.7942    0.5936    1.9635 H   0  0  0  0  0  0  0  0  0  0  0  0
   -1.8170    1.1453    3.7750 C   0  0  0  0  0  0  0  0  0  0  0  0
   -0.9697    1.8290    3.8506 H   0  0  0  0  0  0  0  0  0  0  0  0
   -2.7354    1.6828    4.0167 H   0  0  0  0  0  0  0  0  0  0  0  0
   -1.6754    0.3334    4.4914 H   0  0  0  0  0  0  0  0  0  0  0  0
  5  6  2  0  0  0  0
  5  7  1  0  0  0  0
  2  3  1  0  0  0  0
  2  4  1  0  0  0  0
  2  5  1  0  0  0  0
  1  2  1  0  0  0  0
 26 27  2  0  0  0  0
 26 28  1  0  0  0  0
 24 25  1  0  0  0  0
 22 23  1  0  0  0  0
 22 24  2  0  0  0  0
 20 21  1  0  0  0  0
 19 20  1  0  0  0  0
 19 22  1  0  0  0  0
 17 18  1  0  0  0  0
 17 19  2  0  0  0  0
 15 16  1  0  0  0  0
 15 17  1  0  0  0  0
 14 15  2  0  0  0  0
 14 24  1  0  0  0  0
 11 12  1  0  0  0  0
 11 13  1  0  0  0  0
 11 14  1  0  0  0  0
  9 10  1  0  0  0  0
  9 11  1  0  0  0  0
  9 26  1  0  0  0  0
  7  8  1  0  0  0  0
  7  9  1  0  0  0  0
 30 31  1  0  0  0  0
 30 32  1  0  0  0  0
 30 33  1  0  0  0  0
 28 29  1  0  0  0  0
 28 30  1  0  0  0  0
M  END
$$$$
default_name
  -OEChem-02102213163D

 33 33  0     1  0  0  0  0  0999 V2000
   -4.0702   -3.8485    1.4554 H   0  0  0  0  0  0  0  0  0  0  0  0
   -4.0012   -2.9605    0.8284 C   0  0  0  0  0  0  0  0  0  0  0  0
   -4.7652   -2.2435    1.1234 H   0  0  0  0  0  0  0  0  0  0  0  0
   -4.1352   -3.2385   -0.2156 H   0  0  0  0  0  0  0  0  0  0  0  0
   -2.6362   -2.3395    1.0094 C   0  0  0  0  0  0  0  0  0  0  0  0
   -1.8292   -2.8395    1.7814 O   0  0  0  0  0  0  0  0  0  0  0  0
   -2.3832   -1.2445    0.2964 N   0  0  0  0  0  0  0  0  0  0  0  0
   -3.1102   -0.8685   -0.2946 H   0  0  0  0  0  0  0  0  0  0  0  0
   -1.1292   -0.4875    0.3524 C   0  0  1  0  0  0  0  0  0  0  0  0
   -0.3087   -1.1556    0.0882 H   0  0  0  0  0  0  0  0  0  0  0  0
   -1.1749    0.6534   -0.6787 C   0  0  0  0  0  0  0  0  0  0  0  0
   -2.0022    0.4760   -1.3671 H   0  0  0  0  0  0  0  0  0  0  0  0
   -1.3777    1.5914   -0.1590 H   0  0  0  0  0  0  0  0  0  0  0  0
    0.0948    0.7962   -1.4954 C   0  0  0  0  0  0  0  0  0  0  0  0
    0.1985    1.7995   -2.4797 C   0  0  0  0  0  0  0  0  0  0  0  0
   -0.6396    2.4559   -2.6740 H   0  0  0  0  0  0  0  0  0  0  0  0
    1.3944    1.9540   -3.2075 C   0  0  0  0  0  0  0  0  0  0  0  0
    1.4698    2.7224   -3.9616 H   0  0  0  0  0  0  0  0  0  0  0  0
    2.4916    1.1043   -2.9471 C   0  0  0  0  0  0  0  0  0  0  0  0
    3.6503    1.2472   -3.6415 O   0  0  0  0  0  0  0  0  0  0  0  0
    3.5734    1.8955   -4.3426 H   0  0  0  0  0  0  0  0  0  0  0  0
    2.3877    0.1041   -1.9583 C   0  0  0  0  0  0  0  0  0  0  0  0
    3.2320   -0.5423   -1.7714 H   0  0  0  0  0  0  0  0  0  0  0  0
    1.1895   -0.0509   -1.2357 C   0  0  0  0  0  0  0  0  0  0  0  0
    1.1073   -0.8256   -0.4827 H   0  0  0  0  0  0  0  0  0  0  0  0
   -0.8664    0.0378    1.7736 C   0  0  0  0  0  0  0  0  0  0  0  0
    0.2529   -0.0672    2.2760 O   0  0  0  0  0  0  0  0  0  0  0  0
   -1.8947    0.5991    2.4221 N   0  0  0  0  0  0  0  0  0  0  0  0
   -2.7942    0.5936    1.9635 H   0  0  0  0  0  0  0  0  0  0  0  0
   -1.8170    1.1453    3.7750 C   0  0  0  0  0  0  0  0  0  0  0  0
   -0.9697    1.8290    3.8506 H   0  0  0  0  0  0  0  0  0  0  0  0
   -2.7354    1.6828    4.0167 H   0  0  0  0  0  0  0  0  0  0  0  0
   -1.6754    0.3334    4.4914 H   0  0  0  0  0  0  0  0  0  0  0  0
  5  6  2  0  0  0  0
  5  7  1  0  0  0  0
  2  3  1  0  0  0  0
  2  4  1  0  0  0  0
  2  5  1  0  0  0  0
  1  2  1  0  0  0  0
 26 27  2  0  0  0  0
 26 28  1  0  0  0  0
 24 25  1  0  0  0  0
 22 23  1  0  0  0  0
 22 24  2  0  0  0  0
 20 21  1  0  0  0  0
 19 20  1  0  0  0  0
 19 22  1  0  0  0  0
 17 18  1  0  0  0  0
 17 19  2  0  0  0  0
 15 16  1  0  0  0  0
 15 17  1  0  0  0  0
 14 15  2  0  0  0  0
 14 24  1  0  0  0  0
 11 12  1  0  0  0  0
 11 13  1  0  0  0  0
 11 14  1  0  0  0  0
  9 10  1  0  0  0  0
  9 11  1  0  0  0  0
  9 26  1  0  0  0  0
  7  8  1  0  0  0  0
  7  9  1  0  0  0  0
 30 31  1  0  0  0  0
 30 32  1  0  0  0  0
 30 33  1  0  0  0  0
 28 29  1  0  0  0  0
 28 30  1  0  0  0  0
M  END
$$$$
default_name
  -OEChem-02102213163D

 33 33  0     1  0  0  0  0  0999 V2000
   -4.0702   -3.8485    1.4554 H   0  0  0  0  0  0  0  0  0  0  0  0
   -4.0012   -2.9605    0.8284 C   0  0  0  0  0  0  0  0  0  0  0  0
   -4.7652   -2.2435    1.1234 H   0  0  0  0  0  0  0  0  0  0  0  0
   -4.1352   -3.2385   -0.2156 H   0  0  0  0  0  0  0  0  0  0  0  0
   -2.6362   -2.3395    1.0094 C   0  0  0  0  0  0  0  0  0  0  0  0
   -1.8292   -2.8395    1.7814 O   0  0  0  0  0  0  0  0  0  0  0  0
   -2.3832   -1.2445    0.2964 N   0  0  0  0  0  0  0  0  0  0  0  0
   -3.1102   -0.8685   -0.2946 H   0  0  0  0  0  0  0  0  0  0  0  0
   -1.1292   -0.4875    0.3524 C   0  0  1  0  0  0  0  0  0  0  0  0
   -0.3087   -1.1556    0.0882 H   0  0  0  0  0  0  0  0  0  0  0  0
   -1.1749    0.6534   -0.6787 C   0  0  0  0  0  0  0  0  0  0  0  0
   -2.0022    0.4760   -1.3671 H   0  0  0  0  0  0  0  0  0  0  0  0
   -1.3777    1.5914   -0.1590 H   0  0  0  0  0  0  0  0  0  0  0  0
    0.0948    0.7962   -1.4954 C   0  0  0  0  0  0  0  0  0  0  0  0
    0.3312    1.9665   -2.2443 C   0  0  0  0  0  0  0  0  0  0  0  0
   -0.4069    2.7577   -2.2595 H   0  0  0  0  0  0  0  0  0  0  0  0
    1.5303    2.1113   -2.9688 C   0  0  0  0  0  0  0  0  0  0  0  0
    1.7073    3.0081   -3.5425 H   0  0  0  0  0  0  0  0  0  0  0  0
    2.4979    1.0834   -2.9409 C   0  0  0  0  0  0  0  0  0  0  0  0
    3.6588    1.2146   -3.6339 O   0  0  0  0  0  0  0  0  0  0  0  0
    3.6686    2.0048   -4.1756 H   0  0  0  0  0  0  0  0  0  0  0  0
    2.2619   -0.0849   -2.1870 C   0  0  0  0  0  0  0  0  0  0  0  0
    3.0074   -0.8657   -2.1771 H   0  0  0  0  0  0  0  0  0  0  0  0
    1.0603   -0.2286   -1.4676 C   0  0  0  0  0  0  0  0  0  0  0  0
    0.8756   -1.1304   -0.8961 H   0  0  0  0  0  0  0  0  0  0  0  0
   -0.8664    0.0378    1.7736 C   0  0  0  0  0  0  0  0  0  0  0  0
    0.2529   -0.0672    2.2760 O   0  0  0  0  0  0  0  0  0  0  0  0
   -1.8947    0.5991    2.4221 N   0  0  0  0  0  0  0  0  0  0  0  0
   -2.7942    0.5936    1.9635 H   0  0  0  0  0  0  0  0  0  0  0  0
   -1.8170    1.1453    3.7750 C   0  0  0  0  0  0  0  0  0  0  0  0
   -0.9697    1.8290    3.8506 H   0  0  0  0  0  0  0  0  0  0  0  0
   -2.7354    1.6828    4.0167 H   0  0  0  0  0  0  0  0  0  0  0  0
   -1.6754    0.3334    4.4914 H   0  0  0  0  0  0  0  0  0  0  0  0
  5  6  2  0  0  0  0
  5  7  1  0  0  0  0
  2  3  1  0  0  0  0
  2  4  1  0  0  0  0
  2  5  1  0  0  0  0
  1  2  1  0  0  0  0
 26 27  2  0  0  0  0
 26 28  1  0  0  0  0
 24 25  1  0  0  0  0
 22 23  1  0  0  0  0
 22 24  2  0  0  0  0
 20 21  1  0  0  0  0
 19 20  1  0  0  0  0
 19 22  1  0  0  0  0
 17 18  1  0  0  0  0
 17 19  2  0  0  0  0
 15 16  1  0  0  0  0
 15 17  1  0  0  0  0
 14 15  2  0  0  0  0
 14 24  1  0  0  0  0
 11 12  1  0  0  0  0
 11 13  1  0  0  0  0
 11 14  1  0  0  0  0
  9 10  1  0  0  0  0
  9 11  1  0  0  0  0
  9 26  1  0  0  0  0
  7  8  1  0  0  0  0
  7  9  1  0  0  0  0
 30 31  1  0  0  0  0
 30 32  1  0  0  0  0
 30 33  1  0  0  0  0
 28 29  1  0  0  0  0
 28 30  1  0  0  0  0
M  END
$$$$
default_name
  -OEChem-02102213163D

 33 33  0     1  0  0  0  0  0999 V2000
   -4.0702   -3.8485    1.4554 H   0  0  0  0  0  0  0  0  0  0  0  0
   -4.0012   -2.9605    0.8284 C   0  0  0  0  0  0  0  0  0  0  0  0
   -4.7652   -2.2435    1.1234 H   0  0  0  0  0  0  0  0  0  0  0  0
   -4.1352   -3.2385   -0.2156 H   0  0  0  0  0  0  0  0  0  0  0  0
   -2.6362   -2.3395    1.0094 C   0  0  0  0  0  0  0  0  0  0  0  0
   -1.8292   -2.8395    1.7814 O   0  0  0  0  0  0  0  0  0  0  0  0
   -2.3832   -1.2445    0.2964 N   0  0  0  0  0  0  0  0  0  0  0  0
   -3.1102   -0.8685   -0.2946 H   0  0  0  0  0  0  0  0  0  0  0  0
   -1.1292   -0.4875    0.3524 C   0  0  1  0  0  0  0  0  0  0  0  0
   -0.3087   -1.1556    0.0882 H   0  0  0  0  0  0  0  0  0  0  0  0
   -1.1749    0.6534   -0.6787 C   0  0  0  0  0  0  0  0  0  0  0  0
   -2.0022    0.4760   -1.3671 H   0  0  0  0  0  0  0  0  0  0  0  0
   -1.3777    1.5914   -0.1590 H   0  0  0  0  0  0  0  0  0  0  0  0
    0.0948    0.7962   -1.4954 C   0  0  0  0  0  0  0  0  0  0  0  0
    0.4883    2.0582   -1.9840 C   0  0  0  0  0  0  0  0  0  0  0  0
   -0.1300    2.9270   -1.7994 H   0  0  0  0  0  0  0  0  0  0  0  0
    1.6893    2.1925   -2.7075 C   0  0  0  0  0  0  0  0  0  0  0  0
    1.9867    3.1601   -3.0815 H   0  0  0  0  0  0  0  0  0  0  0  0
    2.5012    1.0609   -2.9397 C   0  0  0  0  0  0  0  0  0  0  0  0
    3.6627    1.1804   -3.6338 O   0  0  0  0  0  0  0  0  0  0  0  0
    3.7798    2.0609   -3.9929 H   0  0  0  0  0  0  0  0  0  0  0  0
    2.1084   -0.2003   -2.4458 C   0  0  0  0  0  0  0  0  0  0  0  0
    2.7355   -1.0588   -2.6336 H   0  0  0  0  0  0  0  0  0  0  0  0
    0.9051   -0.3321   -1.7270 C   0  0  0  0  0  0  0  0  0  0  0  0
    0.5993   -1.3030   -1.3558 H   0  0  0  0  0  0  0  0  0  0  0  0
   -0.8664    0.0378    1.7736 C   0  0  0  0  0  0  0  0  0  0  0  0
    0.2529   -0.0672    2.2760 O   0  0  0  0  0  0  0  0  0  0  0  0
   -1.8947    0.5991    2.4221 N   0  0  0  0  0  0  0  0  0  0  0  0
   -2.7942    0.5936    1.9635 H   0  0  0  0  0  0  0  0  0  0  0  0
   -1.8170    1.1453    3.7750 C   0  0  0  0  0  0  0  0  0  0  0  0
   -0.9697    1.8290    3.8506 H   0  0  0  0  0  0  0  0  0  0  0  0
   -2.7354    1.6828    4.0167 H   0  0  0  0  0  0  0  0  0  0  0  0
   -1.6754    0.3334    4.4914 H   0  0  0  0  0  0  0  0  0  0  0  0
  5  6  2  0  0  0  0
  5  7  1  0  0  0  0
  2  3  1  0  0  0  0
  2  4  1  0  0  0  0
  2  5  1  0  0  0  0
  1  2  1  0  0  0  0
 26 27  2  0  0  0  0
 26 28  1  0  0  0  0
 24 25  1  0  0  0  0
 22 23  1  0  0  0  0
 22 24  2  0  0  0  0
 20 21  1  0  0  0  0
 19 20  1  0  0  0  0
 19 22  1  0  0  0  0
 17 18  1  0  0  0  0
 17 19  2  0  0  0  0
 15 16  1  0  0  0  0
 15 17  1  0  0  0  0
 14 15  2  0  0  0  0
 14 24  1  0  0  0  0
 11 12  1  0  0  0  0
 11 13  1  0  0  0  0
 11 14  1  0  0  0  0
  9 10  1  0  0  0  0
  9 11  1  0  0  0  0
  9 26  1  0  0  0  0
  7  8  1  0  0  0  0
  7  9  1  0  0  0  0
 30 31  1  0  0  0  0
 30 32  1  0  0  0  0
 30 33  1  0  0  0  0
 28 29  1  0  0  0  0
 28 30  1  0  0  0  0
M  END
$$$$
default_name
  -OEChem-02102213163D

 33 33  0     1  0  0  0  0  0999 V2000
   -4.0702   -3.8485    1.4554 H   0  0  0  0  0  0  0  0  0  0  0  0
   -4.0012   -2.9605    0.8284 C   0  0  0  0  0  0  0  0  0  0  0  0
   -4.7652   -2.2435    1.1234 H   0  0  0  0  0  0  0  0  0  0  0  0
   -4.1352   -3.2385   -0.2156 H   0  0  0  0  0  0  0  0  0  0  0  0
   -2.6362   -2.3395    1.0094 C   0  0  0  0  0  0  0  0  0  0  0  0
   -1.8292   -2.8395    1.7814 O   0  0  0  0  0  0  0  0  0  0  0  0
   -2.3832   -1.2445    0.2964 N   0  0  0  0  0  0  0  0  0  0  0  0
   -3.1102   -0.8685   -0.2946 H   0  0  0  0  0  0  0  0  0  0  0  0
   -1.1292   -0.4875    0.3524 C   0  0  1  0  0  0  0  0  0  0  0  0
   -0.3087   -1.1556    0.0882 H   0  0  0  0  0  0  0  0  0  0  0  0
   -1.1749    0.6534   -0.6787 C   0  0  0  0  0  0  0  0  0  0  0  0
   -2.0022    0.4760   -1.3671 H   0  0  0  0  0  0  0  0  0  0  0  0
   -1.3777    1.5914   -0.1590 H   0  0  0  0  0  0  0  0  0  0  0  0
    0.0948    0.7962   -1.4954 C   0  0  0  0  0  0  0  0  0  0  0  0
    0.6592    2.0685   -1.7165 C   0  0  0  0  0  0  0  0  0  0  0  0
    0.1723    2.9521   -1.3250 H   0  0  0  0  0  0  0  0  0  0  0  0
    1.8605    2.1921   -2.4414 C   0  0  0  0  0  0  0  0  0  0  0  0
    2.2890    3.1681   -2.6101 H   0  0  0  0  0  0  0  0  0  0  0  0
    2.5013    1.0385   -2.9435 C   0  0  0  0  0  0  0  0  0  0  0  0
    3.6617    1.1468   -3.6412 O   0  0  0  0  0  0  0  0  0  0  0  0
    3.8995    2.0600   -3.8070 H   0  0  0  0  0  0  0  0  0  0  0  0
    1.9377   -0.2343   -2.7171 C   0  0  0  0  0  0  0  0  0  0  0  0
    2.4348   -1.1085   -3.1098 H   0  0  0  0  0  0  0  0  0  0  0  0
    0.7345   -0.3542   -1.9961 C   0  0  0  0  0  0  0  0  0  0  0  0
    0.2972   -1.3316   -1.8305 H   0  0  0  0  0  0  0  0  0  0  0  0
   -0.8664    0.0378    1.7736 C   0  0  0  0  0  0  0  0  0  0  0  0
    0.2529   -0.0672    2.2760 O   0  0  0  0  0  0  0  0  0  0  0  0
   -1.8947    0.5991    2.4221 N   0  0  0  0  0  0  0  0  0  0  0  0
   -2.7942    0.5936    1.9635 H   0  0  0  0  0  0  0  0  0  0  0  0
   -1.8170    1.1453    3.7750 C   0  0  0  0  0  0  0  0  0  0  0  0
   -0.9697    1.8290    3.8506 H   0  0  0  0  0  0  0  0  0  0  0  0
   -2.7354    1.6828    4.0167 H   0  0  0  0  0  0  0  0  0  0  0  0
   -1.6754    0.3334    4.4914 H   0  0  0  0  0  0  0  0  0  0  0  0
  5  6  2  0  0  0  0
  5  7  1  0  0  0  0
  2  3  1  0  0  0  0
  2  4  1  0  0  0  0
  2  5  1  0  0  0  0
  1  2  1  0  0  0  0
 26 27  2  0  0  0  0
 26 28  1  0  0  0  0
 24 25  1  0  0  0  0
 22 23  1  0  0  0  0
 22 24  2  0  0  0  0
 20 21  1  0  0  0  0
 19 20  1  0  0  0  0
 19 22  1  0  0  0  0
 17 18  1  0  0  0  0
 17 19  2  0  0  0  0
 15 16  1  0  0  0  0
 15 17  1  0  0  0  0
 14 15  2  0  0  0  0
 14 24  1  0  0  0  0
 11 12  1  0  0  0  0
 11 13  1  0  0  0  0
 11 14  1  0  0  0  0
  9 10  1  0  0  0  0
  9 11  1  0  0  0  0
  9 26  1  0  0  0  0
  7  8  1  0  0  0  0
  7  9  1  0  0  0  0
 30 31  1  0  0  0  0
 30 32  1  0  0  0  0
 30 33  1  0  0  0  0
 28 29  1  0  0  0  0
 28 30  1  0  0  0  0
M  END
$$$$
default_name
  -OEChem-02102213163D

 33 33  0     1  0  0  0  0  0999 V2000
   -4.0702   -3.8485    1.4554 H   0  0  0  0  0  0  0  0  0  0  0  0
   -4.0012   -2.9605    0.8284 C   0  0  0  0  0  0  0  0  0  0  0  0
   -4.7652   -2.2435    1.1234 H   0  0  0  0  0  0  0  0  0  0  0  0
   -4.1352   -3.2385   -0.2156 H   0  0  0  0  0  0  0  0  0  0  0  0
   -2.6362   -2.3395    1.0094 C   0  0  0  0  0  0  0  0  0  0  0  0
   -1.8292   -2.8395    1.7814 O   0  0  0  0  0  0  0  0  0  0  0  0
   -2.3832   -1.2445    0.2964 N   0  0  0  0  0  0  0  0  0  0  0  0
   -3.1102   -0.8685   -0.2946 H   0  0  0  0  0  0  0  0  0  0  0  0
   -1.1292   -0.4875    0.3524 C   0  0  1  0  0  0  0  0  0  0  0  0
   -0.3087   -1.1556    0.0882 H   0  0  0  0  0  0  0  0  0  0  0  0
   -1.1749    0.6534   -0.6787 C   0  0  0  0  0  0  0  0  0  0  0  0
   -2.0022    0.4760   -1.3671 H   0  0  0  0  0  0  0  0  0  0  0  0
   -1.3777    1.5914   -0.1590 H   0  0  0  0  0  0  0  0  0  0  0  0
    0.0948    0.7962   -1.4954 C   0  0  0  0  0  0  0  0  0  0  0  0
    0.8322    1.9967   -1.4600 C   0  0  0  0  0  0  0  0  0  0  0  0
    0.4793    2.8315   -0.8687 H   0  0  0  0  0  0  0  0  0  0  0  0
    2.0323    2.1102   -2.1885 C   0  0  0  0  0  0  0  0  0  0  0  0
    2.5936    3.0315   -2.1604 H   0  0  0  0  0  0  0  0  0  0  0  0
    2.4982    1.0176   -2.9520 C   0  0  0  0  0  0  0  0  0  0  0  0
    3.6559    1.1160   -3.6556 O   0  0  0  0  0  0  0  0  0  0  0  0
    4.0195    2.0021   -3.6306 H   0  0  0  0  0  0  0  0  0  0  0  0
    1.7616   -0.1846   -2.9823 C   0  0  0  0  0  0  0  0  0  0  0  0
    2.1258   -1.0115   -3.5732 H   0  0  0  0  0  0  0  0  0  0  0  0
    0.5600   -0.2934   -2.2567 C   0  0  0  0  0  0  0  0  0  0  0  0
   -0.0102   -1.2142   -2.2879 H   0  0  0  0  0  0  0  0  0  0  0  0
   -0.8664    0.0378    1.7736 C   0  0  0  0  0  0  0  0  0  0  0  0
    0.2529   -0.0672    2.2760 O   0  0  0  0  0  0  0  0  0  0  0  0
   -1.8947    0.5991    2.4221 N   0  0  0  0  0  0  0  0  0  0  0  0
   -2.7942    0.5936    1.9635 H   0  0  0  0  0  0  0  0  0  0  0  0
   -1.8170    1.1453    3.7750 C   0  0  0  0  0  0  0  0  0  0  0  0
   -0.9697    1.8290    3.8506 H   0  0  0  0  0  0  0  0  0  0  0  0
   -2.7354    1.6828    4.0167 H   0  0  0  0  0  0  0  0  0  0  0  0
   -1.6754    0.3334    4.4914 H   0  0  0  0  0  0  0  0  0  0  0  0
  5  6  2  0  0  0  0
  5  7  1  0  0  0  0
  2  3  1  0  0  0  0
  2  4  1  0  0  0  0
  2  5  1  0  0  0  0
  1  2  1  0  0  0  0
 26 27  2  0  0  0  0
 26 28  1  0  0  0  0
 24 25  1  0  0  0  0
 22 23  1  0  0  0  0
 22 24  2  0  0  0  0
 20 21  1  0  0  0  0
 19 20  1  0  0  0  0
 19 22  1  0  0  0  0
 17 18  1  0  0  0  0
 17 19  2  0  0  0  0
 15 16  1  0  0  0  0
 15 17  1  0  0  0  0
 14 15  2  0  0  0  0
 14 24  1  0  0  0  0
 11 12  1  0  0  0  0
 11 13  1  0  0  0  0
 11 14  1  0  0  0  0
  9 10  1  0  0  0  0
  9 11  1  0  0  0  0
  9 26  1  0  0  0  0
  7  8  1  0  0  0  0
  7  9  1  0  0  0  0
 30 31  1  0  0  0  0
 30 32  1  0  0  0  0
 30 33  1  0  0  0  0
 28 29  1  0  0  0  0
 28 30  1  0  0  0  0
M  END
$$$$
default_name
  -OEChem-02102213163D

 33 33  0     1  0  0  0  0  0999 V2000
   -4.0702   -3.8485    1.4554 H   0  0  0  0  0  0  0  0  0  0  0  0
   -4.0012   -2.9605    0.8284 C   0  0  0  0  0  0  0  0  0  0  0  0
   -4.7652   -2.2435    1.1234 H   0  0  0  0  0  0  0  0  0  0  0  0
   -4.1352   -3.2385   -0.2156 H   0  0  0  0  0  0  0  0  0  0  0  0
   -2.6362   -2.3395    1.0094 C   0  0  0  0  0  0  0  0  0  0  0  0
   -1.8292   -2.8395    1.7814 O   0  0  0  0  0  0  0  0  0  0  0  0
   -2.3832   -1.2445    0.2964 N   0  0  0  0  0  0  0  0  0  0  0  0
   -3.1102   -0.8685   -0.2946 H   0  0  0  0  0  0  0  0  0  0  0  0
   -1.1292   -0.4875    0.3524 C   0  0  1  0  0  0  0  0  0  0  0  0
   -0.3087   -1.1556    0.0882 H   0  0  0  0  0  0  0  0  0  0  0  0
   -1.1749    0.6534   -0.6787 C   0  0  0  0  0  0  0  0  0  0  0  0
   -2.0022    0.4760   -1.3671 H   0  0  0  0  0  0  0  0  0  0  0  0
   -1.3777    1.5914   -0.1590 H   0  0  0  0  0  0  0  0  0  0  0  0
    0.0948    0.7962   -1.4954 C   0  0  0  0  0  0  0  0  0  0  0  0
    0.9956    1.8476   -1.2321 C   0  0  0  0  0  0  0  0  0  0  0  0
    0.7702    2.5733   -0.4616 H   0  0  0  0  0  0  0  0  0  0  0  0
    2.1931    1.9524   -1.9663 C   0  0  0  0  0  0  0  0  0  0  0  0
    2.8798    2.7597   -1.7630 H   0  0  0  0  0  0  0  0  0  0  0  0
    2.4921    0.9997   -2.9646 C   0  0  0  0  0  0  0  0  0  0  0  0
    3.6456    1.0903   -3.6761 O   0  0  0  0  0  0  0  0  0  0  0  0
    4.1316    1.8913   -3.4756 H   0  0  0  0  0  0  0  0  0  0  0  0
    1.5918   -0.0546   -3.2234 C   0  0  0  0  0  0  0  0  0  0  0  0
    1.8296   -0.7742   -3.9922 H   0  0  0  0  0  0  0  0  0  0  0  0
    0.3936   -0.1539   -2.4910 C   0  0  0  0  0  0  0  0  0  0  0  0
   -0.3019   -0.9588   -2.6968 H   0  0  0  0  0  0  0  0  0  0  0  0
   -0.8664    0.0378    1.7736 C   0  0  0  0  0  0  0  0  0  0  0  0
    0.2529   -0.0672    2.2760 O   0  0  0  0  0  0  0  0  0  0  0  0
   -1.8947    0.5991    2.4221 N   0  0  0  0  0  0  0  0  0  0  0  0
   -2.7942    0.5936    1.9635 H   0  0  0  0  0  0  0  0  0  0  0  0
   -1.8170    1.1453    3.7750 C   0  0  0  0  0  0  0  0  0  0  0  0
   -0.9697    1.8290    3.8506 H   0  0  0  0  0  0  0  0  0  0  0  0
   -2.7354    1.6828    4.0167 H   0  0  0  0  0  0  0  0  0  0  0  0
   -1.6754    0.3334    4.4914 H   0  0  0  0  0  0  0  0  0  0  0  0
  5  6  2  0  0  0  0
  5  7  1  0  0  0  0
  2  3  1  0  0  0  0
  2  4  1  0  0  0  0
  2  5  1  0  0  0  0
  1  2  1  0  0  0  0
 26 27  2  0  0  0  0
 26 28  1  0  0  0  0
 24 25  1  0  0  0  0
 22 23  1  0  0  0  0
 22 24  2  0  0  0  0
 20 21  1  0  0  0  0
 19 20  1  0  0  0  0
 19 22  1  0  0  0  0
 17 18  1  0  0  0  0
 17 19  2  0  0  0  0
 15 16  1  0  0  0  0
 15 17  1  0  0  0  0
 14 15  2  0  0  0  0
 14 24  1  0  0  0  0
 11 12  1  0  0  0  0
 11 13  1  0  0  0  0
 11 14  1  0  0  0  0
  9 10  1  0  0  0  0
  9 11  1  0  0  0  0
  9 26  1  0  0  0  0
  7  8  1  0  0  0  0
  7  9  1  0  0  0  0
 30 31  1  0  0  0  0
 30 32  1  0  0  0  0
 30 33  1  0  0  0  0
 28 29  1  0  0  0  0
 28 30  1  0  0  0  0
M  END
$$$$
default_name
  -OEChem-02102213163D

 33 33  0     1  0  0  0  0  0999 V2000
   -4.0702   -3.8485    1.4554 H   0  0  0  0  0  0  0  0  0  0  0  0
   -4.0012   -2.9605    0.8284 C   0  0  0  0  0  0  0  0  0  0  0  0
   -4.7652   -2.2435    1.1234 H   0  0  0  0  0  0  0  0  0  0  0  0
   -4.1352   -3.2385   -0.2156 H   0  0  0  0  0  0  0  0  0  0  0  0
   -2.6362   -2.3395    1.0094 C   0  0  0  0  0  0  0  0  0  0  0  0
   -1.8292   -2.8395    1.7814 O   0  0  0  0  0  0  0  0  0  0  0  0
   -2.3832   -1.2445    0.2964 N   0  0  0  0  0  0  0  0  0  0  0  0
   -3.1102   -0.8685   -0.2946 H   0  0  0  0  0  0  0  0  0  0  0  0
   -1.1292   -0.4875    0.3524 C   0  0  1  0  0  0  0  0  0  0  0  0
   -0.3087   -1.1556    0.0882 H   0  0  0  0  0  0  0  0  0  0  0  0
   -1.1749    0.6534   -0.6787 C   0  0  0  0  0  0  0  0  0  0  0  0
   -2.0022    0.4760   -1.3671 H   0  0  0  0  0  0  0  0  0  0  0  0
   -1.3777    1.5914   -0.1590 H   0  0  0  0  0  0  0  0  0  0  0  0
    0.0948    0.7962   -1.4954 C   0  0  0  0  0  0  0  0  0  0  0  0
    1.1382    1.6315   -1.0482 C   0  0  0  0  0  0  0  0  0  0  0  0
    1.0252    2.1951   -0.1314 H   0  0  0  0  0  0  0  0  0  0  0  0
    2.3317    1.7293   -1.7897 C   0  0  0  0  0  0  0  0  0  0  0  0
    3.1280    2.3711   -1.4451 H   0  0  0  0  0  0  0  0  0  0  0  0
    2.4834    0.9861   -2.9806 C   0  0  0  0  0  0  0  0  0  0  0  0
    3.6316    1.0713   -3.7012 O   0  0  0  0  0  0  0  0  0  0  0  0
    4.2283    1.7350   -3.3527 H   0  0  0  0  0  0  0  0  0  0  0  0
    1.4402    0.1470   -3.4240 C   0  0  0  0  0  0  0  0  0  0  0  0
    1.5663   -0.4129   -4.3384 H   0  0  0  0  0  0  0  0  0  0  0  0
    0.2466    0.0548   -2.6831 C   0  0  0  0  0  0  0  0  0  0  0  0
   -0.5580   -0.5829   -3.0292 H   0  0  0  0  0  0  0  0  0  0  0  0
   -0.8664    0.0378    1.7736 C   0  0  0  0  0  0  0  0  0  0  0  0
    0.2529   -0.0672    2.2760 O   0  0  0  0  0  0  0  0  0  0  0  0
   -1.8947    0.5991    2.4221 N   0  0  0  0  0  0  0  0  0  0  0  0
   -2.7942    0.5936    1.9635 H   0  0  0  0  0  0  0  0  0  0  0  0
   -1.8170    1.1453    3.7750 C   0  0  0  0  0  0  0  0  0  0  0  0
   -0.9697    1.8290    3.8506 H   0  0  0  0  0  0  0  0  0  0  0  0
   -2.7354    1.6828    4.0167 H   0  0  0  0  0  0  0  0  0  0  0  0
   -1.6754    0.3334    4.4914 H   0  0  0  0  0  0  0  0  0  0  0  0
  5  6  2  0  0  0  0
  5  7  1  0  0  0  0
  2  3  1  0  0  0  0
  2  4  1  0  0  0  0
  2  5  1  0  0  0  0
  1  2  1  0  0  0  0
 26 27  2  0  0  0  0
 26 28  1  0  0  0  0
 24 25  1  0  0  0  0
 22 23  1  0  0  0  0
 22 24  2  0  0  0  0
 20 21  1  0  0  0  0
 19 20  1  0  0  0  0
 19 22  1  0  0  0  0
 17 18  1  0  0  0  0
 17 19  2  0  0  0  0
 15 16  1  0  0  0  0
 15 17  1  0  0  0  0
 14 15  2  0  0  0  0
 14 24  1  0  0  0  0
 11 12  1  0  0  0  0
 11 13  1  0  0  0  0
 11 14  1  0  0  0  0
  9 10  1  0  0  0  0
  9 11  1  0  0  0  0
  9 26  1  0  0  0  0
  7  8  1  0  0  0  0
  7  9  1  0  0  0  0
 30 31  1  0  0  0  0
 30 32  1  0  0  0  0
 30 33  1  0  0  0  0
 28 29  1  0  0  0  0
 28 30  1  0  0  0  0
M  END
$$$$
default_name
  -OEChem-02102213163D

 33 33  0     1  0  0  0  0  0999 V2000
   -4.0702   -3.8485    1.4554 H   0  0  0  0  0  0  0  0  0  0  0  0
   -4.0012   -2.9605    0.8284 C   0  0  0  0  0  0  0  0  0  0  0  0
   -4.7652   -2.2435    1.1234 H   0  0  0  0  0  0  0  0  0  0  0  0
   -4.1352   -3.2385   -0.2156 H   0  0  0  0  0  0  0  0  0  0  0  0
   -2.6362   -2.3395    1.0094 C   0  0  0  0  0  0  0  0  0  0  0  0
   -1.8292   -2.8395    1.7814 O   0  0  0  0  0  0  0  0  0  0  0  0
   -2.3832   -1.2445    0.2964 N   0  0  0  0  0  0  0  0  0  0  0  0
   -3.1102   -0.8685   -0.2946 H   0  0  0  0  0  0  0  0  0  0  0  0
   -1.1292   -0.4875    0.3524 C   0  0  1  0  0  0  0  0  0  0  0  0
   -0.3087   -1.1556    0.0882 H   0  0  0  0  0  0  0  0  0  0  0  0
   -1.1749    0.6534   -0.6787 C   0  0  0  0  0  0  0  0  0  0  0  0
   -2.0022    0.4760   -1.3671 H   0  0  0  0  0  0  0  0  0  0  0  0
   -1.3777    1.5914   -0.1590 H   0  0  0  0  0  0  0  0  0  0  0  0
    0.0948    0.7962   -1.4954 C   0  0  0  0  0  0  0  0  0  0  0  0
    1.2503    1.3629   -0.9209 C   0  0  0  0  0  0  0  0  0  0  0  0
    1.2267    1.7228    0.0994 H   0  0  0  0  0  0  0  0  0  0  0  0
    2.4389    1.4563   -1.6708 C   0  0  0  0  0  0  0  0  0  0  0  0
    3.3213    1.8923   -1.2283 H   0  0  0  0  0  0  0  0  0  0  0  0
    2.4726    0.9775   -2.9987 C   0  0  0  0  0  0  0  0  0  0  0  0
    3.6148    1.0603   -3.7292 O   0  0  0  0  0  0  0  0  0  0  0  0
    4.3028    1.5439   -3.2701 H   0  0  0  0  0  0  0  0  0  0  0  0
    1.3169    0.4062   -3.5703 C   0  0  0  0  0  0  0  0  0  0  0  0
    1.3540    0.0478   -4.5880 H   0  0  0  0  0  0  0  0  0  0  0  0
    0.1291    0.3186   -2.8197 C   0  0  0  0  0  0  0  0  0  0  0  0
   -0.7611   -0.1120   -3.2627 H   0  0  0  0  0  0  0  0  0  0  0  0
   -0.8664    0.0378    1.7736 C   0  0  0  0  0  0  0  0  0  0  0  0
    0.2529   -0.0672    2.2760 O   0  0  0  0  0  0  0  0  0  0  0  0
   -1.8947    0.5991    2.4221 N   0  0  0  0  0  0  0  0  0  0  0  0
   -2.7942    0.5936    1.9635 H   0  0  0  0  0  0  0  0  0  0  0  0
   -1.8170    1.1453    3.7750 C   0  0  0  0  0  0  0  0  0  0  0  0
   -0.9697    1.8290    3.8506 H   0  0  0  0  0  0  0  0  0  0  0  0
   -2.7354    1.6828    4.0167 H   0  0  0  0  0  0  0  0  0  0  0  0
   -1.6754    0.3334    4.4914 H   0  0  0  0  0  0  0  0  0  0  0  0
  5  6  2  0  0  0  0
  5  7  1  0  0  0  0
  2  3  1  0  0  0  0
  2  4  1  0  0  0  0
  2  5  1  0  0  0  0
  1  2  1  0  0  0  0
 26 27  2  0  0  0  0
 26 28  1  0  0  0  0
 24 25  1  0  0  0  0
 22 23  1  0  0  0  0
 22 24  2  0  0  0  0
 20 21  1  0  0  0  0
 19 20  1  0  0  0  0
 19 22  1  0  0  0  0
 17 18  1  0  0  0  0
 17 19  2  0  0  0  0
 15 16  1  0  0  0  0
 15 17  1  0  0  0  0
 14 15  2  0  0  0  0
 14 24  1  0  0  0  0
 11 12  1  0  0  0  0
 11 13  1  0  0  0  0
 11 14  1  0  0  0  0
  9 10  1  0  0  0  0
  9 11  1  0  0  0  0
  9 26  1  0  0  0  0
  7  8  1  0  0  0  0
  7  9  1  0  0  0  0
 30 31  1  0  0  0  0
 30 32  1  0  0  0  0
 30 33  1  0  0  0  0
 28 29  1  0  0  0  0
 28 30  1  0  0  0  0
M  END
$$$$
default_name
  -OEChem-02102213163D

 33 33  0     1  0  0  0  0  0999 V2000
   -4.0702   -3.8485    1.4554 H   0  0  0  0  0  0  0  0  0  0  0  0
   -4.0012   -2.9605    0.8284 C   0  0  0  0  0  0  0  0  0  0  0  0
   -4.7652   -2.2435    1.1234 H   0  0  0  0  0  0  0  0  0  0  0  0
   -4.1352   -3.2385   -0.2156 H   0  0  0  0  0  0  0  0  0  0  0  0
   -2.6362   -2.3395    1.0094 C   0  0  0  0  0  0  0  0  0  0  0  0
   -1.8292   -2.8395    1.7814 O   0  0  0  0  0  0  0  0  0  0  0  0
   -2.3832   -1.2445    0.2964 N   0  0  0  0  0  0  0  0  0  0  0  0
   -3.1102   -0.8685   -0.2946 H   0  0  0  0  0  0  0  0  0  0  0  0
   -1.1292   -0.4875    0.3524 C   0  0  1  0  0  0  0  0  0  0  0  0
   -0.3087   -1.1556    0.0882 H   0  0  0  0  0  0  0  0  0  0  0  0
   -1.1749    0.6534   -0.6787 C   0  0  0  0  0  0  0  0  0  0  0  0
   -2.0022    0.4760   -1.3671 H   0  0  0  0  0  0  0  0  0  0  0  0
   -1.3777    1.5914   -0.1590 H   0  0  0  0  0  0  0  0  0  0  0  0
    0.0948    0.7962   -1.4954 C   0  0  0  0  0  0  0  0  0  0  0  0
    1.3242    1.0604   -0.8589 C   0  0  0  0  0  0  0  0  0  0  0  0
    1.3612    1.1884    0.2150 H   0  0  0  0  0  0  0  0  0  0  0  0
    2.5072    1.1519   -1.6178 C   0  0  0  0  0  0  0  0  0  0  0  0
    3.4465    1.3558   -1.1273 H   0  0  0  0  0  0  0  0  0  0  0  0
    2.4607    0.9747   -3.0178 C   0  0  0  0  0  0  0  0  0  0  0  0
    3.5964    1.0581   -3.7582 O   0  0  0  0  0  0  0  0  0  0  0  0
    4.3502    1.3310   -3.2336 H   0  0  0  0  0  0  0  0  0  0  0  0
    1.2304    0.7056   -3.6525 C   0  0  0  0  0  0  0  0  0  0  0  0
    1.2070    0.5764   -4.7241 H   0  0  0  0  0  0  0  0  0  0  0  0
    0.0489    0.6193   -2.8917 C   0  0  0  0  0  0  0  0  0  0  0  0
   -0.8973    0.4217   -3.3812 H   0  0  0  0  0  0  0  0  0  0  0  0
   -0.8664    0.0378    1.7736 C   0  0  0  0  0  0  0  0  0  0  0  0
    0.2529   -0.0672    2.2760 O   0  0  0  0  0  0  0  0  0  0  0  0
   -1.8947    0.5991    2.4221 N   0  0  0  0  0  0  0  0  0  0  0  0
   -2.7942    0.5936    1.9635 H   0  0  0  0  0  0  0  0  0  0  0  0
   -1.8170    1.1453    3.7750 C   0  0  0  0  0  0  0  0  0  0  0  0
   -0.9697    1.8290    3.8506 H   0  0  0  0  0  0  0  0  0  0  0  0
   -2.7354    1.6828    4.0167 H   0  0  0  0  0  0  0  0  0  0  0  0
   -1.6754    0.3334    4.4914 H   0  0  0  0  0  0  0  0  0  0  0  0
  5  6  2  0  0  0  0
  5  7  1  0  0  0  0
  2  3  1  0  0  0  0
  2  4  1  0  0  0  0
  2  5  1  0  0  0  0
  1  2  1  0  0  0  0
 26 27  2  0  0  0  0
 26 28  1  0  0  0  0
 24 25  1  0  0  0  0
 22 23  1  0  0  0  0
 22 24  2  0  0  0  0
 20 21  1  0  0  0  0
 19 20  1  0  0  0  0
 19 22  1  0  0  0  0
 17 18  1  0  0  0  0
 17 19  2  0  0  0  0
 15 16  1  0  0  0  0
 15 17  1  0  0  0  0
 14 15  2  0  0  0  0
 14 24  1  0  0  0  0
 11 12  1  0  0  0  0
 11 13  1  0  0  0  0
 11 14  1  0  0  0  0
  9 10  1  0  0  0  0
  9 11  1  0  0  0  0
  9 26  1  0  0  0  0
  7  8  1  0  0  0  0
  7  9  1  0  0  0  0
 30 31  1  0  0  0  0
 30 32  1  0  0  0  0
 30 33  1  0  0  0  0
 28 29  1  0  0  0  0
 28 30  1  0  0  0  0
M  END
$$$$
default_name
  -OEChem-02102213163D

 33 33  0     1  0  0  0  0  0999 V2000
   -4.0702   -3.8485    1.4554 H   0  0  0  0  0  0  0  0  0  0  0  0
   -4.0012   -2.9605    0.8284 C   0  0  0  0  0  0  0  0  0  0  0  0
   -4.7652   -2.2435    1.1234 H   0  0  0  0  0  0  0  0  0  0  0  0
   -4.1352   -3.2385   -0.2156 H   0  0  0  0  0  0  0  0  0  0  0  0
   -2.6362   -2.3395    1.0094 C   0  0  0  0  0  0  0  0  0  0  0  0
   -1.8292   -2.8395    1.7814 O   0  0  0  0  0  0  0  0  0  0  0  0
   -2.3832   -1.2445    0.2964 N   0  0  0  0  0  0  0  0  0  0  0  0
   -3.1102   -0.8685   -0.2946 H   0  0  0  0  0  0  0  0  0  0  0  0
   -1.1292   -0.4875    0.3524 C   0  0  1  0  0  0  0  0  0  0  0  0
   -0.3087   -1.1556    0.0882 H   0  0  0  0  0  0  0  0  0  0  0  0
   -1.1749    0.6534   -0.6787 C   0  0  0  0  0  0  0  0  0  0  0  0
   -2.0022    0.4760   -1.3671 H   0  0  0  0  0  0  0  0  0  0  0  0
   -1.3777    1.5914   -0.1590 H   0  0  0  0  0  0  0  0  0  0  0  0
    0.0948    0.7962   -1.4954 C   0  0  0  0  0  0  0  0  0  0  0  0
    1.3549    0.7443   -0.8663 C   0  0  0  0  0  0  0  0  0  0  0  0
    1.4194    0.6284    0.2077 H   0  0  0  0  0  0  0  0  0  0  0  0
    2.5320    0.8368   -1.6342 C   0  0  0  0  0  0  0  0  0  0  0  0
    3.4952    0.7983   -1.1490 H   0  0  0  0  0  0  0  0  0  0  0  0
    2.4482    0.9778   -3.0366 C   0  0  0  0  0  0  0  0  0  0  0  0
    3.5776    1.0649   -3.7863 O   0  0  0  0  0  0  0  0  0  0  0  0
    4.3672    1.1109   -3.2457 H   0  0  0  0  0  0  0  0  0  0  0  0
    1.1865    1.0246   -3.6649 C   0  0  0  0  0  0  0  0  0  0  0  0
    1.1354    1.1371   -4.7374 H   0  0  0  0  0  0  0  0  0  0  0  0
    0.0117    0.9366   -2.8942 C   0  0  0  0  0  0  0  0  0  0  0  0
   -0.9574    0.9819   -3.3767 H   0  0  0  0  0  0  0  0  0  0  0  0
   -0.8664    0.0378    1.7736 C   0  0  0  0  0  0  0  0  0  0  0  0
    0.2529   -0.0672    2.2760 O   0  0  0  0  0  0  0  0  0  0  0  0
   -1.8947    0.5991    2.4221 N   0  0  0  0  0  0  0  0  0  0  0  0
   -2.7942    0.5936    1.9635 H   0  0  0  0  0  0  0  0  0  0  0  0
   -1.8170    1.1453    3.7750 C   0  0  0  0  0  0  0  0  0  0  0  0
   -0.9697    1.8290    3.8506 H   0  0  0  0  0  0  0  0  0  0  0  0
   -2.7354    1.6828    4.0167 H   0  0  0  0  0  0  0  0  0  0  0  0
   -1.6754    0.3334    4.4914 H   0  0  0  0  0  0  0  0  0  0  0  0
  5  6  2  0  0  0  0
  5  7  1  0  0  0  0
  2  3  1  0  0  0  0
  2  4  1  0  0  0  0
  2  5  1  0  0  0  0
  1  2  1  0  0  0  0
 26 27  2  0  0  0  0
 26 28  1  0  0  0  0
 24 25  1  0  0  0  0
 22 23  1  0  0  0  0
 22 24  2  0  0  0  0
 20 21  1  0  0  0  0
 19 20  1  0  0  0  0
 19 22  1  0  0  0  0
 17 18  1  0  0  0  0
 17 19  2  0  0  0  0
 15 16  1  0  0  0  0
 15 17  1  0  0  0  0
 14 15  2  0  0  0  0
 14 24  1  0  0  0  0
 11 12  1  0  0  0  0
 11 13  1  0  0  0  0
 11 14  1  0  0  0  0
  9 10  1  0  0  0  0
  9 11  1  0  0  0  0
  9 26  1  0  0  0  0
  7  8  1  0  0  0  0
  7  9  1  0  0  0  0
 30 31  1  0  0  0  0
 30 32  1  0  0  0  0
 30 33  1  0  0  0  0
 28 29  1  0  0  0  0
 28 30  1  0  0  0  0
M  END
$$$$
default_name
  -OEChem-02102213163D

 33 33  0     1  0  0  0  0  0999 V2000
   -4.0702   -3.8485    1.4554 H   0  0  0  0  0  0  0  0  0  0  0  0
   -4.0012   -2.9605    0.8284 C   0  0  0  0  0  0  0  0  0  0  0  0
   -4.7652   -2.2435    1.1234 H   0  0  0  0  0  0  0  0  0  0  0  0
   -4.1352   -3.2385   -0.2156 H   0  0  0  0  0  0  0  0  0  0  0  0
   -2.6362   -2.3395    1.0094 C   0  0  0  0  0  0  0  0  0  0  0  0
   -1.8292   -2.8395    1.7814 O   0  0  0  0  0  0  0  0  0  0  0  0
   -2.3832   -1.2445    0.2964 N   0  0  0  0  0  0  0  0  0  0  0  0
   -3.1102   -0.8685   -0.2946 H   0  0  0  0  0  0  0  0  0  0  0  0
   -1.1292   -0.4875    0.3524 C   0  0  1  0  0  0  0  0  0  0  0  0
   -0.3087   -1.1556    0.0882 H   0  0  0  0  0  0  0  0  0  0  0  0
   -1.1749    0.6534   -0.6787 C   0  0  0  0  0  0  0  0  0  0  0  0
   -2.0022    0.4760   -1.3671 H   0  0  0  0  0  0  0  0  0  0  0  0
   -1.3777    1.5914   -0.1590 H   0  0  0  0  0  0  0  0  0  0  0  0
    0.0948    0.7962   -1.4954 C   0  0  0  0  0  0  0  0  0  0  0  0
    1.3404    0.4364   -0.9428 C   0  0  0  0  0  0  0  0  0  0  0  0
    1.3974    0.0809    0.0778 H   0  0  0  0  0  0  0  0  0  0  0  0
    2.5117    0.5326   -1.7190 C   0  0  0  0  0  0  0  0  0  0  0  0
    3.4640    0.2577   -1.2921 H   0  0  0  0  0  0  0  0  0  0  0  0
    2.4362    0.9866   -3.0538 C   0  0  0  0  0  0  0  0  0  0  0  0
    3.5597    1.0801   -3.8115 O   0  0  0  0  0  0  0  0  0  0  0  0
    4.3527    0.8986   -3.3054 H   0  0  0  0  0  0  0  0  0  0  0  0
    1.1883    1.3416   -3.6067 C   0  0  0  0  0  0  0  0  0  0  0  0
    1.1441    1.6915   -4.6271 H   0  0  0  0  0  0  0  0  0  0  0  0
    0.0199    1.2487   -2.8269 C   0  0  0  0  0  0  0  0  0  0  0  0
   -0.9372    1.5304   -3.2494 H   0  0  0  0  0  0  0  0  0  0  0  0
   -0.8664    0.0378    1.7736 C   0  0  0  0  0  0  0  0  0  0  0  0
    0.2529   -0.0672    2.2760 O   0  0  0  0  0  0  0  0  0  0  0  0
   -1.8947    0.5991    2.4221 N   0  0  0  0  0  0  0  0  0  0  0  0
   -2.7942    0.5936    1.9635 H   0  0  0  0  0  0  0  0  0  0  0  0
   -1.8170    1.1453    3.7750 C   0  0  0  0  0  0  0  0  0  0  0  0
   -0.9697    1.8290    3.8506 H   0  0  0  0  0  0  0  0  0  0  0  0
   -2.7354    1.6828    4.0167 H   0  0  0  0  0  0  0  0  0  0  0  0
   -1.6754    0.3334    4.4914 H   0  0  0  0  0  0  0  0  0  0  0  0
  5  6  2  0  0  0  0
  5  7  1  0  0  0  0
  2  3  1  0  0  0  0
  2  4  1  0  0  0  0
  2  5  1  0  0  0  0
  1  2  1  0  0  0  0
 26 27  2  0  0  0  0
 26 28  1  0  0  0  0
 24 25  1  0  0  0  0
 22 23  1  0  0  0  0
 22 24  2  0  0  0  0
 20 21  1  0  0  0  0
 19 20  1  0  0  0  0
 19 22  1  0  0  0  0
 17 18  1  0  0  0  0
 17 19  2  0  0  0  0
 15 16  1  0  0  0  0
 15 17  1  0  0  0  0
 14 15  2  0  0  0  0
 14 24  1  0  0  0  0
 11 12  1  0  0  0  0
 11 13  1  0  0  0  0
 11 14  1  0  0  0  0
  9 10  1  0  0  0  0
  9 11  1  0  0  0  0
  9 26  1  0  0  0  0
  7  8  1  0  0  0  0
  7  9  1  0  0  0  0
 30 31  1  0  0  0  0
 30 32  1  0  0  0  0
 30 33  1  0  0  0  0
 28 29  1  0  0  0  0
 28 30  1  0  0  0  0
M  END
$$$$
default_name
  -OEChem-02102213163D

 33 33  0     1  0  0  0  0  0999 V2000
   -4.0702   -3.8485    1.4554 H   0  0  0  0  0  0  0  0  0  0  0  0
   -4.0012   -2.9605    0.8284 C   0  0  0  0  0  0  0  0  0  0  0  0
   -4.7652   -2.2435    1.1234 H   0  0  0  0  0  0  0  0  0  0  0  0
   -4.1352   -3.2385   -0.2156 H   0  0  0  0  0  0  0  0  0  0  0  0
   -2.6362   -2.3395    1.0094 C   0  0  0  0  0  0  0  0  0  0  0  0
   -1.8292   -2.8395    1.7814 O   0  0  0  0  0  0  0  0  0  0  0  0
   -2.3832   -1.2445    0.2964 N   0  0  0  0  0  0  0  0  0  0  0  0
   -3.1102   -0.8685   -0.2946 H   0  0  0  0  0  0  0  0  0  0  0  0
   -1.1292   -0.4875    0.3524 C   0  0  1  0  0  0  0  0  0  0  0  0
   -0.3087   -1.1556    0.0882 H   0  0  0  0  0  0  0  0  0  0  0  0
   -1.1749    0.6534   -0.6787 C   0  0  0  0  0  0  0  0  0  0  0  0
   -2.0022    0.4760   -1.3671 H   0  0  0  0  0  0  0  0  0  0  0  0
   -1.3777    1.5914   -0.1590 H   0  0  0  0  0  0  0  0  0  0  0  0
    0.0948    0.7962   -1.4954 C   0  0  0  0  0  0  0  0  0  0  0  0
    1.2815    0.1576   -1.0830 C   0  0  0  0  0  0  0  0  0  0  0  0
    1.2966   -0.4166   -0.1658 H   0  0  0  0  0  0  0  0  0  0  0  0
    2.4477    0.2599   -1.8663 C   0  0  0  0  0  0  0  0  0  0  0  0
    3.3550   -0.2291   -1.5466 H   0  0  0  0  0  0  0  0  0  0  0  0
    2.4254    1.0005   -3.0682 C   0  0  0  0  0  0  0  0  0  0  0  0
    3.5439    1.1028   -3.8321 O   0  0  0  0  0  0  0  0  0  0  0  0
    4.3076    0.7084   -3.4088 H   0  0  0  0  0  0  0  0  0  0  0  0
    1.2357    1.6348   -3.4818 C   0  0  0  0  0  0  0  0  0  0  0  0
    1.2324    2.2019   -4.4005 H   0  0  0  0  0  0  0  0  0  0  0  0
    0.0730    1.5345   -2.6944 C   0  0  0  0  0  0  0  0  0  0  0  0
   -0.8382    2.0298   -3.0082 H   0  0  0  0  0  0  0  0  0  0  0  0
   -0.8664    0.0378    1.7736 C   0  0  0  0  0  0  0  0  0  0  0  0
    0.2529   -0.0672    2.2760 O   0  0  0  0  0  0  0  0  0  0  0  0
   -1.8947    0.5991    2.4221 N   0  0  0  0  0  0  0  0  0  0  0  0
   -2.7942    0.5936    1.9635 H   0  0  0  0  0  0  0  0  0  0  0  0
   -1.8170    1.1453    3.7750 C   0  0  0  0  0  0  0  0  0  0  0  0
   -0.9697    1.8290    3.8506 H   0  0  0  0  0  0  0  0  0  0  0  0
   -2.7354    1.6828    4.0167 H   0  0  0  0  0  0  0  0  0  0  0  0
   -1.6754    0.3334    4.4914 H   0  0  0  0  0  0  0  0  0  0  0  0
  5  6  2  0  0  0  0
  5  7  1  0  0  0  0
  2  3  1  0  0  0  0
  2  4  1  0  0  0  0
  2  5  1  0  0  0  0
  1  2  1  0  0  0  0
 26 27  2  0  0  0  0
 26 28  1  0  0  0  0
 24 25  1  0  0  0  0
 22 23  1  0  0  0  0
 22 24  2  0  0  0  0
 20 21  1  0  0  0  0
 19 20  1  0  0  0  0
 19 22  1  0  0  0  0
 17 18  1  0  0  0  0
 17 19  2  0  0  0  0
 15 16  1  0  0  0  0
 15 17  1  0  0  0  0
 14 15  2  0  0  0  0
 14 24  1  0  0  0  0
 11 12  1  0  0  0  0
 11 13  1  0  0  0  0
 11 14  1  0  0  0  0
  9 10  1  0  0  0  0
  9 11  1  0  0  0  0
  9 26  1  0  0  0  0
  7  8  1  0  0  0  0
  7  9  1  0  0  0  0
 30 31  1  0  0  0  0
 30 32  1  0  0  0  0
 30 33  1  0  0  0  0
 28 29  1  0  0  0  0
 28 30  1  0  0  0  0
M  END
$$$$
default_name
  -OEChem-02102213163D

 33 33  0     1  0  0  0  0  0999 V2000
   -4.0702   -3.8485    1.4554 H   0  0  0  0  0  0  0  0  0  0  0  0
   -4.0012   -2.9605    0.8284 C   0  0  0  0  0  0  0  0  0  0  0  0
   -4.7652   -2.2435    1.1234 H   0  0  0  0  0  0  0  0  0  0  0  0
   -4.1352   -3.2385   -0.2156 H   0  0  0  0  0  0  0  0  0  0  0  0
   -2.6362   -2.3395    1.0094 C   0  0  0  0  0  0  0  0  0  0  0  0
   -1.8292   -2.8395    1.7814 O   0  0  0  0  0  0  0  0  0  0  0  0
   -2.3832   -1.2445    0.2964 N   0  0  0  0  0  0  0  0  0  0  0  0
   -3.1102   -0.8685   -0.2946 H   0  0  0  0  0  0  0  0  0  0  0  0
   -1.1292   -0.4875    0.3524 C   0  0  1  0  0  0  0  0  0  0  0  0
   -0.3087   -1.1556    0.0882 H   0  0  0  0  0  0  0  0  0  0  0  0
   -1.1749    0.6534   -0.6787 C   0  0  0  0  0  0  0  0  0  0  0  0
   -2.0022    0.4760   -1.3671 H   0  0  0  0  0  0  0  0  0  0  0  0
   -1.3777    1.5914   -0.1590 H   0  0  0  0  0  0  0  0  0  0  0  0
    0.0948    0.7962   -1.4954 C   0  0  0  0  0  0  0  0  0  0  0  0
    1.1824   -0.0732   -1.2774 C   0  0  0  0  0  0  0  0  0  0  0  0
    1.1241   -0.8304   -0.5065 H   0  0  0  0  0  0  0  0  0  0  0  0
    2.3442    0.0374   -2.0661 C   0  0  0  0  0  0  0  0  0  0  0  0
    3.1757   -0.6290   -1.8953 H   0  0  0  0  0  0  0  0  0  0  0  0
    2.4165    1.0186   -3.0788 C   0  0  0  0  0  0  0  0  0  0  0  0
    3.5313    1.1313   -3.8467 O   0  0  0  0  0  0  0  0  0  0  0  0
    4.2350    0.5534   -3.5488 H   0  0  0  0  0  0  0  0  0  0  0  0
    1.3253    1.8845   -3.2988 C   0  0  0  0  0  0  0  0  0  0  0  0
    1.3944    2.6335   -4.0732 H   0  0  0  0  0  0  0  0  0  0  0  0
    0.1673    1.7745   -2.5058 C   0  0  0  0  0  0  0  0  0  0  0  0
   -0.6670    2.4462   -2.6693 H   0  0  0  0  0  0  0  0  0  0  0  0
   -0.8664    0.0378    1.7736 C   0  0  0  0  0  0  0  0  0  0  0  0
    0.2529   -0.0672    2.2760 O   0  0  0  0  0  0  0  0  0  0  0  0
   -1.8947    0.5991    2.4221 N   0  0  0  0  0  0  0  0  0  0  0  0
   -2.7942    0.5936    1.9635 H   0  0  0  0  0  0  0  0  0  0  0  0
   -1.8170    1.1453    3.7750 C   0  0  0  0  0  0  0  0  0  0  0  0
   -0.9697    1.8290    3.8506 H   0  0  0  0  0  0  0  0  0  0  0  0
   -2.7354    1.6828    4.0167 H   0  0  0  0  0  0  0  0  0  0  0  0
   -1.6754    0.3334    4.4914 H   0  0  0  0  0  0  0  0  0  0  0  0
  5  6  2  0  0  0  0
  5  7  1  0  0  0  0
  2  3  1  0  0  0  0
  2  4  1  0  0  0  0
  2  5  1  0  0  0  0
  1  2  1  0  0  0  0
 26 27  2  0  0  0  0
 26 28  1  0  0  0  0
 24 25  1  0  0  0  0
 22 23  1  0  0  0  0
 22 24  2  0  0  0  0
 20 21  1  0  0  0  0
 19 20  1  0  0  0  0
 19 22  1  0  0  0  0
 17 18  1  0  0  0  0
 17 19  2  0  0  0  0
 15 16  1  0  0  0  0
 15 17  1  0  0  0  0
 14 15  2  0  0  0  0
 14 24  1  0  0  0  0
 11 12  1  0  0  0  0
 11 13  1  0  0  0  0
 11 14  1  0  0  0  0
  9 10  1  0  0  0  0
  9 11  1  0  0  0  0
  9 26  1  0  0  0  0
  7  8  1  0  0  0  0
  7  9  1  0  0  0  0
 30 31  1  0  0  0  0
 30 32  1  0  0  0  0
 30 33  1  0  0  0  0
 28 29  1  0  0  0  0
 28 30  1  0  0  0  0
M  END
$$$$
default_name
  -OEChem-02102213163D

 33 33  0     1  0  0  0  0  0999 V2000
   -4.0702   -3.8485    1.4554 H   0  0  0  0  0  0  0  0  0  0  0  0
   -4.0012   -2.9605    0.8284 C   0  0  0  0  0  0  0  0  0  0  0  0
   -4.7652   -2.2435    1.1234 H   0  0  0  0  0  0  0  0  0  0  0  0
   -4.1352   -3.2385   -0.2156 H   0  0  0  0  0  0  0  0  0  0  0  0
   -2.6362   -2.3395    1.0094 C   0  0  0  0  0  0  0  0  0  0  0  0
   -1.8292   -2.8395    1.7814 O   0  0  0  0  0  0  0  0  0  0  0  0
   -2.3832   -1.2445    0.2964 N   0  0  0  0  0  0  0  0  0  0  0  0
   -3.1102   -0.8685   -0.2946 H   0  0  0  0  0  0  0  0  0  0  0  0
   -1.1292   -0.4875    0.3524 C   0  0  1  0  0  0  0  0  0  0  0  0
   -0.3087   -1.1556    0.0882 H   0  0  0  0  0  0  0  0  0  0  0  0
   -1.1749    0.6534   -0.6787 C   0  0  0  0  0  0  0  0  0  0  0  0
   -2.0022    0.4760   -1.3671 H   0  0  0  0  0  0  0  0  0  0  0  0
   -1.3777    1.5914   -0.1590 H   0  0  0  0  0  0  0  0  0  0  0  0
    0.0948    0.7962   -1.4954 C   0  0  0  0  0  0  0  0  0  0  0  0
    1.0498   -0.2401   -1.5128 C   0  0  0  0  0  0  0  0  0  0  0  0
    0.8914   -1.1322   -0.9210 H   0  0  0  0  0  0  0  0  0  0  0  0
    2.2083   -0.1199   -2.3048 C   0  0  0  0  0  0  0  0  0  0  0  0
    2.9382   -0.9147   -2.3144 H   0  0  0  0  0  0  0  0  0  0  0  0
    2.4102    1.0395   -3.0849 C   0  0  0  0  0  0  0  0  0  0  0  0
    3.5227    1.1638   -3.8543 O   0  0  0  0  0  0  0  0  0  0  0  0
    4.1398    0.4441   -3.7158 H   0  0  0  0  0  0  0  0  0  0  0  0
    1.4512    2.0734   -3.0701 C   0  0  0  0  0  0  0  0  0  0  0  0
    1.6190    2.9569   -3.6675 H   0  0  0  0  0  0  0  0  0  0  0  0
    0.2965    1.9522   -2.2739 C   0  0  0  0  0  0  0  0  0  0  0  0
   -0.4354    2.7510   -2.2559 H   0  0  0  0  0  0  0  0  0  0  0  0
   -0.8664    0.0378    1.7736 C   0  0  0  0  0  0  0  0  0  0  0  0
    0.2529   -0.0672    2.2760 O   0  0  0  0  0  0  0  0  0  0  0  0
   -1.8947    0.5991    2.4221 N   0  0  0  0  0  0  0  0  0  0  0  0
   -2.7942    0.5936    1.9635 H   0  0  0  0  0  0  0  0  0  0  0  0
   -1.8170    1.1453    3.7750 C   0  0  0  0  0  0  0  0  0  0  0  0
   -0.9697    1.8290    3.8506 H   0  0  0  0  0  0  0  0  0  0  0  0
   -2.7354    1.6828    4.0167 H   0  0  0  0  0  0  0  0  0  0  0  0
   -1.6754    0.3334    4.4914 H   0  0  0  0  0  0  0  0  0  0  0  0
  5  6  2  0  0  0  0
  5  7  1  0  0  0  0
  2  3  1  0  0  0  0
  2  4  1  0  0  0  0
  2  5  1  0  0  0  0
  1  2  1  0  0  0  0
 26 27  2  0  0  0  0
 26 28  1  0  0  0  0
 24 25  1  0  0  0  0
 22 23  1  0  0  0  0
 22 24  2  0  0  0  0
 20 21  1  0  0  0  0
 19 20  1  0  0  0  0
 19 22  1  0  0  0  0
 17 18  1  0  0  0  0
 17 19  2  0  0  0  0
 15 16  1  0  0  0  0
 15 17  1  0  0  0  0
 14 15  2  0  0  0  0
 14 24  1  0  0  0  0
 11 12  1  0  0  0  0
 11 13  1  0  0  0  0
 11 14  1  0  0  0  0
  9 10  1  0  0  0  0
  9 11  1  0  0  0  0
  9 26  1  0  0  0  0
  7  8  1  0  0  0  0
  7  9  1  0  0  0  0
 30 31  1  0  0  0  0
 30 32  1  0  0  0  0
 30 33  1  0  0  0  0
 28 29  1  0  0  0  0
 28 30  1  0  0  0  0
M  END
$$$$
default_name
  -OEChem-02102213163D

 33 33  0     1  0  0  0  0  0999 V2000
   -4.0702   -3.8485    1.4554 H   0  0  0  0  0  0  0  0  0  0  0  0
   -4.0012   -2.9605    0.8284 C   0  0  0  0  0  0  0  0  0  0  0  0
   -4.7652   -2.2435    1.1234 H   0  0  0  0  0  0  0  0  0  0  0  0
   -4.1352   -3.2385   -0.2156 H   0  0  0  0  0  0  0  0  0  0  0  0
   -2.6362   -2.3395    1.0094 C   0  0  0  0  0  0  0  0  0  0  0  0
   -1.8292   -2.8395    1.7814 O   0  0  0  0  0  0  0  0  0  0  0  0
   -2.3832   -1.2445    0.2964 N   0  0  0  0  0  0  0  0  0  0  0  0
   -3.1102   -0.8685   -0.2946 H   0  0  0  0  0  0  0  0  0  0  0  0
   -1.1292   -0.4875    0.3524 C   0  0  1  0  0  0  0  0  0  0  0  0
   -0.3087   -1.1556    0.0882 H   0  0  0  0  0  0  0  0  0  0  0  0
   -1.1749    0.6534   -0.6787 C   0  0  0  0  0  0  0  0  0  0  0  0
   -2.0022    0.4760   -1.3671 H   0  0  0  0  0  0  0  0  0  0  0  0
   -1.3777    1.5914   -0.1590 H   0  0  0  0  0  0  0  0  0  0  0  0
    0.0948    0.7962   -1.4954 C   0  0  0  0  0  0  0  0  0  0  0  0
    0.8927   -0.3319   -1.7731 C   0  0  0  0  0  0  0  0  0  0  0  0
    0.6144   -1.3014   -1.3811 H   0  0  0  0  0  0  0  0  0  0  0  0
    2.0493   -0.2011   -2.5661 C   0  0  0  0  0  0  0  0  0  0  0  0
    2.6588   -1.0667   -2.7754 H   0  0  0  0  0  0  0  0  0  0  0  0
    2.4069    1.0620   -3.0861 C   0  0  0  0  0  0  0  0  0  0  0  0
    3.5188    1.1981   -3.8544 O   0  0  0  0  0  0  0  0  0  0  0  0
    4.0286    0.3880   -3.8985 H   0  0  0  0  0  0  0  0  0  0  0  0
    1.6047    2.1888   -2.8113 C   0  0  0  0  0  0  0  0  0  0  0  0
    1.8909    3.1500   -3.2110 H   0  0  0  0  0  0  0  0  0  0  0  0
    0.4517    2.0557   -2.0146 C   0  0  0  0  0  0  0  0  0  0  0  0
   -0.1591    2.9236   -1.7962 H   0  0  0  0  0  0  0  0  0  0  0  0
   -0.8664    0.0378    1.7736 C   0  0  0  0  0  0  0  0  0  0  0  0
    0.2529   -0.0672    2.2760 O   0  0  0  0  0  0  0  0  0  0  0  0
   -1.8947    0.5991    2.4221 N   0  0  0  0  0  0  0  0  0  0  0  0
   -2.7942    0.5936    1.9635 H   0  0  0  0  0  0  0  0  0  0  0  0
   -1.8170    1.1453    3.7750 C   0  0  0  0  0  0  0  0  0  0  0  0
   -0.9697    1.8290    3.8506 H   0  0  0  0  0  0  0  0  0  0  0  0
   -2.7354    1.6828    4.0167 H   0  0  0  0  0  0  0  0  0  0  0  0
   -1.6754    0.3334    4.4914 H   0  0  0  0  0  0  0  0  0  0  0  0
  5  6  2  0  0  0  0
  5  7  1  0  0  0  0
  2  3  1  0  0  0  0
  2  4  1  0  0  0  0
  2  5  1  0  0  0  0
  1  2  1  0  0  0  0
 26 27  2  0  0  0  0
 26 28  1  0  0  0  0
 24 25  1  0  0  0  0
 22 23  1  0  0  0  0
 22 24  2  0  0  0  0
 20 21  1  0  0  0  0
 19 20  1  0  0  0  0
 19 22  1  0  0  0  0
 17 18  1  0  0  0  0
 17 19  2  0  0  0  0
 15 16  1  0  0  0  0
 15 17  1  0  0  0  0
 14 15  2  0  0  0  0
 14 24  1  0  0  0  0
 11 12  1  0  0  0  0
 11 13  1  0  0  0  0
 11 14  1  0  0  0  0
  9 10  1  0  0  0  0
  9 11  1  0  0  0  0
  9 26  1  0  0  0  0
  7  8  1  0  0  0  0
  7  9  1  0  0  0  0
 30 31  1  0  0  0  0
 30 32  1  0  0  0  0
 30 33  1  0  0  0  0
 28 29  1  0  0  0  0
 28 30  1  0  0  0  0
M  END
$$$$
default_name
  -OEChem-02102213163D

 33 33  0     1  0  0  0  0  0999 V2000
   -4.0702   -3.8485    1.4554 H   0  0  0  0  0  0  0  0  0  0  0  0
   -4.0012   -2.9605    0.8284 C   0  0  0  0  0  0  0  0  0  0  0  0
   -4.7652   -2.2435    1.1234 H   0  0  0  0  0  0  0  0  0  0  0  0
   -4.1352   -3.2385   -0.2156 H   0  0  0  0  0  0  0  0  0  0  0  0
   -2.6362   -2.3395    1.0094 C   0  0  0  0  0  0  0  0  0  0  0  0
   -1.8292   -2.8395    1.7814 O   0  0  0  0  0  0  0  0  0  0  0  0
   -2.3832   -1.2445    0.2964 N   0  0  0  0  0  0  0  0  0  0  0  0
   -3.1102   -0.8685   -0.2946 H   0  0  0  0  0  0  0  0  0  0  0  0
   -1.1292   -0.4875    0.3524 C   0  0  1  0  0  0  0  0  0  0  0  0
   -0.3087   -1.1556    0.0882 H   0  0  0  0  0  0  0  0  0  0  0  0
   -1.1749    0.6534   -0.6787 C   0  0  0  0  0  0  0  0  0  0  0  0
   -2.0022    0.4760   -1.3671 H   0  0  0  0  0  0  0  0  0  0  0  0
   -1.3777    1.5914   -0.1590 H   0  0  0  0  0  0  0  0  0  0  0  0
    0.0948    0.7962   -1.4954 C   0  0  0  0  0  0  0  0  0  0  0  0
    0.7218   -0.3422   -2.0406 C   0  0  0  0  0  0  0  0  0  0  0  0
    0.3121   -1.3266   -1.8554 H   0  0  0  0  0  0  0  0  0  0  0  0
    1.8781   -0.2007   -2.8322 C   0  0  0  0  0  0  0  0  0  0  0  0
    2.3565   -1.0747   -3.2468 H   0  0  0  0  0  0  0  0  0  0  0  0
    2.4068    1.0844   -3.0824 C   0  0  0  0  0  0  0  0  0  0  0  0
    3.5198    1.2317   -3.8470 O   0  0  0  0  0  0  0  0  0  0  0  0
    3.9090    0.3890   -4.0844 H   0  0  0  0  0  0  0  0  0  0  0  0
    1.7753    2.2229   -2.5401 C   0  0  0  0  0  0  0  0  0  0  0  0
    2.1916    3.1997   -2.7349 H   0  0  0  0  0  0  0  0  0  0  0  0
    0.6223    2.0778   -1.7454 C   0  0  0  0  0  0  0  0  0  0  0  0
    0.1430    2.9522   -1.3215 H   0  0  0  0  0  0  0  0  0  0  0  0
   -0.8664    0.0378    1.7736 C   0  0  0  0  0  0  0  0  0  0  0  0
    0.2529   -0.0672    2.2760 O   0  0  0  0  0  0  0  0  0  0  0  0
   -1.8947    0.5991    2.4221 N   0  0  0  0  0  0  0  0  0  0  0  0
   -2.7942    0.5936    1.9635 H   0  0  0  0  0  0  0  0  0  0  0  0
   -1.8170    1.1453    3.7750 C   0  0  0  0  0  0  0  0  0  0  0  0
   -0.9697    1.8290    3.8506 H   0  0  0  0  0  0  0  0  0  0  0  0
   -2.7354    1.6828    4.0167 H   0  0  0  0  0  0  0  0  0  0  0  0
   -1.6754    0.3334    4.4914 H   0  0  0  0  0  0  0  0  0  0  0  0
  5  6  2  0  0  0  0
  5  7  1  0  0  0  0
  2  3  1  0  0  0  0
  2  4  1  0  0  0  0
  2  5  1  0  0  0  0
  1  2  1  0  0  0  0
 26 27  2  0  0  0  0
 26 28  1  0  0  0  0
 24 25  1  0  0  0  0
 22 23  1  0  0  0  0
 22 24  2  0  0  0  0
 20 21  1  0  0  0  0
 19 20  1  0  0  0  0
 19 22  1  0  0  0  0
 17 18  1  0  0  0  0
 17 19  2  0  0  0  0
 15 16  1  0  0  0  0
 15 17  1  0  0  0  0
 14 15  2  0  0  0  0
 14 24  1  0  0  0  0
 11 12  1  0  0  0  0
 11 13  1  0  0  0  0
 11 14  1  0  0  0  0
  9 10  1  0  0  0  0
  9 11  1  0  0  0  0
  9 26  1  0  0  0  0
  7  8  1  0  0  0  0
  7  9  1  0  0  0  0
 30 31  1  0  0  0  0
 30 32  1  0  0  0  0
 30 33  1  0  0  0  0
 28 29  1  0  0  0  0
 28 30  1  0  0  0  0
M  END
$$$$
default_name
  -OEChem-02102213163D

 33 33  0     1  0  0  0  0  0999 V2000
   -4.0702   -3.8485    1.4554 H   0  0  0  0  0  0  0  0  0  0  0  0
   -4.0012   -2.9605    0.8284 C   0  0  0  0  0  0  0  0  0  0  0  0
   -4.7652   -2.2435    1.1234 H   0  0  0  0  0  0  0  0  0  0  0  0
   -4.1352   -3.2385   -0.2156 H   0  0  0  0  0  0  0  0  0  0  0  0
   -2.6362   -2.3395    1.0094 C   0  0  0  0  0  0  0  0  0  0  0  0
   -1.8292   -2.8395    1.7814 O   0  0  0  0  0  0  0  0  0  0  0  0
   -2.3832   -1.2445    0.2964 N   0  0  0  0  0  0  0  0  0  0  0  0
   -3.1102   -0.8685   -0.2946 H   0  0  0  0  0  0  0  0  0  0  0  0
   -1.1292   -0.4875    0.3524 C   0  0  1  0  0  0  0  0  0  0  0  0
   -0.3087   -1.1556    0.0882 H   0  0  0  0  0  0  0  0  0  0  0  0
   -1.1749    0.6534   -0.6787 C   0  0  0  0  0  0  0  0  0  0  0  0
   -2.0022    0.4760   -1.3671 H   0  0  0  0  0  0  0  0  0  0  0  0
   -1.3777    1.5914   -0.1590 H   0  0  0  0  0  0  0  0  0  0  0  0
    0.0948    0.7962   -1.4954 C   0  0  0  0  0  0  0  0  0  0  0  0
    0.5487   -0.2704   -2.2970 C   0  0  0  0  0  0  0  0  0  0  0  0
    0.0051   -1.2060   -2.3117 H   0  0  0  0  0  0  0  0  0  0  0  0
    1.7063   -0.1188   -3.0851 C   0  0  0  0  0  0  0  0  0  0  0  0
    2.0518   -0.9382   -3.6965 H   0  0  0  0  0  0  0  0  0  0  0  0
    2.4099    1.1053   -3.0739 C   0  0  0  0  0  0  0  0  0  0  0  0
    3.5256    1.2624   -3.8325 O   0  0  0  0  0  0  0  0  0  0  0  0
    3.7889    0.4468   -4.2608 H   0  0  0  0  0  0  0  0  0  0  0  0
    1.9515    2.1731   -2.2749 C   0  0  0  0  0  0  0  0  0  0  0  0
    2.5006    3.1027   -2.2715 H   0  0  0  0  0  0  0  0  0  0  0  0
    0.7968    2.0170   -1.4848 C   0  0  0  0  0  0  0  0  0  0  0  0
    0.4504    2.8348   -0.8641 H   0  0  0  0  0  0  0  0  0  0  0  0
   -0.8664    0.0378    1.7736 C   0  0  0  0  0  0  0  0  0  0  0  0
    0.2529   -0.0672    2.2760 O   0  0  0  0  0  0  0  0  0  0  0  0
   -1.8947    0.5991    2.4221 N   0  0  0  0  0  0  0  0  0  0  0  0
   -2.7942    0.5936    1.9635 H   0  0  0  0  0  0  0  0  0  0  0  0
   -1.8170    1.1453    3.7750 C   0  0  0  0  0  0  0  0  0  0  0  0
   -0.9697    1.8290    3.8506 H   0  0  0  0  0  0  0  0  0  0  0  0
   -2.7354    1.6828    4.0167 H   0  0  0  0  0  0  0  0  0  0  0  0
   -1.6754    0.3334    4.4914 H   0  0  0  0  0  0  0  0  0  0  0  0
  5  6  2  0  0  0  0
  5  7  1  0  0  0  0
  2  3  1  0  0  0  0
  2  4  1  0  0  0  0
  2  5  1  0  0  0  0
  1  2  1  0  0  0  0
 26 27  2  0  0  0  0
 26 28  1  0  0  0  0
 24 25  1  0  0  0  0
 22 23  1  0  0  0  0
 22 24  2  0  0  0  0
 20 21  1  0  0  0  0
 19 20  1  0  0  0  0
 19 22  1  0  0  0  0
 17 18  1  0  0  0  0
 17 19  2  0  0  0  0
 15 16  1  0  0  0  0
 15 17  1  0  0  0  0
 14 15  2  0  0  0  0
 14 24  1  0  0  0  0
 11 12  1  0  0  0  0
 11 13  1  0  0  0  0
 11 14  1  0  0  0  0
  9 10  1  0  0  0  0
  9 11  1  0  0  0  0
  9 26  1  0  0  0  0
  7  8  1  0  0  0  0
  7  9  1  0  0  0  0
 30 31  1  0  0  0  0
 30 32  1  0  0  0  0
 30 33  1  0  0  0  0
 28 29  1  0  0  0  0
 28 30  1  0  0  0  0
M  END
$$$$
default_name
  -OEChem-02102213163D

 33 33  0     1  0  0  0  0  0999 V2000
   -4.0702   -3.8485    1.4554 H   0  0  0  0  0  0  0  0  0  0  0  0
   -4.0012   -2.9605    0.8284 C   0  0  0  0  0  0  0  0  0  0  0  0
   -4.7652   -2.2435    1.1234 H   0  0  0  0  0  0  0  0  0  0  0  0
   -4.1352   -3.2385   -0.2156 H   0  0  0  0  0  0  0  0  0  0  0  0
   -2.6362   -2.3395    1.0094 C   0  0  0  0  0  0  0  0  0  0  0  0
   -1.8292   -2.8395    1.7814 O   0  0  0  0  0  0  0  0  0  0  0  0
   -2.3832   -1.2445    0.2964 N   0  0  0  0  0  0  0  0  0  0  0  0
   -3.1102   -0.8685   -0.2946 H   0  0  0  0  0  0  0  0  0  0  0  0
   -1.1292   -0.4875    0.3524 C   0  0  1  0  0  0  0  0  0  0  0  0
   -0.3087   -1.1556    0.0882 H   0  0  0  0  0  0  0  0  0  0  0  0
   -1.1749    0.6534   -0.6787 C   0  0  0  0  0  0  0  0  0  0  0  0
   -2.0022    0.4760   -1.3671 H   0  0  0  0  0  0  0  0  0  0  0  0
   -1.3777    1.5914   -0.1590 H   0  0  0  0  0  0  0  0  0  0  0  0
    0.0948    0.7962   -1.4954 C   0  0  0  0  0  0  0  0  0  0  0  0
    0.3854   -0.1213   -2.5250 C   0  0  0  0  0  0  0  0  0  0  0  0
   -0.2858   -0.9478   -2.7188 H   0  0  0  0  0  0  0  0  0  0  0  0
    1.5455    0.0390   -3.3073 C   0  0  0  0  0  0  0  0  0  0  0  0
    1.7657   -0.6663   -4.0939 H   0  0  0  0  0  0  0  0  0  0  0  0
    2.4160    1.1231   -3.0612 C   0  0  0  0  0  0  0  0  0  0  0  0
    3.5359    1.2882   -3.8121 O   0  0  0  0  0  0  0  0  0  0  0  0
    3.6768    0.5577   -4.4158 H   0  0  0  0  0  0  0  0  0  0  0  0
    2.1212    2.0431   -2.0338 C   0  0  0  0  0  0  0  0  0  0  0  0
    2.7968    2.8654   -1.8524 H   0  0  0  0  0  0  0  0  0  0  0  0
    0.9632    1.8775   -1.2505 C   0  0  0  0  0  0  0  0  0  0  0  0
    0.7421    2.5794   -0.4552 H   0  0  0  0  0  0  0  0  0  0  0  0
   -0.8664    0.0378    1.7736 C   0  0  0  0  0  0  0  0  0  0  0  0
    0.2529   -0.0672    2.2760 O   0  0  0  0  0  0  0  0  0  0  0  0
   -1.8947    0.5991    2.4221 N   0  0  0  0  0  0  0  0  0  0  0  0
   -2.7942    0.5936    1.9635 H   0  0  0  0  0  0  0  0  0  0  0  0
   -1.8170    1.1453    3.7750 C   0  0  0  0  0  0  0  0  0  0  0  0
   -0.9697    1.8290    3.8506 H   0  0  0  0  0  0  0  0  0  0  0  0
   -2.7354    1.6828    4.0167 H   0  0  0  0  0  0  0  0  0  0  0  0
   -1.6754    0.3334    4.4914 H   0  0  0  0  0  0  0  0  0  0  0  0
  5  6  2  0  0  0  0
  5  7  1  0  0  0  0
  2  3  1  0  0  0  0
  2  4  1  0  0  0  0
  2  5  1  0  0  0  0
  1  2  1  0  0  0  0
 26 27  2  0  0  0  0
 26 28  1  0  0  0  0
 24 25  1  0  0  0  0
 22 23  1  0  0  0  0
 22 24  2  0  0  0  0
 20 21  1  0  0  0  0
 19 20  1  0  0  0  0
 19 22  1  0  0  0  0
 17 18  1  0  0  0  0
 17 19  2  0  0  0  0
 15 16  1  0  0  0  0
 15 17  1  0  0  0  0
 14 15  2  0  0  0  0
 14 24  1  0  0  0  0
 11 12  1  0  0  0  0
 11 13  1  0  0  0  0
 11 14  1  0  0  0  0
  9 10  1  0  0  0  0
  9 11  1  0  0  0  0
  9 26  1  0  0  0  0
  7  8  1  0  0  0  0
  7  9  1  0  0  0  0
 30 31  1  0  0  0  0
 30 32  1  0  0  0  0
 30 33  1  0  0  0  0
 28 29  1  0  0  0  0
 28 30  1  0  0  0  0
M  END
$$$$
default_name
  -OEChem-02102213163D

 33 33  0     1  0  0  0  0  0999 V2000
   -4.0702   -3.8485    1.4554 H   0  0  0  0  0  0  0  0  0  0  0  0
   -4.0012   -2.9605    0.8284 C   0  0  0  0  0  0  0  0  0  0  0  0
   -4.7652   -2.2435    1.1234 H   0  0  0  0  0  0  0  0  0  0  0  0
   -4.1352   -3.2385   -0.2156 H   0  0  0  0  0  0  0  0  0  0  0  0
   -2.6362   -2.3395    1.0094 C   0  0  0  0  0  0  0  0  0  0  0  0
   -1.8292   -2.8395    1.7814 O   0  0  0  0  0  0  0  0  0  0  0  0
   -2.3832   -1.2445    0.2964 N   0  0  0  0  0  0  0  0  0  0  0  0
   -3.1102   -0.8685   -0.2946 H   0  0  0  0  0  0  0  0  0  0  0  0
   -1.1292   -0.4875    0.3524 C   0  0  1  0  0  0  0  0  0  0  0  0
   -0.3087   -1.1556    0.0882 H   0  0  0  0  0  0  0  0  0  0  0  0
   -1.1749    0.6534   -0.6787 C   0  0  0  0  0  0  0  0  0  0  0  0
   -2.0022    0.4760   -1.3671 H   0  0  0  0  0  0  0  0  0  0  0  0
   -1.3777    1.5914   -0.1590 H   0  0  0  0  0  0  0  0  0  0  0  0
    0.0948    0.7962   -1.4954 C   0  0  0  0  0  0  0  0  0  0  0  0
    0.2428    0.0949   -2.7089 C   0  0  0  0  0  0  0  0  0  0  0  0
   -0.5407   -0.5696   -3.0490 H   0  0  0  0  0  0  0  0  0  0  0  0
    1.4069    0.2621   -3.4839 C   0  0  0  0  0  0  0  0  0  0  0  0
    1.5175   -0.2777   -4.4118 H   0  0  0  0  0  0  0  0  0  0  0  0
    2.4248    1.1368   -3.0453 C   0  0  0  0  0  0  0  0  0  0  0  0
    3.5499    1.3072   -3.7870 O   0  0  0  0  0  0  0  0  0  0  0  0
    3.5801    0.7140   -4.5387 H   0  0  0  0  0  0  0  0  0  0  0  0
    2.2729    1.8415   -1.8332 C   0  0  0  0  0  0  0  0  0  0  0  0
    3.0601    2.5041   -1.5063 H   0  0  0  0  0  0  0  0  0  0  0  0
    1.1101    1.6688   -1.0585 C   0  0  0  0  0  0  0  0  0  0  0  0
    0.9983    2.2035   -0.1228 H   0  0  0  0  0  0  0  0  0  0  0  0
   -0.8664    0.0378    1.7736 C   0  0  0  0  0  0  0  0  0  0  0  0
    0.2529   -0.0672    2.2760 O   0  0  0  0  0  0  0  0  0  0  0  0
   -1.8947    0.5991    2.4221 N   0  0  0  0  0  0  0  0  0  0  0  0
   -2.7942    0.5936    1.9635 H   0  0  0  0  0  0  0  0  0  0  0  0
   -1.8170    1.1453    3.7750 C   0  0  0  0  0  0  0  0  0  0  0  0
   -0.9697    1.8290    3.8506 H   0  0  0  0  0  0  0  0  0  0  0  0
   -2.7354    1.6828    4.0167 H   0  0  0  0  0  0  0  0  0  0  0  0
   -1.6754    0.3334    4.4914 H   0  0  0  0  0  0  0  0  0  0  0  0
  5  6  2  0  0  0  0
  5  7  1  0  0  0  0
  2  3  1  0  0  0  0
  2  4  1  0  0  0  0
  2  5  1  0  0  0  0
  1  2  1  0  0  0  0
 26 27  2  0  0  0  0
 26 28  1  0  0  0  0
 24 25  1  0  0  0  0
 22 23  1  0  0  0  0
 22 24  2  0  0  0  0
 20 21  1  0  0  0  0
 19 20  1  0  0  0  0
 19 22  1  0  0  0  0
 17 18  1  0  0  0  0
 17 19  2  0  0  0  0
 15 16  1  0  0  0  0
 15 17  1  0  0  0  0
 14 15  2  0  0  0  0
 14 24  1  0  0  0  0
 11 12  1  0  0  0  0
 11 13  1  0  0  0  0
 11 14  1  0  0  0  0
  9 10  1  0  0  0  0
  9 11  1  0  0  0  0
  9 26  1  0  0  0  0
  7  8  1  0  0  0  0
  7  9  1  0  0  0  0
 30 31  1  0  0  0  0
 30 32  1  0  0  0  0
 30 33  1  0  0  0  0
 28 29  1  0  0  0  0
 28 30  1  0  0  0  0
M  END
$$$$
default_name
  -OEChem-02102213163D

 33 33  0     1  0  0  0  0  0999 V2000
   -4.0702   -3.8485    1.4554 H   0  0  0  0  0  0  0  0  0  0  0  0
   -4.0012   -2.9605    0.8284 C   0  0  0  0  0  0  0  0  0  0  0  0
   -4.7652   -2.2435    1.1234 H   0  0  0  0  0  0  0  0  0  0  0  0
   -4.1352   -3.2385   -0.2156 H   0  0  0  0  0  0  0  0  0  0  0  0
   -2.6362   -2.3395    1.0094 C   0  0  0  0  0  0  0  0  0  0  0  0
   -1.8292   -2.8395    1.7814 O   0  0  0  0  0  0  0  0  0  0  0  0
   -2.3832   -1.2445    0.2964 N   0  0  0  0  0  0  0  0  0  0  0  0
   -3.1102   -0.8685   -0.2946 H   0  0  0  0  0  0  0  0  0  0  0  0
   -1.1292   -0.4875    0.3524 C   0  0  1  0  0  0  0  0  0  0  0  0
   -0.3087   -1.1556    0.0882 H   0  0  0  0  0  0  0  0  0  0  0  0
   -1.1749    0.6534   -0.6787 C   0  0  0  0  0  0  0  0  0  0  0  0
   -2.0022    0.4760   -1.3671 H   0  0  0  0  0  0  0  0  0  0  0  0
   -1.3777    1.5914   -0.1590 H   0  0  0  0  0  0  0  0  0  0  0  0
    0.0948    0.7962   -1.4954 C   0  0  0  0  0  0  0  0  0  0  0  0
    0.1307    0.3634   -2.8362 C   0  0  0  0  0  0  0  0  0  0  0  0
   -0.7423   -0.0972   -3.2798 H   0  0  0  0  0  0  0  0  0  0  0  0
    1.2997    0.5351   -3.6028 C   0  0  0  0  0  0  0  0  0  0  0  0
    1.3242    0.2011   -4.6287 H   0  0  0  0  0  0  0  0  0  0  0  0
    2.4355    1.1453   -3.0272 C   0  0  0  0  0  0  0  0  0  0  0  0
    3.5667    1.3182   -3.7590 O   0  0  0  0  0  0  0  0  0  0  0  0
    3.5056    0.9050   -4.6213 H   0  0  0  0  0  0  0  0  0  0  0  0
    2.3962    1.5823   -1.6868 C   0  0  0  0  0  0  0  0  0  0  0  0
    3.2724    2.0434   -1.2567 H   0  0  0  0  0  0  0  0  0  0  0  0
    1.2277    1.4051   -0.9218 C   0  0  0  0  0  0  0  0  0  0  0  0
    1.2013    1.7326    0.1107 H   0  0  0  0  0  0  0  0  0  0  0  0
   -0.8664    0.0378    1.7736 C   0  0  0  0  0  0  0  0  0  0  0  0
    0.2529   -0.0672    2.2760 O   0  0  0  0  0  0  0  0  0  0  0  0
   -1.8947    0.5991    2.4221 N   0  0  0  0  0  0  0  0  0  0  0  0
   -2.7942    0.5936    1.9635 H   0  0  0  0  0  0  0  0  0  0  0  0
   -1.8170    1.1453    3.7750 C   0  0  0  0  0  0  0  0  0  0  0  0
   -0.9697    1.8290    3.8506 H   0  0  0  0  0  0  0  0  0  0  0  0
   -2.7354    1.6828    4.0167 H   0  0  0  0  0  0  0  0  0  0  0  0
   -1.6754    0.3334    4.4914 H   0  0  0  0  0  0  0  0  0  0  0  0
  5  6  2  0  0  0  0
  5  7  1  0  0  0  0
  2  3  1  0  0  0  0
  2  4  1  0  0  0  0
  2  5  1  0  0  0  0
  1  2  1  0  0  0  0
 26 27  2  0  0  0  0
 26 28  1  0  0  0  0
 24 25  1  0  0  0  0
 22 23  1  0  0  0  0
 22 24  2  0  0  0  0
 20 21  1  0  0  0  0
 19 20  1  0  0  0  0
 19 22  1  0  0  0  0
 17 18  1  0  0  0  0
 17 19  2  0  0  0  0
 15 16  1  0  0  0  0
 15 17  1  0  0  0  0
 14 15  2  0  0  0  0
 14 24  1  0  0  0  0
 11 12  1  0  0  0  0
 11 13  1  0  0  0  0
 11 14  1  0  0  0  0
  9 10  1  0  0  0  0
  9 11  1  0  0  0  0
  9 26  1  0  0  0  0
  7  8  1  0  0  0  0
  7  9  1  0  0  0  0
 30 31  1  0  0  0  0
 30 32  1  0  0  0  0
 30 33  1  0  0  0  0
 28 29  1  0  0  0  0
 28 30  1  0  0  0  0
M  END
$$$$
default_name
  -OEChem-02102213163D

 33 33  0     1  0  0  0  0  0999 V2000
   -4.0702   -3.8485    1.4554 H   0  0  0  0  0  0  0  0  0  0  0  0
   -4.0012   -2.9605    0.8284 C   0  0  0  0  0  0  0  0  0  0  0  0
   -4.7652   -2.2435    1.1234 H   0  0  0  0  0  0  0  0  0  0  0  0
   -4.1352   -3.2385   -0.2156 H   0  0  0  0  0  0  0  0  0  0  0  0
   -2.6362   -2.3395    1.0094 C   0  0  0  0  0  0  0  0  0  0  0  0
   -1.8292   -2.8395    1.7814 O   0  0  0  0  0  0  0  0  0  0  0  0
   -2.3832   -1.2445    0.2964 N   0  0  0  0  0  0  0  0  0  0  0  0
   -3.1102   -0.8685   -0.2946 H   0  0  0  0  0  0  0  0  0  0  0  0
   -1.1292   -0.4875    0.3524 C   0  0  1  0  0  0  0  0  0  0  0  0
   -0.3087   -1.1556    0.0882 H   0  0  0  0  0  0  0  0  0  0  0  0
   -1.1749    0.6534   -0.6787 C   0  0  0  0  0  0  0  0  0  0  0  0
   -2.0022    0.4760   -1.3671 H   0  0  0  0  0  0  0  0  0  0  0  0
   -1.3777    1.5914   -0.1590 H   0  0  0  0  0  0  0  0  0  0  0  0
    0.0948    0.7962   -1.4954 C   0  0  0  0  0  0  0  0  0  0  0  0
    0.0568    0.6660   -2.8982 C   0  0  0  0  0  0  0  0  0  0  0  0
   -0.8767    0.4372   -3.3955 H   0  0  0  0  0  0  0  0  0  0  0  0
    1.2314    0.8395   -3.6558 C   0  0  0  0  0  0  0  0  0  0  0  0
    1.1989    0.7375   -4.7296 H   0  0  0  0  0  0  0  0  0  0  0  0
    2.4475    1.1481   -3.0080 C   0  0  0  0  0  0  0  0  0  0  0  0
    3.5851    1.3204   -3.7299 O   0  0  0  0  0  0  0  0  0  0  0  0
    3.4582    1.1179   -4.6578 H   0  0  0  0  0  0  0  0  0  0  0  0
    2.4827    1.2829   -1.6046 C   0  0  0  0  0  0  0  0  0  0  0  0
    3.4194    1.5148   -1.1205 H   0  0  0  0  0  0  0  0  0  0  0  0
    1.3078    1.1043   -0.8498 C   0  0  0  0  0  0  0  0  0  0  0  0
    1.3376    1.1989    0.2292 H   0  0  0  0  0  0  0  0  0  0  0  0
   -0.8664    0.0378    1.7736 C   0  0  0  0  0  0  0  0  0  0  0  0
    0.2529   -0.0672    2.2760 O   0  0  0  0  0  0  0  0  0  0  0  0
   -1.8947    0.5991    2.4221 N   0  0  0  0  0  0  0  0  0  0  0  0
   -2.7942    0.5936    1.9635 H   0  0  0  0  0  0  0  0  0  0  0  0
   -1.8170    1.1453    3.7750 C   0  0  0  0  0  0  0  0  0  0  0  0
   -0.9697    1.8290    3.8506 H   0  0  0  0  0  0  0  0  0  0  0  0
   -2.7354    1.6828    4.0167 H   0  0  0  0  0  0  0  0  0  0  0  0
   -1.6754    0.3334    4.4914 H   0  0  0  0  0  0  0  0  0  0  0  0
  5  6  2  0  0  0  0
  5  7  1  0  0  0  0
  2  3  1  0  0  0  0
  2  4  1  0  0  0  0
  2  5  1  0  0  0  0
  1  2  1  0  0  0  0
 26 27  2  0  0  0  0
 26 28  1  0  0  0  0
 24 25  1  0  0  0  0
 22 23  1  0  0  0  0
 22 24  2  0  0  0  0
 20 21  1  0  0  0  0
 19 20  1  0  0  0  0
 19 22  1  0  0  0  0
 17 18  1  0  0  0  0
 17 19  2  0  0  0  0
 15 16  1  0  0  0  0
 15 17  1  0  0  0  0
 14 15  2  0  0  0  0
 14 24  1  0  0  0  0
 11 12  1  0  0  0  0
 11 13  1  0  0  0  0
 11 14  1  0  0  0  0
  9 10  1  0  0  0  0
  9 11  1  0  0  0  0
  9 26  1  0  0  0  0
  7  8  1  0  0  0  0
  7  9  1  0  0  0  0
 30 31  1  0  0  0  0
 30 32  1  0  0  0  0
 30 33  1  0  0  0  0
 28 29  1  0  0  0  0
 28 30  1  0  0  0  0
M  END
$$$$
default_name
  -OEChem-02102213163D

 33 33  0     1  0  0  0  0  0999 V2000
   -4.0702   -3.8485    1.4554 H   0  0  0  0  0  0  0  0  0  0  0  0
   -4.0012   -2.9605    0.8284 C   0  0  0  0  0  0  0  0  0  0  0  0
   -4.7652   -2.2435    1.1234 H   0  0  0  0  0  0  0  0  0  0  0  0
   -4.1352   -3.2385   -0.2156 H   0  0  0  0  0  0  0  0  0  0  0  0
   -2.6362   -2.3395    1.0094 C   0  0  0  0  0  0  0  0  0  0  0  0
   -1.8292   -2.8395    1.7814 O   0  0  0  0  0  0  0  0  0  0  0  0
   -2.3832   -1.2445    0.2964 N   0  0  0  0  0  0  0  0  0  0  0  0
   -3.1102   -0.8685   -0.2946 H   0  0  0  0  0  0  0  0  0  0  0  0
   -1.1292   -0.4875    0.3524 C   0  0  1  0  0  0  0  0  0  0  0  0
   -0.3087   -1.1556    0.0882 H   0  0  0  0  0  0  0  0  0  0  0  0
   -1.1749    0.6534   -0.6787 C   0  0  0  0  0  0  0  0  0  0  0  0
   -2.0022    0.4760   -1.3671 H   0  0  0  0  0  0  0  0  0  0  0  0
   -1.3777    1.5914   -0.1590 H   0  0  0  0  0  0  0  0  0  0  0  0
    0.0948    0.7962   -1.4954 C   0  0  0  0  0  0  0  0  0  0  0  0
    0.0260    0.9820   -2.8908 C   0  0  0  0  0  0  0  0  0  0  0  0
   -0.9350    0.9972   -3.3881 H   0  0  0  0  0  0  0  0  0  0  0  0
    1.2066    1.1546   -3.6394 C   0  0  0  0  0  0  0  0  0  0  0  0
    1.1502    1.2951   -4.7079 H   0  0  0  0  0  0  0  0  0  0  0  0
    2.4599    1.1451   -2.9892 C   0  0  0  0  0  0  0  0  0  0  0  0
    3.6039    1.3136   -3.7019 O   0  0  0  0  0  0  0  0  0  0  0  0
    3.4412    1.3380   -4.6457 H   0  0  0  0  0  0  0  0  0  0  0  0
    2.5265    0.9639   -1.5922 C   0  0  0  0  0  0  0  0  0  0  0  0
    3.4910    0.9541   -1.1072 H   0  0  0  0  0  0  0  0  0  0  0  0
    1.3451    0.7871   -0.8474 C   0  0  0  0  0  0  0  0  0  0  0  0
    1.3976    0.6387    0.2247 H   0  0  0  0  0  0  0  0  0  0  0  0
   -0.8664    0.0378    1.7736 C   0  0  0  0  0  0  0  0  0  0  0  0
    0.2529   -0.0672    2.2760 O   0  0  0  0  0  0  0  0  0  0  0  0
   -1.8947    0.5991    2.4221 N   0  0  0  0  0  0  0  0  0  0  0  0
   -2.7942    0.5936    1.9635 H   0  0  0  0  0  0  0  0  0  0  0  0
   -1.8170    1.1453    3.7750 C   0  0  0  0  0  0  0  0  0  0  0  0
   -0.9697    1.8290    3.8506 H   0  0  0  0  0  0  0  0  0  0  0  0
   -2.7354    1.6828    4.0167 H   0  0  0  0  0  0  0  0  0  0  0  0
   -1.6754    0.3334    4.4914 H   0  0  0  0  0  0  0  0  0  0  0  0
  5  6  2  0  0  0  0
  5  7  1  0  0  0  0
  2  3  1  0  0  0  0
  2  4  1  0  0  0  0
  2  5  1  0  0  0  0
  1  2  1  0  0  0  0
 26 27  2  0  0  0  0
 26 28  1  0  0  0  0
 24 25  1  0  0  0  0
 22 23  1  0  0  0  0
 22 24  2  0  0  0  0
 20 21  1  0  0  0  0
 19 20  1  0  0  0  0
 19 22  1  0  0  0  0
 17 18  1  0  0  0  0
 17 19  2  0  0  0  0
 15 16  1  0  0  0  0
 15 17  1  0  0  0  0
 14 15  2  0  0  0  0
 14 24  1  0  0  0  0
 11 12  1  0  0  0  0
 11 13  1  0  0  0  0
 11 14  1  0  0  0  0
  9 10  1  0  0  0  0
  9 11  1  0  0  0  0
  9 26  1  0  0  0  0
  7  8  1  0  0  0  0
  7  9  1  0  0  0  0
 30 31  1  0  0  0  0
 30 32  1  0  0  0  0
 30 33  1  0  0  0  0
 28 29  1  0  0  0  0
 28 30  1  0  0  0  0
M  END
$$$$
default_name
  -OEChem-02102213163D

 33 33  0     1  0  0  0  0  0999 V2000
   -4.0702   -3.8485    1.4554 H   0  0  0  0  0  0  0  0  0  0  0  0
   -4.0012   -2.9605    0.8284 C   0  0  0  0  0  0  0  0  0  0  0  0
   -4.7652   -2.2435    1.1234 H   0  0  0  0  0  0  0  0  0  0  0  0
   -4.1352   -3.2385   -0.2156 H   0  0  0  0  0  0  0  0  0  0  0  0
   -2.6362   -2.3395    1.0094 C   0  0  0  0  0  0  0  0  0  0  0  0
   -1.8292   -2.8395    1.7814 O   0  0  0  0  0  0  0  0  0  0  0  0
   -2.3832   -1.2445    0.2964 N   0  0  0  0  0  0  0  0  0  0  0  0
   -3.1102   -0.8685   -0.2946 H   0  0  0  0  0  0  0  0  0  0  0  0
   -1.1292   -0.4875    0.3524 C   0  0  1  0  0  0  0  0  0  0  0  0
   -0.3087   -1.1556    0.0882 H   0  0  0  0  0  0  0  0  0  0  0  0
   -1.1749    0.6534   -0.6787 C   0  0  0  0  0  0  0  0  0  0  0  0
   -2.0022    0.4760   -1.3671 H   0  0  0  0  0  0  0  0  0  0  0  0
   -1.3777    1.5914   -0.1590 H   0  0  0  0  0  0  0  0  0  0  0  0
    0.0948    0.7962   -1.4954 C   0  0  0  0  0  0  0  0  0  0  0  0
    0.0406    1.2899   -2.8143 C   0  0  0  0  0  0  0  0  0  0  0  0
   -0.9129    1.5446   -3.2582 H   0  0  0  0  0  0  0  0  0  0  0  0
    1.2269    1.4588   -3.5546 C   0  0  0  0  0  0  0  0  0  0  0  0
    1.1815    1.8357   -4.5649 H   0  0  0  0  0  0  0  0  0  0  0  0
    2.4719    1.1363   -2.9721 C   0  0  0  0  0  0  0  0  0  0  0  0
    3.6219    1.2984   -3.6767 O   0  0  0  0  0  0  0  0  0  0  0  0
    3.4557    1.5504   -4.5860 H   0  0  0  0  0  0  0  0  0  0  0  0
    2.5247    0.6470   -1.6504 C   0  0  0  0  0  0  0  0  0  0  0  0
    3.4824    0.3997   -1.2176 H   0  0  0  0  0  0  0  0  0  0  0  0
    1.3369    0.4749   -0.9147 C   0  0  0  0  0  0  0  0  0  0  0  0
    1.3775    0.0902    0.0974 H   0  0  0  0  0  0  0  0  0  0  0  0
   -0.8664    0.0378    1.7736 C   0  0  0  0  0  0  0  0  0  0  0  0
    0.2529   -0.0672    2.2760 O   0  0  0  0  0  0  0  0  0  0  0  0
   -1.8947    0.5991    2.4221 N   0  0  0  0  0  0  0  0  0  0  0  0
   -2.7942    0.5936    1.9635 H   0  0  0  0  0  0  0  0  0  0  0  0
   -1.8170    1.1453    3.7750 C   0  0  0  0  0  0  0  0  0  0  0  0
   -0.9697    1.8290    3.8506 H   0  0  0  0  0  0  0  0  0  0  0  0
   -2.7354    1.6828    4.0167 H   0  0  0  0  0  0  0  0  0  0  0  0
   -1.6754    0.3334    4.4914 H   0  0  0  0  0  0  0  0  0  0  0  0
  5  6  2  0  0  0  0
  5  7  1  0  0  0  0
  2  3  1  0  0  0  0
  2  4  1  0  0  0  0
  2  5  1  0  0  0  0
  1  2  1  0  0  0  0
 26 27  2  0  0  0  0
 26 28  1  0  0  0  0
 24 25  1  0  0  0  0
 22 23  1  0  0  0  0
 22 24  2  0  0  0  0
 20 21  1  0  0  0  0
 19 20  1  0  0  0  0
 19 22  1  0  0  0  0
 17 18  1  0  0  0  0
 17 19  2  0  0  0  0
 15 16  1  0  0  0  0
 15 17  1  0  0  0  0
 14 15  2  0  0  0  0
 14 24  1  0  0  0  0
 11 12  1  0  0  0  0
 11 13  1  0  0  0  0
 11 14  1  0  0  0  0
  9 10  1  0  0  0  0
  9 11  1  0  0  0  0
  9 26  1  0  0  0  0
  7  8  1  0  0  0  0
  7  9  1  0  0  0  0
 30 31  1  0  0  0  0
 30 32  1  0  0  0  0
 30 33  1  0  0  0  0
 28 29  1  0  0  0  0
 28 30  1  0  0  0  0
M  END
$$$$
default_name
  -OEChem-02102213163D

 33 33  0     1  0  0  0  0  0999 V2000
   -4.0702   -3.8485    1.4554 H   0  0  0  0  0  0  0  0  0  0  0  0
   -4.0012   -2.9605    0.8284 C   0  0  0  0  0  0  0  0  0  0  0  0
   -4.7652   -2.2435    1.1234 H   0  0  0  0  0  0  0  0  0  0  0  0
   -4.1352   -3.2385   -0.2156 H   0  0  0  0  0  0  0  0  0  0  0  0
   -2.6362   -2.3395    1.0094 C   0  0  0  0  0  0  0  0  0  0  0  0
   -1.8292   -2.8395    1.7814 O   0  0  0  0  0  0  0  0  0  0  0  0
   -2.3832   -1.2445    0.2964 N   0  0  0  0  0  0  0  0  0  0  0  0
   -3.1102   -0.8685   -0.2946 H   0  0  0  0  0  0  0  0  0  0  0  0
   -1.1292   -0.4875    0.3524 C   0  0  1  0  0  0  0  0  0  0  0  0
   -0.3087   -1.1556    0.0882 H   0  0  0  0  0  0  0  0  0  0  0  0
   -1.1749    0.6534   -0.6787 C   0  0  0  0  0  0  0  0  0  0  0  0
   -2.0022    0.4760   -1.3671 H   0  0  0  0  0  0  0  0  0  0  0  0
   -1.3777    1.5914   -0.1590 H   0  0  0  0  0  0  0  0  0  0  0  0
    0.0948    0.7962   -1.4954 C   0  0  0  0  0  0  0  0  0  0  0  0
    0.0994    1.5688   -2.6741 C   0  0  0  0  0  0  0  0  0  0  0  0
   -0.8122    2.0421   -3.0146 H   0  0  0  0  0  0  0  0  0  0  0  0
    1.2909    1.7315   -3.4073 C   0  0  0  0  0  0  0  0  0  0  0  0
    1.2905    2.3225   -4.3103 H   0  0  0  0  0  0  0  0  0  0  0  0
    2.4827    1.1224   -2.9577 C   0  0  0  0  0  0  0  0  0  0  0  0
    3.6377    1.2757   -3.6561 O   0  0  0  0  0  0  0  0  0  0  0  0
    3.5008    1.7406   -4.4826 H   0  0  0  0  0  0  0  0  0  0  0  0
    2.4774    0.3537   -1.7753 C   0  0  0  0  0  0  0  0  0  0  0  0
    3.3940   -0.1107   -1.4441 H   0  0  0  0  0  0  0  0  0  0  0  0
    1.2838    0.1891   -1.0471 C   0  0  0  0  0  0  0  0  0  0  0  0
    1.2784   -0.4093   -0.1438 H   0  0  0  0  0  0  0  0  0  0  0  0
   -0.8664    0.0378    1.7736 C   0  0  0  0  0  0  0  0  0  0  0  0
    0.2529   -0.0672    2.2760 O   0  0  0  0  0  0  0  0  0  0  0  0
   -1.8947    0.5991    2.4221 N   0  0  0  0  0  0  0  0  0  0  0  0
   -2.7942    0.5936    1.9635 H   0  0  0  0  0  0  0  0  0  0  0  0
   -1.8170    1.1453    3.7750 C   0  0  0  0  0  0  0  0  0  0  0  0
   -0.9697    1.8290    3.8506 H   0  0  0  0  0  0  0  0  0  0  0  0
   -2.7354    1.6828    4.0167 H   0  0  0  0  0  0  0  0  0  0  0  0
   -1.6754    0.3334    4.4914 H   0  0  0  0  0  0  0  0  0  0  0  0
  5  6  2  0  0  0  0
  5  7  1  0  0  0  0
  2  3  1  0  0  0  0
  2  4  1  0  0  0  0
  2  5  1  0  0  0  0
  1  2  1  0  0  0  0
 26 27  2  0  0  0  0
 26 28  1  0  0  0  0
 24 25  1  0  0  0  0
 22 23  1  0  0  0  0
 22 24  2  0  0  0  0
 20 21  1  0  0  0  0
 19 20  1  0  0  0  0
 19 22  1  0  0  0  0
 17 18  1  0  0  0  0
 17 19  2  0  0  0  0
 15 16  1  0  0  0  0
 15 17  1  0  0  0  0
 14 15  2  0  0  0  0
 14 24  1  0  0  0  0
 11 12  1  0  0  0  0
 11 13  1  0  0  0  0
 11 14  1  0  0  0  0
  9 10  1  0  0  0  0
  9 11  1  0  0  0  0
  9 26  1  0  0  0  0
  7  8  1  0  0  0  0
  7  9  1  0  0  0  0
 30 31  1  0  0  0  0
 30 32  1  0  0  0  0
 30 33  1  0  0  0  0
 28 29  1  0  0  0  0
 28 30  1  0  0  0  0
M  END
$$$$
default_name
  -OEChem-02102213163D

 33 33  0     1  0  0  0  0  0999 V2000
   -4.0702   -3.8485    1.4554 H   0  0  0  0  0  0  0  0  0  0  0  0
   -4.0012   -2.9605    0.8284 C   0  0  0  0  0  0  0  0  0  0  0  0
   -4.7652   -2.2435    1.1234 H   0  0  0  0  0  0  0  0  0  0  0  0
   -4.1352   -3.2385   -0.2156 H   0  0  0  0  0  0  0  0  0  0  0  0
   -2.6362   -2.3395    1.0094 C   0  0  0  0  0  0  0  0  0  0  0  0
   -1.8292   -2.8395    1.7814 O   0  0  0  0  0  0  0  0  0  0  0  0
   -2.3832   -1.2445    0.2964 N   0  0  0  0  0  0  0  0  0  0  0  0
   -3.1102   -0.8685   -0.2946 H   0  0  0  0  0  0  0  0  0  0  0  0
   -1.1292   -0.4875    0.3524 C   0  0  1  0  0  0  0  0  0  0  0  0
   -0.3087   -1.1556    0.0882 H   0  0  0  0  0  0  0  0  0  0  0  0
   -1.1749    0.6534   -0.6787 C   0  0  0  0  0  0  0  0  0  0  0  0
   -2.1373    0.6292   -1.1916 H   0  0  0  0  0  0  0  0  0  0  0  0
   -1.1087    1.6075   -0.1531 H   0  0  0  0  0  0  0  0  0  0  0  0
   -0.0811    0.5804   -1.7264 C   0  0  0  0  0  0  0  0  0  0  0  0
    0.0028    1.5593   -2.7368 C   0  0  0  0  0  0  0  0  0  0  0  0
   -0.7309    2.3535   -2.7833 H   0  0  0  0  0  0  0  0  0  0  0  0
    1.0445    1.5099   -3.6835 C   0  0  0  0  0  0  0  0  0  0  0  0
    1.1047    2.2603   -4.4568 H   0  0  0  0  0  0  0  0  0  0  0  0
    2.0077    0.4796   -3.6169 C   0  0  0  0  0  0  0  0  0  0  0  0
    3.0178    0.4249   -4.5233 O   0  0  0  0  0  0  0  0  0  0  0  0
    2.9206    1.0832   -5.2126 H   0  0  0  0  0  0  0  0  0  0  0  0
    1.9251   -0.4963   -2.6022 C   0  0  0  0  0  0  0  0  0  0  0  0
    2.6650   -1.2816   -2.5643 H   0  0  0  0  0  0  0  0  0  0  0  0
    0.8800   -0.4468   -1.6602 C   0  0  0  0  0  0  0  0  0  0  0  0
    0.8119   -1.2023   -0.8865 H   0  0  0  0  0  0  0  0  0  0  0  0
   -0.8664    0.0378    1.7736 C   0  0  0  0  0  0  0  0  0  0  0  0
    0.2529   -0.0672    2.2760 O   0  0  0  0  0  0  0  0  0  0  0  0
   -1.8947    0.5991    2.4221 N   0  0  0  0  0  0  0  0  0  0  0  0
   -2.7942    0.5936    1.9635 H   0  0  0  0  0  0  0  0  0  0  0  0
   -1.8170    1.1453    3.7750 C   0  0  0  0  0  0  0  0  0  0  0  0
   -0.9697    1.8290    3.8506 H   0  0  0  0  0  0  0  0  0  0  0  0
   -2.7354    1.6828    4.0167 H   0  0  0  0  0  0  0  0  0  0  0  0
   -1.6754    0.3334    4.4914 H   0  0  0  0  0  0  0  0  0  0  0  0
  5  6  2  0  0  0  0
  5  7  1  0  0  0  0
  2  3  1  0  0  0  0
  2  4  1  0  0  0  0
  2  5  1  0  0  0  0
  1  2  1  0  0  0  0
 26 27  2  0  0  0  0
 26 28  1  0  0  0  0
 24 25  1  0  0  0  0
 22 23  1  0  0  0  0
 22 24  2  0  0  0  0
 20 21  1  0  0  0  0
 19 20  1  0  0  0  0
 19 22  1  0  0  0  0
 17 18  1  0  0  0  0
 17 19  2  0  0  0  0
 15 16  1  0  0  0  0
 15 17  1  0  0  0  0
 14 15  2  0  0  0  0
 14 24  1  0  0  0  0
 11 12  1  0  0  0  0
 11 13  1  0  0  0  0
 11 14  1  0  0  0  0
  9 10  1  0  0  0  0
  9 11  1  0  0  0  0
  9 26  1  0  0  0  0
  7  8  1  0  0  0  0
  7  9  1  0  0  0  0
 30 31  1  0  0  0  0
 30 32  1  0  0  0  0
 30 33  1  0  0  0  0
 28 29  1  0  0  0  0
 28 30  1  0  0  0  0
M  END
$$$$
default_name
  -OEChem-02102213163D

 33 33  0     1  0  0  0  0  0999 V2000
   -4.0702   -3.8485    1.4554 H   0  0  0  0  0  0  0  0  0  0  0  0
   -4.0012   -2.9605    0.8284 C   0  0  0  0  0  0  0  0  0  0  0  0
   -4.7652   -2.2435    1.1234 H   0  0  0  0  0  0  0  0  0  0  0  0
   -4.1352   -3.2385   -0.2156 H   0  0  0  0  0  0  0  0  0  0  0  0
   -2.6362   -2.3395    1.0094 C   0  0  0  0  0  0  0  0  0  0  0  0
   -1.8292   -2.8395    1.7814 O   0  0  0  0  0  0  0  0  0  0  0  0
   -2.3832   -1.2445    0.2964 N   0  0  0  0  0  0  0  0  0  0  0  0
   -3.1102   -0.8685   -0.2946 H   0  0  0  0  0  0  0  0  0  0  0  0
   -1.1292   -0.4875    0.3524 C   0  0  1  0  0  0  0  0  0  0  0  0
   -0.3087   -1.1556    0.0882 H   0  0  0  0  0  0  0  0  0  0  0  0
   -1.1749    0.6534   -0.6787 C   0  0  0  0  0  0  0  0  0  0  0  0
   -2.1373    0.6292   -1.1916 H   0  0  0  0  0  0  0  0  0  0  0  0
   -1.1087    1.6075   -0.1531 H   0  0  0  0  0  0  0  0  0  0  0  0
   -0.0811    0.5804   -1.7264 C   0  0  0  0  0  0  0  0  0  0  0  0
    0.2051    1.6984   -2.5353 C   0  0  0  0  0  0  0  0  0  0  0  0
   -0.3741    2.6063   -2.4285 H   0  0  0  0  0  0  0  0  0  0  0  0
    1.2489    1.6388   -3.4792 C   0  0  0  0  0  0  0  0  0  0  0  0
    1.4642    2.4963   -4.0980 H   0  0  0  0  0  0  0  0  0  0  0  0
    2.0114    0.4578   -3.6115 C   0  0  0  0  0  0  0  0  0  0  0  0
    3.0220    0.3913   -4.5167 O   0  0  0  0  0  0  0  0  0  0  0  0
    3.0635    1.1726   -5.0696 H   0  0  0  0  0  0  0  0  0  0  0  0
    1.7268   -0.6584   -2.7979 C   0  0  0  0  0  0  0  0  0  0  0  0
    2.3140   -1.5571   -2.9115 H   0  0  0  0  0  0  0  0  0  0  0  0
    0.6799   -0.5972   -1.8586 C   0  0  0  0  0  0  0  0  0  0  0  0
    0.4559   -1.4583   -1.2403 H   0  0  0  0  0  0  0  0  0  0  0  0
   -0.8664    0.0378    1.7736 C   0  0  0  0  0  0  0  0  0  0  0  0
    0.2529   -0.0672    2.2760 O   0  0  0  0  0  0  0  0  0  0  0  0
   -1.8947    0.5991    2.4221 N   0  0  0  0  0  0  0  0  0  0  0  0
   -2.7942    0.5936    1.9635 H   0  0  0  0  0  0  0  0  0  0  0  0
   -1.8170    1.1453    3.7750 C   0  0  0  0  0  0  0  0  0  0  0  0
   -0.9697    1.8290    3.8506 H   0  0  0  0  0  0  0  0  0  0  0  0
   -2.7354    1.6828    4.0167 H   0  0  0  0  0  0  0  0  0  0  0  0
   -1.6754    0.3334    4.4914 H   0  0  0  0  0  0  0  0  0  0  0  0
  5  6  2  0  0  0  0
  5  7  1  0  0  0  0
  2  3  1  0  0  0  0
  2  4  1  0  0  0  0
  2  5  1  0  0  0  0
  1  2  1  0  0  0  0
 26 27  2  0  0  0  0
 26 28  1  0  0  0  0
 24 25  1  0  0  0  0
 22 23  1  0  0  0  0
 22 24  2  0  0  0  0
 20 21  1  0  0  0  0
 19 20  1  0  0  0  0
 19 22  1  0  0  0  0
 17 18  1  0  0  0  0
 17 19  2  0  0  0  0
 15 16  1  0  0  0  0
 15 17  1  0  0  0  0
 14 15  2  0  0  0  0
 14 24  1  0  0  0  0
 11 12  1  0  0  0  0
 11 13  1  0  0  0  0
 11 14  1  0  0  0  0
  9 10  1  0  0  0  0
  9 11  1  0  0  0  0
  9 26  1  0  0  0  0
  7  8  1  0  0  0  0
  7  9  1  0  0  0  0
 30 31  1  0  0  0  0
 30 32  1  0  0  0  0
 30 33  1  0  0  0  0
 28 29  1  0  0  0  0
 28 30  1  0  0  0  0
M  END
$$$$
default_name
  -OEChem-02102213163D

 33 33  0     1  0  0  0  0  0999 V2000
   -4.0702   -3.8485    1.4554 H   0  0  0  0  0  0  0  0  0  0  0  0
   -4.0012   -2.9605    0.8284 C   0  0  0  0  0  0  0  0  0  0  0  0
   -4.7652   -2.2435    1.1234 H   0  0  0  0  0  0  0  0  0  0  0  0
   -4.1352   -3.2385   -0.2156 H   0  0  0  0  0  0  0  0  0  0  0  0
   -2.6362   -2.3395    1.0094 C   0  0  0  0  0  0  0  0  0  0  0  0
   -1.8292   -2.8395    1.7814 O   0  0  0  0  0  0  0  0  0  0  0  0
   -2.3832   -1.2445    0.2964 N   0  0  0  0  0  0  0  0  0  0  0  0
   -3.1102   -0.8685   -0.2946 H   0  0  0  0  0  0  0  0  0  0  0  0
   -1.1292   -0.4875    0.3524 C   0  0  1  0  0  0  0  0  0  0  0  0
   -0.3087   -1.1556    0.0882 H   0  0  0  0  0  0  0  0  0  0  0  0
   -1.1749    0.6534   -0.6787 C   0  0  0  0  0  0  0  0  0  0  0  0
   -2.1373    0.6292   -1.1916 H   0  0  0  0  0  0  0  0  0  0  0  0
   -1.1087    1.6075   -0.1531 H   0  0  0  0  0  0  0  0  0  0  0  0
   -0.0811    0.5804   -1.7264 C   0  0  0  0  0  0  0  0  0  0  0  0
    0.4228    1.7590   -2.3122 C   0  0  0  0  0  0  0  0  0  0  0  0
    0.0112    2.7204   -2.0342 H   0  0  0  0  0  0  0  0  0  0  0  0
    1.4668    1.6886   -3.2551 C   0  0  0  0  0  0  0  0  0  0  0  0
    1.8491    2.5931   -3.7028 H   0  0  0  0  0  0  0  0  0  0  0  0
    2.0109    0.4351   -3.6104 C   0  0  0  0  0  0  0  0  0  0  0  0
    3.0198    0.3569   -4.5165 O   0  0  0  0  0  0  0  0  0  0  0  0
    3.2158    1.2068   -4.9130 H   0  0  0  0  0  0  0  0  0  0  0  0
    1.5088   -0.7429   -3.0196 C   0  0  0  0  0  0  0  0  0  0  0  0
    1.9301   -1.6957   -3.3027 H   0  0  0  0  0  0  0  0  0  0  0  0
    0.4622   -0.6696   -2.0808 C   0  0  0  0  0  0  0  0  0  0  0  0
    0.0706   -1.5759   -1.6343 H   0  0  0  0  0  0  0  0  0  0  0  0
   -0.8664    0.0378    1.7736 C   0  0  0  0  0  0  0  0  0  0  0  0
    0.2529   -0.0672    2.2760 O   0  0  0  0  0  0  0  0  0  0  0  0
   -1.8947    0.5991    2.4221 N   0  0  0  0  0  0  0  0  0  0  0  0
   -2.7942    0.5936    1.9635 H   0  0  0  0  0  0  0  0  0  0  0  0
   -1.8170    1.1453    3.7750 C   0  0  0  0  0  0  0  0  0  0  0  0
   -0.9697    1.8290    3.8506 H   0  0  0  0  0  0  0  0  0  0  0  0
   -2.7354    1.6828    4.0167 H   0  0  0  0  0  0  0  0  0  0  0  0
   -1.6754    0.3334    4.4914 H   0  0  0  0  0  0  0  0  0  0  0  0
  5  6  2  0  0  0  0
  5  7  1  0  0  0  0
  2  3  1  0  0  0  0
  2  4  1  0  0  0  0
  2  5  1  0  0  0  0
  1  2  1  0  0  0  0
 26 27  2  0  0  0  0
 26 28  1  0  0  0  0
 24 25  1  0  0  0  0
 22 23  1  0  0  0  0
 22 24  2  0  0  0  0
 20 21  1  0  0  0  0
 19 20  1  0  0  0  0
 19 22  1  0  0  0  0
 17 18  1  0  0  0  0
 17 19  2  0  0  0  0
 15 16  1  0  0  0  0
 15 17  1  0  0  0  0
 14 15  2  0  0  0  0
 14 24  1  0  0  0  0
 11 12  1  0  0  0  0
 11 13  1  0  0  0  0
 11 14  1  0  0  0  0
  9 10  1  0  0  0  0
  9 11  1  0  0  0  0
  9 26  1  0  0  0  0
  7  8  1  0  0  0  0
  7  9  1  0  0  0  0
 30 31  1  0  0  0  0
 30 32  1  0  0  0  0
 30 33  1  0  0  0  0
 28 29  1  0  0  0  0
 28 30  1  0  0  0  0
M  END
$$$$
default_name
  -OEChem-02102213163D

 33 33  0     1  0  0  0  0  0999 V2000
   -4.0702   -3.8485    1.4554 H   0  0  0  0  0  0  0  0  0  0  0  0
   -4.0012   -2.9605    0.8284 C   0  0  0  0  0  0  0  0  0  0  0  0
   -4.7652   -2.2435    1.1234 H   0  0  0  0  0  0  0  0  0  0  0  0
   -4.1352   -3.2385   -0.2156 H   0  0  0  0  0  0  0  0  0  0  0  0
   -2.6362   -2.3395    1.0094 C   0  0  0  0  0  0  0  0  0  0  0  0
   -1.8292   -2.8395    1.7814 O   0  0  0  0  0  0  0  0  0  0  0  0
   -2.3832   -1.2445    0.2964 N   0  0  0  0  0  0  0  0  0  0  0  0
   -3.1102   -0.8685   -0.2946 H   0  0  0  0  0  0  0  0  0  0  0  0
   -1.1292   -0.4875    0.3524 C   0  0  1  0  0  0  0  0  0  0  0  0
   -0.3087   -1.1556    0.0882 H   0  0  0  0  0  0  0  0  0  0  0  0
   -1.1749    0.6534   -0.6787 C   0  0  0  0  0  0  0  0  0  0  0  0
   -2.1373    0.6292   -1.1916 H   0  0  0  0  0  0  0  0  0  0  0  0
   -1.1087    1.6075   -0.1531 H   0  0  0  0  0  0  0  0  0  0  0  0
   -0.0811    0.5804   -1.7264 C   0  0  0  0  0  0  0  0  0  0  0  0
    0.6412    1.7369   -2.0827 C   0  0  0  0  0  0  0  0  0  0  0  0
    0.3989    2.6882   -1.6271 H   0  0  0  0  0  0  0  0  0  0  0  0
    1.6834    1.6560   -3.0267 C   0  0  0  0  0  0  0  0  0  0  0  0
    2.2333    2.5439   -3.2983 H   0  0  0  0  0  0  0  0  0  0  0  0
    2.0064    0.4131   -3.6136 C   0  0  0  0  0  0  0  0  0  0  0  0
    3.0116    0.3240   -4.5228 O   0  0  0  0  0  0  0  0  0  0  0  0
    3.3670    1.1833   -4.7535 H   0  0  0  0  0  0  0  0  0  0  0  0
    1.2858   -0.7441   -3.2523 C   0  0  0  0  0  0  0  0  0  0  0  0
    1.5393   -1.6879   -3.7112 H   0  0  0  0  0  0  0  0  0  0  0  0
    0.2417   -0.6592   -2.3118 C   0  0  0  0  0  0  0  0  0  0  0  0
   -0.3176   -1.5470   -2.0416 H   0  0  0  0  0  0  0  0  0  0  0  0
   -0.8664    0.0378    1.7736 C   0  0  0  0  0  0  0  0  0  0  0  0
    0.2529   -0.0672    2.2760 O   0  0  0  0  0  0  0  0  0  0  0  0
   -1.8947    0.5991    2.4221 N   0  0  0  0  0  0  0  0  0  0  0  0
   -2.7942    0.5936    1.9635 H   0  0  0  0  0  0  0  0  0  0  0  0
   -1.8170    1.1453    3.7750 C   0  0  0  0  0  0  0  0  0  0  0  0
   -0.9697    1.8290    3.8506 H   0  0  0  0  0  0  0  0  0  0  0  0
   -2.7354    1.6828    4.0167 H   0  0  0  0  0  0  0  0  0  0  0  0
   -1.6754    0.3334    4.4914 H   0  0  0  0  0  0  0  0  0  0  0  0
  5  6  2  0  0  0  0
  5  7  1  0  0  0  0
  2  3  1  0  0  0  0
  2  4  1  0  0  0  0
  2  5  1  0  0  0  0
  1  2  1  0  0  0  0
 26 27  2  0  0  0  0
 26 28  1  0  0  0  0
 24 25  1  0  0  0  0
 22 23  1  0  0  0  0
 22 24  2  0  0  0  0
 20 21  1  0  0  0  0
 19 20  1  0  0  0  0
 19 22  1  0  0  0  0
 17 18  1  0  0  0  0
 17 19  2  0  0  0  0
 15 16  1  0  0  0  0
 15 17  1  0  0  0  0
 14 15  2  0  0  0  0
 14 24  1  0  0  0  0
 11 12  1  0  0  0  0
 11 13  1  0  0  0  0
 11 14  1  0  0  0  0
  9 10  1  0  0  0  0
  9 11  1  0  0  0  0
  9 26  1  0  0  0  0
  7  8  1  0  0  0  0
  7  9  1  0  0  0  0
 30 31  1  0  0  0  0
 30 32  1  0  0  0  0
 30 33  1  0  0  0  0
 28 29  1  0  0  0  0
 28 30  1  0  0  0  0
M  END
$$$$
default_name
  -OEChem-02102213163D

 33 33  0     1  0  0  0  0  0999 V2000
   -4.0702   -3.8485    1.4554 H   0  0  0  0  0  0  0  0  0  0  0  0
   -4.0012   -2.9605    0.8284 C   0  0  0  0  0  0  0  0  0  0  0  0
   -4.7652   -2.2435    1.1234 H   0  0  0  0  0  0  0  0  0  0  0  0
   -4.1352   -3.2385   -0.2156 H   0  0  0  0  0  0  0  0  0  0  0  0
   -2.6362   -2.3395    1.0094 C   0  0  0  0  0  0  0  0  0  0  0  0
   -1.8292   -2.8395    1.7814 O   0  0  0  0  0  0  0  0  0  0  0  0
   -2.3832   -1.2445    0.2964 N   0  0  0  0  0  0  0  0  0  0  0  0
   -3.1102   -0.8685   -0.2946 H   0  0  0  0  0  0  0  0  0  0  0  0
   -1.1292   -0.4875    0.3524 C   0  0  1  0  0  0  0  0  0  0  0  0
   -0.3087   -1.1556    0.0882 H   0  0  0  0  0  0  0  0  0  0  0  0
   -1.1749    0.6534   -0.6787 C   0  0  0  0  0  0  0  0  0  0  0  0
   -2.1373    0.6292   -1.1916 H   0  0  0  0  0  0  0  0  0  0  0  0
   -1.1087    1.6075   -0.1531 H   0  0  0  0  0  0  0  0  0  0  0  0
   -0.0811    0.5804   -1.7264 C   0  0  0  0  0  0  0  0  0  0  0  0
    0.8454    1.6337   -1.8624 C   0  0  0  0  0  0  0  0  0  0  0  0
    0.7626    2.5117   -1.2352 H   0  0  0  0  0  0  0  0  0  0  0  0
    1.8839    1.5431   -2.8095 C   0  0  0  0  0  0  0  0  0  0  0  0
    2.5906    2.3522   -2.9119 H   0  0  0  0  0  0  0  0  0  0  0  0
    1.9982    0.3932   -3.6208 C   0  0  0  0  0  0  0  0  0  0  0  0
    2.9979    0.2949   -4.5351 O   0  0  0  0  0  0  0  0  0  0  0  0
    3.5070    1.1038   -4.6019 H   0  0  0  0  0  0  0  0  0  0  0  0
    1.0731   -0.6620   -3.4800 C   0  0  0  0  0  0  0  0  0  0  0  0
    1.1684   -1.5342   -4.1092 H   0  0  0  0  0  0  0  0  0  0  0  0
    0.0335   -0.5665   -2.5356 C   0  0  0  0  0  0  0  0  0  0  0  0
   -0.6824   -1.3736   -2.4345 H   0  0  0  0  0  0  0  0  0  0  0  0
   -0.8664    0.0378    1.7736 C   0  0  0  0  0  0  0  0  0  0  0  0
    0.2529   -0.0672    2.2760 O   0  0  0  0  0  0  0  0  0  0  0  0
   -1.8947    0.5991    2.4221 N   0  0  0  0  0  0  0  0  0  0  0  0
   -2.7942    0.5936    1.9635 H   0  0  0  0  0  0  0  0  0  0  0  0
   -1.8170    1.1453    3.7750 C   0  0  0  0  0  0  0  0  0  0  0  0
   -0.9697    1.8290    3.8506 H   0  0  0  0  0  0  0  0  0  0  0  0
   -2.7354    1.6828    4.0167 H   0  0  0  0  0  0  0  0  0  0  0  0
   -1.6754    0.3334    4.4914 H   0  0  0  0  0  0  0  0  0  0  0  0
  5  6  2  0  0  0  0
  5  7  1  0  0  0  0
  2  3  1  0  0  0  0
  2  4  1  0  0  0  0
  2  5  1  0  0  0  0
  1  2  1  0  0  0  0
 26 27  2  0  0  0  0
 26 28  1  0  0  0  0
 24 25  1  0  0  0  0
 22 23  1  0  0  0  0
 22 24  2  0  0  0  0
 20 21  1  0  0  0  0
 19 20  1  0  0  0  0
 19 22  1  0  0  0  0
 17 18  1  0  0  0  0
 17 19  2  0  0  0  0
 15 16  1  0  0  0  0
 15 17  1  0  0  0  0
 14 15  2  0  0  0  0
 14 24  1  0  0  0  0
 11 12  1  0  0  0  0
 11 13  1  0  0  0  0
 11 14  1  0  0  0  0
  9 10  1  0  0  0  0
  9 11  1  0  0  0  0
  9 26  1  0  0  0  0
  7  8  1  0  0  0  0
  7  9  1  0  0  0  0
 30 31  1  0  0  0  0
 30 32  1  0  0  0  0
 30 33  1  0  0  0  0
 28 29  1  0  0  0  0
 28 30  1  0  0  0  0
M  END
$$$$
default_name
  -OEChem-02102213163D

 33 33  0     1  0  0  0  0  0999 V2000
   -4.0702   -3.8485    1.4554 H   0  0  0  0  0  0  0  0  0  0  0  0
   -4.0012   -2.9605    0.8284 C   0  0  0  0  0  0  0  0  0  0  0  0
   -4.7652   -2.2435    1.1234 H   0  0  0  0  0  0  0  0  0  0  0  0
   -4.1352   -3.2385   -0.2156 H   0  0  0  0  0  0  0  0  0  0  0  0
   -2.6362   -2.3395    1.0094 C   0  0  0  0  0  0  0  0  0  0  0  0
   -1.8292   -2.8395    1.7814 O   0  0  0  0  0  0  0  0  0  0  0  0
   -2.3832   -1.2445    0.2964 N   0  0  0  0  0  0  0  0  0  0  0  0
   -3.1102   -0.8685   -0.2946 H   0  0  0  0  0  0  0  0  0  0  0  0
   -1.1292   -0.4875    0.3524 C   0  0  1  0  0  0  0  0  0  0  0  0
   -0.3087   -1.1556    0.0882 H   0  0  0  0  0  0  0  0  0  0  0  0
   -1.1749    0.6534   -0.6787 C   0  0  0  0  0  0  0  0  0  0  0  0
   -2.1373    0.6292   -1.1916 H   0  0  0  0  0  0  0  0  0  0  0  0
   -1.1087    1.6075   -0.1531 H   0  0  0  0  0  0  0  0  0  0  0  0
   -0.0811    0.5804   -1.7264 C   0  0  0  0  0  0  0  0  0  0  0  0
    1.0213    1.4563   -1.6663 C   0  0  0  0  0  0  0  0  0  0  0  0
    1.0774    2.2030   -0.8850 H   0  0  0  0  0  0  0  0  0  0  0  0
    2.0547    1.3576   -2.6182 C   0  0  0  0  0  0  0  0  0  0  0  0
    2.8966    2.0310   -2.5701 H   0  0  0  0  0  0  0  0  0  0  0  0
    1.9867    0.3767   -3.6316 C   0  0  0  0  0  0  0  0  0  0  0  0
    2.9796    0.2715   -4.5526 O   0  0  0  0  0  0  0  0  0  0  0  0
    3.6260    0.9737   -4.4685 H   0  0  0  0  0  0  0  0  0  0  0  0
    0.8852   -0.5022   -3.6874 C   0  0  0  0  0  0  0  0  0  0  0  0
    0.8425   -1.2451   -4.4695 H   0  0  0  0  0  0  0  0  0  0  0  0
   -0.1483   -0.3980   -2.7371 C   0  0  0  0  0  0  0  0  0  0  0  0
   -0.9988   -1.0676   -2.7862 H   0  0  0  0  0  0  0  0  0  0  0  0
   -0.8664    0.0378    1.7736 C   0  0  0  0  0  0  0  0  0  0  0  0
    0.2529   -0.0672    2.2760 O   0  0  0  0  0  0  0  0  0  0  0  0
   -1.8947    0.5991    2.4221 N   0  0  0  0  0  0  0  0  0  0  0  0
   -2.7942    0.5936    1.9635 H   0  0  0  0  0  0  0  0  0  0  0  0
   -1.8170    1.1453    3.7750 C   0  0  0  0  0  0  0  0  0  0  0  0
   -0.9697    1.8290    3.8506 H   0  0  0  0  0  0  0  0  0  0  0  0
   -2.7354    1.6828    4.0167 H   0  0  0  0  0  0  0  0  0  0  0  0
   -1.6754    0.3334    4.4914 H   0  0  0  0  0  0  0  0  0  0  0  0
  5  6  2  0  0  0  0
  5  7  1  0  0  0  0
  2  3  1  0  0  0  0
  2  4  1  0  0  0  0
  2  5  1  0  0  0  0
  1  2  1  0  0  0  0
 26 27  2  0  0  0  0
 26 28  1  0  0  0  0
 24 25  1  0  0  0  0
 22 23  1  0  0  0  0
 22 24  2  0  0  0  0
 20 21  1  0  0  0  0
 19 20  1  0  0  0  0
 19 22  1  0  0  0  0
 17 18  1  0  0  0  0
 17 19  2  0  0  0  0
 15 16  1  0  0  0  0
 15 17  1  0  0  0  0
 14 15  2  0  0  0  0
 14 24  1  0  0  0  0
 11 12  1  0  0  0  0
 11 13  1  0  0  0  0
 11 14  1  0  0  0  0
  9 10  1  0  0  0  0
  9 11  1  0  0  0  0
  9 26  1  0  0  0  0
  7  8  1  0  0  0  0
  7  9  1  0  0  0  0
 30 31  1  0  0  0  0
 30 32  1  0  0  0  0
 30 33  1  0  0  0  0
 28 29  1  0  0  0  0
 28 30  1  0  0  0  0
M  END
$$$$
default_name
  -OEChem-02102213163D

 33 33  0     1  0  0  0  0  0999 V2000
   -4.0702   -3.8485    1.4554 H   0  0  0  0  0  0  0  0  0  0  0  0
   -4.0012   -2.9605    0.8284 C   0  0  0  0  0  0  0  0  0  0  0  0
   -4.7652   -2.2435    1.1234 H   0  0  0  0  0  0  0  0  0  0  0  0
   -4.1352   -3.2385   -0.2156 H   0  0  0  0  0  0  0  0  0  0  0  0
   -2.6362   -2.3395    1.0094 C   0  0  0  0  0  0  0  0  0  0  0  0
   -1.8292   -2.8395    1.7814 O   0  0  0  0  0  0  0  0  0  0  0  0
   -2.3832   -1.2445    0.2964 N   0  0  0  0  0  0  0  0  0  0  0  0
   -3.1102   -0.8685   -0.2946 H   0  0  0  0  0  0  0  0  0  0  0  0
   -1.1292   -0.4875    0.3524 C   0  0  1  0  0  0  0  0  0  0  0  0
   -0.3087   -1.1556    0.0882 H   0  0  0  0  0  0  0  0  0  0  0  0
   -1.1749    0.6534   -0.6787 C   0  0  0  0  0  0  0  0  0  0  0  0
   -2.1373    0.6292   -1.1916 H   0  0  0  0  0  0  0  0  0  0  0  0
   -1.1087    1.6075   -0.1531 H   0  0  0  0  0  0  0  0  0  0  0  0
   -0.0811    0.5804   -1.7264 C   0  0  0  0  0  0  0  0  0  0  0  0
    1.1572    1.2169   -1.5078 C   0  0  0  0  0  0  0  0  0  0  0  0
    1.3219    1.7832   -0.6004 H   0  0  0  0  0  0  0  0  0  0  0  0
    2.1841    1.1122   -2.4660 C   0  0  0  0  0  0  0  0  0  0  0  0
    3.1305    1.6022   -2.2960 H   0  0  0  0  0  0  0  0  0  0  0  0
    1.9729    0.3649   -3.6452 C   0  0  0  0  0  0  0  0  0  0  0  0
    2.9580    0.2555   -4.5741 O   0  0  0  0  0  0  0  0  0  0  0  0
    3.7160    0.8018   -4.3625 H   0  0  0  0  0  0  0  0  0  0  0  0
    0.7349   -0.2755   -3.8601 C   0  0  0  0  0  0  0  0  0  0  0  0
    0.5839   -0.8403   -4.7677 H   0  0  0  0  0  0  0  0  0  0  0  0
   -0.2912   -0.1651   -2.9026 C   0  0  0  0  0  0  0  0  0  0  0  0
   -1.2453   -0.6497   -3.0727 H   0  0  0  0  0  0  0  0  0  0  0  0
   -0.8664    0.0378    1.7736 C   0  0  0  0  0  0  0  0  0  0  0  0
    0.2529   -0.0672    2.2760 O   0  0  0  0  0  0  0  0  0  0  0  0
   -1.8947    0.5991    2.4221 N   0  0  0  0  0  0  0  0  0  0  0  0
   -2.7942    0.5936    1.9635 H   0  0  0  0  0  0  0  0  0  0  0  0
   -1.8170    1.1453    3.7750 C   0  0  0  0  0  0  0  0  0  0  0  0
   -0.9697    1.8290    3.8506 H   0  0  0  0  0  0  0  0  0  0  0  0
   -2.7354    1.6828    4.0167 H   0  0  0  0  0  0  0  0  0  0  0  0
   -1.6754    0.3334    4.4914 H   0  0  0  0  0  0  0  0  0  0  0  0
  5  6  2  0  0  0  0
  5  7  1  0  0  0  0
  2  3  1  0  0  0  0
  2  4  1  0  0  0  0
  2  5  1  0  0  0  0
  1  2  1  0  0  0  0
 26 27  2  0  0  0  0
 26 28  1  0  0  0  0
 24 25  1  0  0  0  0
 22 23  1  0  0  0  0
 22 24  2  0  0  0  0
 20 21  1  0  0  0  0
 19 20  1  0  0  0  0
 19 22  1  0  0  0  0
 17 18  1  0  0  0  0
 17 19  2  0  0  0  0
 15 16  1  0  0  0  0
 15 17  1  0  0  0  0
 14 15  2  0  0  0  0
 14 24  1  0  0  0  0
 11 12  1  0  0  0  0
 11 13  1  0  0  0  0
 11 14  1  0  0  0  0
  9 10  1  0  0  0  0
  9 11  1  0  0  0  0
  9 26  1  0  0  0  0
  7  8  1  0  0  0  0
  7  9  1  0  0  0  0
 30 31  1  0  0  0  0
 30 32  1  0  0  0  0
 30 33  1  0  0  0  0
 28 29  1  0  0  0  0
 28 30  1  0  0  0  0
M  END
$$$$
default_name
  -OEChem-02102213163D

 33 33  0     1  0  0  0  0  0999 V2000
   -4.0702   -3.8485    1.4554 H   0  0  0  0  0  0  0  0  0  0  0  0
   -4.0012   -2.9605    0.8284 C   0  0  0  0  0  0  0  0  0  0  0  0
   -4.7652   -2.2435    1.1234 H   0  0  0  0  0  0  0  0  0  0  0  0
   -4.1352   -3.2385   -0.2156 H   0  0  0  0  0  0  0  0  0  0  0  0
   -2.6362   -2.3395    1.0094 C   0  0  0  0  0  0  0  0  0  0  0  0
   -1.8292   -2.8395    1.7814 O   0  0  0  0  0  0  0  0  0  0  0  0
   -2.3832   -1.2445    0.2964 N   0  0  0  0  0  0  0  0  0  0  0  0
   -3.1102   -0.8685   -0.2946 H   0  0  0  0  0  0  0  0  0  0  0  0
   -1.1292   -0.4875    0.3524 C   0  0  1  0  0  0  0  0  0  0  0  0
   -0.3087   -1.1556    0.0882 H   0  0  0  0  0  0  0  0  0  0  0  0
   -1.1749    0.6534   -0.6787 C   0  0  0  0  0  0  0  0  0  0  0  0
   -2.1373    0.6292   -1.1916 H   0  0  0  0  0  0  0  0  0  0  0  0
   -1.1087    1.6075   -0.1531 H   0  0  0  0  0  0  0  0  0  0  0  0
   -0.0811    0.5804   -1.7264 C   0  0  0  0  0  0  0  0  0  0  0  0
    1.2436    0.9318   -1.3977 C   0  0  0  0  0  0  0  0  0  0  0  0
    1.4795    1.2808   -0.4009 H   0  0  0  0  0  0  0  0  0  0  0  0
    2.2634    0.8236   -2.3631 C   0  0  0  0  0  0  0  0  0  0  0  0
    3.2763    1.0951   -2.1084 H   0  0  0  0  0  0  0  0  0  0  0  0
    1.9576    0.3586   -3.6608 C   0  0  0  0  0  0  0  0  0  0  0  0
    2.9344    0.2478   -4.5981 O   0  0  0  0  0  0  0  0  0  0  0  0
    3.7710    0.5999   -4.2911 H   0  0  0  0  0  0  0  0  0  0  0  0
    0.6324    0.0027   -3.9865 C   0  0  0  0  0  0  0  0  0  0  0  0
    0.4103   -0.3474   -4.9834 H   0  0  0  0  0  0  0  0  0  0  0  0
   -0.3856    0.1163   -3.0207 C   0  0  0  0  0  0  0  0  0  0  0  0
   -1.4051   -0.1485   -3.2745 H   0  0  0  0  0  0  0  0  0  0  0  0
   -0.8664    0.0378    1.7736 C   0  0  0  0  0  0  0  0  0  0  0  0
    0.2529   -0.0672    2.2760 O   0  0  0  0  0  0  0  0  0  0  0  0
   -1.8947    0.5991    2.4221 N   0  0  0  0  0  0  0  0  0  0  0  0
   -2.7942    0.5936    1.9635 H   0  0  0  0  0  0  0  0  0  0  0  0
   -1.8170    1.1453    3.7750 C   0  0  0  0  0  0  0  0  0  0  0  0
   -0.9697    1.8290    3.8506 H   0  0  0  0  0  0  0  0  0  0  0  0
   -2.7354    1.6828    4.0167 H   0  0  0  0  0  0  0  0  0  0  0  0
   -1.6754    0.3334    4.4914 H   0  0  0  0  0  0  0  0  0  0  0  0
  5  6  2  0  0  0  0
  5  7  1  0  0  0  0
  2  3  1  0  0  0  0
  2  4  1  0  0  0  0
  2  5  1  0  0  0  0
  1  2  1  0  0  0  0
 26 27  2  0  0  0  0
 26 28  1  0  0  0  0
 24 25  1  0  0  0  0
 22 23  1  0  0  0  0
 22 24  2  0  0  0  0
 20 21  1  0  0  0  0
 19 20  1  0  0  0  0
 19 22  1  0  0  0  0
 17 18  1  0  0  0  0
 17 19  2  0  0  0  0
 15 16  1  0  0  0  0
 15 17  1  0  0  0  0
 14 15  2  0  0  0  0
 14 24  1  0  0  0  0
 11 12  1  0  0  0  0
 11 13  1  0  0  0  0
 11 14  1  0  0  0  0
  9 10  1  0  0  0  0
  9 11  1  0  0  0  0
  9 26  1  0  0  0  0
  7  8  1  0  0  0  0
  7  9  1  0  0  0  0
 30 31  1  0  0  0  0
 30 32  1  0  0  0  0
 30 33  1  0  0  0  0
 28 29  1  0  0  0  0
 28 30  1  0  0  0  0
M  END
$$$$
default_name
  -OEChem-02102213163D

 33 33  0     1  0  0  0  0  0999 V2000
   -4.0702   -3.8485    1.4554 H   0  0  0  0  0  0  0  0  0  0  0  0
   -4.0012   -2.9605    0.8284 C   0  0  0  0  0  0  0  0  0  0  0  0
   -4.7652   -2.2435    1.1234 H   0  0  0  0  0  0  0  0  0  0  0  0
   -4.1352   -3.2385   -0.2156 H   0  0  0  0  0  0  0  0  0  0  0  0
   -2.6362   -2.3395    1.0094 C   0  0  0  0  0  0  0  0  0  0  0  0
   -1.8292   -2.8395    1.7814 O   0  0  0  0  0  0  0  0  0  0  0  0
   -2.3832   -1.2445    0.2964 N   0  0  0  0  0  0  0  0  0  0  0  0
   -3.1102   -0.8685   -0.2946 H   0  0  0  0  0  0  0  0  0  0  0  0
   -1.1292   -0.4875    0.3524 C   0  0  1  0  0  0  0  0  0  0  0  0
   -0.3087   -1.1556    0.0882 H   0  0  0  0  0  0  0  0  0  0  0  0
   -1.1749    0.6534   -0.6787 C   0  0  0  0  0  0  0  0  0  0  0  0
   -2.1373    0.6292   -1.1916 H   0  0  0  0  0  0  0  0  0  0  0  0
   -1.1087    1.6075   -0.1531 H   0  0  0  0  0  0  0  0  0  0  0  0
   -0.0811    0.5804   -1.7264 C   0  0  0  0  0  0  0  0  0  0  0  0
    1.2747    0.6204   -1.3435 C   0  0  0  0  0  0  0  0  0  0  0  0
    1.5394    0.7301   -0.3000 H   0  0  0  0  0  0  0  0  0  0  0  0
    2.2870    0.5114   -2.3167 C   0  0  0  0  0  0  0  0  0  0  0  0
    3.3241    0.5441   -2.0200 H   0  0  0  0  0  0  0  0  0  0  0  0
    1.9418    0.3581   -3.6772 C   0  0  0  0  0  0  0  0  0  0  0  0
    2.9107    0.2492   -4.6230 O   0  0  0  0  0  0  0  0  0  0  0  0
    3.7870    0.3817   -4.2591 H   0  0  0  0  0  0  0  0  0  0  0  0
    0.5847    0.3133   -4.0580 C   0  0  0  0  0  0  0  0  0  0  0  0
    0.3334    0.2001   -5.1019 H   0  0  0  0  0  0  0  0  0  0  0  0
   -0.4249    0.4271   -3.0834 C   0  0  0  0  0  0  0  0  0  0  0  0
   -1.4674    0.4019   -3.3779 H   0  0  0  0  0  0  0  0  0  0  0  0
   -0.8664    0.0378    1.7736 C   0  0  0  0  0  0  0  0  0  0  0  0
    0.2529   -0.0672    2.2760 O   0  0  0  0  0  0  0  0  0  0  0  0
   -1.8947    0.5991    2.4221 N   0  0  0  0  0  0  0  0  0  0  0  0
   -2.7942    0.5936    1.9635 H   0  0  0  0  0  0  0  0  0  0  0  0
   -1.8170    1.1453    3.7750 C   0  0  0  0  0  0  0  0  0  0  0  0
   -0.9697    1.8290    3.8506 H   0  0  0  0  0  0  0  0  0  0  0  0
   -2.7354    1.6828    4.0167 H   0  0  0  0  0  0  0  0  0  0  0  0
   -1.6754    0.3334    4.4914 H   0  0  0  0  0  0  0  0  0  0  0  0
  5  6  2  0  0  0  0
  5  7  1  0  0  0  0
  2  3  1  0  0  0  0
  2  4  1  0  0  0  0
  2  5  1  0  0  0  0
  1  2  1  0  0  0  0
 26 27  2  0  0  0  0
 26 28  1  0  0  0  0
 24 25  1  0  0  0  0
 22 23  1  0  0  0  0
 22 24  2  0  0  0  0
 20 21  1  0  0  0  0
 19 20  1  0  0  0  0
 19 22  1  0  0  0  0
 17 18  1  0  0  0  0
 17 19  2  0  0  0  0
 15 16  1  0  0  0  0
 15 17  1  0  0  0  0
 14 15  2  0  0  0  0
 14 24  1  0  0  0  0
 11 12  1  0  0  0  0
 11 13  1  0  0  0  0
 11 14  1  0  0  0  0
  9 10  1  0  0  0  0
  9 11  1  0  0  0  0
  9 26  1  0  0  0  0
  7  8  1  0  0  0  0
  7  9  1  0  0  0  0
 30 31  1  0  0  0  0
 30 32  1  0  0  0  0
 30 33  1  0  0  0  0
 28 29  1  0  0  0  0
 28 30  1  0  0  0  0
M  END
$$$$
default_name
  -OEChem-02102213163D

 33 33  0     1  0  0  0  0  0999 V2000
   -4.0702   -3.8485    1.4554 H   0  0  0  0  0  0  0  0  0  0  0  0
   -4.0012   -2.9605    0.8284 C   0  0  0  0  0  0  0  0  0  0  0  0
   -4.7652   -2.2435    1.1234 H   0  0  0  0  0  0  0  0  0  0  0  0
   -4.1352   -3.2385   -0.2156 H   0  0  0  0  0  0  0  0  0  0  0  0
   -2.6362   -2.3395    1.0094 C   0  0  0  0  0  0  0  0  0  0  0  0
   -1.8292   -2.8395    1.7814 O   0  0  0  0  0  0  0  0  0  0  0  0
   -2.3832   -1.2445    0.2964 N   0  0  0  0  0  0  0  0  0  0  0  0
   -3.1102   -0.8685   -0.2946 H   0  0  0  0  0  0  0  0  0  0  0  0
   -1.1292   -0.4875    0.3524 C   0  0  1  0  0  0  0  0  0  0  0  0
   -0.3087   -1.1556    0.0882 H   0  0  0  0  0  0  0  0  0  0  0  0
   -1.1749    0.6534   -0.6787 C   0  0  0  0  0  0  0  0  0  0  0  0
   -2.1373    0.6292   -1.1916 H   0  0  0  0  0  0  0  0  0  0  0  0
   -1.1087    1.6075   -0.1531 H   0  0  0  0  0  0  0  0  0  0  0  0
   -0.0811    0.5804   -1.7264 C   0  0  0  0  0  0  0  0  0  0  0  0
    1.2483    0.3040   -1.3489 C   0  0  0  0  0  0  0  0  0  0  0  0
    1.4975    0.1686   -0.3046 H   0  0  0  0  0  0  0  0  0  0  0  0
    2.2535    0.1970   -2.3298 C   0  0  0  0  0  0  0  0  0  0  0  0
    3.2707   -0.0132   -2.0370 H   0  0  0  0  0  0  0  0  0  0  0  0
    1.9267    0.3635   -3.6933 C   0  0  0  0  0  0  0  0  0  0  0  0
    2.8883    0.2593   -4.6471 O   0  0  0  0  0  0  0  0  0  0  0  0
    3.7631    0.1622   -4.2688 H   0  0  0  0  0  0  0  0  0  0  0  0
    0.5950    0.6351   -4.0697 C   0  0  0  0  0  0  0  0  0  0  0  0
    0.3585    0.7647   -5.1151 H   0  0  0  0  0  0  0  0  0  0  0  0
   -0.4066    0.7460   -3.0865 C   0  0  0  0  0  0  0  0  0  0  0  0
   -1.4278    0.9639   -3.3757 H   0  0  0  0  0  0  0  0  0  0  0  0
   -0.8664    0.0378    1.7736 C   0  0  0  0  0  0  0  0  0  0  0  0
    0.2529   -0.0672    2.2760 O   0  0  0  0  0  0  0  0  0  0  0  0
   -1.8947    0.5991    2.4221 N   0  0  0  0  0  0  0  0  0  0  0  0
   -2.7942    0.5936    1.9635 H   0  0  0  0  0  0  0  0  0  0  0  0
   -1.8170    1.1453    3.7750 C   0  0  0  0  0  0  0  0  0  0  0  0
   -0.9697    1.8290    3.8506 H   0  0  0  0  0  0  0  0  0  0  0  0
   -2.7354    1.6828    4.0167 H   0  0  0  0  0  0  0  0  0  0  0  0
   -1.6754    0.3334    4.4914 H   0  0  0  0  0  0  0  0  0  0  0  0
  5  6  2  0  0  0  0
  5  7  1  0  0  0  0
  2  3  1  0  0  0  0
  2  4  1  0  0  0  0
  2  5  1  0  0  0  0
  1  2  1  0  0  0  0
 26 27  2  0  0  0  0
 26 28  1  0  0  0  0
 24 25  1  0  0  0  0
 22 23  1  0  0  0  0
 22 24  2  0  0  0  0
 20 21  1  0  0  0  0
 19 20  1  0  0  0  0
 19 22  1  0  0  0  0
 17 18  1  0  0  0  0
 17 19  2  0  0  0  0
 15 16  1  0  0  0  0
 15 17  1  0  0  0  0
 14 15  2  0  0  0  0
 14 24  1  0  0  0  0
 11 12  1  0  0  0  0
 11 13  1  0  0  0  0
 11 14  1  0  0  0  0
  9 10  1  0  0  0  0
  9 11  1  0  0  0  0
  9 26  1  0  0  0  0
  7  8  1  0  0  0  0
  7  9  1  0  0  0  0
 30 31  1  0  0  0  0
 30 32  1  0  0  0  0
 30 33  1  0  0  0  0
 28 29  1  0  0  0  0
 28 30  1  0  0  0  0
M  END
$$$$
default_name
  -OEChem-02102213163D

 33 33  0     1  0  0  0  0  0999 V2000
   -4.0702   -3.8485    1.4554 H   0  0  0  0  0  0  0  0  0  0  0  0
   -4.0012   -2.9605    0.8284 C   0  0  0  0  0  0  0  0  0  0  0  0
   -4.7652   -2.2435    1.1234 H   0  0  0  0  0  0  0  0  0  0  0  0
   -4.1352   -3.2385   -0.2156 H   0  0  0  0  0  0  0  0  0  0  0  0
   -2.6362   -2.3395    1.0094 C   0  0  0  0  0  0  0  0  0  0  0  0
   -1.8292   -2.8395    1.7814 O   0  0  0  0  0  0  0  0  0  0  0  0
   -2.3832   -1.2445    0.2964 N   0  0  0  0  0  0  0  0  0  0  0  0
   -3.1102   -0.8685   -0.2946 H   0  0  0  0  0  0  0  0  0  0  0  0
   -1.1292   -0.4875    0.3524 C   0  0  1  0  0  0  0  0  0  0  0  0
   -0.3087   -1.1556    0.0882 H   0  0  0  0  0  0  0  0  0  0  0  0
   -1.1749    0.6534   -0.6787 C   0  0  0  0  0  0  0  0  0  0  0  0
   -2.1373    0.6292   -1.1916 H   0  0  0  0  0  0  0  0  0  0  0  0
   -1.1087    1.6075   -0.1531 H   0  0  0  0  0  0  0  0  0  0  0  0
   -0.0811    0.5804   -1.7264 C   0  0  0  0  0  0  0  0  0  0  0  0
    1.1664    0.0040   -1.4135 C   0  0  0  0  0  0  0  0  0  0  0  0
    1.3566   -0.3654   -0.4143 H   0  0  0  0  0  0  0  0  0  0  0  0
    2.1650   -0.0982   -2.4016 C   0  0  0  0  0  0  0  0  0  0  0  0
    3.1196   -0.5387   -2.1580 H   0  0  0  0  0  0  0  0  0  0  0  0
    1.9133    0.3744   -3.7081 C   0  0  0  0  0  0  0  0  0  0  0  0
    2.8687    0.2777   -4.6688 O   0  0  0  0  0  0  0  0  0  0  0  0
    3.7009   -0.0439   -4.3194 H   0  0  0  0  0  0  0  0  0  0  0  0
    0.6627    0.9464   -4.0207 C   0  0  0  0  0  0  0  0  0  0  0  0
    0.4839    1.3081   -5.0221 H   0  0  0  0  0  0  0  0  0  0  0  0
   -0.3317    1.0513   -3.0297 C   0  0  0  0  0  0  0  0  0  0  0  0
   -1.2890    1.4993   -3.2682 H   0  0  0  0  0  0  0  0  0  0  0  0
   -0.8664    0.0378    1.7736 C   0  0  0  0  0  0  0  0  0  0  0  0
    0.2529   -0.0672    2.2760 O   0  0  0  0  0  0  0  0  0  0  0  0
   -1.8947    0.5991    2.4221 N   0  0  0  0  0  0  0  0  0  0  0  0
   -2.7942    0.5936    1.9635 H   0  0  0  0  0  0  0  0  0  0  0  0
   -1.8170    1.1453    3.7750 C   0  0  0  0  0  0  0  0  0  0  0  0
   -0.9697    1.8290    3.8506 H   0  0  0  0  0  0  0  0  0  0  0  0
   -2.7354    1.6828    4.0167 H   0  0  0  0  0  0  0  0  0  0  0  0
   -1.6754    0.3334    4.4914 H   0  0  0  0  0  0  0  0  0  0  0  0
  5  6  2  0  0  0  0
  5  7  1  0  0  0  0
  2  3  1  0  0  0  0
  2  4  1  0  0  0  0
  2  5  1  0  0  0  0
  1  2  1  0  0  0  0
 26 27  2  0  0  0  0
 26 28  1  0  0  0  0
 24 25  1  0  0  0  0
 22 23  1  0  0  0  0
 22 24  2  0  0  0  0
 20 21  1  0  0  0  0
 19 20  1  0  0  0  0
 19 22  1  0  0  0  0
 17 18  1  0  0  0  0
 17 19  2  0  0  0  0
 15 16  1  0  0  0  0
 15 17  1  0  0  0  0
 14 15  2  0  0  0  0
 14 24  1  0  0  0  0
 11 12  1  0  0  0  0
 11 13  1  0  0  0  0
 11 14  1  0  0  0  0
  9 10  1  0  0  0  0
  9 11  1  0  0  0  0
  9 26  1  0  0  0  0
  7  8  1  0  0  0  0
  7  9  1  0  0  0  0
 30 31  1  0  0  0  0
 30 32  1  0  0  0  0
 30 33  1  0  0  0  0
 28 29  1  0  0  0  0
 28 30  1  0  0  0  0
M  END
$$$$
default_name
  -OEChem-02102213163D

 33 33  0     1  0  0  0  0  0999 V2000
   -4.0702   -3.8485    1.4554 H   0  0  0  0  0  0  0  0  0  0  0  0
   -4.0012   -2.9605    0.8284 C   0  0  0  0  0  0  0  0  0  0  0  0
   -4.7652   -2.2435    1.1234 H   0  0  0  0  0  0  0  0  0  0  0  0
   -4.1352   -3.2385   -0.2156 H   0  0  0  0  0  0  0  0  0  0  0  0
   -2.6362   -2.3395    1.0094 C   0  0  0  0  0  0  0  0  0  0  0  0
   -1.8292   -2.8395    1.7814 O   0  0  0  0  0  0  0  0  0  0  0  0
   -2.3832   -1.2445    0.2964 N   0  0  0  0  0  0  0  0  0  0  0  0
   -3.1102   -0.8685   -0.2946 H   0  0  0  0  0  0  0  0  0  0  0  0
   -1.1292   -0.4875    0.3524 C   0  0  1  0  0  0  0  0  0  0  0  0
   -0.3087   -1.1556    0.0882 H   0  0  0  0  0  0  0  0  0  0  0  0
   -1.1749    0.6534   -0.6787 C   0  0  0  0  0  0  0  0  0  0  0  0
   -2.1373    0.6292   -1.1916 H   0  0  0  0  0  0  0  0  0  0  0  0
   -1.1087    1.6075   -0.1531 H   0  0  0  0  0  0  0  0  0  0  0  0
   -0.0811    0.5804   -1.7264 C   0  0  0  0  0  0  0  0  0  0  0  0
    1.0344   -0.2590   -1.5330 C   0  0  0  0  0  0  0  0  0  0  0  0
    1.1265   -0.8355   -0.6218 H   0  0  0  0  0  0  0  0  0  0  0  0
    2.0276   -0.3542   -2.5271 C   0  0  0  0  0  0  0  0  0  0  0  0
    2.8812   -0.9967   -2.3750 H   0  0  0  0  0  0  0  0  0  0  0  0
    1.9025    0.3901   -3.7205 C   0  0  0  0  0  0  0  0  0  0  0  0
    2.8534    0.3030   -4.6865 O   0  0  0  0  0  0  0  0  0  0  0  0
    3.6046   -0.2223   -4.4075 H   0  0  0  0  0  0  0  0  0  0  0  0
    0.7831    1.2258   -3.9144 C   0  0  0  0  0  0  0  0  0  0  0  0
    0.7010    1.7932   -4.8292 H   0  0  0  0  0  0  0  0  0  0  0  0
   -0.2056    1.3222   -2.9169 C   0  0  0  0  0  0  0  0  0  0  0  0
   -1.0606    1.9716   -3.0627 H   0  0  0  0  0  0  0  0  0  0  0  0
   -0.8664    0.0378    1.7736 C   0  0  0  0  0  0  0  0  0  0  0  0
    0.2529   -0.0672    2.2760 O   0  0  0  0  0  0  0  0  0  0  0  0
   -1.8947    0.5991    2.4221 N   0  0  0  0  0  0  0  0  0  0  0  0
   -2.7942    0.5936    1.9635 H   0  0  0  0  0  0  0  0  0  0  0  0
   -1.8170    1.1453    3.7750 C   0  0  0  0  0  0  0  0  0  0  0  0
   -0.9697    1.8290    3.8506 H   0  0  0  0  0  0  0  0  0  0  0  0
   -2.7354    1.6828    4.0167 H   0  0  0  0  0  0  0  0  0  0  0  0
   -1.6754    0.3334    4.4914 H   0  0  0  0  0  0  0  0  0  0  0  0
  5  6  2  0  0  0  0
  5  7  1  0  0  0  0
  2  3  1  0  0  0  0
  2  4  1  0  0  0  0
  2  5  1  0  0  0  0
  1  2  1  0  0  0  0
 26 27  2  0  0  0  0
 26 28  1  0  0  0  0
 24 25  1  0  0  0  0
 22 23  1  0  0  0  0
 22 24  2  0  0  0  0
 20 21  1  0  0  0  0
 19 20  1  0  0  0  0
 19 22  1  0  0  0  0
 17 18  1  0  0  0  0
 17 19  2  0  0  0  0
 15 16  1  0  0  0  0
 15 17  1  0  0  0  0
 14 15  2  0  0  0  0
 14 24  1  0  0  0  0
 11 12  1  0  0  0  0
 11 13  1  0  0  0  0
 11 14  1  0  0  0  0
  9 10  1  0  0  0  0
  9 11  1  0  0  0  0
  9 26  1  0  0  0  0
  7  8  1  0  0  0  0
  7  9  1  0  0  0  0
 30 31  1  0  0  0  0
 30 32  1  0  0  0  0
 30 33  1  0  0  0  0
 28 29  1  0  0  0  0
 28 30  1  0  0  0  0
M  END
$$$$
default_name
  -OEChem-02102213163D

 33 33  0     1  0  0  0  0  0999 V2000
   -4.0702   -3.8485    1.4554 H   0  0  0  0  0  0  0  0  0  0  0  0
   -4.0012   -2.9605    0.8284 C   0  0  0  0  0  0  0  0  0  0  0  0
   -4.7652   -2.2435    1.1234 H   0  0  0  0  0  0  0  0  0  0  0  0
   -4.1352   -3.2385   -0.2156 H   0  0  0  0  0  0  0  0  0  0  0  0
   -2.6362   -2.3395    1.0094 C   0  0  0  0  0  0  0  0  0  0  0  0
   -1.8292   -2.8395    1.7814 O   0  0  0  0  0  0  0  0  0  0  0  0
   -2.3832   -1.2445    0.2964 N   0  0  0  0  0  0  0  0  0  0  0  0
   -3.1102   -0.8685   -0.2946 H   0  0  0  0  0  0  0  0  0  0  0  0
   -1.1292   -0.4875    0.3524 C   0  0  1  0  0  0  0  0  0  0  0  0
   -0.3087   -1.1556    0.0882 H   0  0  0  0  0  0  0  0  0  0  0  0
   -1.1749    0.6534   -0.6787 C   0  0  0  0  0  0  0  0  0  0  0  0
   -2.1373    0.6292   -1.1916 H   0  0  0  0  0  0  0  0  0  0  0  0
   -1.1087    1.6075   -0.1531 H   0  0  0  0  0  0  0  0  0  0  0  0
   -0.0811    0.5804   -1.7264 C   0  0  0  0  0  0  0  0  0  0  0  0
    0.8614   -0.4672   -1.6991 C   0  0  0  0  0  0  0  0  0  0  0  0
    0.8227   -1.2097   -0.9129 H   0  0  0  0  0  0  0  0  0  0  0  0
    1.8507   -0.5534   -2.6979 C   0  0  0  0  0  0  0  0  0  0  0  0
    2.5717   -1.3560   -2.6730 H   0  0  0  0  0  0  0  0  0  0  0  0
    1.8950    0.4095   -3.7296 C   0  0  0  0  0  0  0  0  0  0  0  0
    2.8434    0.3334   -4.6991 O   0  0  0  0  0  0  0  0  0  0  0  0
    3.4807   -0.3610   -4.5271 H   0  0  0  0  0  0  0  0  0  0  0  0
    0.9481    1.4542   -3.7582 C   0  0  0  0  0  0  0  0  0  0  0  0
    0.9950    2.1869   -4.5497 H   0  0  0  0  0  0  0  0  0  0  0  0
   -0.0367    1.5403   -2.7558 C   0  0  0  0  0  0  0  0  0  0  0  0
   -0.7581    2.3486   -2.7732 H   0  0  0  0  0  0  0  0  0  0  0  0
   -0.8664    0.0378    1.7736 C   0  0  0  0  0  0  0  0  0  0  0  0
    0.2529   -0.0672    2.2760 O   0  0  0  0  0  0  0  0  0  0  0  0
   -1.8947    0.5991    2.4221 N   0  0  0  0  0  0  0  0  0  0  0  0
   -2.7942    0.5936    1.9635 H   0  0  0  0  0  0  0  0  0  0  0  0
   -1.8170    1.1453    3.7750 C   0  0  0  0  0  0  0  0  0  0  0  0
   -0.9697    1.8290    3.8506 H   0  0  0  0  0  0  0  0  0  0  0  0
   -2.7354    1.6828    4.0167 H   0  0  0  0  0  0  0  0  0  0  0  0
   -1.6754    0.3334    4.4914 H   0  0  0  0  0  0  0  0  0  0  0  0
  5  6  2  0  0  0  0
  5  7  1  0  0  0  0
  2  3  1  0  0  0  0
  2  4  1  0  0  0  0
  2  5  1  0  0  0  0
  1  2  1  0  0  0  0
 26 27  2  0  0  0  0
 26 28  1  0  0  0  0
 24 25  1  0  0  0  0
 22 23  1  0  0  0  0
 22 24  2  0  0  0  0
 20 21  1  0  0  0  0
 19 20  1  0  0  0  0
 19 22  1  0  0  0  0
 17 18  1  0  0  0  0
 17 19  2  0  0  0  0
 15 16  1  0  0  0  0
 15 17  1  0  0  0  0
 14 15  2  0  0  0  0
 14 24  1  0  0  0  0
 11 12  1  0  0  0  0
 11 13  1  0  0  0  0
 11 14  1  0  0  0  0
  9 10  1  0  0  0  0
  9 11  1  0  0  0  0
  9 26  1  0  0  0  0
  7  8  1  0  0  0  0
  7  9  1  0  0  0  0
 30 31  1  0  0  0  0
 30 32  1  0  0  0  0
 30 33  1  0  0  0  0
 28 29  1  0  0  0  0
 28 30  1  0  0  0  0
M  END
$$$$
default_name
  -OEChem-02102213163D

 33 33  0     1  0  0  0  0  0999 V2000
   -4.0702   -3.8485    1.4554 H   0  0  0  0  0  0  0  0  0  0  0  0
   -4.0012   -2.9605    0.8284 C   0  0  0  0  0  0  0  0  0  0  0  0
   -4.7652   -2.2435    1.1234 H   0  0  0  0  0  0  0  0  0  0  0  0
   -4.1352   -3.2385   -0.2156 H   0  0  0  0  0  0  0  0  0  0  0  0
   -2.6362   -2.3395    1.0094 C   0  0  0  0  0  0  0  0  0  0  0  0
   -1.8292   -2.8395    1.7814 O   0  0  0  0  0  0  0  0  0  0  0  0
   -2.3832   -1.2445    0.2964 N   0  0  0  0  0  0  0  0  0  0  0  0
   -3.1102   -0.8685   -0.2946 H   0  0  0  0  0  0  0  0  0  0  0  0
   -1.1292   -0.4875    0.3524 C   0  0  1  0  0  0  0  0  0  0  0  0
   -0.3087   -1.1556    0.0882 H   0  0  0  0  0  0  0  0  0  0  0  0
   -1.1749    0.6534   -0.6787 C   0  0  0  0  0  0  0  0  0  0  0  0
   -2.1373    0.6292   -1.1916 H   0  0  0  0  0  0  0  0  0  0  0  0
   -1.1087    1.6075   -0.1531 H   0  0  0  0  0  0  0  0  0  0  0  0
   -0.0811    0.5804   -1.7264 C   0  0  0  0  0  0  0  0  0  0  0  0
    0.6591   -0.6063   -1.9006 C   0  0  0  0  0  0  0  0  0  0  0  0
    0.4660   -1.4625   -1.2676 H   0  0  0  0  0  0  0  0  0  0  0  0
    1.6463   -0.6824   -2.9023 C   0  0  0  0  0  0  0  0  0  0  0  0
    2.2123   -1.5921   -3.0318 H   0  0  0  0  0  0  0  0  0  0  0  0
    1.8914    0.4313   -3.7350 C   0  0  0  0  0  0  0  0  0  0  0  0
    2.8393    0.3670   -4.7058 O   0  0  0  0  0  0  0  0  0  0  0  0
    3.3377   -0.4505   -4.6701 H   0  0  0  0  0  0  0  0  0  0  0  0
    1.1464    1.6163   -3.5625 C   0  0  0  0  0  0  0  0  0  0  0  0
    1.3460    2.4625   -4.2025 H   0  0  0  0  0  0  0  0  0  0  0  0
    0.1634    1.6907   -2.5574 C   0  0  0  0  0  0  0  0  0  0  0  0
   -0.4021    2.6046   -2.4194 H   0  0  0  0  0  0  0  0  0  0  0  0
   -0.8664    0.0378    1.7736 C   0  0  0  0  0  0  0  0  0  0  0  0
    0.2529   -0.0672    2.2760 O   0  0  0  0  0  0  0  0  0  0  0  0
   -1.8947    0.5991    2.4221 N   0  0  0  0  0  0  0  0  0  0  0  0
   -2.7942    0.5936    1.9635 H   0  0  0  0  0  0  0  0  0  0  0  0
   -1.8170    1.1453    3.7750 C   0  0  0  0  0  0  0  0  0  0  0  0
   -0.9697    1.8290    3.8506 H   0  0  0  0  0  0  0  0  0  0  0  0
   -2.7354    1.6828    4.0167 H   0  0  0  0  0  0  0  0  0  0  0  0
   -1.6754    0.3334    4.4914 H   0  0  0  0  0  0  0  0  0  0  0  0
  5  6  2  0  0  0  0
  5  7  1  0  0  0  0
  2  3  1  0  0  0  0
  2  4  1  0  0  0  0
  2  5  1  0  0  0  0
  1  2  1  0  0  0  0
 26 27  2  0  0  0  0
 26 28  1  0  0  0  0
 24 25  1  0  0  0  0
 22 23  1  0  0  0  0
 22 24  2  0  0  0  0
 20 21  1  0  0  0  0
 19 20  1  0  0  0  0
 19 22  1  0  0  0  0
 17 18  1  0  0  0  0
 17 19  2  0  0  0  0
 15 16  1  0  0  0  0
 15 17  1  0  0  0  0
 14 15  2  0  0  0  0
 14 24  1  0  0  0  0
 11 12  1  0  0  0  0
 11 13  1  0  0  0  0
 11 14  1  0  0  0  0
  9 10  1  0  0  0  0
  9 11  1  0  0  0  0
  9 26  1  0  0  0  0
  7  8  1  0  0  0  0
  7  9  1  0  0  0  0
 30 31  1  0  0  0  0
 30 32  1  0  0  0  0
 30 33  1  0  0  0  0
 28 29  1  0  0  0  0
 28 30  1  0  0  0  0
M  END
$$$$
default_name
  -OEChem-02102213163D

 33 33  0     1  0  0  0  0  0999 V2000
   -4.0702   -3.8485    1.4554 H   0  0  0  0  0  0  0  0  0  0  0  0
   -4.0012   -2.9605    0.8284 C   0  0  0  0  0  0  0  0  0  0  0  0
   -4.7652   -2.2435    1.1234 H   0  0  0  0  0  0  0  0  0  0  0  0
   -4.1352   -3.2385   -0.2156 H   0  0  0  0  0  0  0  0  0  0  0  0
   -2.6362   -2.3395    1.0094 C   0  0  0  0  0  0  0  0  0  0  0  0
   -1.8292   -2.8395    1.7814 O   0  0  0  0  0  0  0  0  0  0  0  0
   -2.3832   -1.2445    0.2964 N   0  0  0  0  0  0  0  0  0  0  0  0
   -3.1102   -0.8685   -0.2946 H   0  0  0  0  0  0  0  0  0  0  0  0
   -1.1292   -0.4875    0.3524 C   0  0  1  0  0  0  0  0  0  0  0  0
   -0.3087   -1.1556    0.0882 H   0  0  0  0  0  0  0  0  0  0  0  0
   -1.1749    0.6534   -0.6787 C   0  0  0  0  0  0  0  0  0  0  0  0
   -2.1373    0.6292   -1.1916 H   0  0  0  0  0  0  0  0  0  0  0  0
   -1.1087    1.6075   -0.1531 H   0  0  0  0  0  0  0  0  0  0  0  0
   -0.0811    0.5804   -1.7264 C   0  0  0  0  0  0  0  0  0  0  0  0
    0.4413   -0.6669   -2.1237 C   0  0  0  0  0  0  0  0  0  0  0  0
    0.0806   -1.5767   -1.6620 H   0  0  0  0  0  0  0  0  0  0  0  0
    1.4284   -0.7322   -3.1263 C   0  0  0  0  0  0  0  0  0  0  0  0
    1.8273   -1.6888   -3.4269 H   0  0  0  0  0  0  0  0  0  0  0  0
    1.8918    0.4540   -3.7361 C   0  0  0  0  0  0  0  0  0  0  0  0
    2.8414    0.4014   -4.7059 O   0  0  0  0  0  0  0  0  0  0  0  0
    3.1855   -0.4846   -4.8267 H   0  0  0  0  0  0  0  0  0  0  0  0
    1.3644    1.7008   -3.3407 C   0  0  0  0  0  0  0  0  0  0  0  0
    1.7299    2.6011   -3.8114 H   0  0  0  0  0  0  0  0  0  0  0  0
    0.3811    1.7632   -2.3351 C   0  0  0  0  0  0  0  0  0  0  0  0
   -0.0169    2.7222   -2.0254 H   0  0  0  0  0  0  0  0  0  0  0  0
   -0.8664    0.0378    1.7736 C   0  0  0  0  0  0  0  0  0  0  0  0
    0.2529   -0.0672    2.2760 O   0  0  0  0  0  0  0  0  0  0  0  0
   -1.8947    0.5991    2.4221 N   0  0  0  0  0  0  0  0  0  0  0  0
   -2.7942    0.5936    1.9635 H   0  0  0  0  0  0  0  0  0  0  0  0
   -1.8170    1.1453    3.7750 C   0  0  0  0  0  0  0  0  0  0  0  0
   -0.9697    1.8290    3.8506 H   0  0  0  0  0  0  0  0  0  0  0  0
   -2.7354    1.6828    4.0167 H   0  0  0  0  0  0  0  0  0  0  0  0
   -1.6754    0.3334    4.4914 H   0  0  0  0  0  0  0  0  0  0  0  0
  5  6  2  0  0  0  0
  5  7  1  0  0  0  0
  2  3  1  0  0  0  0
  2  4  1  0  0  0  0
  2  5  1  0  0  0  0
  1  2  1  0  0  0  0
 26 27  2  0  0  0  0
 26 28  1  0  0  0  0
 24 25  1  0  0  0  0
 22 23  1  0  0  0  0
 22 24  2  0  0  0  0
 20 21  1  0  0  0  0
 19 20  1  0  0  0  0
 19 22  1  0  0  0  0
 17 18  1  0  0  0  0
 17 19  2  0  0  0  0
 15 16  1  0  0  0  0
 15 17  1  0  0  0  0
 14 15  2  0  0  0  0
 14 24  1  0  0  0  0
 11 12  1  0  0  0  0
 11 13  1  0  0  0  0
 11 14  1  0  0  0  0
  9 10  1  0  0  0  0
  9 11  1  0  0  0  0
  9 26  1  0  0  0  0
  7  8  1  0  0  0  0
  7  9  1  0  0  0  0
 30 31  1  0  0  0  0
 30 32  1  0  0  0  0
 30 33  1  0  0  0  0
 28 29  1  0  0  0  0
 28 30  1  0  0  0  0
M  END
$$$$
default_name
  -OEChem-02102213163D

 33 33  0     1  0  0  0  0  0999 V2000
   -4.0702   -3.8485    1.4554 H   0  0  0  0  0  0  0  0  0  0  0  0
   -4.0012   -2.9605    0.8284 C   0  0  0  0  0  0  0  0  0  0  0  0
   -4.7652   -2.2435    1.1234 H   0  0  0  0  0  0  0  0  0  0  0  0
   -4.1352   -3.2385   -0.2156 H   0  0  0  0  0  0  0  0  0  0  0  0
   -2.6362   -2.3395    1.0094 C   0  0  0  0  0  0  0  0  0  0  0  0
   -1.8292   -2.8395    1.7814 O   0  0  0  0  0  0  0  0  0  0  0  0
   -2.3832   -1.2445    0.2964 N   0  0  0  0  0  0  0  0  0  0  0  0
   -3.1102   -0.8685   -0.2946 H   0  0  0  0  0  0  0  0  0  0  0  0
   -1.1292   -0.4875    0.3524 C   0  0  1  0  0  0  0  0  0  0  0  0
   -0.3087   -1.1556    0.0882 H   0  0  0  0  0  0  0  0  0  0  0  0
   -1.1749    0.6534   -0.6787 C   0  0  0  0  0  0  0  0  0  0  0  0
   -2.1373    0.6292   -1.1916 H   0  0  0  0  0  0  0  0  0  0  0  0
   -1.1087    1.6075   -0.1531 H   0  0  0  0  0  0  0  0  0  0  0  0
   -0.0811    0.5804   -1.7264 C   0  0  0  0  0  0  0  0  0  0  0  0
    0.2229   -0.6448   -2.3533 C   0  0  0  0  0  0  0  0  0  0  0  0
   -0.3071   -1.5444   -2.0690 H   0  0  0  0  0  0  0  0  0  0  0  0
    1.2118   -0.6996   -3.3547 C   0  0  0  0  0  0  0  0  0  0  0  0
    1.4431   -1.6397   -3.8315 H   0  0  0  0  0  0  0  0  0  0  0  0
    1.8963    0.4760   -3.7329 C   0  0  0  0  0  0  0  0  0  0  0  0
    2.8496    0.4342   -4.6997 O   0  0  0  0  0  0  0  0  0  0  0  0
    3.0342   -0.4612   -4.9863 H   0  0  0  0  0  0  0  0  0  0  0  0
    1.5874    1.7020   -3.1081 C   0  0  0  0  0  0  0  0  0  0  0  0
    2.1207    2.5932   -3.4029 H   0  0  0  0  0  0  0  0  0  0  0  0
    0.6016    1.7527   -2.1042 C   0  0  0  0  0  0  0  0  0  0  0  0
    0.3714    2.6933   -1.6181 H   0  0  0  0  0  0  0  0  0  0  0  0
   -0.8664    0.0378    1.7736 C   0  0  0  0  0  0  0  0  0  0  0  0
    0.2529   -0.0672    2.2760 O   0  0  0  0  0  0  0  0  0  0  0  0
   -1.8947    0.5991    2.4221 N   0  0  0  0  0  0  0  0  0  0  0  0
   -2.7942    0.5936    1.9635 H   0  0  0  0  0  0  0  0  0  0  0  0
   -1.8170    1.1453    3.7750 C   0  0  0  0  0  0  0  0  0  0  0  0
   -0.9697    1.8290    3.8506 H   0  0  0  0  0  0  0  0  0  0  0  0
   -2.7354    1.6828    4.0167 H   0  0  0  0  0  0  0  0  0  0  0  0
   -1.6754    0.3334    4.4914 H   0  0  0  0  0  0  0  0  0  0  0  0
  5  6  2  0  0  0  0
  5  7  1  0  0  0  0
  2  3  1  0  0  0  0
  2  4  1  0  0  0  0
  2  5  1  0  0  0  0
  1  2  1  0  0  0  0
 26 27  2  0  0  0  0
 26 28  1  0  0  0  0
 24 25  1  0  0  0  0
 22 23  1  0  0  0  0
 22 24  2  0  0  0  0
 20 21  1  0  0  0  0
 19 20  1  0  0  0  0
 19 22  1  0  0  0  0
 17 18  1  0  0  0  0
 17 19  2  0  0  0  0
 15 16  1  0  0  0  0
 15 17  1  0  0  0  0
 14 15  2  0  0  0  0
 14 24  1  0  0  0  0
 11 12  1  0  0  0  0
 11 13  1  0  0  0  0
 11 14  1  0  0  0  0
  9 10  1  0  0  0  0
  9 11  1  0  0  0  0
  9 26  1  0  0  0  0
  7  8  1  0  0  0  0
  7  9  1  0  0  0  0
 30 31  1  0  0  0  0
 30 32  1  0  0  0  0
 30 33  1  0  0  0  0
 28 29  1  0  0  0  0
 28 30  1  0  0  0  0
M  END
$$$$
default_name
  -OEChem-02102213163D

 33 33  0     1  0  0  0  0  0999 V2000
   -4.0702   -3.8485    1.4554 H   0  0  0  0  0  0  0  0  0  0  0  0
   -4.0012   -2.9605    0.8284 C   0  0  0  0  0  0  0  0  0  0  0  0
   -4.7652   -2.2435    1.1234 H   0  0  0  0  0  0  0  0  0  0  0  0
   -4.1352   -3.2385   -0.2156 H   0  0  0  0  0  0  0  0  0  0  0  0
   -2.6362   -2.3395    1.0094 C   0  0  0  0  0  0  0  0  0  0  0  0
   -1.8292   -2.8395    1.7814 O   0  0  0  0  0  0  0  0  0  0  0  0
   -2.3832   -1.2445    0.2964 N   0  0  0  0  0  0  0  0  0  0  0  0
   -3.1102   -0.8685   -0.2946 H   0  0  0  0  0  0  0  0  0  0  0  0
   -1.1292   -0.4875    0.3524 C   0  0  1  0  0  0  0  0  0  0  0  0
   -0.3087   -1.1556    0.0882 H   0  0  0  0  0  0  0  0  0  0  0  0
   -1.1749    0.6534   -0.6787 C   0  0  0  0  0  0  0  0  0  0  0  0
   -2.1373    0.6292   -1.1916 H   0  0  0  0  0  0  0  0  0  0  0  0
   -1.1087    1.6075   -0.1531 H   0  0  0  0  0  0  0  0  0  0  0  0
   -0.0811    0.5804   -1.7264 C   0  0  0  0  0  0  0  0  0  0  0  0
    0.0188   -0.5415   -2.5736 C   0  0  0  0  0  0  0  0  0  0  0  0
   -0.6708   -1.3679   -2.4610 H   0  0  0  0  0  0  0  0  0  0  0  0
    1.0113   -0.5867   -3.5719 C   0  0  0  0  0  0  0  0  0  0  0  0
    1.0858   -1.4480   -4.2178 H   0  0  0  0  0  0  0  0  0  0  0  0
    1.9045    0.4960   -3.7257 C   0  0  0  0  0  0  0  0  0  0  0  0
    2.8633    0.4634   -4.6874 O   0  0  0  0  0  0  0  0  0  0  0  0
    2.8943   -0.3816   -5.1379 H   0  0  0  0  0  0  0  0  0  0  0  0
    1.8001    1.6199   -2.8803 C   0  0  0  0  0  0  0  0  0  0  0  0
    2.4917    2.4395   -3.0049 H   0  0  0  0  0  0  0  0  0  0  0  0
    0.8099    1.6600   -1.8804 C   0  0  0  0  0  0  0  0  0  0  0  0
    0.7361    2.5199   -1.2252 H   0  0  0  0  0  0  0  0  0  0  0  0
   -0.8664    0.0378    1.7736 C   0  0  0  0  0  0  0  0  0  0  0  0
    0.2529   -0.0672    2.2760 O   0  0  0  0  0  0  0  0  0  0  0  0
   -1.8947    0.5991    2.4221 N   0  0  0  0  0  0  0  0  0  0  0  0
   -2.7942    0.5936    1.9635 H   0  0  0  0  0  0  0  0  0  0  0  0
   -1.8170    1.1453    3.7750 C   0  0  0  0  0  0  0  0  0  0  0  0
   -0.9697    1.8290    3.8506 H   0  0  0  0  0  0  0  0  0  0  0  0
   -2.7354    1.6828    4.0167 H   0  0  0  0  0  0  0  0  0  0  0  0
   -1.6754    0.3334    4.4914 H   0  0  0  0  0  0  0  0  0  0  0  0
  5  6  2  0  0  0  0
  5  7  1  0  0  0  0
  2  3  1  0  0  0  0
  2  4  1  0  0  0  0
  2  5  1  0  0  0  0
  1  2  1  0  0  0  0
 26 27  2  0  0  0  0
 26 28  1  0  0  0  0
 24 25  1  0  0  0  0
 22 23  1  0  0  0  0
 22 24  2  0  0  0  0
 20 21  1  0  0  0  0
 19 20  1  0  0  0  0
 19 22  1  0  0  0  0
 17 18  1  0  0  0  0
 17 19  2  0  0  0  0
 15 16  1  0  0  0  0
 15 17  1  0  0  0  0
 14 15  2  0  0  0  0
 14 24  1  0  0  0  0
 11 12  1  0  0  0  0
 11 13  1  0  0  0  0
 11 14  1  0  0  0  0
  9 10  1  0  0  0  0
  9 11  1  0  0  0  0
  9 26  1  0  0  0  0
  7  8  1  0  0  0  0
  7  9  1  0  0  0  0
 30 31  1  0  0  0  0
 30 32  1  0  0  0  0
 30 33  1  0  0  0  0
 28 29  1  0  0  0  0
 28 30  1  0  0  0  0
M  END
$$$$
default_name
  -OEChem-02102213163D

 33 33  0     1  0  0  0  0  0999 V2000
   -4.0702   -3.8485    1.4554 H   0  0  0  0  0  0  0  0  0  0  0  0
   -4.0012   -2.9605    0.8284 C   0  0  0  0  0  0  0  0  0  0  0  0
   -4.7652   -2.2435    1.1234 H   0  0  0  0  0  0  0  0  0  0  0  0
   -4.1352   -3.2385   -0.2156 H   0  0  0  0  0  0  0  0  0  0  0  0
   -2.6362   -2.3395    1.0094 C   0  0  0  0  0  0  0  0  0  0  0  0
   -1.8292   -2.8395    1.7814 O   0  0  0  0  0  0  0  0  0  0  0  0
   -2.3832   -1.2445    0.2964 N   0  0  0  0  0  0  0  0  0  0  0  0
   -3.1102   -0.8685   -0.2946 H   0  0  0  0  0  0  0  0  0  0  0  0
   -1.1292   -0.4875    0.3524 C   0  0  1  0  0  0  0  0  0  0  0  0
   -0.3087   -1.1556    0.0882 H   0  0  0  0  0  0  0  0  0  0  0  0
   -1.1749    0.6534   -0.6787 C   0  0  0  0  0  0  0  0  0  0  0  0
   -2.1373    0.6292   -1.1916 H   0  0  0  0  0  0  0  0  0  0  0  0
   -1.1087    1.6075   -0.1531 H   0  0  0  0  0  0  0  0  0  0  0  0
   -0.0811    0.5804   -1.7264 C   0  0  0  0  0  0  0  0  0  0  0  0
   -0.1572   -0.3642   -2.7697 C   0  0  0  0  0  0  0  0  0  0  0  0
   -0.9856   -1.0592   -2.8112 H   0  0  0  0  0  0  0  0  0  0  0  0
    0.8405   -0.4012   -3.7632 C   0  0  0  0  0  0  0  0  0  0  0  0
    0.7798   -1.1268   -4.5597 H   0  0  0  0  0  0  0  0  0  0  0  0
    1.9160    0.5124   -3.7149 C   0  0  0  0  0  0  0  0  0  0  0  0
    2.8816    0.4868   -4.6699 O   0  0  0  0  0  0  0  0  0  0  0  0
    2.7753   -0.2515   -5.2712 H   0  0  0  0  0  0  0  0  0  0  0  0
    1.9880    1.4601   -2.6730 C   0  0  0  0  0  0  0  0  0  0  0  0
    2.8175    2.1504   -2.6445 H   0  0  0  0  0  0  0  0  0  0  0  0
    0.9916    1.4915   -1.6789 C   0  0  0  0  0  0  0  0  0  0  0  0
    1.0525    2.2138   -0.8735 H   0  0  0  0  0  0  0  0  0  0  0  0
   -0.8664    0.0378    1.7736 C   0  0  0  0  0  0  0  0  0  0  0  0
    0.2529   -0.0672    2.2760 O   0  0  0  0  0  0  0  0  0  0  0  0
   -1.8947    0.5991    2.4221 N   0  0  0  0  0  0  0  0  0  0  0  0
   -2.7942    0.5936    1.9635 H   0  0  0  0  0  0  0  0  0  0  0  0
   -1.8170    1.1453    3.7750 C   0  0  0  0  0  0  0  0  0  0  0  0
   -0.9697    1.8290    3.8506 H   0  0  0  0  0  0  0  0  0  0  0  0
   -2.7354    1.6828    4.0167 H   0  0  0  0  0  0  0  0  0  0  0  0
   -1.6754    0.3334    4.4914 H   0  0  0  0  0  0  0  0  0  0  0  0
  5  6  2  0  0  0  0
  5  7  1  0  0  0  0
  2  3  1  0  0  0  0
  2  4  1  0  0  0  0
  2  5  1  0  0  0  0
  1  2  1  0  0  0  0
 26 27  2  0  0  0  0
 26 28  1  0  0  0  0
 24 25  1  0  0  0  0
 22 23  1  0  0  0  0
 22 24  2  0  0  0  0
 20 21  1  0  0  0  0
 19 20  1  0  0  0  0
 19 22  1  0  0  0  0
 17 18  1  0  0  0  0
 17 19  2  0  0  0  0
 15 16  1  0  0  0  0
 15 17  1  0  0  0  0
 14 15  2  0  0  0  0
 14 24  1  0  0  0  0
 11 12  1  0  0  0  0
 11 13  1  0  0  0  0
 11 14  1  0  0  0  0
  9 10  1  0  0  0  0
  9 11  1  0  0  0  0
  9 26  1  0  0  0  0
  7  8  1  0  0  0  0
  7  9  1  0  0  0  0
 30 31  1  0  0  0  0
 30 32  1  0  0  0  0
 30 33  1  0  0  0  0
 28 29  1  0  0  0  0
 28 30  1  0  0  0  0
M  END
$$$$
default_name
  -OEChem-02102213163D

 33 33  0     1  0  0  0  0  0999 V2000
   -4.0702   -3.8485    1.4554 H   0  0  0  0  0  0  0  0  0  0  0  0
   -4.0012   -2.9605    0.8284 C   0  0  0  0  0  0  0  0  0  0  0  0
   -4.7652   -2.2435    1.1234 H   0  0  0  0  0  0  0  0  0  0  0  0
   -4.1352   -3.2385   -0.2156 H   0  0  0  0  0  0  0  0  0  0  0  0
   -2.6362   -2.3395    1.0094 C   0  0  0  0  0  0  0  0  0  0  0  0
   -1.8292   -2.8395    1.7814 O   0  0  0  0  0  0  0  0  0  0  0  0
   -2.3832   -1.2445    0.2964 N   0  0  0  0  0  0  0  0  0  0  0  0
   -3.1102   -0.8685   -0.2946 H   0  0  0  0  0  0  0  0  0  0  0  0
   -1.1292   -0.4875    0.3524 C   0  0  1  0  0  0  0  0  0  0  0  0
   -0.3087   -1.1556    0.0882 H   0  0  0  0  0  0  0  0  0  0  0  0
   -1.1749    0.6534   -0.6787 C   0  0  0  0  0  0  0  0  0  0  0  0
   -2.1373    0.6292   -1.1916 H   0  0  0  0  0  0  0  0  0  0  0  0
   -1.1087    1.6075   -0.1531 H   0  0  0  0  0  0  0  0  0  0  0  0
   -0.0811    0.5804   -1.7264 C   0  0  0  0  0  0  0  0  0  0  0  0
   -0.2930   -0.1248   -2.9282 C   0  0  0  0  0  0  0  0  0  0  0  0
   -1.2301   -0.6394   -3.0957 H   0  0  0  0  0  0  0  0  0  0  0  0
    0.7111   -0.1558   -3.9154 C   0  0  0  0  0  0  0  0  0  0  0  0
    0.5459   -0.6980   -4.8338 H   0  0  0  0  0  0  0  0  0  0  0  0
    1.9298    0.5242   -3.7013 C   0  0  0  0  0  0  0  0  0  0  0  0
    2.9033    0.5028   -4.6484 O   0  0  0  0  0  0  0  0  0  0  0  0
    2.6852   -0.0797   -5.3772 H   0  0  0  0  0  0  0  0  0  0  0  0
    2.1383    1.2334   -2.5002 C   0  0  0  0  0  0  0  0  0  0  0  0
    3.0761    1.7456   -2.3463 H   0  0  0  0  0  0  0  0  0  0  0  0
    1.1345    1.2586   -1.5134 C   0  0  0  0  0  0  0  0  0  0  0  0
    1.2990    1.7960   -0.5870 H   0  0  0  0  0  0  0  0  0  0  0  0
   -0.8664    0.0378    1.7736 C   0  0  0  0  0  0  0  0  0  0  0  0
    0.2529   -0.0672    2.2760 O   0  0  0  0  0  0  0  0  0  0  0  0
   -1.8947    0.5991    2.4221 N   0  0  0  0  0  0  0  0  0  0  0  0
   -2.7942    0.5936    1.9635 H   0  0  0  0  0  0  0  0  0  0  0  0
   -1.8170    1.1453    3.7750 C   0  0  0  0  0  0  0  0  0  0  0  0
   -0.9697    1.8290    3.8506 H   0  0  0  0  0  0  0  0  0  0  0  0
   -2.7354    1.6828    4.0167 H   0  0  0  0  0  0  0  0  0  0  0  0
   -1.6754    0.3334    4.4914 H   0  0  0  0  0  0  0  0  0  0  0  0
  5  6  2  0  0  0  0
  5  7  1  0  0  0  0
  2  3  1  0  0  0  0
  2  4  1  0  0  0  0
  2  5  1  0  0  0  0
  1  2  1  0  0  0  0
 26 27  2  0  0  0  0
 26 28  1  0  0  0  0
 24 25  1  0  0  0  0
 22 23  1  0  0  0  0
 22 24  2  0  0  0  0
 20 21  1  0  0  0  0
 19 20  1  0  0  0  0
 19 22  1  0  0  0  0
 17 18  1  0  0  0  0
 17 19  2  0  0  0  0
 15 16  1  0  0  0  0
 15 17  1  0  0  0  0
 14 15  2  0  0  0  0
 14 24  1  0  0  0  0
 11 12  1  0  0  0  0
 11 13  1  0  0  0  0
 11 14  1  0  0  0  0
  9 10  1  0  0  0  0
  9 11  1  0  0  0  0
  9 26  1  0  0  0  0
  7  8  1  0  0  0  0
  7  9  1  0  0  0  0
 30 31  1  0  0  0  0
 30 32  1  0  0  0  0
 30 33  1  0  0  0  0
 28 29  1  0  0  0  0
 28 30  1  0  0  0  0
M  END
$$$$
default_name
  -OEChem-02102213163D

 33 33  0     1  0  0  0  0  0999 V2000
   -4.0702   -3.8485    1.4554 H   0  0  0  0  0  0  0  0  0  0  0  0
   -4.0012   -2.9605    0.8284 C   0  0  0  0  0  0  0  0  0  0  0  0
   -4.7652   -2.2435    1.1234 H   0  0  0  0  0  0  0  0  0  0  0  0
   -4.1352   -3.2385   -0.2156 H   0  0  0  0  0  0  0  0  0  0  0  0
   -2.6362   -2.3395    1.0094 C   0  0  0  0  0  0  0  0  0  0  0  0
   -1.8292   -2.8395    1.7814 O   0  0  0  0  0  0  0  0  0  0  0  0
   -2.3832   -1.2445    0.2964 N   0  0  0  0  0  0  0  0  0  0  0  0
   -3.1102   -0.8685   -0.2946 H   0  0  0  0  0  0  0  0  0  0  0  0
   -1.1292   -0.4875    0.3524 C   0  0  1  0  0  0  0  0  0  0  0  0
   -0.3087   -1.1556    0.0882 H   0  0  0  0  0  0  0  0  0  0  0  0
   -1.1749    0.6534   -0.6787 C   0  0  0  0  0  0  0  0  0  0  0  0
   -2.1373    0.6292   -1.1916 H   0  0  0  0  0  0  0  0  0  0  0  0
   -1.1087    1.6075   -0.1531 H   0  0  0  0  0  0  0  0  0  0  0  0
   -0.0811    0.5804   -1.7264 C   0  0  0  0  0  0  0  0  0  0  0  0
   -0.3794    0.1603   -3.0382 C   0  0  0  0  0  0  0  0  0  0  0  0
   -1.3877   -0.1370   -3.2953 H   0  0  0  0  0  0  0  0  0  0  0  0
    0.6318    0.1328   -4.0183 C   0  0  0  0  0  0  0  0  0  0  0  0
    0.4001   -0.1908   -5.0214 H   0  0  0  0  0  0  0  0  0  0  0  0
    1.9452    0.5305   -3.6857 C   0  0  0  0  0  0  0  0  0  0  0  0
    2.9268    0.5104   -4.6244 O   0  0  0  0  0  0  0  0  0  0  0  0
    2.6303    0.1223   -5.4487 H   0  0  0  0  0  0  0  0  0  0  0  0
    2.2408    0.9552   -2.3738 C   0  0  0  0  0  0  0  0  0  0  0  0
    3.2498    1.2527   -2.1306 H   0  0  0  0  0  0  0  0  0  0  0  0
    1.2289    0.9772   -1.3953 C   0  0  0  0  0  0  0  0  0  0  0  0
    1.4589    1.2948   -0.3852 H   0  0  0  0  0  0  0  0  0  0  0  0
   -0.8664    0.0378    1.7736 C   0  0  0  0  0  0  0  0  0  0  0  0
    0.2529   -0.0672    2.2760 O   0  0  0  0  0  0  0  0  0  0  0  0
   -1.8947    0.5991    2.4221 N   0  0  0  0  0  0  0  0  0  0  0  0
   -2.7942    0.5936    1.9635 H   0  0  0  0  0  0  0  0  0  0  0  0
   -1.8170    1.1453    3.7750 C   0  0  0  0  0  0  0  0  0  0  0  0
   -0.9697    1.8290    3.8506 H   0  0  0  0  0  0  0  0  0  0  0  0
   -2.7354    1.6828    4.0167 H   0  0  0  0  0  0  0  0  0  0  0  0
   -1.6754    0.3334    4.4914 H   0  0  0  0  0  0  0  0  0  0  0  0
  5  6  2  0  0  0  0
  5  7  1  0  0  0  0
  2  3  1  0  0  0  0
  2  4  1  0  0  0  0
  2  5  1  0  0  0  0
  1  2  1  0  0  0  0
 26 27  2  0  0  0  0
 26 28  1  0  0  0  0
 24 25  1  0  0  0  0
 22 23  1  0  0  0  0
 22 24  2  0  0  0  0
 20 21  1  0  0  0  0
 19 20  1  0  0  0  0
 19 22  1  0  0  0  0
 17 18  1  0  0  0  0
 17 19  2  0  0  0  0
 15 16  1  0  0  0  0
 15 17  1  0  0  0  0
 14 15  2  0  0  0  0
 14 24  1  0  0  0  0
 11 12  1  0  0  0  0
 11 13  1  0  0  0  0
 11 14  1  0  0  0  0
  9 10  1  0  0  0  0
  9 11  1  0  0  0  0
  9 26  1  0  0  0  0
  7  8  1  0  0  0  0
  7  9  1  0  0  0  0
 30 31  1  0  0  0  0
 30 32  1  0  0  0  0
 30 33  1  0  0  0  0
 28 29  1  0  0  0  0
 28 30  1  0  0  0  0
M  END
$$$$
default_name
  -OEChem-02102213163D

 33 33  0     1  0  0  0  0  0999 V2000
   -4.0702   -3.8485    1.4554 H   0  0  0  0  0  0  0  0  0  0  0  0
   -4.0012   -2.9605    0.8284 C   0  0  0  0  0  0  0  0  0  0  0  0
   -4.7652   -2.2435    1.1234 H   0  0  0  0  0  0  0  0  0  0  0  0
   -4.1352   -3.2385   -0.2156 H   0  0  0  0  0  0  0  0  0  0  0  0
   -2.6362   -2.3395    1.0094 C   0  0  0  0  0  0  0  0  0  0  0  0
   -1.8292   -2.8395    1.7814 O   0  0  0  0  0  0  0  0  0  0  0  0
   -2.3832   -1.2445    0.2964 N   0  0  0  0  0  0  0  0  0  0  0  0
   -3.1102   -0.8685   -0.2946 H   0  0  0  0  0  0  0  0  0  0  0  0
   -1.1292   -0.4875    0.3524 C   0  0  1  0  0  0  0  0  0  0  0  0
   -0.3087   -1.1556    0.0882 H   0  0  0  0  0  0  0  0  0  0  0  0
   -1.1749    0.6534   -0.6787 C   0  0  0  0  0  0  0  0  0  0  0  0
   -2.1373    0.6292   -1.1916 H   0  0  0  0  0  0  0  0  0  0  0  0
   -1.1087    1.6075   -0.1531 H   0  0  0  0  0  0  0  0  0  0  0  0
   -0.0811    0.5804   -1.7264 C   0  0  0  0  0  0  0  0  0  0  0  0
   -0.4105    0.4717   -3.0924 C   0  0  0  0  0  0  0  0  0  0  0  0
   -1.4475    0.4137   -3.3962 H   0  0  0  0  0  0  0  0  0  0  0  0
    0.6082    0.4450   -4.0647 C   0  0  0  0  0  0  0  0  0  0  0  0
    0.3523    0.3602   -5.1097 H   0  0  0  0  0  0  0  0  0  0  0  0
    1.9609    0.5310   -3.6693 C   0  0  0  0  0  0  0  0  0  0  0  0
    2.9505    0.5091   -4.5995 O   0  0  0  0  0  0  0  0  0  0  0  0
    2.6142    0.3404   -5.4806 H   0  0  0  0  0  0  0  0  0  0  0  0
    2.2885    0.6446   -2.3023 C   0  0  0  0  0  0  0  0  0  0  0  0
    3.3267    0.7053   -2.0122 H   0  0  0  0  0  0  0  0  0  0  0  0
    1.2682    0.6665   -1.3325 C   0  0  0  0  0  0  0  0  0  0  0  0
    1.5211    0.7444   -0.2818 H   0  0  0  0  0  0  0  0  0  0  0  0
   -0.8664    0.0378    1.7736 C   0  0  0  0  0  0  0  0  0  0  0  0
    0.2529   -0.0672    2.2760 O   0  0  0  0  0  0  0  0  0  0  0  0
   -1.8947    0.5991    2.4221 N   0  0  0  0  0  0  0  0  0  0  0  0
   -2.7942    0.5936    1.9635 H   0  0  0  0  0  0  0  0  0  0  0  0
   -1.8170    1.1453    3.7750 C   0  0  0  0  0  0  0  0  0  0  0  0
   -0.9697    1.8290    3.8506 H   0  0  0  0  0  0  0  0  0  0  0  0
   -2.7354    1.6828    4.0167 H   0  0  0  0  0  0  0  0  0  0  0  0
   -1.6754    0.3334    4.4914 H   0  0  0  0  0  0  0  0  0  0  0  0
  5  6  2  0  0  0  0
  5  7  1  0  0  0  0
  2  3  1  0  0  0  0
  2  4  1  0  0  0  0
  2  5  1  0  0  0  0
  1  2  1  0  0  0  0
 26 27  2  0  0  0  0
 26 28  1  0  0  0  0
 24 25  1  0  0  0  0
 22 23  1  0  0  0  0
 22 24  2  0  0  0  0
 20 21  1  0  0  0  0
 19 20  1  0  0  0  0
 19 22  1  0  0  0  0
 17 18  1  0  0  0  0
 17 19  2  0  0  0  0
 15 16  1  0  0  0  0
 15 17  1  0  0  0  0
 14 15  2  0  0  0  0
 14 24  1  0  0  0  0
 11 12  1  0  0  0  0
 11 13  1  0  0  0  0
 11 14  1  0  0  0  0
  9 10  1  0  0  0  0
  9 11  1  0  0  0  0
  9 26  1  0  0  0  0
  7  8  1  0  0  0  0
  7  9  1  0  0  0  0
 30 31  1  0  0  0  0
 30 32  1  0  0  0  0
 30 33  1  0  0  0  0
 28 29  1  0  0  0  0
 28 30  1  0  0  0  0
M  END
$$$$
default_name
  -OEChem-02102213163D

 33 33  0     1  0  0  0  0  0999 V2000
   -4.0702   -3.8485    1.4554 H   0  0  0  0  0  0  0  0  0  0  0  0
   -4.0012   -2.9605    0.8284 C   0  0  0  0  0  0  0  0  0  0  0  0
   -4.7652   -2.2435    1.1234 H   0  0  0  0  0  0  0  0  0  0  0  0
   -4.1352   -3.2385   -0.2156 H   0  0  0  0  0  0  0  0  0  0  0  0
   -2.6362   -2.3395    1.0094 C   0  0  0  0  0  0  0  0  0  0  0  0
   -1.8292   -2.8395    1.7814 O   0  0  0  0  0  0  0  0  0  0  0  0
   -2.3832   -1.2445    0.2964 N   0  0  0  0  0  0  0  0  0  0  0  0
   -3.1102   -0.8685   -0.2946 H   0  0  0  0  0  0  0  0  0  0  0  0
   -1.1292   -0.4875    0.3524 C   0  0  1  0  0  0  0  0  0  0  0  0
   -0.3087   -1.1556    0.0882 H   0  0  0  0  0  0  0  0  0  0  0  0
   -1.1749    0.6534   -0.6787 C   0  0  0  0  0  0  0  0  0  0  0  0
   -2.1373    0.6292   -1.1916 H   0  0  0  0  0  0  0  0  0  0  0  0
   -1.1087    1.6075   -0.1531 H   0  0  0  0  0  0  0  0  0  0  0  0
   -0.0811    0.5804   -1.7264 C   0  0  0  0  0  0  0  0  0  0  0  0
   -0.3842    0.7882   -3.0870 C   0  0  0  0  0  0  0  0  0  0  0  0
   -1.4056    0.9751   -3.3916 H   0  0  0  0  0  0  0  0  0  0  0  0
    0.6417    0.7594   -4.0516 C   0  0  0  0  0  0  0  0  0  0  0  0
    0.4058    0.9174   -5.0928 H   0  0  0  0  0  0  0  0  0  0  0  0
    1.9760    0.5257   -3.6532 C   0  0  0  0  0  0  0  0  0  0  0  0
    2.9730    0.4989   -4.5754 O   0  0  0  0  0  0  0  0  0  0  0  0
    2.6381    0.5600   -5.4710 H   0  0  0  0  0  0  0  0  0  0  0  0
    2.2782    0.3228   -2.2907 C   0  0  0  0  0  0  0  0  0  0  0  0
    3.3016    0.1406   -1.9990 H   0  0  0  0  0  0  0  0  0  0  0  0
    1.2499    0.3476   -1.3295 C   0  0  0  0  0  0  0  0  0  0  0  0
    1.4815    0.1824   -0.2840 H   0  0  0  0  0  0  0  0  0  0  0  0
   -0.8664    0.0378    1.7736 C   0  0  0  0  0  0  0  0  0  0  0  0
    0.2529   -0.0672    2.2760 O   0  0  0  0  0  0  0  0  0  0  0  0
   -1.8947    0.5991    2.4221 N   0  0  0  0  0  0  0  0  0  0  0  0
   -2.7942    0.5936    1.9635 H   0  0  0  0  0  0  0  0  0  0  0  0
   -1.8170    1.1453    3.7750 C   0  0  0  0  0  0  0  0  0  0  0  0
   -0.9697    1.8290    3.8506 H   0  0  0  0  0  0  0  0  0  0  0  0
   -2.7354    1.6828    4.0167 H   0  0  0  0  0  0  0  0  0  0  0  0
   -1.6754    0.3334    4.4914 H   0  0  0  0  0  0  0  0  0  0  0  0
  5  6  2  0  0  0  0
  5  7  1  0  0  0  0
  2  3  1  0  0  0  0
  2  4  1  0  0  0  0
  2  5  1  0  0  0  0
  1  2  1  0  0  0  0
 26 27  2  0  0  0  0
 26 28  1  0  0  0  0
 24 25  1  0  0  0  0
 22 23  1  0  0  0  0
 22 24  2  0  0  0  0
 20 21  1  0  0  0  0
 19 20  1  0  0  0  0
 19 22  1  0  0  0  0
 17 18  1  0  0  0  0
 17 19  2  0  0  0  0
 15 16  1  0  0  0  0
 15 17  1  0  0  0  0
 14 15  2  0  0  0  0
 14 24  1  0  0  0  0
 11 12  1  0  0  0  0
 11 13  1  0  0  0  0
 11 14  1  0  0  0  0
  9 10  1  0  0  0  0
  9 11  1  0  0  0  0
  9 26  1  0  0  0  0
  7  8  1  0  0  0  0
  7  9  1  0  0  0  0
 30 31  1  0  0  0  0
 30 32  1  0  0  0  0
 30 33  1  0  0  0  0
 28 29  1  0  0  0  0
 28 30  1  0  0  0  0
M  END
$$$$
default_name
  -OEChem-02102213163D

 33 33  0     1  0  0  0  0  0999 V2000
   -4.0702   -3.8485    1.4554 H   0  0  0  0  0  0  0  0  0  0  0  0
   -4.0012   -2.9605    0.8284 C   0  0  0  0  0  0  0  0  0  0  0  0
   -4.7652   -2.2435    1.1234 H   0  0  0  0  0  0  0  0  0  0  0  0
   -4.1352   -3.2385   -0.2156 H   0  0  0  0  0  0  0  0  0  0  0  0
   -2.6362   -2.3395    1.0094 C   0  0  0  0  0  0  0  0  0  0  0  0
   -1.8292   -2.8395    1.7814 O   0  0  0  0  0  0  0  0  0  0  0  0
   -2.3832   -1.2445    0.2964 N   0  0  0  0  0  0  0  0  0  0  0  0
   -3.1102   -0.8685   -0.2946 H   0  0  0  0  0  0  0  0  0  0  0  0
   -1.1292   -0.4875    0.3524 C   0  0  1  0  0  0  0  0  0  0  0  0
   -0.3087   -1.1556    0.0882 H   0  0  0  0  0  0  0  0  0  0  0  0
   -1.1749    0.6534   -0.6787 C   0  0  0  0  0  0  0  0  0  0  0  0
   -2.1373    0.6292   -1.1916 H   0  0  0  0  0  0  0  0  0  0  0  0
   -1.1087    1.6075   -0.1531 H   0  0  0  0  0  0  0  0  0  0  0  0
   -0.0811    0.5804   -1.7264 C   0  0  0  0  0  0  0  0  0  0  0  0
   -0.3022    1.0881   -3.0224 C   0  0  0  0  0  0  0  0  0  0  0  0
   -1.2648    1.5091   -3.2818 H   0  0  0  0  0  0  0  0  0  0  0  0
    0.7302    1.0547   -3.9799 C   0  0  0  0  0  0  0  0  0  0  0  0
    0.5569    1.4430   -4.9717 H   0  0  0  0  0  0  0  0  0  0  0  0
    1.9894    0.5147   -3.6384 C   0  0  0  0  0  0  0  0  0  0  0  0
    2.9925    0.4806   -4.5537 O   0  0  0  0  0  0  0  0  0  0  0  0
    2.7004    0.7661   -5.4204 H   0  0  0  0  0  0  0  0  0  0  0  0
    2.2105    0.0115   -2.3396 C   0  0  0  0  0  0  0  0  0  0  0  0
    3.1762   -0.4028   -2.0920 H   0  0  0  0  0  0  0  0  0  0  0  0
    1.1751    0.0422   -1.3863 C   0  0  0  0  0  0  0  0  0  0  0  0
    1.3428   -0.3530   -0.3914 H   0  0  0  0  0  0  0  0  0  0  0  0
   -0.8664    0.0378    1.7736 C   0  0  0  0  0  0  0  0  0  0  0  0
    0.2529   -0.0672    2.2760 O   0  0  0  0  0  0  0  0  0  0  0  0
   -1.8947    0.5991    2.4221 N   0  0  0  0  0  0  0  0  0  0  0  0
   -2.7942    0.5936    1.9635 H   0  0  0  0  0  0  0  0  0  0  0  0
   -1.8170    1.1453    3.7750 C   0  0  0  0  0  0  0  0  0  0  0  0
   -0.9697    1.8290    3.8506 H   0  0  0  0  0  0  0  0  0  0  0  0
   -2.7354    1.6828    4.0167 H   0  0  0  0  0  0  0  0  0  0  0  0
   -1.6754    0.3334    4.4914 H   0  0  0  0  0  0  0  0  0  0  0  0
  5  6  2  0  0  0  0
  5  7  1  0  0  0  0
  2  3  1  0  0  0  0
  2  4  1  0  0  0  0
  2  5  1  0  0  0  0
  1  2  1  0  0  0  0
 26 27  2  0  0  0  0
 26 28  1  0  0  0  0
 24 25  1  0  0  0  0
 22 23  1  0  0  0  0
 22 24  2  0  0  0  0
 20 21  1  0  0  0  0
 19 20  1  0  0  0  0
 19 22  1  0  0  0  0
 17 18  1  0  0  0  0
 17 19  2  0  0  0  0
 15 16  1  0  0  0  0
 15 17  1  0  0  0  0
 14 15  2  0  0  0  0
 14 24  1  0  0  0  0
 11 12  1  0  0  0  0
 11 13  1  0  0  0  0
 11 14  1  0  0  0  0
  9 10  1  0  0  0  0
  9 11  1  0  0  0  0
  9 26  1  0  0  0  0
  7  8  1  0  0  0  0
  7  9  1  0  0  0  0
 30 31  1  0  0  0  0
 30 32  1  0  0  0  0
 30 33  1  0  0  0  0
 28 29  1  0  0  0  0
 28 30  1  0  0  0  0
M  END
$$$$
default_name
  -OEChem-02102213163D

 33 33  0     1  0  0  0  0  0999 V2000
   -4.0702   -3.8485    1.4554 H   0  0  0  0  0  0  0  0  0  0  0  0
   -4.0012   -2.9605    0.8284 C   0  0  0  0  0  0  0  0  0  0  0  0
   -4.7652   -2.2435    1.1234 H   0  0  0  0  0  0  0  0  0  0  0  0
   -4.1352   -3.2385   -0.2156 H   0  0  0  0  0  0  0  0  0  0  0  0
   -2.6362   -2.3395    1.0094 C   0  0  0  0  0  0  0  0  0  0  0  0
   -1.8292   -2.8395    1.7814 O   0  0  0  0  0  0  0  0  0  0  0  0
   -2.3832   -1.2445    0.2964 N   0  0  0  0  0  0  0  0  0  0  0  0
   -3.1102   -0.8685   -0.2946 H   0  0  0  0  0  0  0  0  0  0  0  0
   -1.1292   -0.4875    0.3524 C   0  0  1  0  0  0  0  0  0  0  0  0
   -0.3087   -1.1556    0.0882 H   0  0  0  0  0  0  0  0  0  0  0  0
   -1.1749    0.6534   -0.6787 C   0  0  0  0  0  0  0  0  0  0  0  0
   -2.1373    0.6292   -1.1916 H   0  0  0  0  0  0  0  0  0  0  0  0
   -1.1087    1.6075   -0.1531 H   0  0  0  0  0  0  0  0  0  0  0  0
   -0.0811    0.5804   -1.7264 C   0  0  0  0  0  0  0  0  0  0  0  0
   -0.1703    1.3512   -2.9029 C   0  0  0  0  0  0  0  0  0  0  0  0
   -1.0347    1.9793   -3.0743 H   0  0  0  0  0  0  0  0  0  0  0  0
    0.8676    1.3106   -3.8543 C   0  0  0  0  0  0  0  0  0  0  0  0
    0.7953    1.9010   -4.7548 H   0  0  0  0  0  0  0  0  0  0  0  0
    2.0002    0.4990   -3.6260 C   0  0  0  0  0  0  0  0  0  0  0  0
    3.0078    0.4553   -4.5360 O   0  0  0  0  0  0  0  0  0  0  0  0
    2.7967    0.9445   -5.3323 H   0  0  0  0  0  0  0  0  0  0  0  0
    2.0900   -0.2678   -2.4459 C   0  0  0  0  0  0  0  0  0  0  0  0
    2.9591   -0.8879   -2.2848 H   0  0  0  0  0  0  0  0  0  0  0  0
    1.0489   -0.2287   -1.4990 C   0  0  0  0  0  0  0  0  0  0  0  0
    1.1144   -0.8253   -0.5969 H   0  0  0  0  0  0  0  0  0  0  0  0
   -0.8664    0.0378    1.7736 C   0  0  0  0  0  0  0  0  0  0  0  0
    0.2529   -0.0672    2.2760 O   0  0  0  0  0  0  0  0  0  0  0  0
   -1.8947    0.5991    2.4221 N   0  0  0  0  0  0  0  0  0  0  0  0
   -2.7942    0.5936    1.9635 H   0  0  0  0  0  0  0  0  0  0  0  0
   -1.8170    1.1453    3.7750 C   0  0  0  0  0  0  0  0  0  0  0  0
   -0.9697    1.8290    3.8506 H   0  0  0  0  0  0  0  0  0  0  0  0
   -2.7354    1.6828    4.0167 H   0  0  0  0  0  0  0  0  0  0  0  0
   -1.6754    0.3334    4.4914 H   0  0  0  0  0  0  0  0  0  0  0  0
  5  6  2  0  0  0  0
  5  7  1  0  0  0  0
  2  3  1  0  0  0  0
  2  4  1  0  0  0  0
  2  5  1  0  0  0  0
  1  2  1  0  0  0  0
 26 27  2  0  0  0  0
 26 28  1  0  0  0  0
 24 25  1  0  0  0  0
 22 23  1  0  0  0  0
 22 24  2  0  0  0  0
 20 21  1  0  0  0  0
 19 20  1  0  0  0  0
 19 22  1  0  0  0  0
 17 18  1  0  0  0  0
 17 19  2  0  0  0  0
 15 16  1  0  0  0  0
 15 17  1  0  0  0  0
 14 15  2  0  0  0  0
 14 24  1  0  0  0  0
 11 12  1  0  0  0  0
 11 13  1  0  0  0  0
 11 14  1  0  0  0  0
  9 10  1  0  0  0  0
  9 11  1  0  0  0  0
  9 26  1  0  0  0  0
  7  8  1  0  0  0  0
  7  9  1  0  0  0  0
 30 31  1  0  0  0  0
 30 32  1  0  0  0  0
 30 33  1  0  0  0  0
 28 29  1  0  0  0  0
 28 30  1  0  0  0  0
M  END
$$$$
default_name
  -OEChem-02102213163D

 33 33  0     1  0  0  0  0  0999 V2000
   -4.0702   -3.8485    1.4554 H   0  0  0  0  0  0  0  0  0  0  0  0
   -4.0012   -2.9605    0.8284 C   0  0  0  0  0  0  0  0  0  0  0  0
   -4.7652   -2.2435    1.1234 H   0  0  0  0  0  0  0  0  0  0  0  0
   -4.1352   -3.2385   -0.2156 H   0  0  0  0  0  0  0  0  0  0  0  0
   -2.6362   -2.3395    1.0094 C   0  0  0  0  0  0  0  0  0  0  0  0
   -1.8292   -2.8395    1.7814 O   0  0  0  0  0  0  0  0  0  0  0  0
   -2.3832   -1.2445    0.2964 N   0  0  0  0  0  0  0  0  0  0  0  0
   -3.1102   -0.8685   -0.2946 H   0  0  0  0  0  0  0  0  0  0  0  0
   -1.1292   -0.4875    0.3524 C   0  0  1  0  0  0  0  0  0  0  0  0
   -0.3087   -1.1556    0.0882 H   0  0  0  0  0  0  0  0  0  0  0  0
   -1.1749    0.6534   -0.6787 C   0  0  0  0  0  0  0  0  0  0  0  0
   -2.2075    0.8020   -0.9973 H   0  0  0  0  0  0  0  0  0  0  0  0
   -0.8449    1.5765   -0.1992 H   0  0  0  0  0  0  0  0  0  0  0  0
   -0.3328    0.4006   -1.9142 C   0  0  0  0  0  0  0  0  0  0  0  0
   -0.2773    1.3593   -2.9457 C   0  0  0  0  0  0  0  0  0  0  0  0
   -0.8578    2.2695   -2.8706 H   0  0  0  0  0  0  0  0  0  0  0  0
    0.5381    1.1379   -4.0727 C   0  0  0  0  0  0  0  0  0  0  0  0
    0.5769    1.8734   -4.8614 H   0  0  0  0  0  0  0  0  0  0  0  0
    1.3034   -0.0450   -4.1661 C   0  0  0  0  0  0  0  0  0  0  0  0
    2.0951   -0.2665   -5.2475 O   0  0  0  0  0  0  0  0  0  0  0  0
    1.9820    0.4050   -5.9214 H   0  0  0  0  0  0  0  0  0  0  0  0
    1.2505   -1.0010   -3.1307 C   0  0  0  0  0  0  0  0  0  0  0  0
    1.8369   -1.9034   -3.2157 H   0  0  0  0  0  0  0  0  0  0  0  0
    0.4310   -0.7789   -2.0077 C   0  0  0  0  0  0  0  0  0  0  0  0
    0.3837   -1.5181   -1.2169 H   0  0  0  0  0  0  0  0  0  0  0  0
   -0.8664    0.0378    1.7736 C   0  0  0  0  0  0  0  0  0  0  0  0
    0.2529   -0.0672    2.2760 O   0  0  0  0  0  0  0  0  0  0  0  0
   -1.8947    0.5991    2.4221 N   0  0  0  0  0  0  0  0  0  0  0  0
   -2.7942    0.5936    1.9635 H   0  0  0  0  0  0  0  0  0  0  0  0
   -1.8170    1.1453    3.7750 C   0  0  0  0  0  0  0  0  0  0  0  0
   -0.9697    1.8290    3.8506 H   0  0  0  0  0  0  0  0  0  0  0  0
   -2.7354    1.6828    4.0167 H   0  0  0  0  0  0  0  0  0  0  0  0
   -1.6754    0.3334    4.4914 H   0  0  0  0  0  0  0  0  0  0  0  0
  5  6  2  0  0  0  0
  5  7  1  0  0  0  0
  2  3  1  0  0  0  0
  2  4  1  0  0  0  0
  2  5  1  0  0  0  0
  1  2  1  0  0  0  0
 26 27  2  0  0  0  0
 26 28  1  0  0  0  0
 24 25  1  0  0  0  0
 22 23  1  0  0  0  0
 22 24  2  0  0  0  0
 20 21  1  0  0  0  0
 19 20  1  0  0  0  0
 19 22  1  0  0  0  0
 17 18  1  0  0  0  0
 17 19  2  0  0  0  0
 15 16  1  0  0  0  0
 15 17  1  0  0  0  0
 14 15  2  0  0  0  0
 14 24  1  0  0  0  0
 11 12  1  0  0  0  0
 11 13  1  0  0  0  0
 11 14  1  0  0  0  0
  9 10  1  0  0  0  0
  9 11  1  0  0  0  0
  9 26  1  0  0  0  0
  7  8  1  0  0  0  0
  7  9  1  0  0  0  0
 30 31  1  0  0  0  0
 30 32  1  0  0  0  0
 30 33  1  0  0  0  0
 28 29  1  0  0  0  0
 28 30  1  0  0  0  0
M  END
$$$$
default_name
  -OEChem-02102213163D

 33 33  0     1  0  0  0  0  0999 V2000
   -4.0702   -3.8485    1.4554 H   0  0  0  0  0  0  0  0  0  0  0  0
   -4.0012   -2.9605    0.8284 C   0  0  0  0  0  0  0  0  0  0  0  0
   -4.7652   -2.2435    1.1234 H   0  0  0  0  0  0  0  0  0  0  0  0
   -4.1352   -3.2385   -0.2156 H   0  0  0  0  0  0  0  0  0  0  0  0
   -2.6362   -2.3395    1.0094 C   0  0  0  0  0  0  0  0  0  0  0  0
   -1.8292   -2.8395    1.7814 O   0  0  0  0  0  0  0  0  0  0  0  0
   -2.3832   -1.2445    0.2964 N   0  0  0  0  0  0  0  0  0  0  0  0
   -3.1102   -0.8685   -0.2946 H   0  0  0  0  0  0  0  0  0  0  0  0
   -1.1292   -0.4875    0.3524 C   0  0  1  0  0  0  0  0  0  0  0  0
   -0.3087   -1.1556    0.0882 H   0  0  0  0  0  0  0  0  0  0  0  0
   -1.1749    0.6534   -0.6787 C   0  0  0  0  0  0  0  0  0  0  0  0
   -2.2075    0.8020   -0.9973 H   0  0  0  0  0  0  0  0  0  0  0  0
   -0.8449    1.5765   -0.1992 H   0  0  0  0  0  0  0  0  0  0  0  0
   -0.3328    0.4006   -1.9142 C   0  0  0  0  0  0  0  0  0  0  0  0
   -0.0191    1.4592   -2.7902 C   0  0  0  0  0  0  0  0  0  0  0  0
   -0.4012    2.4530   -2.5969 H   0  0  0  0  0  0  0  0  0  0  0  0
    0.7971    1.2273   -3.9144 C   0  0  0  0  0  0  0  0  0  0  0  0
    1.0340    2.0399   -4.5839 H   0  0  0  0  0  0  0  0  0  0  0  0
    1.3042   -0.0671   -4.1611 C   0  0  0  0  0  0  0  0  0  0  0  0
    2.0945   -0.3003   -5.2409 O   0  0  0  0  0  0  0  0  0  0  0  0
    2.1631    0.4669   -5.8107 H   0  0  0  0  0  0  0  0  0  0  0  0
    0.9933   -1.1242   -3.2808 C   0  0  0  0  0  0  0  0  0  0  0  0
    1.3834   -2.1104   -3.4825 H   0  0  0  0  0  0  0  0  0  0  0  0
    0.1735   -0.8902   -2.1604 C   0  0  0  0  0  0  0  0  0  0  0  0
   -0.0726   -1.7048   -1.4896 H   0  0  0  0  0  0  0  0  0  0  0  0
   -0.8664    0.0378    1.7736 C   0  0  0  0  0  0  0  0  0  0  0  0
    0.2529   -0.0672    2.2760 O   0  0  0  0  0  0  0  0  0  0  0  0
   -1.8947    0.5991    2.4221 N   0  0  0  0  0  0  0  0  0  0  0  0
   -2.7942    0.5936    1.9635 H   0  0  0  0  0  0  0  0  0  0  0  0
   -1.8170    1.1453    3.7750 C   0  0  0  0  0  0  0  0  0  0  0  0
   -0.9697    1.8290    3.8506 H   0  0  0  0  0  0  0  0  0  0  0  0
   -2.7354    1.6828    4.0167 H   0  0  0  0  0  0  0  0  0  0  0  0
   -1.6754    0.3334    4.4914 H   0  0  0  0  0  0  0  0  0  0  0  0
  5  6  2  0  0  0  0
  5  7  1  0  0  0  0
  2  3  1  0  0  0  0
  2  4  1  0  0  0  0
  2  5  1  0  0  0  0
  1  2  1  0  0  0  0
 26 27  2  0  0  0  0
 26 28  1  0  0  0  0
 24 25  1  0  0  0  0
 22 23  1  0  0  0  0
 22 24  2  0  0  0  0
 20 21  1  0  0  0  0
 19 20  1  0  0  0  0
 19 22  1  0  0  0  0
 17 18  1  0  0  0  0
 17 19  2  0  0  0  0
 15 16  1  0  0  0  0
 15 17  1  0  0  0  0
 14 15  2  0  0  0  0
 14 24  1  0  0  0  0
 11 12  1  0  0  0  0
 11 13  1  0  0  0  0
 11 14  1  0  0  0  0
  9 10  1  0  0  0  0
  9 11  1  0  0  0  0
  9 26  1  0  0  0  0
  7  8  1  0  0  0  0
  7  9  1  0  0  0  0
 30 31  1  0  0  0  0
 30 32  1  0  0  0  0
 30 33  1  0  0  0  0
 28 29  1  0  0  0  0
 28 30  1  0  0  0  0
M  END
$$$$
default_name
  -OEChem-02102213163D

 33 33  0     1  0  0  0  0  0999 V2000
   -4.0702   -3.8485    1.4554 H   0  0  0  0  0  0  0  0  0  0  0  0
   -4.0012   -2.9605    0.8284 C   0  0  0  0  0  0  0  0  0  0  0  0
   -4.7652   -2.2435    1.1234 H   0  0  0  0  0  0  0  0  0  0  0  0
   -4.1352   -3.2385   -0.2156 H   0  0  0  0  0  0  0  0  0  0  0  0
   -2.6362   -2.3395    1.0094 C   0  0  0  0  0  0  0  0  0  0  0  0
   -1.8292   -2.8395    1.7814 O   0  0  0  0  0  0  0  0  0  0  0  0
   -2.3832   -1.2445    0.2964 N   0  0  0  0  0  0  0  0  0  0  0  0
   -3.1102   -0.8685   -0.2946 H   0  0  0  0  0  0  0  0  0  0  0  0
   -1.1292   -0.4875    0.3524 C   0  0  1  0  0  0  0  0  0  0  0  0
   -0.3087   -1.1556    0.0882 H   0  0  0  0  0  0  0  0  0  0  0  0
   -1.1749    0.6534   -0.6787 C   0  0  0  0  0  0  0  0  0  0  0  0
   -2.2075    0.8020   -0.9973 H   0  0  0  0  0  0  0  0  0  0  0  0
   -0.8449    1.5765   -0.1992 H   0  0  0  0  0  0  0  0  0  0  0  0
   -0.3328    0.4006   -1.9142 C   0  0  0  0  0  0  0  0  0  0  0  0
    0.2447    1.4788   -2.6144 C   0  0  0  0  0  0  0  0  0  0  0  0
    0.0667    2.4946   -2.2865 H   0  0  0  0  0  0  0  0  0  0  0  0
    1.0593    1.2364   -3.7375 C   0  0  0  0  0  0  0  0  0  0  0  0
    1.4987    2.0645   -4.2722 H   0  0  0  0  0  0  0  0  0  0  0  0
    1.3001   -0.0894   -4.1593 C   0  0  0  0  0  0  0  0  0  0  0  0
    2.0866   -0.3338   -5.2395 O   0  0  0  0  0  0  0  0  0  0  0  0
    2.3463    0.4726   -5.6870 H   0  0  0  0  0  0  0  0  0  0  0  0
    0.7253   -1.1674   -3.4546 C   0  0  0  0  0  0  0  0  0  0  0  0
    0.9132   -2.1764   -3.7895 H   0  0  0  0  0  0  0  0  0  0  0  0
   -0.0922   -0.9216   -2.3351 C   0  0  0  0  0  0  0  0  0  0  0  0
   -0.5409   -1.7498   -1.7997 H   0  0  0  0  0  0  0  0  0  0  0  0
   -0.8664    0.0378    1.7736 C   0  0  0  0  0  0  0  0  0  0  0  0
    0.2529   -0.0672    2.2760 O   0  0  0  0  0  0  0  0  0  0  0  0
   -1.8947    0.5991    2.4221 N   0  0  0  0  0  0  0  0  0  0  0  0
   -2.7942    0.5936    1.9635 H   0  0  0  0  0  0  0  0  0  0  0  0
   -1.8170    1.1453    3.7750 C   0  0  0  0  0  0  0  0  0  0  0  0
   -0.9697    1.8290    3.8506 H   0  0  0  0  0  0  0  0  0  0  0  0
   -2.7354    1.6828    4.0167 H   0  0  0  0  0  0  0  0  0  0  0  0
   -1.6754    0.3334    4.4914 H   0  0  0  0  0  0  0  0  0  0  0  0
  5  6  2  0  0  0  0
  5  7  1  0  0  0  0
  2  3  1  0  0  0  0
  2  4  1  0  0  0  0
  2  5  1  0  0  0  0
  1  2  1  0  0  0  0
 26 27  2  0  0  0  0
 26 28  1  0  0  0  0
 24 25  1  0  0  0  0
 22 23  1  0  0  0  0
 22 24  2  0  0  0  0
 20 21  1  0  0  0  0
 19 20  1  0  0  0  0
 19 22  1  0  0  0  0
 17 18  1  0  0  0  0
 17 19  2  0  0  0  0
 15 16  1  0  0  0  0
 15 17  1  0  0  0  0
 14 15  2  0  0  0  0
 14 24  1  0  0  0  0
 11 12  1  0  0  0  0
 11 13  1  0  0  0  0
 11 14  1  0  0  0  0
  9 10  1  0  0  0  0
  9 11  1  0  0  0  0
  9 26  1  0  0  0  0
  7  8  1  0  0  0  0
  7  9  1  0  0  0  0
 30 31  1  0  0  0  0
 30 32  1  0  0  0  0
 30 33  1  0  0  0  0
 28 29  1  0  0  0  0
 28 30  1  0  0  0  0
M  END
$$$$
default_name
  -OEChem-02102213163D

 33 33  0     1  0  0  0  0  0999 V2000
   -4.0702   -3.8485    1.4554 H   0  0  0  0  0  0  0  0  0  0  0  0
   -4.0012   -2.9605    0.8284 C   0  0  0  0  0  0  0  0  0  0  0  0
   -4.7652   -2.2435    1.1234 H   0  0  0  0  0  0  0  0  0  0  0  0
   -4.1352   -3.2385   -0.2156 H   0  0  0  0  0  0  0  0  0  0  0  0
   -2.6362   -2.3395    1.0094 C   0  0  0  0  0  0  0  0  0  0  0  0
   -1.8292   -2.8395    1.7814 O   0  0  0  0  0  0  0  0  0  0  0  0
   -2.3832   -1.2445    0.2964 N   0  0  0  0  0  0  0  0  0  0  0  0
   -3.1102   -0.8685   -0.2946 H   0  0  0  0  0  0  0  0  0  0  0  0
   -1.1292   -0.4875    0.3524 C   0  0  1  0  0  0  0  0  0  0  0  0
   -0.3087   -1.1556    0.0882 H   0  0  0  0  0  0  0  0  0  0  0  0
   -1.1749    0.6534   -0.6787 C   0  0  0  0  0  0  0  0  0  0  0  0
   -2.2075    0.8020   -0.9973 H   0  0  0  0  0  0  0  0  0  0  0  0
   -0.8449    1.5765   -0.1992 H   0  0  0  0  0  0  0  0  0  0  0  0
   -0.3328    0.4006   -1.9142 C   0  0  0  0  0  0  0  0  0  0  0  0
    0.4961    1.4169   -2.4304 C   0  0  0  0  0  0  0  0  0  0  0  0
    0.5141    2.3915   -1.9605 H   0  0  0  0  0  0  0  0  0  0  0  0
    1.3069    1.1644   -3.5540 C   0  0  0  0  0  0  0  0  0  0  0  0
    1.9392    1.9454   -3.9475 H   0  0  0  0  0  0  0  0  0  0  0  0
    1.2913   -0.1103   -4.1610 C   0  0  0  0  0  0  0  0  0  0  0  0
    2.0718   -0.3647   -5.2433 O   0  0  0  0  0  0  0  0  0  0  0  0
    2.5190    0.4216   -5.5588 H   0  0  0  0  0  0  0  0  0  0  0  0
    0.4649   -1.1276   -3.6402 C   0  0  0  0  0  0  0  0  0  0  0  0
    0.4584   -2.0968   -4.1157 H   0  0  0  0  0  0  0  0  0  0  0  0
   -0.3478   -0.8707   -2.5197 C   0  0  0  0  0  0  0  0  0  0  0  0
   -0.9894   -1.6500   -2.1258 H   0  0  0  0  0  0  0  0  0  0  0  0
   -0.8664    0.0378    1.7736 C   0  0  0  0  0  0  0  0  0  0  0  0
    0.2529   -0.0672    2.2760 O   0  0  0  0  0  0  0  0  0  0  0  0
   -1.8947    0.5991    2.4221 N   0  0  0  0  0  0  0  0  0  0  0  0
   -2.7942    0.5936    1.9635 H   0  0  0  0  0  0  0  0  0  0  0  0
   -1.8170    1.1453    3.7750 C   0  0  0  0  0  0  0  0  0  0  0  0
   -0.9697    1.8290    3.8506 H   0  0  0  0  0  0  0  0  0  0  0  0
   -2.7354    1.6828    4.0167 H   0  0  0  0  0  0  0  0  0  0  0  0
   -1.6754    0.3334    4.4914 H   0  0  0  0  0  0  0  0  0  0  0  0
  5  6  2  0  0  0  0
  5  7  1  0  0  0  0
  2  3  1  0  0  0  0
  2  4  1  0  0  0  0
  2  5  1  0  0  0  0
  1  2  1  0  0  0  0
 26 27  2  0  0  0  0
 26 28  1  0  0  0  0
 24 25  1  0  0  0  0
 22 23  1  0  0  0  0
 22 24  2  0  0  0  0
 20 21  1  0  0  0  0
 19 20  1  0  0  0  0
 19 22  1  0  0  0  0
 17 18  1  0  0  0  0
 17 19  2  0  0  0  0
 15 16  1  0  0  0  0
 15 17  1  0  0  0  0
 14 15  2  0  0  0  0
 14 24  1  0  0  0  0
 11 12  1  0  0  0  0
 11 13  1  0  0  0  0
 11 14  1  0  0  0  0
  9 10  1  0  0  0  0
  9 11  1  0  0  0  0
  9 26  1  0  0  0  0
  7  8  1  0  0  0  0
  7  9  1  0  0  0  0
 30 31  1  0  0  0  0
 30 32  1  0  0  0  0
 30 33  1  0  0  0  0
 28 29  1  0  0  0  0
 28 30  1  0  0  0  0
M  END
$$$$
default_name
  -OEChem-02102213163D

 33 33  0     1  0  0  0  0  0999 V2000
   -4.0702   -3.8485    1.4554 H   0  0  0  0  0  0  0  0  0  0  0  0
   -4.0012   -2.9605    0.8284 C   0  0  0  0  0  0  0  0  0  0  0  0
   -4.7652   -2.2435    1.1234 H   0  0  0  0  0  0  0  0  0  0  0  0
   -4.1352   -3.2385   -0.2156 H   0  0  0  0  0  0  0  0  0  0  0  0
   -2.6362   -2.3395    1.0094 C   0  0  0  0  0  0  0  0  0  0  0  0
   -1.8292   -2.8395    1.7814 O   0  0  0  0  0  0  0  0  0  0  0  0
   -2.3832   -1.2445    0.2964 N   0  0  0  0  0  0  0  0  0  0  0  0
   -3.1102   -0.8685   -0.2946 H   0  0  0  0  0  0  0  0  0  0  0  0
   -1.1292   -0.4875    0.3524 C   0  0  1  0  0  0  0  0  0  0  0  0
   -0.3087   -1.1556    0.0882 H   0  0  0  0  0  0  0  0  0  0  0  0
   -1.1749    0.6534   -0.6787 C   0  0  0  0  0  0  0  0  0  0  0  0
   -2.2075    0.8020   -0.9973 H   0  0  0  0  0  0  0  0  0  0  0  0
   -0.8449    1.5765   -0.1992 H   0  0  0  0  0  0  0  0  0  0  0  0
   -0.3328    0.4006   -1.9142 C   0  0  0  0  0  0  0  0  0  0  0  0
    0.7179    1.2776   -2.2507 C   0  0  0  0  0  0  0  0  0  0  0  0
    0.9104    2.1508   -1.6411 H   0  0  0  0  0  0  0  0  0  0  0  0
    1.5230    1.0163   -3.3764 C   0  0  0  0  0  0  0  0  0  0  0  0
    2.3256    1.6908   -3.6320 H   0  0  0  0  0  0  0  0  0  0  0  0
    1.2785   -0.1284   -4.1660 C   0  0  0  0  0  0  0  0  0  0  0  0
    2.0511   -0.3909   -5.2520 O   0  0  0  0  0  0  0  0  0  0  0  0
    2.6697    0.3176   -5.4348 H   0  0  0  0  0  0  0  0  0  0  0  0
    0.2298   -1.0076   -3.8250 C   0  0  0  0  0  0  0  0  0  0  0  0
    0.0500   -1.8772   -4.4391 H   0  0  0  0  0  0  0  0  0  0  0  0
   -0.5761   -0.7412   -2.7018 C   0  0  0  0  0  0  0  0  0  0  0  0
   -1.3874   -1.4121   -2.4458 H   0  0  0  0  0  0  0  0  0  0  0  0
   -0.8664    0.0378    1.7736 C   0  0  0  0  0  0  0  0  0  0  0  0
    0.2529   -0.0672    2.2760 O   0  0  0  0  0  0  0  0  0  0  0  0
   -1.8947    0.5991    2.4221 N   0  0  0  0  0  0  0  0  0  0  0  0
   -2.7942    0.5936    1.9635 H   0  0  0  0  0  0  0  0  0  0  0  0
   -1.8170    1.1453    3.7750 C   0  0  0  0  0  0  0  0  0  0  0  0
   -0.9697    1.8290    3.8506 H   0  0  0  0  0  0  0  0  0  0  0  0
   -2.7354    1.6828    4.0167 H   0  0  0  0  0  0  0  0  0  0  0  0
   -1.6754    0.3334    4.4914 H   0  0  0  0  0  0  0  0  0  0  0  0
  5  6  2  0  0  0  0
  5  7  1  0  0  0  0
  2  3  1  0  0  0  0
  2  4  1  0  0  0  0
  2  5  1  0  0  0  0
  1  2  1  0  0  0  0
 26 27  2  0  0  0  0
 26 28  1  0  0  0  0
 24 25  1  0  0  0  0
 22 23  1  0  0  0  0
 22 24  2  0  0  0  0
 20 21  1  0  0  0  0
 19 20  1  0  0  0  0
 19 22  1  0  0  0  0
 17 18  1  0  0  0  0
 17 19  2  0  0  0  0
 15 16  1  0  0  0  0
 15 17  1  0  0  0  0
 14 15  2  0  0  0  0
 14 24  1  0  0  0  0
 11 12  1  0  0  0  0
 11 13  1  0  0  0  0
 11 14  1  0  0  0  0
  9 10  1  0  0  0  0
  9 11  1  0  0  0  0
  9 26  1  0  0  0  0
  7  8  1  0  0  0  0
  7  9  1  0  0  0  0
 30 31  1  0  0  0  0
 30 32  1  0  0  0  0
 30 33  1  0  0  0  0
 28 29  1  0  0  0  0
 28 30  1  0  0  0  0
M  END
$$$$
default_name
  -OEChem-02102213163D

 33 33  0     1  0  0  0  0  0999 V2000
   -4.0702   -3.8485    1.4554 H   0  0  0  0  0  0  0  0  0  0  0  0
   -4.0012   -2.9605    0.8284 C   0  0  0  0  0  0  0  0  0  0  0  0
   -4.7652   -2.2435    1.1234 H   0  0  0  0  0  0  0  0  0  0  0  0
   -4.1352   -3.2385   -0.2156 H   0  0  0  0  0  0  0  0  0  0  0  0
   -2.6362   -2.3395    1.0094 C   0  0  0  0  0  0  0  0  0  0  0  0
   -1.8292   -2.8395    1.7814 O   0  0  0  0  0  0  0  0  0  0  0  0
   -2.3832   -1.2445    0.2964 N   0  0  0  0  0  0  0  0  0  0  0  0
   -3.1102   -0.8685   -0.2946 H   0  0  0  0  0  0  0  0  0  0  0  0
   -1.1292   -0.4875    0.3524 C   0  0  1  0  0  0  0  0  0  0  0  0
   -0.3087   -1.1556    0.0882 H   0  0  0  0  0  0  0  0  0  0  0  0
   -1.1749    0.6534   -0.6787 C   0  0  0  0  0  0  0  0  0  0  0  0
   -2.2075    0.8020   -0.9973 H   0  0  0  0  0  0  0  0  0  0  0  0
   -0.8449    1.5765   -0.1992 H   0  0  0  0  0  0  0  0  0  0  0  0
   -0.3328    0.4006   -1.9142 C   0  0  0  0  0  0  0  0  0  0  0  0
    0.8950    1.0705   -2.0876 C   0  0  0  0  0  0  0  0  0  0  0  0
    1.2286    1.7888   -1.3501 H   0  0  0  0  0  0  0  0  0  0  0  0
    1.6928    0.8021   -3.2169 C   0  0  0  0  0  0  0  0  0  0  0  0
    2.6316    1.3181   -3.3472 H   0  0  0  0  0  0  0  0  0  0  0  0
    1.2625   -0.1425   -4.1740 C   0  0  0  0  0  0  0  0  0  0  0  0
    2.0260   -0.4106   -5.2651 O   0  0  0  0  0  0  0  0  0  0  0  0
    2.7879    0.1675   -5.3235 H   0  0  0  0  0  0  0  0  0  0  0  0
    0.0360   -0.8155   -3.9965 C   0  0  0  0  0  0  0  0  0  0  0  0
   -0.2843   -1.5324   -4.7375 H   0  0  0  0  0  0  0  0  0  0  0  0
   -0.7614   -0.5417   -2.8690 C   0  0  0  0  0  0  0  0  0  0  0  0
   -1.7080   -1.0524   -2.7379 H   0  0  0  0  0  0  0  0  0  0  0  0
   -0.8664    0.0378    1.7736 C   0  0  0  0  0  0  0  0  0  0  0  0
    0.2529   -0.0672    2.2760 O   0  0  0  0  0  0  0  0  0  0  0  0
   -1.8947    0.5991    2.4221 N   0  0  0  0  0  0  0  0  0  0  0  0
   -2.7942    0.5936    1.9635 H   0  0  0  0  0  0  0  0  0  0  0  0
   -1.8170    1.1453    3.7750 C   0  0  0  0  0  0  0  0  0  0  0  0
   -0.9697    1.8290    3.8506 H   0  0  0  0  0  0  0  0  0  0  0  0
   -2.7354    1.6828    4.0167 H   0  0  0  0  0  0  0  0  0  0  0  0
   -1.6754    0.3334    4.4914 H   0  0  0  0  0  0  0  0  0  0  0  0
  5  6  2  0  0  0  0
  5  7  1  0  0  0  0
  2  3  1  0  0  0  0
  2  4  1  0  0  0  0
  2  5  1  0  0  0  0
  1  2  1  0  0  0  0
 26 27  2  0  0  0  0
 26 28  1  0  0  0  0
 24 25  1  0  0  0  0
 22 23  1  0  0  0  0
 22 24  2  0  0  0  0
 20 21  1  0  0  0  0
 19 20  1  0  0  0  0
 19 22  1  0  0  0  0
 17 18  1  0  0  0  0
 17 19  2  0  0  0  0
 15 16  1  0  0  0  0
 15 17  1  0  0  0  0
 14 15  2  0  0  0  0
 14 24  1  0  0  0  0
 11 12  1  0  0  0  0
 11 13  1  0  0  0  0
 11 14  1  0  0  0  0
  9 10  1  0  0  0  0
  9 11  1  0  0  0  0
  9 26  1  0  0  0  0
  7  8  1  0  0  0  0
  7  9  1  0  0  0  0
 30 31  1  0  0  0  0
 30 32  1  0  0  0  0
 30 33  1  0  0  0  0
 28 29  1  0  0  0  0
 28 30  1  0  0  0  0
M  END
$$$$
default_name
  -OEChem-02102213163D

 33 33  0     1  0  0  0  0  0999 V2000
   -4.0702   -3.8485    1.4554 H   0  0  0  0  0  0  0  0  0  0  0  0
   -4.0012   -2.9605    0.8284 C   0  0  0  0  0  0  0  0  0  0  0  0
   -4.7652   -2.2435    1.1234 H   0  0  0  0  0  0  0  0  0  0  0  0
   -4.1352   -3.2385   -0.2156 H   0  0  0  0  0  0  0  0  0  0  0  0
   -2.6362   -2.3395    1.0094 C   0  0  0  0  0  0  0  0  0  0  0  0
   -1.8292   -2.8395    1.7814 O   0  0  0  0  0  0  0  0  0  0  0  0
   -2.3832   -1.2445    0.2964 N   0  0  0  0  0  0  0  0  0  0  0  0
   -3.1102   -0.8685   -0.2946 H   0  0  0  0  0  0  0  0  0  0  0  0
   -1.1292   -0.4875    0.3524 C   0  0  1  0  0  0  0  0  0  0  0  0
   -0.3087   -1.1556    0.0882 H   0  0  0  0  0  0  0  0  0  0  0  0
   -1.1749    0.6534   -0.6787 C   0  0  0  0  0  0  0  0  0  0  0  0
   -2.2075    0.8020   -0.9973 H   0  0  0  0  0  0  0  0  0  0  0  0
   -0.8449    1.5765   -0.1992 H   0  0  0  0  0  0  0  0  0  0  0  0
   -0.3328    0.4006   -1.9142 C   0  0  0  0  0  0  0  0  0  0  0  0
    1.0154    0.8097   -1.9521 C   0  0  0  0  0  0  0  0  0  0  0  0
    1.4471    1.3301   -1.1073 H   0  0  0  0  0  0  0  0  0  0  0  0
    1.8047    0.5365   -3.0862 C   0  0  0  0  0  0  0  0  0  0  0  0
    2.8363    0.8526   -3.1125 H   0  0  0  0  0  0  0  0  0  0  0  0
    1.2445   -0.1516   -4.1845 C   0  0  0  0  0  0  0  0  0  0  0  0
    1.9982   -0.4224   -5.2816 O   0  0  0  0  0  0  0  0  0  0  0  0
    2.8656   -0.0184   -5.2325 H   0  0  0  0  0  0  0  0  0  0  0  0
   -0.1034   -0.5645   -4.1428 C   0  0  0  0  0  0  0  0  0  0  0  0
   -0.5216   -1.0860   -4.9906 H   0  0  0  0  0  0  0  0  0  0  0  0
   -0.8911   -0.2859   -3.0097 C   0  0  0  0  0  0  0  0  0  0  0  0
   -1.9291   -0.5953   -2.9822 H   0  0  0  0  0  0  0  0  0  0  0  0
   -0.8664    0.0378    1.7736 C   0  0  0  0  0  0  0  0  0  0  0  0
    0.2529   -0.0672    2.2760 O   0  0  0  0  0  0  0  0  0  0  0  0
   -1.8947    0.5991    2.4221 N   0  0  0  0  0  0  0  0  0  0  0  0
   -2.7942    0.5936    1.9635 H   0  0  0  0  0  0  0  0  0  0  0  0
   -1.8170    1.1453    3.7750 C   0  0  0  0  0  0  0  0  0  0  0  0
   -0.9697    1.8290    3.8506 H   0  0  0  0  0  0  0  0  0  0  0  0
   -2.7354    1.6828    4.0167 H   0  0  0  0  0  0  0  0  0  0  0  0
   -1.6754    0.3334    4.4914 H   0  0  0  0  0  0  0  0  0  0  0  0
  5  6  2  0  0  0  0
  5  7  1  0  0  0  0
  2  3  1  0  0  0  0
  2  4  1  0  0  0  0
  2  5  1  0  0  0  0
  1  2  1  0  0  0  0
 26 27  2  0  0  0  0
 26 28  1  0  0  0  0
 24 25  1  0  0  0  0
 22 23  1  0  0  0  0
 22 24  2  0  0  0  0
 20 21  1  0  0  0  0
 19 20  1  0  0  0  0
 19 22  1  0  0  0  0
 17 18  1  0  0  0  0
 17 19  2  0  0  0  0
 15 16  1  0  0  0  0
 15 17  1  0  0  0  0
 14 15  2  0  0  0  0
 14 24  1  0  0  0  0
 11 12  1  0  0  0  0
 11 13  1  0  0  0  0
 11 14  1  0  0  0  0
  9 10  1  0  0  0  0
  9 11  1  0  0  0  0
  9 26  1  0  0  0  0
  7  8  1  0  0  0  0
  7  9  1  0  0  0  0
 30 31  1  0  0  0  0
 30 32  1  0  0  0  0
 30 33  1  0  0  0  0
 28 29  1  0  0  0  0
 28 30  1  0  0  0  0
M  END
$$$$
default_name
  -OEChem-02102213163D

 33 33  0     1  0  0  0  0  0999 V2000
   -4.0702   -3.8485    1.4554 H   0  0  0  0  0  0  0  0  0  0  0  0
   -4.0012   -2.9605    0.8284 C   0  0  0  0  0  0  0  0  0  0  0  0
   -4.7652   -2.2435    1.1234 H   0  0  0  0  0  0  0  0  0  0  0  0
   -4.1352   -3.2385   -0.2156 H   0  0  0  0  0  0  0  0  0  0  0  0
   -2.6362   -2.3395    1.0094 C   0  0  0  0  0  0  0  0  0  0  0  0
   -1.8292   -2.8395    1.7814 O   0  0  0  0  0  0  0  0  0  0  0  0
   -2.3832   -1.2445    0.2964 N   0  0  0  0  0  0  0  0  0  0  0  0
   -3.1102   -0.8685   -0.2946 H   0  0  0  0  0  0  0  0  0  0  0  0
   -1.1292   -0.4875    0.3524 C   0  0  1  0  0  0  0  0  0  0  0  0
   -0.3087   -1.1556    0.0882 H   0  0  0  0  0  0  0  0  0  0  0  0
   -1.1749    0.6534   -0.6787 C   0  0  0  0  0  0  0  0  0  0  0  0
   -2.2075    0.8020   -0.9973 H   0  0  0  0  0  0  0  0  0  0  0  0
   -0.8449    1.5765   -0.1992 H   0  0  0  0  0  0  0  0  0  0  0  0
   -0.3328    0.4006   -1.9142 C   0  0  0  0  0  0  0  0  0  0  0  0
    1.0708    0.5129   -1.8536 C   0  0  0  0  0  0  0  0  0  0  0  0
    1.5510    0.8062   -0.9292 H   0  0  0  0  0  0  0  0  0  0  0  0
    1.8512    0.2376   -2.9933 C   0  0  0  0  0  0  0  0  0  0  0  0
    2.9256    0.3261   -2.9438 H   0  0  0  0  0  0  0  0  0  0  0  0
    1.2256   -0.1550   -4.1967 C   0  0  0  0  0  0  0  0  0  0  0  0
    1.9695   -0.4256   -5.3005 O   0  0  0  0  0  0  0  0  0  0  0  0
    2.8975   -0.2275   -5.1679 H   0  0  0  0  0  0  0  0  0  0  0  0
   -0.1787   -0.2716   -4.2541 C   0  0  0  0  0  0  0  0  0  0  0  0
   -0.6457   -0.5684   -5.1811 H   0  0  0  0  0  0  0  0  0  0  0  0
   -0.9563    0.0087   -3.1145 C   0  0  0  0  0  0  0  0  0  0  0  0
   -2.0358   -0.0721   -3.1620 H   0  0  0  0  0  0  0  0  0  0  0  0
   -0.8664    0.0378    1.7736 C   0  0  0  0  0  0  0  0  0  0  0  0
    0.2529   -0.0672    2.2760 O   0  0  0  0  0  0  0  0  0  0  0  0
   -1.8947    0.5991    2.4221 N   0  0  0  0  0  0  0  0  0  0  0  0
   -2.7942    0.5936    1.9635 H   0  0  0  0  0  0  0  0  0  0  0  0
   -1.8170    1.1453    3.7750 C   0  0  0  0  0  0  0  0  0  0  0  0
   -0.9697    1.8290    3.8506 H   0  0  0  0  0  0  0  0  0  0  0  0
   -2.7354    1.6828    4.0167 H   0  0  0  0  0  0  0  0  0  0  0  0
   -1.6754    0.3334    4.4914 H   0  0  0  0  0  0  0  0  0  0  0  0
  5  6  2  0  0  0  0
  5  7  1  0  0  0  0
  2  3  1  0  0  0  0
  2  4  1  0  0  0  0
  2  5  1  0  0  0  0
  1  2  1  0  0  0  0
 26 27  2  0  0  0  0
 26 28  1  0  0  0  0
 24 25  1  0  0  0  0
 22 23  1  0  0  0  0
 22 24  2  0  0  0  0
 20 21  1  0  0  0  0
 19 20  1  0  0  0  0
 19 22  1  0  0  0  0
 17 18  1  0  0  0  0
 17 19  2  0  0  0  0
 15 16  1  0  0  0  0
 15 17  1  0  0  0  0
 14 15  2  0  0  0  0
 14 24  1  0  0  0  0
 11 12  1  0  0  0  0
 11 13  1  0  0  0  0
 11 14  1  0  0  0  0
  9 10  1  0  0  0  0
  9 11  1  0  0  0  0
  9 26  1  0  0  0  0
  7  8  1  0  0  0  0
  7  9  1  0  0  0  0
 30 31  1  0  0  0  0
 30 32  1  0  0  0  0
 30 33  1  0  0  0  0
 28 29  1  0  0  0  0
 28 30  1  0  0  0  0
M  END
$$$$
default_name
  -OEChem-02102213163D

 33 33  0     1  0  0  0  0  0999 V2000
   -4.0702   -3.8485    1.4554 H   0  0  0  0  0  0  0  0  0  0  0  0
   -4.0012   -2.9605    0.8284 C   0  0  0  0  0  0  0  0  0  0  0  0
   -4.7652   -2.2435    1.1234 H   0  0  0  0  0  0  0  0  0  0  0  0
   -4.1352   -3.2385   -0.2156 H   0  0  0  0  0  0  0  0  0  0  0  0
   -2.6362   -2.3395    1.0094 C   0  0  0  0  0  0  0  0  0  0  0  0
   -1.8292   -2.8395    1.7814 O   0  0  0  0  0  0  0  0  0  0  0  0
   -2.3832   -1.2445    0.2964 N   0  0  0  0  0  0  0  0  0  0  0  0
   -3.1102   -0.8685   -0.2946 H   0  0  0  0  0  0  0  0  0  0  0  0
   -1.1292   -0.4875    0.3524 C   0  0  1  0  0  0  0  0  0  0  0  0
   -0.3087   -1.1556    0.0882 H   0  0  0  0  0  0  0  0  0  0  0  0
   -1.1749    0.6534   -0.6787 C   0  0  0  0  0  0  0  0  0  0  0  0
   -2.2075    0.8020   -0.9973 H   0  0  0  0  0  0  0  0  0  0  0  0
   -0.8449    1.5765   -0.1992 H   0  0  0  0  0  0  0  0  0  0  0  0
   -0.3328    0.4006   -1.9142 C   0  0  0  0  0  0  0  0  0  0  0  0
    1.0575    0.2003   -1.7987 C   0  0  0  0  0  0  0  0  0  0  0  0
    1.5331    0.2525   -0.8281 H   0  0  0  0  0  0  0  0  0  0  0  0
    1.8291   -0.0743   -2.9446 C   0  0  0  0  0  0  0  0  0  0  0  0
    2.8937   -0.2256   -2.8527 H   0  0  0  0  0  0  0  0  0  0  0  0
    1.2071   -0.1526   -4.2097 C   0  0  0  0  0  0  0  0  0  0  0  0
    1.9420   -0.4199   -5.3204 O   0  0  0  0  0  0  0  0  0  0  0  0
    2.8815   -0.4454   -5.1343 H   0  0  0  0  0  0  0  0  0  0  0  0
   -0.1849    0.0432   -4.3228 C   0  0  0  0  0  0  0  0  0  0  0  0
   -0.6483   -0.0148   -5.2962 H   0  0  0  0  0  0  0  0  0  0  0  0
   -0.9527    0.3221   -3.1762 C   0  0  0  0  0  0  0  0  0  0  0  0
   -2.0208    0.4816   -3.2651 H   0  0  0  0  0  0  0  0  0  0  0  0
   -0.8664    0.0378    1.7736 C   0  0  0  0  0  0  0  0  0  0  0  0
    0.2529   -0.0672    2.2760 O   0  0  0  0  0  0  0  0  0  0  0  0
   -1.8947    0.5991    2.4221 N   0  0  0  0  0  0  0  0  0  0  0  0
   -2.7942    0.5936    1.9635 H   0  0  0  0  0  0  0  0  0  0  0  0
   -1.8170    1.1453    3.7750 C   0  0  0  0  0  0  0  0  0  0  0  0
   -0.9697    1.8290    3.8506 H   0  0  0  0  0  0  0  0  0  0  0  0
   -2.7354    1.6828    4.0167 H   0  0  0  0  0  0  0  0  0  0  0  0
   -1.6754    0.3334    4.4914 H   0  0  0  0  0  0  0  0  0  0  0  0
  5  6  2  0  0  0  0
  5  7  1  0  0  0  0
  2  3  1  0  0  0  0
  2  4  1  0  0  0  0
  2  5  1  0  0  0  0
  1  2  1  0  0  0  0
 26 27  2  0  0  0  0
 26 28  1  0  0  0  0
 24 25  1  0  0  0  0
 22 23  1  0  0  0  0
 22 24  2  0  0  0  0
 20 21  1  0  0  0  0
 19 20  1  0  0  0  0
 19 22  1  0  0  0  0
 17 18  1  0  0  0  0
 17 19  2  0  0  0  0
 15 16  1  0  0  0  0
 15 17  1  0  0  0  0
 14 15  2  0  0  0  0
 14 24  1  0  0  0  0
 11 12  1  0  0  0  0
 11 13  1  0  0  0  0
 11 14  1  0  0  0  0
  9 10  1  0  0  0  0
  9 11  1  0  0  0  0
  9 26  1  0  0  0  0
  7  8  1  0  0  0  0
  7  9  1  0  0  0  0
 30 31  1  0  0  0  0
 30 32  1  0  0  0  0
 30 33  1  0  0  0  0
 28 29  1  0  0  0  0
 28 30  1  0  0  0  0
M  END
$$$$
default_name
  -OEChem-02102213163D

 33 33  0     1  0  0  0  0  0999 V2000
   -4.0702   -3.8485    1.4554 H   0  0  0  0  0  0  0  0  0  0  0  0
   -4.0012   -2.9605    0.8284 C   0  0  0  0  0  0  0  0  0  0  0  0
   -4.7652   -2.2435    1.1234 H   0  0  0  0  0  0  0  0  0  0  0  0
   -4.1352   -3.2385   -0.2156 H   0  0  0  0  0  0  0  0  0  0  0  0
   -2.6362   -2.3395    1.0094 C   0  0  0  0  0  0  0  0  0  0  0  0
   -1.8292   -2.8395    1.7814 O   0  0  0  0  0  0  0  0  0  0  0  0
   -2.3832   -1.2445    0.2964 N   0  0  0  0  0  0  0  0  0  0  0  0
   -3.1102   -0.8685   -0.2946 H   0  0  0  0  0  0  0  0  0  0  0  0
   -1.1292   -0.4875    0.3524 C   0  0  1  0  0  0  0  0  0  0  0  0
   -0.3087   -1.1556    0.0882 H   0  0  0  0  0  0  0  0  0  0  0  0
   -1.1749    0.6534   -0.6787 C   0  0  0  0  0  0  0  0  0  0  0  0
   -2.2075    0.8020   -0.9973 H   0  0  0  0  0  0  0  0  0  0  0  0
   -0.8449    1.5765   -0.1992 H   0  0  0  0  0  0  0  0  0  0  0  0
   -0.3328    0.4006   -1.9142 C   0  0  0  0  0  0  0  0  0  0  0  0
    0.9764   -0.1066   -1.7912 C   0  0  0  0  0  0  0  0  0  0  0  0
    1.3948   -0.2930   -0.8108 H   0  0  0  0  0  0  0  0  0  0  0  0
    1.7399   -0.3780   -2.9433 C   0  0  0  0  0  0  0  0  0  0  0  0
    2.7425   -0.7649   -2.8453 H   0  0  0  0  0  0  0  0  0  0  0  0
    1.1904   -0.1446   -4.2228 C   0  0  0  0  0  0  0  0  0  0  0  0
    1.9175   -0.4058   -5.3400 O   0  0  0  0  0  0  0  0  0  0  0  0
    2.8186   -0.6574   -5.1337 H   0  0  0  0  0  0  0  0  0  0  0  0
   -0.1216    0.3584   -4.3441 C   0  0  0  0  0  0  0  0  0  0  0  0
   -0.5290    0.5369   -5.3278 H   0  0  0  0  0  0  0  0  0  0  0  0
   -0.8805    0.6330   -3.1906 C   0  0  0  0  0  0  0  0  0  0  0  0
   -1.8850    1.0281   -3.2844 H   0  0  0  0  0  0  0  0  0  0  0  0
   -0.8664    0.0378    1.7736 C   0  0  0  0  0  0  0  0  0  0  0  0
    0.2529   -0.0672    2.2760 O   0  0  0  0  0  0  0  0  0  0  0  0
   -1.8947    0.5991    2.4221 N   0  0  0  0  0  0  0  0  0  0  0  0
   -2.7942    0.5936    1.9635 H   0  0  0  0  0  0  0  0  0  0  0  0
   -1.8170    1.1453    3.7750 C   0  0  0  0  0  0  0  0  0  0  0  0
   -0.9697    1.8290    3.8506 H   0  0  0  0  0  0  0  0  0  0  0  0
   -2.7354    1.6828    4.0167 H   0  0  0  0  0  0  0  0  0  0  0  0
   -1.6754    0.3334    4.4914 H   0  0  0  0  0  0  0  0  0  0  0  0
  5  6  2  0  0  0  0
  5  7  1  0  0  0  0
  2  3  1  0  0  0  0
  2  4  1  0  0  0  0
  2  5  1  0  0  0  0
  1  2  1  0  0  0  0
 26 27  2  0  0  0  0
 26 28  1  0  0  0  0
 24 25  1  0  0  0  0
 22 23  1  0  0  0  0
 22 24  2  0  0  0  0
 20 21  1  0  0  0  0
 19 20  1  0  0  0  0
 19 22  1  0  0  0  0
 17 18  1  0  0  0  0
 17 19  2  0  0  0  0
 15 16  1  0  0  0  0
 15 17  1  0  0  0  0
 14 15  2  0  0  0  0
 14 24  1  0  0  0  0
 11 12  1  0  0  0  0
 11 13  1  0  0  0  0
 11 14  1  0  0  0  0
  9 10  1  0  0  0  0
  9 11  1  0  0  0  0
  9 26  1  0  0  0  0
  7  8  1  0  0  0  0
  7  9  1  0  0  0  0
 30 31  1  0  0  0  0
 30 32  1  0  0  0  0
 30 33  1  0  0  0  0
 28 29  1  0  0  0  0
 28 30  1  0  0  0  0
M  END
$$$$
default_name
  -OEChem-02102213163D

 33 33  0     1  0  0  0  0  0999 V2000
   -4.0702   -3.8485    1.4554 H   0  0  0  0  0  0  0  0  0  0  0  0
   -4.0012   -2.9605    0.8284 C   0  0  0  0  0  0  0  0  0  0  0  0
   -4.7652   -2.2435    1.1234 H   0  0  0  0  0  0  0  0  0  0  0  0
   -4.1352   -3.2385   -0.2156 H   0  0  0  0  0  0  0  0  0  0  0  0
   -2.6362   -2.3395    1.0094 C   0  0  0  0  0  0  0  0  0  0  0  0
   -1.8292   -2.8395    1.7814 O   0  0  0  0  0  0  0  0  0  0  0  0
   -2.3832   -1.2445    0.2964 N   0  0  0  0  0  0  0  0  0  0  0  0
   -3.1102   -0.8685   -0.2946 H   0  0  0  0  0  0  0  0  0  0  0  0
   -1.1292   -0.4875    0.3524 C   0  0  1  0  0  0  0  0  0  0  0  0
   -0.3087   -1.1556    0.0882 H   0  0  0  0  0  0  0  0  0  0  0  0
   -1.1749    0.6534   -0.6787 C   0  0  0  0  0  0  0  0  0  0  0  0
   -2.2075    0.8020   -0.9973 H   0  0  0  0  0  0  0  0  0  0  0  0
   -0.8449    1.5765   -0.1992 H   0  0  0  0  0  0  0  0  0  0  0  0
   -0.3328    0.4006   -1.9142 C   0  0  0  0  0  0  0  0  0  0  0  0
    0.8330   -0.3871   -1.8316 C   0  0  0  0  0  0  0  0  0  0  0  0
    1.1454   -0.7932   -0.8784 H   0  0  0  0  0  0  0  0  0  0  0  0
    1.5896   -0.6526   -2.9895 C   0  0  0  0  0  0  0  0  0  0  0  0
    2.4825   -1.2549   -2.9223 H   0  0  0  0  0  0  0  0  0  0  0  0
    1.1765   -0.1313   -4.2350 C   0  0  0  0  0  0  0  0  0  0  0  0
    1.8976   -0.3841   -5.3580 O   0  0  0  0  0  0  0  0  0  0  0  0
    2.7132   -0.8489   -5.1664 H   0  0  0  0  0  0  0  0  0  0  0  0
    0.0070    0.6526   -4.3167 C   0  0  0  0  0  0  0  0  0  0  0  0
   -0.2962    1.0492   -5.2739 H   0  0  0  0  0  0  0  0  0  0  0  0
   -0.7446    0.9200   -3.1567 C   0  0  0  0  0  0  0  0  0  0  0  0
   -1.6379    1.5302   -3.2186 H   0  0  0  0  0  0  0  0  0  0  0  0
   -0.8664    0.0378    1.7736 C   0  0  0  0  0  0  0  0  0  0  0  0
    0.2529   -0.0672    2.2760 O   0  0  0  0  0  0  0  0  0  0  0  0
   -1.8947    0.5991    2.4221 N   0  0  0  0  0  0  0  0  0  0  0  0
   -2.7942    0.5936    1.9635 H   0  0  0  0  0  0  0  0  0  0  0  0
   -1.8170    1.1453    3.7750 C   0  0  0  0  0  0  0  0  0  0  0  0
   -0.9697    1.8290    3.8506 H   0  0  0  0  0  0  0  0  0  0  0  0
   -2.7354    1.6828    4.0167 H   0  0  0  0  0  0  0  0  0  0  0  0
   -1.6754    0.3334    4.4914 H   0  0  0  0  0  0  0  0  0  0  0  0
  5  6  2  0  0  0  0
  5  7  1  0  0  0  0
  2  3  1  0  0  0  0
  2  4  1  0  0  0  0
  2  5  1  0  0  0  0
  1  2  1  0  0  0  0
 26 27  2  0  0  0  0
 26 28  1  0  0  0  0
 24 25  1  0  0  0  0
 22 23  1  0  0  0  0
 22 24  2  0  0  0  0
 20 21  1  0  0  0  0
 19 20  1  0  0  0  0
 19 22  1  0  0  0  0
 17 18  1  0  0  0  0
 17 19  2  0  0  0  0
 15 16  1  0  0  0  0
 15 17  1  0  0  0  0
 14 15  2  0  0  0  0
 14 24  1  0  0  0  0
 11 12  1  0  0  0  0
 11 13  1  0  0  0  0
 11 14  1  0  0  0  0
  9 10  1  0  0  0  0
  9 11  1  0  0  0  0
  9 26  1  0  0  0  0
  7  8  1  0  0  0  0
  7  9  1  0  0  0  0
 30 31  1  0  0  0  0
 30 32  1  0  0  0  0
 30 33  1  0  0  0  0
 28 29  1  0  0  0  0
 28 30  1  0  0  0  0
M  END
$$$$
default_name
  -OEChem-02102213163D

 33 33  0     1  0  0  0  0  0999 V2000
   -4.0702   -3.8485    1.4554 H   0  0  0  0  0  0  0  0  0  0  0  0
   -4.0012   -2.9605    0.8284 C   0  0  0  0  0  0  0  0  0  0  0  0
   -4.7652   -2.2435    1.1234 H   0  0  0  0  0  0  0  0  0  0  0  0
   -4.1352   -3.2385   -0.2156 H   0  0  0  0  0  0  0  0  0  0  0  0
   -2.6362   -2.3395    1.0094 C   0  0  0  0  0  0  0  0  0  0  0  0
   -1.8292   -2.8395    1.7814 O   0  0  0  0  0  0  0  0  0  0  0  0
   -2.3832   -1.2445    0.2964 N   0  0  0  0  0  0  0  0  0  0  0  0
   -3.1102   -0.8685   -0.2946 H   0  0  0  0  0  0  0  0  0  0  0  0
   -1.1292   -0.4875    0.3524 C   0  0  1  0  0  0  0  0  0  0  0  0
   -0.3087   -1.1556    0.0882 H   0  0  0  0  0  0  0  0  0  0  0  0
   -1.1749    0.6534   -0.6787 C   0  0  0  0  0  0  0  0  0  0  0  0
   -2.2075    0.8020   -0.9973 H   0  0  0  0  0  0  0  0  0  0  0  0
   -0.8449    1.5765   -0.1992 H   0  0  0  0  0  0  0  0  0  0  0  0
   -0.3328    0.4006   -1.9142 C   0  0  0  0  0  0  0  0  0  0  0  0
    0.6370   -0.6220   -1.9170 C   0  0  0  0  0  0  0  0  0  0  0  0
    0.8019   -1.2141   -1.0264 H   0  0  0  0  0  0  0  0  0  0  0  0
    1.3885   -0.8796   -3.0801 C   0  0  0  0  0  0  0  0  0  0  0  0
    2.1314   -1.6624   -3.0783 H   0  0  0  0  0  0  0  0  0  0  0  0
    1.1663   -0.1139   -4.2455 C   0  0  0  0  0  0  0  0  0  0  0  0
    1.8838   -0.3564   -5.3731 O   0  0  0  0  0  0  0  0  0  0  0  0
    2.5724   -1.0070   -5.2301 H   0  0  0  0  0  0  0  0  0  0  0  0
    0.1921    0.9058   -4.2423 C   0  0  0  0  0  0  0  0  0  0  0  0
    0.0345    1.4873   -5.1382 H   0  0  0  0  0  0  0  0  0  0  0  0
   -0.5542    1.1638   -3.0768 C   0  0  0  0  0  0  0  0  0  0  0  0
   -1.2961    1.9535   -3.0723 H   0  0  0  0  0  0  0  0  0  0  0  0
   -0.8664    0.0378    1.7736 C   0  0  0  0  0  0  0  0  0  0  0  0
    0.2529   -0.0672    2.2760 O   0  0  0  0  0  0  0  0  0  0  0  0
   -1.8947    0.5991    2.4221 N   0  0  0  0  0  0  0  0  0  0  0  0
   -2.7942    0.5936    1.9635 H   0  0  0  0  0  0  0  0  0  0  0  0
   -1.8170    1.1453    3.7750 C   0  0  0  0  0  0  0  0  0  0  0  0
   -0.9697    1.8290    3.8506 H   0  0  0  0  0  0  0  0  0  0  0  0
   -2.7354    1.6828    4.0167 H   0  0  0  0  0  0  0  0  0  0  0  0
   -1.6754    0.3334    4.4914 H   0  0  0  0  0  0  0  0  0  0  0  0
  5  6  2  0  0  0  0
  5  7  1  0  0  0  0
  2  3  1  0  0  0  0
  2  4  1  0  0  0  0
  2  5  1  0  0  0  0
  1  2  1  0  0  0  0
 26 27  2  0  0  0  0
 26 28  1  0  0  0  0
 24 25  1  0  0  0  0
 22 23  1  0  0  0  0
 22 24  2  0  0  0  0
 20 21  1  0  0  0  0
 19 20  1  0  0  0  0
 19 22  1  0  0  0  0
 17 18  1  0  0  0  0
 17 19  2  0  0  0  0
 15 16  1  0  0  0  0
 15 17  1  0  0  0  0
 14 15  2  0  0  0  0
 14 24  1  0  0  0  0
 11 12  1  0  0  0  0
 11 13  1  0  0  0  0
 11 14  1  0  0  0  0
  9 10  1  0  0  0  0
  9 11  1  0  0  0  0
  9 26  1  0  0  0  0
  7  8  1  0  0  0  0
  7  9  1  0  0  0  0
 30 31  1  0  0  0  0
 30 32  1  0  0  0  0
 30 33  1  0  0  0  0
 28 29  1  0  0  0  0
 28 30  1  0  0  0  0
M  END
$$$$
default_name
  -OEChem-02102213163D

 33 33  0     1  0  0  0  0  0999 V2000
   -4.0702   -3.8485    1.4554 H   0  0  0  0  0  0  0  0  0  0  0  0
   -4.0012   -2.9605    0.8284 C   0  0  0  0  0  0  0  0  0  0  0  0
   -4.7652   -2.2435    1.1234 H   0  0  0  0  0  0  0  0  0  0  0  0
   -4.1352   -3.2385   -0.2156 H   0  0  0  0  0  0  0  0  0  0  0  0
   -2.6362   -2.3395    1.0094 C   0  0  0  0  0  0  0  0  0  0  0  0
   -1.8292   -2.8395    1.7814 O   0  0  0  0  0  0  0  0  0  0  0  0
   -2.3832   -1.2445    0.2964 N   0  0  0  0  0  0  0  0  0  0  0  0
   -3.1102   -0.8685   -0.2946 H   0  0  0  0  0  0  0  0  0  0  0  0
   -1.1292   -0.4875    0.3524 C   0  0  1  0  0  0  0  0  0  0  0  0
   -0.3087   -1.1556    0.0882 H   0  0  0  0  0  0  0  0  0  0  0  0
   -1.1749    0.6534   -0.6787 C   0  0  0  0  0  0  0  0  0  0  0  0
   -2.2075    0.8020   -0.9973 H   0  0  0  0  0  0  0  0  0  0  0  0
   -0.8449    1.5765   -0.1992 H   0  0  0  0  0  0  0  0  0  0  0  0
   -0.3328    0.4006   -1.9142 C   0  0  0  0  0  0  0  0  0  0  0  0
    0.4019   -0.7953   -2.0418 C   0  0  0  0  0  0  0  0  0  0  0  0
    0.3878   -1.5270   -1.2447 H   0  0  0  0  0  0  0  0  0  0  0  0
    1.1503   -1.0433   -3.2090 C   0  0  0  0  0  0  0  0  0  0  0  0
    1.7130   -1.9595   -3.3027 H   0  0  0  0  0  0  0  0  0  0  0  0
    1.1607   -0.0934   -4.2535 C   0  0  0  0  0  0  0  0  0  0  0  0
    1.8769   -0.3245   -5.3843 O   0  0  0  0  0  0  0  0  0  0  0  0
    2.4057   -1.1209   -5.3203 H   0  0  0  0  0  0  0  0  0  0  0  0
    0.4210    1.1006   -4.1261 C   0  0  0  0  0  0  0  0  0  0  0  0
    0.4404    1.8212   -4.9298 H   0  0  0  0  0  0  0  0  0  0  0  0
   -0.3224    1.3477   -2.9564 C   0  0  0  0  0  0  0  0  0  0  0  0
   -0.8830    2.2694   -2.8554 H   0  0  0  0  0  0  0  0  0  0  0  0
   -0.8664    0.0378    1.7736 C   0  0  0  0  0  0  0  0  0  0  0  0
    0.2529   -0.0672    2.2760 O   0  0  0  0  0  0  0  0  0  0  0  0
   -1.8947    0.5991    2.4221 N   0  0  0  0  0  0  0  0  0  0  0  0
   -2.7942    0.5936    1.9635 H   0  0  0  0  0  0  0  0  0  0  0  0
   -1.8170    1.1453    3.7750 C   0  0  0  0  0  0  0  0  0  0  0  0
   -0.9697    1.8290    3.8506 H   0  0  0  0  0  0  0  0  0  0  0  0
   -2.7354    1.6828    4.0167 H   0  0  0  0  0  0  0  0  0  0  0  0
   -1.6754    0.3334    4.4914 H   0  0  0  0  0  0  0  0  0  0  0  0
  5  6  2  0  0  0  0
  5  7  1  0  0  0  0
  2  3  1  0  0  0  0
  2  4  1  0  0  0  0
  2  5  1  0  0  0  0
  1  2  1  0  0  0  0
 26 27  2  0  0  0  0
 26 28  1  0  0  0  0
 24 25  1  0  0  0  0
 22 23  1  0  0  0  0
 22 24  2  0  0  0  0
 20 21  1  0  0  0  0
 19 20  1  0  0  0  0
 19 22  1  0  0  0  0
 17 18  1  0  0  0  0
 17 19  2  0  0  0  0
 15 16  1  0  0  0  0
 15 17  1  0  0  0  0
 14 15  2  0  0  0  0
 14 24  1  0  0  0  0
 11 12  1  0  0  0  0
 11 13  1  0  0  0  0
 11 14  1  0  0  0  0
  9 10  1  0  0  0  0
  9 11  1  0  0  0  0
  9 26  1  0  0  0  0
  7  8  1  0  0  0  0
  7  9  1  0  0  0  0
 30 31  1  0  0  0  0
 30 32  1  0  0  0  0
 30 33  1  0  0  0  0
 28 29  1  0  0  0  0
 28 30  1  0  0  0  0
M  END
$$$$
default_name
  -OEChem-02102213163D

 33 33  0     1  0  0  0  0  0999 V2000
   -4.0702   -3.8485    1.4554 H   0  0  0  0  0  0  0  0  0  0  0  0
   -4.0012   -2.9605    0.8284 C   0  0  0  0  0  0  0  0  0  0  0  0
   -4.7652   -2.2435    1.1234 H   0  0  0  0  0  0  0  0  0  0  0  0
   -4.1352   -3.2385   -0.2156 H   0  0  0  0  0  0  0  0  0  0  0  0
   -2.6362   -2.3395    1.0094 C   0  0  0  0  0  0  0  0  0  0  0  0
   -1.8292   -2.8395    1.7814 O   0  0  0  0  0  0  0  0  0  0  0  0
   -2.3832   -1.2445    0.2964 N   0  0  0  0  0  0  0  0  0  0  0  0
   -3.1102   -0.8685   -0.2946 H   0  0  0  0  0  0  0  0  0  0  0  0
   -1.1292   -0.4875    0.3524 C   0  0  1  0  0  0  0  0  0  0  0  0
   -0.3087   -1.1556    0.0882 H   0  0  0  0  0  0  0  0  0  0  0  0
   -1.1749    0.6534   -0.6787 C   0  0  0  0  0  0  0  0  0  0  0  0
   -2.2075    0.8020   -0.9973 H   0  0  0  0  0  0  0  0  0  0  0  0
   -0.8449    1.5765   -0.1992 H   0  0  0  0  0  0  0  0  0  0  0  0
   -0.3328    0.4006   -1.9142 C   0  0  0  0  0  0  0  0  0  0  0  0
    0.1437   -0.8952   -2.1974 C   0  0  0  0  0  0  0  0  0  0  0  0
   -0.0688   -1.7105   -1.5183 H   0  0  0  0  0  0  0  0  0  0  0  0
    0.8913   -1.1328   -3.3672 C   0  0  0  0  0  0  0  0  0  0  0  0
    1.2559   -2.1260   -3.5802 H   0  0  0  0  0  0  0  0  0  0  0  0
    1.1599   -0.0712   -4.2586 C   0  0  0  0  0  0  0  0  0  0  0  0
    1.8774   -0.2907   -5.3909 O   0  0  0  0  0  0  0  0  0  0  0  0
    2.2246   -1.1828   -5.4311 H   0  0  0  0  0  0  0  0  0  0  0  0
    0.6782    1.2238   -3.9760 C   0  0  0  0  0  0  0  0  0  0  0  0
    0.8939    2.0281   -4.6631 H   0  0  0  0  0  0  0  0  0  0  0  0
   -0.0649    1.4590   -2.8036 C   0  0  0  0  0  0  0  0  0  0  0  0
   -0.4267    2.4561   -2.5826 H   0  0  0  0  0  0  0  0  0  0  0  0
   -0.8664    0.0378    1.7736 C   0  0  0  0  0  0  0  0  0  0  0  0
    0.2529   -0.0672    2.2760 O   0  0  0  0  0  0  0  0  0  0  0  0
   -1.8947    0.5991    2.4221 N   0  0  0  0  0  0  0  0  0  0  0  0
   -2.7942    0.5936    1.9635 H   0  0  0  0  0  0  0  0  0  0  0  0
   -1.8170    1.1453    3.7750 C   0  0  0  0  0  0  0  0  0  0  0  0
   -0.9697    1.8290    3.8506 H   0  0  0  0  0  0  0  0  0  0  0  0
   -2.7354    1.6828    4.0167 H   0  0  0  0  0  0  0  0  0  0  0  0
   -1.6754    0.3334    4.4914 H   0  0  0  0  0  0  0  0  0  0  0  0
  5  6  2  0  0  0  0
  5  7  1  0  0  0  0
  2  3  1  0  0  0  0
  2  4  1  0  0  0  0
  2  5  1  0  0  0  0
  1  2  1  0  0  0  0
 26 27  2  0  0  0  0
 26 28  1  0  0  0  0
 24 25  1  0  0  0  0
 22 23  1  0  0  0  0
 22 24  2  0  0  0  0
 20 21  1  0  0  0  0
 19 20  1  0  0  0  0
 19 22  1  0  0  0  0
 17 18  1  0  0  0  0
 17 19  2  0  0  0  0
 15 16  1  0  0  0  0
 15 17  1  0  0  0  0
 14 15  2  0  0  0  0
 14 24  1  0  0  0  0
 11 12  1  0  0  0  0
 11 13  1  0  0  0  0
 11 14  1  0  0  0  0
  9 10  1  0  0  0  0
  9 11  1  0  0  0  0
  9 26  1  0  0  0  0
  7  8  1  0  0  0  0
  7  9  1  0  0  0  0
 30 31  1  0  0  0  0
 30 32  1  0  0  0  0
 30 33  1  0  0  0  0
 28 29  1  0  0  0  0
 28 30  1  0  0  0  0
M  END
$$$$
default_name
  -OEChem-02102213163D

 33 33  0     1  0  0  0  0  0999 V2000
   -4.0702   -3.8485    1.4554 H   0  0  0  0  0  0  0  0  0  0  0  0
   -4.0012   -2.9605    0.8284 C   0  0  0  0  0  0  0  0  0  0  0  0
   -4.7652   -2.2435    1.1234 H   0  0  0  0  0  0  0  0  0  0  0  0
   -4.1352   -3.2385   -0.2156 H   0  0  0  0  0  0  0  0  0  0  0  0
   -2.6362   -2.3395    1.0094 C   0  0  0  0  0  0  0  0  0  0  0  0
   -1.8292   -2.8395    1.7814 O   0  0  0  0  0  0  0  0  0  0  0  0
   -2.3832   -1.2445    0.2964 N   0  0  0  0  0  0  0  0  0  0  0  0
   -3.1102   -0.8685   -0.2946 H   0  0  0  0  0  0  0  0  0  0  0  0
   -1.1292   -0.4875    0.3524 C   0  0  1  0  0  0  0  0  0  0  0  0
   -0.3087   -1.1556    0.0882 H   0  0  0  0  0  0  0  0  0  0  0  0
   -1.1749    0.6534   -0.6787 C   0  0  0  0  0  0  0  0  0  0  0  0
   -2.2075    0.8020   -0.9973 H   0  0  0  0  0  0  0  0  0  0  0  0
   -0.8449    1.5765   -0.1992 H   0  0  0  0  0  0  0  0  0  0  0  0
   -0.3328    0.4006   -1.9142 C   0  0  0  0  0  0  0  0  0  0  0  0
   -0.1201   -0.9148   -2.3732 C   0  0  0  0  0  0  0  0  0  0  0  0
   -0.5367   -1.7521   -1.8287 H   0  0  0  0  0  0  0  0  0  0  0  0
    0.6290   -1.1419   -3.5442 C   0  0  0  0  0  0  0  0  0  0  0  0
    0.7912   -2.1505   -3.8919 H   0  0  0  0  0  0  0  0  0  0  0  0
    1.1640   -0.0489   -4.2603 C   0  0  0  0  0  0  0  0  0  0  0  0
    1.8854   -0.2572   -5.3923 O   0  0  0  0  0  0  0  0  0  0  0  0
    2.0415   -1.1884   -5.5548 H   0  0  0  0  0  0  0  0  0  0  0  0
    0.9461    1.2670   -3.8023 C   0  0  0  0  0  0  0  0  0  0  0  0
    1.3640    2.0941   -4.3561 H   0  0  0  0  0  0  0  0  0  0  0  0
    0.2008    1.4904   -2.6290 C   0  0  0  0  0  0  0  0  0  0  0  0
    0.0416    2.5011   -2.2726 H   0  0  0  0  0  0  0  0  0  0  0  0
   -0.8664    0.0378    1.7736 C   0  0  0  0  0  0  0  0  0  0  0  0
    0.2529   -0.0672    2.2760 O   0  0  0  0  0  0  0  0  0  0  0  0
   -1.8947    0.5991    2.4221 N   0  0  0  0  0  0  0  0  0  0  0  0
   -2.7942    0.5936    1.9635 H   0  0  0  0  0  0  0  0  0  0  0  0
   -1.8170    1.1453    3.7750 C   0  0  0  0  0  0  0  0  0  0  0  0
   -0.9697    1.8290    3.8506 H   0  0  0  0  0  0  0  0  0  0  0  0
   -2.7354    1.6828    4.0167 H   0  0  0  0  0  0  0  0  0  0  0  0
   -1.6754    0.3334    4.4914 H   0  0  0  0  0  0  0  0  0  0  0  0
  5  6  2  0  0  0  0
  5  7  1  0  0  0  0
  2  3  1  0  0  0  0
  2  4  1  0  0  0  0
  2  5  1  0  0  0  0
  1  2  1  0  0  0  0
 26 27  2  0  0  0  0
 26 28  1  0  0  0  0
 24 25  1  0  0  0  0
 22 23  1  0  0  0  0
 22 24  2  0  0  0  0
 20 21  1  0  0  0  0
 19 20  1  0  0  0  0
 19 22  1  0  0  0  0
 17 18  1  0  0  0  0
 17 19  2  0  0  0  0
 15 16  1  0  0  0  0
 15 17  1  0  0  0  0
 14 15  2  0  0  0  0
 14 24  1  0  0  0  0
 11 12  1  0  0  0  0
 11 13  1  0  0  0  0
 11 14  1  0  0  0  0
  9 10  1  0  0  0  0
  9 11  1  0  0  0  0
  9 26  1  0  0  0  0
  7  8  1  0  0  0  0
  7  9  1  0  0  0  0
 30 31  1  0  0  0  0
 30 32  1  0  0  0  0
 30 33  1  0  0  0  0
 28 29  1  0  0  0  0
 28 30  1  0  0  0  0
M  END
$$$$
default_name
  -OEChem-02102213163D

 33 33  0     1  0  0  0  0  0999 V2000
   -4.0702   -3.8485    1.4554 H   0  0  0  0  0  0  0  0  0  0  0  0
   -4.0012   -2.9605    0.8284 C   0  0  0  0  0  0  0  0  0  0  0  0
   -4.7652   -2.2435    1.1234 H   0  0  0  0  0  0  0  0  0  0  0  0
   -4.1352   -3.2385   -0.2156 H   0  0  0  0  0  0  0  0  0  0  0  0
   -2.6362   -2.3395    1.0094 C   0  0  0  0  0  0  0  0  0  0  0  0
   -1.8292   -2.8395    1.7814 O   0  0  0  0  0  0  0  0  0  0  0  0
   -2.3832   -1.2445    0.2964 N   0  0  0  0  0  0  0  0  0  0  0  0
   -3.1102   -0.8685   -0.2946 H   0  0  0  0  0  0  0  0  0  0  0  0
   -1.1292   -0.4875    0.3524 C   0  0  1  0  0  0  0  0  0  0  0  0
   -0.3087   -1.1556    0.0882 H   0  0  0  0  0  0  0  0  0  0  0  0
   -1.1749    0.6534   -0.6787 C   0  0  0  0  0  0  0  0  0  0  0  0
   -2.2075    0.8020   -0.9973 H   0  0  0  0  0  0  0  0  0  0  0  0
   -0.8449    1.5765   -0.1992 H   0  0  0  0  0  0  0  0  0  0  0  0
   -0.3328    0.4006   -1.9142 C   0  0  0  0  0  0  0  0  0  0  0  0
   -0.3715   -0.8529   -2.5572 C   0  0  0  0  0  0  0  0  0  0  0  0
   -0.9840   -1.6490   -2.1548 H   0  0  0  0  0  0  0  0  0  0  0  0
    0.3814   -1.0699   -3.7277 C   0  0  0  0  0  0  0  0  0  0  0  0
    0.3507   -2.0315   -4.2165 H   0  0  0  0  0  0  0  0  0  0  0  0
    1.1728   -0.0280   -4.2586 C   0  0  0  0  0  0  0  0  0  0  0  0
    1.9002   -0.2263   -5.3885 O   0  0  0  0  0  0  0  0  0  0  0  0
    1.8687   -1.1375   -5.6830 H   0  0  0  0  0  0  0  0  0  0  0  0
    1.2065    1.2272   -3.6166 C   0  0  0  0  0  0  0  0  0  0  0  0
    1.8188    2.0145   -4.0298 H   0  0  0  0  0  0  0  0  0  0  0  0
    0.4564    1.4395   -2.4443 C   0  0  0  0  0  0  0  0  0  0  0  0
    0.4901    2.4013   -1.9464 H   0  0  0  0  0  0  0  0  0  0  0  0
   -0.8664    0.0378    1.7736 C   0  0  0  0  0  0  0  0  0  0  0  0
    0.2529   -0.0672    2.2760 O   0  0  0  0  0  0  0  0  0  0  0  0
   -1.8947    0.5991    2.4221 N   0  0  0  0  0  0  0  0  0  0  0  0
   -2.7942    0.5936    1.9635 H   0  0  0  0  0  0  0  0  0  0  0  0
   -1.8170    1.1453    3.7750 C   0  0  0  0  0  0  0  0  0  0  0  0
   -0.9697    1.8290    3.8506 H   0  0  0  0  0  0  0  0  0  0  0  0
   -2.7354    1.6828    4.0167 H   0  0  0  0  0  0  0  0  0  0  0  0
   -1.6754    0.3334    4.4914 H   0  0  0  0  0  0  0  0  0  0  0  0
  5  6  2  0  0  0  0
  5  7  1  0  0  0  0
  2  3  1  0  0  0  0
  2  4  1  0  0  0  0
  2  5  1  0  0  0  0
  1  2  1  0  0  0  0
 26 27  2  0  0  0  0
 26 28  1  0  0  0  0
 24 25  1  0  0  0  0
 22 23  1  0  0  0  0
 22 24  2  0  0  0  0
 20 21  1  0  0  0  0
 19 20  1  0  0  0  0
 19 22  1  0  0  0  0
 17 18  1  0  0  0  0
 17 19  2  0  0  0  0
 15 16  1  0  0  0  0
 15 17  1  0  0  0  0
 14 15  2  0  0  0  0
 14 24  1  0  0  0  0
 11 12  1  0  0  0  0
 11 13  1  0  0  0  0
 11 14  1  0  0  0  0
  9 10  1  0  0  0  0
  9 11  1  0  0  0  0
  9 26  1  0  0  0  0
  7  8  1  0  0  0  0
  7  9  1  0  0  0  0
 30 31  1  0  0  0  0
 30 32  1  0  0  0  0
 30 33  1  0  0  0  0
 28 29  1  0  0  0  0
 28 30  1  0  0  0  0
M  END
$$$$
default_name
  -OEChem-02102213163D

 33 33  0     1  0  0  0  0  0999 V2000
   -4.0702   -3.8485    1.4554 H   0  0  0  0  0  0  0  0  0  0  0  0
   -4.0012   -2.9605    0.8284 C   0  0  0  0  0  0  0  0  0  0  0  0
   -4.7652   -2.2435    1.1234 H   0  0  0  0  0  0  0  0  0  0  0  0
   -4.1352   -3.2385   -0.2156 H   0  0  0  0  0  0  0  0  0  0  0  0
   -2.6362   -2.3395    1.0094 C   0  0  0  0  0  0  0  0  0  0  0  0
   -1.8292   -2.8395    1.7814 O   0  0  0  0  0  0  0  0  0  0  0  0
   -2.3832   -1.2445    0.2964 N   0  0  0  0  0  0  0  0  0  0  0  0
   -3.1102   -0.8685   -0.2946 H   0  0  0  0  0  0  0  0  0  0  0  0
   -1.1292   -0.4875    0.3524 C   0  0  1  0  0  0  0  0  0  0  0  0
   -0.3087   -1.1556    0.0882 H   0  0  0  0  0  0  0  0  0  0  0  0
   -1.1749    0.6534   -0.6787 C   0  0  0  0  0  0  0  0  0  0  0  0
   -2.2075    0.8020   -0.9973 H   0  0  0  0  0  0  0  0  0  0  0  0
   -0.8449    1.5765   -0.1992 H   0  0  0  0  0  0  0  0  0  0  0  0
   -0.3328    0.4006   -1.9142 C   0  0  0  0  0  0  0  0  0  0  0  0
   -0.5933   -0.7136   -2.7369 C   0  0  0  0  0  0  0  0  0  0  0  0
   -1.3803   -1.4083   -2.4742 H   0  0  0  0  0  0  0  0  0  0  0  0
    0.1654   -0.9217   -3.9052 C   0  0  0  0  0  0  0  0  0  0  0  0
   -0.0358   -1.7769   -4.5320 H   0  0  0  0  0  0  0  0  0  0  0  0
    1.1856   -0.0099   -4.2536 C   0  0  0  0  0  0  0  0  0  0  0  0
    1.9208   -0.2001   -5.3798 O   0  0  0  0  0  0  0  0  0  0  0  0
    1.7181   -1.0334   -5.8070 H   0  0  0  0  0  0  0  0  0  0  0  0
    1.4416    1.1072   -3.4318 C   0  0  0  0  0  0  0  0  0  0  0  0
    2.2272    1.7949   -3.7065 H   0  0  0  0  0  0  0  0  0  0  0  0
    0.6847    1.3100   -2.2622 C   0  0  0  0  0  0  0  0  0  0  0  0
    0.8881    2.1634   -1.6264 H   0  0  0  0  0  0  0  0  0  0  0  0
   -0.8664    0.0378    1.7736 C   0  0  0  0  0  0  0  0  0  0  0  0
    0.2529   -0.0672    2.2760 O   0  0  0  0  0  0  0  0  0  0  0  0
   -1.8947    0.5991    2.4221 N   0  0  0  0  0  0  0  0  0  0  0  0
   -2.7942    0.5936    1.9635 H   0  0  0  0  0  0  0  0  0  0  0  0
   -1.8170    1.1453    3.7750 C   0  0  0  0  0  0  0  0  0  0  0  0
   -0.9697    1.8290    3.8506 H   0  0  0  0  0  0  0  0  0  0  0  0
   -2.7354    1.6828    4.0167 H   0  0  0  0  0  0  0  0  0  0  0  0
   -1.6754    0.3334    4.4914 H   0  0  0  0  0  0  0  0  0  0  0  0
  5  6  2  0  0  0  0
  5  7  1  0  0  0  0
  2  3  1  0  0  0  0
  2  4  1  0  0  0  0
  2  5  1  0  0  0  0
  1  2  1  0  0  0  0
 26 27  2  0  0  0  0
 26 28  1  0  0  0  0
 24 25  1  0  0  0  0
 22 23  1  0  0  0  0
 22 24  2  0  0  0  0
 20 21  1  0  0  0  0
 19 20  1  0  0  0  0
 19 22  1  0  0  0  0
 17 18  1  0  0  0  0
 17 19  2  0  0  0  0
 15 16  1  0  0  0  0
 15 17  1  0  0  0  0
 14 15  2  0  0  0  0
 14 24  1  0  0  0  0
 11 12  1  0  0  0  0
 11 13  1  0  0  0  0
 11 14  1  0  0  0  0
  9 10  1  0  0  0  0
  9 11  1  0  0  0  0
  9 26  1  0  0  0  0
  7  8  1  0  0  0  0
  7  9  1  0  0  0  0
 30 31  1  0  0  0  0
 30 32  1  0  0  0  0
 30 33  1  0  0  0  0
 28 29  1  0  0  0  0
 28 30  1  0  0  0  0
M  END
$$$$
default_name
  -OEChem-02102213163D

 33 33  0     1  0  0  0  0  0999 V2000
   -4.0702   -3.8485    1.4554 H   0  0  0  0  0  0  0  0  0  0  0  0
   -4.0012   -2.9605    0.8284 C   0  0  0  0  0  0  0  0  0  0  0  0
   -4.7652   -2.2435    1.1234 H   0  0  0  0  0  0  0  0  0  0  0  0
   -4.1352   -3.2385   -0.2156 H   0  0  0  0  0  0  0  0  0  0  0  0
   -2.6362   -2.3395    1.0094 C   0  0  0  0  0  0  0  0  0  0  0  0
   -1.8292   -2.8395    1.7814 O   0  0  0  0  0  0  0  0  0  0  0  0
   -2.3832   -1.2445    0.2964 N   0  0  0  0  0  0  0  0  0  0  0  0
   -3.1102   -0.8685   -0.2946 H   0  0  0  0  0  0  0  0  0  0  0  0
   -1.1292   -0.4875    0.3524 C   0  0  1  0  0  0  0  0  0  0  0  0
   -0.3087   -1.1556    0.0882 H   0  0  0  0  0  0  0  0  0  0  0  0
   -1.1749    0.6534   -0.6787 C   0  0  0  0  0  0  0  0  0  0  0  0
   -2.2075    0.8020   -0.9973 H   0  0  0  0  0  0  0  0  0  0  0  0
   -0.8449    1.5765   -0.1992 H   0  0  0  0  0  0  0  0  0  0  0  0
   -0.3328    0.4006   -1.9142 C   0  0  0  0  0  0  0  0  0  0  0  0
   -0.7704   -0.5065   -2.9000 C   0  0  0  0  0  0  0  0  0  0  0  0
   -1.6986   -1.0463   -2.7652 H   0  0  0  0  0  0  0  0  0  0  0  0
   -0.0044   -0.7076   -4.0648 C   0  0  0  0  0  0  0  0  0  0  0  0
   -0.3417   -1.4041   -4.8169 H   0  0  0  0  0  0  0  0  0  0  0  0
    1.2016    0.0041   -4.2456 C   0  0  0  0  0  0  0  0  0  0  0  0
    1.9459   -0.1805   -5.3667 O   0  0  0  0  0  0  0  0  0  0  0  0
    1.5999   -0.8833   -5.9183 H   0  0  0  0  0  0  0  0  0  0  0  0
    1.6355    0.9151   -3.2604 C   0  0  0  0  0  0  0  0  0  0  0  0
    2.5615    1.4501   -3.4081 H   0  0  0  0  0  0  0  0  0  0  0  0
    0.8700    1.1105   -2.0951 C   0  0  0  0  0  0  0  0  0  0  0  0
    1.2087    1.8037   -1.3343 H   0  0  0  0  0  0  0  0  0  0  0  0
   -0.8664    0.0378    1.7736 C   0  0  0  0  0  0  0  0  0  0  0  0
    0.2529   -0.0672    2.2760 O   0  0  0  0  0  0  0  0  0  0  0  0
   -1.8947    0.5991    2.4221 N   0  0  0  0  0  0  0  0  0  0  0  0
   -2.7942    0.5936    1.9635 H   0  0  0  0  0  0  0  0  0  0  0  0
   -1.8170    1.1453    3.7750 C   0  0  0  0  0  0  0  0  0  0  0  0
   -0.9697    1.8290    3.8506 H   0  0  0  0  0  0  0  0  0  0  0  0
   -2.7354    1.6828    4.0167 H   0  0  0  0  0  0  0  0  0  0  0  0
   -1.6754    0.3334    4.4914 H   0  0  0  0  0  0  0  0  0  0  0  0
  5  6  2  0  0  0  0
  5  7  1  0  0  0  0
  2  3  1  0  0  0  0
  2  4  1  0  0  0  0
  2  5  1  0  0  0  0
  1  2  1  0  0  0  0
 26 27  2  0  0  0  0
 26 28  1  0  0  0  0
 24 25  1  0  0  0  0
 22 23  1  0  0  0  0
 22 24  2  0  0  0  0
 20 21  1  0  0  0  0
 19 20  1  0  0  0  0
 19 22  1  0  0  0  0
 17 18  1  0  0  0  0
 17 19  2  0  0  0  0
 15 16  1  0  0  0  0
 15 17  1  0  0  0  0
 14 15  2  0  0  0  0
 14 24  1  0  0  0  0
 11 12  1  0  0  0  0
 11 13  1  0  0  0  0
 11 14  1  0  0  0  0
  9 10  1  0  0  0  0
  9 11  1  0  0  0  0
  9 26  1  0  0  0  0
  7  8  1  0  0  0  0
  7  9  1  0  0  0  0
 30 31  1  0  0  0  0
 30 32  1  0  0  0  0
 30 33  1  0  0  0  0
 28 29  1  0  0  0  0
 28 30  1  0  0  0  0
M  END
$$$$
default_name
  -OEChem-02102213163D

 33 33  0     1  0  0  0  0  0999 V2000
   -4.0702   -3.8485    1.4554 H   0  0  0  0  0  0  0  0  0  0  0  0
   -4.0012   -2.9605    0.8284 C   0  0  0  0  0  0  0  0  0  0  0  0
   -4.7652   -2.2435    1.1234 H   0  0  0  0  0  0  0  0  0  0  0  0
   -4.1352   -3.2385   -0.2156 H   0  0  0  0  0  0  0  0  0  0  0  0
   -2.6362   -2.3395    1.0094 C   0  0  0  0  0  0  0  0  0  0  0  0
   -1.8292   -2.8395    1.7814 O   0  0  0  0  0  0  0  0  0  0  0  0
   -2.3832   -1.2445    0.2964 N   0  0  0  0  0  0  0  0  0  0  0  0
   -3.1102   -0.8685   -0.2946 H   0  0  0  0  0  0  0  0  0  0  0  0
   -1.1292   -0.4875    0.3524 C   0  0  1  0  0  0  0  0  0  0  0  0
   -0.3087   -1.1556    0.0882 H   0  0  0  0  0  0  0  0  0  0  0  0
   -1.1749    0.6534   -0.6787 C   0  0  0  0  0  0  0  0  0  0  0  0
   -2.2075    0.8020   -0.9973 H   0  0  0  0  0  0  0  0  0  0  0  0
   -0.8449    1.5765   -0.1992 H   0  0  0  0  0  0  0  0  0  0  0  0
   -0.3328    0.4006   -1.9142 C   0  0  0  0  0  0  0  0  0  0  0  0
   -0.8907   -0.2457   -3.0354 C   0  0  0  0  0  0  0  0  0  0  0  0
   -1.9171   -0.5876   -3.0080 H   0  0  0  0  0  0  0  0  0  0  0  0
   -0.1164   -0.4420   -4.1955 C   0  0  0  0  0  0  0  0  0  0  0  0
   -0.5464   -0.9387   -5.0516 H   0  0  0  0  0  0  0  0  0  0  0  0
    1.2196    0.0132   -4.2352 C   0  0  0  0  0  0  0  0  0  0  0  0
    1.9738   -0.1686   -5.3502 O   0  0  0  0  0  0  0  0  0  0  0  0
    1.5222   -0.6974   -6.0093 H   0  0  0  0  0  0  0  0  0  0  0  0
    1.7748    0.6641   -3.1140 C   0  0  0  0  0  0  0  0  0  0  0  0
    2.7988    1.0037   -3.1550 H   0  0  0  0  0  0  0  0  0  0  0  0
    0.9997    0.8547   -1.9543 C   0  0  0  0  0  0  0  0  0  0  0  0
    1.4298    1.3466   -1.0900 H   0  0  0  0  0  0  0  0  0  0  0  0
   -0.8664    0.0378    1.7736 C   0  0  0  0  0  0  0  0  0  0  0  0
    0.2529   -0.0672    2.2760 O   0  0  0  0  0  0  0  0  0  0  0  0
   -1.8947    0.5991    2.4221 N   0  0  0  0  0  0  0  0  0  0  0  0
   -2.7942    0.5936    1.9635 H   0  0  0  0  0  0  0  0  0  0  0  0
   -1.8170    1.1453    3.7750 C   0  0  0  0  0  0  0  0  0  0  0  0
   -0.9697    1.8290    3.8506 H   0  0  0  0  0  0  0  0  0  0  0  0
   -2.7354    1.6828    4.0167 H   0  0  0  0  0  0  0  0  0  0  0  0
   -1.6754    0.3334    4.4914 H   0  0  0  0  0  0  0  0  0  0  0  0
  5  6  2  0  0  0  0
  5  7  1  0  0  0  0
  2  3  1  0  0  0  0
  2  4  1  0  0  0  0
  2  5  1  0  0  0  0
  1  2  1  0  0  0  0
 26 27  2  0  0  0  0
 26 28  1  0  0  0  0
 24 25  1  0  0  0  0
 22 23  1  0  0  0  0
 22 24  2  0  0  0  0
 20 21  1  0  0  0  0
 19 20  1  0  0  0  0
 19 22  1  0  0  0  0
 17 18  1  0  0  0  0
 17 19  2  0  0  0  0
 15 16  1  0  0  0  0
 15 17  1  0  0  0  0
 14 15  2  0  0  0  0
 14 24  1  0  0  0  0
 11 12  1  0  0  0  0
 11 13  1  0  0  0  0
 11 14  1  0  0  0  0
  9 10  1  0  0  0  0
  9 11  1  0  0  0  0
  9 26  1  0  0  0  0
  7  8  1  0  0  0  0
  7  9  1  0  0  0  0
 30 31  1  0  0  0  0
 30 32  1  0  0  0  0
 30 33  1  0  0  0  0
 28 29  1  0  0  0  0
 28 30  1  0  0  0  0
M  END
$$$$
default_name
  -OEChem-02102213163D

 33 33  0     1  0  0  0  0  0999 V2000
   -4.0702   -3.8485    1.4554 H   0  0  0  0  0  0  0  0  0  0  0  0
   -4.0012   -2.9605    0.8284 C   0  0  0  0  0  0  0  0  0  0  0  0
   -4.7652   -2.2435    1.1234 H   0  0  0  0  0  0  0  0  0  0  0  0
   -4.1352   -3.2385   -0.2156 H   0  0  0  0  0  0  0  0  0  0  0  0
   -2.6362   -2.3395    1.0094 C   0  0  0  0  0  0  0  0  0  0  0  0
   -1.8292   -2.8395    1.7814 O   0  0  0  0  0  0  0  0  0  0  0  0
   -2.3832   -1.2445    0.2964 N   0  0  0  0  0  0  0  0  0  0  0  0
   -3.1102   -0.8685   -0.2946 H   0  0  0  0  0  0  0  0  0  0  0  0
   -1.1292   -0.4875    0.3524 C   0  0  1  0  0  0  0  0  0  0  0  0
   -0.3087   -1.1556    0.0882 H   0  0  0  0  0  0  0  0  0  0  0  0
   -1.1749    0.6534   -0.6787 C   0  0  0  0  0  0  0  0  0  0  0  0
   -2.2075    0.8020   -0.9973 H   0  0  0  0  0  0  0  0  0  0  0  0
   -0.8449    1.5765   -0.1992 H   0  0  0  0  0  0  0  0  0  0  0  0
   -0.3328    0.4006   -1.9142 C   0  0  0  0  0  0  0  0  0  0  0  0
   -0.9462    0.0511   -3.1340 C   0  0  0  0  0  0  0  0  0  0  0  0
   -2.0210   -0.0637   -3.1860 H   0  0  0  0  0  0  0  0  0  0  0  0
   -0.1629   -0.1430   -4.2883 C   0  0  0  0  0  0  0  0  0  0  0  0
   -0.6358   -0.4121   -5.2203 H   0  0  0  0  0  0  0  0  0  0  0  0
    1.2385    0.0167   -4.2230 C   0  0  0  0  0  0  0  0  0  0  0  0
    2.0024   -0.1655   -5.3313 O   0  0  0  0  0  0  0  0  0  0  0  0
    1.4902   -0.4884   -6.0738 H   0  0  0  0  0  0  0  0  0  0  0  0
    1.8501    0.3712   -3.0027 C   0  0  0  0  0  0  0  0  0  0  0  0
    2.9229    0.4861   -2.9644 H   0  0  0  0  0  0  0  0  0  0  0  0
    1.0649    0.5601   -1.8496 C   0  0  0  0  0  0  0  0  0  0  0  0
    1.5365    0.8234   -0.9102 H   0  0  0  0  0  0  0  0  0  0  0  0
   -0.8664    0.0378    1.7736 C   0  0  0  0  0  0  0  0  0  0  0  0
    0.2529   -0.0672    2.2760 O   0  0  0  0  0  0  0  0  0  0  0  0
   -1.8947    0.5991    2.4221 N   0  0  0  0  0  0  0  0  0  0  0  0
   -2.7942    0.5936    1.9635 H   0  0  0  0  0  0  0  0  0  0  0  0
   -1.8170    1.1453    3.7750 C   0  0  0  0  0  0  0  0  0  0  0  0
   -0.9697    1.8290    3.8506 H   0  0  0  0  0  0  0  0  0  0  0  0
   -2.7354    1.6828    4.0167 H   0  0  0  0  0  0  0  0  0  0  0  0
   -1.6754    0.3334    4.4914 H   0  0  0  0  0  0  0  0  0  0  0  0
  5  6  2  0  0  0  0
  5  7  1  0  0  0  0
  2  3  1  0  0  0  0
  2  4  1  0  0  0  0
  2  5  1  0  0  0  0
  1  2  1  0  0  0  0
 26 27  2  0  0  0  0
 26 28  1  0  0  0  0
 24 25  1  0  0  0  0
 22 23  1  0  0  0  0
 22 24  2  0  0  0  0
 20 21  1  0  0  0  0
 19 20  1  0  0  0  0
 19 22  1  0  0  0  0
 17 18  1  0  0  0  0
 17 19  2  0  0  0  0
 15 16  1  0  0  0  0
 15 17  1  0  0  0  0
 14 15  2  0  0  0  0
 14 24  1  0  0  0  0
 11 12  1  0  0  0  0
 11 13  1  0  0  0  0
 11 14  1  0  0  0  0
  9 10  1  0  0  0  0
  9 11  1  0  0  0  0
  9 26  1  0  0  0  0
  7  8  1  0  0  0  0
  7  9  1  0  0  0  0
 30 31  1  0  0  0  0
 30 32  1  0  0  0  0
 30 33  1  0  0  0  0
 28 29  1  0  0  0  0
 28 30  1  0  0  0  0
M  END
$$$$
default_name
  -OEChem-02102213163D

 33 33  0     1  0  0  0  0  0999 V2000
   -4.0702   -3.8485    1.4554 H   0  0  0  0  0  0  0  0  0  0  0  0
   -4.0012   -2.9605    0.8284 C   0  0  0  0  0  0  0  0  0  0  0  0
   -4.7652   -2.2435    1.1234 H   0  0  0  0  0  0  0  0  0  0  0  0
   -4.1352   -3.2385   -0.2156 H   0  0  0  0  0  0  0  0  0  0  0  0
   -2.6362   -2.3395    1.0094 C   0  0  0  0  0  0  0  0  0  0  0  0
   -1.8292   -2.8395    1.7814 O   0  0  0  0  0  0  0  0  0  0  0  0
   -2.3832   -1.2445    0.2964 N   0  0  0  0  0  0  0  0  0  0  0  0
   -3.1102   -0.8685   -0.2946 H   0  0  0  0  0  0  0  0  0  0  0  0
   -1.1292   -0.4875    0.3524 C   0  0  1  0  0  0  0  0  0  0  0  0
   -0.3087   -1.1556    0.0882 H   0  0  0  0  0  0  0  0  0  0  0  0
   -1.1749    0.6534   -0.6787 C   0  0  0  0  0  0  0  0  0  0  0  0
   -2.2075    0.8020   -0.9973 H   0  0  0  0  0  0  0  0  0  0  0  0
   -0.8449    1.5765   -0.1992 H   0  0  0  0  0  0  0  0  0  0  0  0
   -0.3328    0.4006   -1.9142 C   0  0  0  0  0  0  0  0  0  0  0  0
   -0.9329    0.3637   -3.1889 C   0  0  0  0  0  0  0  0  0  0  0  0
   -2.0031    0.4900   -3.2871 H   0  0  0  0  0  0  0  0  0  0  0  0
   -0.1407    0.1689   -4.3371 C   0  0  0  0  0  0  0  0  0  0  0  0
   -0.6038    0.1396   -5.3114 H   0  0  0  0  0  0  0  0  0  0  0  0
    1.2569    0.0143   -4.2099 C   0  0  0  0  0  0  0  0  0  0  0  0
    2.0299   -0.1711   -5.3114 O   0  0  0  0  0  0  0  0  0  0  0  0
    1.5062   -0.2705   -6.1075 H   0  0  0  0  0  0  0  0  0  0  0  0
    1.8564    0.0564   -2.9341 C   0  0  0  0  0  0  0  0  0  0  0  0
    2.9255   -0.0674   -2.8494 H   0  0  0  0  0  0  0  0  0  0  0  0
    1.0613    0.2467   -1.7879 C   0  0  0  0  0  0  0  0  0  0  0  0
    1.5215    0.2697   -0.8072 H   0  0  0  0  0  0  0  0  0  0  0  0
   -0.8664    0.0378    1.7736 C   0  0  0  0  0  0  0  0  0  0  0  0
    0.2529   -0.0672    2.2760 O   0  0  0  0  0  0  0  0  0  0  0  0
   -1.8947    0.5991    2.4221 N   0  0  0  0  0  0  0  0  0  0  0  0
   -2.7942    0.5936    1.9635 H   0  0  0  0  0  0  0  0  0  0  0  0
   -1.8170    1.1453    3.7750 C   0  0  0  0  0  0  0  0  0  0  0  0
   -0.9697    1.8290    3.8506 H   0  0  0  0  0  0  0  0  0  0  0  0
   -2.7354    1.6828    4.0167 H   0  0  0  0  0  0  0  0  0  0  0  0
   -1.6754    0.3334    4.4914 H   0  0  0  0  0  0  0  0  0  0  0  0
  5  6  2  0  0  0  0
  5  7  1  0  0  0  0
  2  3  1  0  0  0  0
  2  4  1  0  0  0  0
  2  5  1  0  0  0  0
  1  2  1  0  0  0  0
 26 27  2  0  0  0  0
 26 28  1  0  0  0  0
 24 25  1  0  0  0  0
 22 23  1  0  0  0  0
 22 24  2  0  0  0  0
 20 21  1  0  0  0  0
 19 20  1  0  0  0  0
 19 22  1  0  0  0  0
 17 18  1  0  0  0  0
 17 19  2  0  0  0  0
 15 16  1  0  0  0  0
 15 17  1  0  0  0  0
 14 15  2  0  0  0  0
 14 24  1  0  0  0  0
 11 12  1  0  0  0  0
 11 13  1  0  0  0  0
 11 14  1  0  0  0  0
  9 10  1  0  0  0  0
  9 11  1  0  0  0  0
  9 26  1  0  0  0  0
  7  8  1  0  0  0  0
  7  9  1  0  0  0  0
 30 31  1  0  0  0  0
 30 32  1  0  0  0  0
 30 33  1  0  0  0  0
 28 29  1  0  0  0  0
 28 30  1  0  0  0  0
M  END
$$$$
default_name
  -OEChem-02102213163D

 33 33  0     1  0  0  0  0  0999 V2000
   -4.0702   -3.8485    1.4554 H   0  0  0  0  0  0  0  0  0  0  0  0
   -4.0012   -2.9605    0.8284 C   0  0  0  0  0  0  0  0  0  0  0  0
   -4.7652   -2.2435    1.1234 H   0  0  0  0  0  0  0  0  0  0  0  0
   -4.1352   -3.2385   -0.2156 H   0  0  0  0  0  0  0  0  0  0  0  0
   -2.6362   -2.3395    1.0094 C   0  0  0  0  0  0  0  0  0  0  0  0
   -1.8292   -2.8395    1.7814 O   0  0  0  0  0  0  0  0  0  0  0  0
   -2.3832   -1.2445    0.2964 N   0  0  0  0  0  0  0  0  0  0  0  0
   -3.1102   -0.8685   -0.2946 H   0  0  0  0  0  0  0  0  0  0  0  0
   -1.1292   -0.4875    0.3524 C   0  0  1  0  0  0  0  0  0  0  0  0
   -0.3087   -1.1556    0.0882 H   0  0  0  0  0  0  0  0  0  0  0  0
   -1.1749    0.6534   -0.6787 C   0  0  0  0  0  0  0  0  0  0  0  0
   -2.2075    0.8020   -0.9973 H   0  0  0  0  0  0  0  0  0  0  0  0
   -0.8449    1.5765   -0.1992 H   0  0  0  0  0  0  0  0  0  0  0  0
   -0.3328    0.4006   -1.9142 C   0  0  0  0  0  0  0  0  0  0  0  0
   -0.8517    0.6706   -3.1964 C   0  0  0  0  0  0  0  0  0  0  0  0
   -1.8648    1.0355   -3.3045 H   0  0  0  0  0  0  0  0  0  0  0  0
   -0.0515    0.4725   -4.3384 C   0  0  0  0  0  0  0  0  0  0  0  0
   -0.4527    0.6788   -5.3188 H   0  0  0  0  0  0  0  0  0  0  0  0
    1.2737    0.0062   -4.1969 C   0  0  0  0  0  0  0  0  0  0  0  0
    2.0545   -0.1853   -5.2918 O   0  0  0  0  0  0  0  0  0  0  0  0
    1.5691   -0.0585   -6.1080 H   0  0  0  0  0  0  0  0  0  0  0  0
    1.7930   -0.2588   -2.9127 C   0  0  0  0  0  0  0  0  0  0  0  0
    2.8063   -0.6192   -2.8178 H   0  0  0  0  0  0  0  0  0  0  0  0
    0.9891   -0.0642   -1.7735 C   0  0  0  0  0  0  0  0  0  0  0  0
    1.3857   -0.2768   -0.7878 H   0  0  0  0  0  0  0  0  0  0  0  0
   -0.8664    0.0378    1.7736 C   0  0  0  0  0  0  0  0  0  0  0  0
    0.2529   -0.0672    2.2760 O   0  0  0  0  0  0  0  0  0  0  0  0
   -1.8947    0.5991    2.4221 N   0  0  0  0  0  0  0  0  0  0  0  0
   -2.7942    0.5936    1.9635 H   0  0  0  0  0  0  0  0  0  0  0  0
   -1.8170    1.1453    3.7750 C   0  0  0  0  0  0  0  0  0  0  0  0
   -0.9697    1.8290    3.8506 H   0  0  0  0  0  0  0  0  0  0  0  0
   -2.7354    1.6828    4.0167 H   0  0  0  0  0  0  0  0  0  0  0  0
   -1.6754    0.3334    4.4914 H   0  0  0  0  0  0  0  0  0  0  0  0
  5  6  2  0  0  0  0
  5  7  1  0  0  0  0
  2  3  1  0  0  0  0
  2  4  1  0  0  0  0
  2  5  1  0  0  0  0
  1  2  1  0  0  0  0
 26 27  2  0  0  0  0
 26 28  1  0  0  0  0
 24 25  1  0  0  0  0
 22 23  1  0  0  0  0
 22 24  2  0  0  0  0
 20 21  1  0  0  0  0
 19 20  1  0  0  0  0
 19 22  1  0  0  0  0
 17 18  1  0  0  0  0
 17 19  2  0  0  0  0
 15 16  1  0  0  0  0
 15 17  1  0  0  0  0
 14 15  2  0  0  0  0
 14 24  1  0  0  0  0
 11 12  1  0  0  0  0
 11 13  1  0  0  0  0
 11 14  1  0  0  0  0
  9 10  1  0  0  0  0
  9 11  1  0  0  0  0
  9 26  1  0  0  0  0
  7  8  1  0  0  0  0
  7  9  1  0  0  0  0
 30 31  1  0  0  0  0
 30 32  1  0  0  0  0
 30 33  1  0  0  0  0
 28 29  1  0  0  0  0
 28 30  1  0  0  0  0
M  END
$$$$
default_name
  -OEChem-02102213163D

 33 33  0     1  0  0  0  0  0999 V2000
   -4.0702   -3.8485    1.4554 H   0  0  0  0  0  0  0  0  0  0  0  0
   -4.0012   -2.9605    0.8284 C   0  0  0  0  0  0  0  0  0  0  0  0
   -4.7652   -2.2435    1.1234 H   0  0  0  0  0  0  0  0  0  0  0  0
   -4.1352   -3.2385   -0.2156 H   0  0  0  0  0  0  0  0  0  0  0  0
   -2.6362   -2.3395    1.0094 C   0  0  0  0  0  0  0  0  0  0  0  0
   -1.8292   -2.8395    1.7814 O   0  0  0  0  0  0  0  0  0  0  0  0
   -2.3832   -1.2445    0.2964 N   0  0  0  0  0  0  0  0  0  0  0  0
   -3.1102   -0.8685   -0.2946 H   0  0  0  0  0  0  0  0  0  0  0  0
   -1.1292   -0.4875    0.3524 C   0  0  1  0  0  0  0  0  0  0  0  0
   -0.3087   -1.1556    0.0882 H   0  0  0  0  0  0  0  0  0  0  0  0
   -1.1749    0.6534   -0.6787 C   0  0  0  0  0  0  0  0  0  0  0  0
   -2.2075    0.8020   -0.9973 H   0  0  0  0  0  0  0  0  0  0  0  0
   -0.8449    1.5765   -0.1992 H   0  0  0  0  0  0  0  0  0  0  0  0
   -0.3328    0.4006   -1.9142 C   0  0  0  0  0  0  0  0  0  0  0  0
   -0.7083    0.9511   -3.1560 C   0  0  0  0  0  0  0  0  0  0  0  0
   -1.6154    1.5357   -3.2368 H   0  0  0  0  0  0  0  0  0  0  0  0
    0.0988    0.7471   -4.2922 C   0  0  0  0  0  0  0  0  0  0  0  0
   -0.1927    1.1688   -5.2418 H   0  0  0  0  0  0  0  0  0  0  0  0
    1.2876   -0.0070   -4.1847 C   0  0  0  0  0  0  0  0  0  0  0  0
    2.0743   -0.2070   -5.2738 O   0  0  0  0  0  0  0  0  0  0  0  0
    1.6745    0.1331   -6.0754 H   0  0  0  0  0  0  0  0  0  0  0  0
    1.6644   -0.5530   -2.9402 C   0  0  0  0  0  0  0  0  0  0  0  0
    2.5734   -1.1315   -2.8716 H   0  0  0  0  0  0  0  0  0  0  0  0
    0.8532   -0.3512   -1.8074 C   0  0  0  0  0  0  0  0  0  0  0  0
    1.1386   -0.7789   -0.8536 H   0  0  0  0  0  0  0  0  0  0  0  0
   -0.8664    0.0378    1.7736 C   0  0  0  0  0  0  0  0  0  0  0  0
    0.2529   -0.0672    2.2760 O   0  0  0  0  0  0  0  0  0  0  0  0
   -1.8947    0.5991    2.4221 N   0  0  0  0  0  0  0  0  0  0  0  0
   -2.7942    0.5936    1.9635 H   0  0  0  0  0  0  0  0  0  0  0  0
   -1.8170    1.1453    3.7750 C   0  0  0  0  0  0  0  0  0  0  0  0
   -0.9697    1.8290    3.8506 H   0  0  0  0  0  0  0  0  0  0  0  0
   -2.7354    1.6828    4.0167 H   0  0  0  0  0  0  0  0  0  0  0  0
   -1.6754    0.3334    4.4914 H   0  0  0  0  0  0  0  0  0  0  0  0
  5  6  2  0  0  0  0
  5  7  1  0  0  0  0
  2  3  1  0  0  0  0
  2  4  1  0  0  0  0
  2  5  1  0  0  0  0
  1  2  1  0  0  0  0
 26 27  2  0  0  0  0
 26 28  1  0  0  0  0
 24 25  1  0  0  0  0
 22 23  1  0  0  0  0
 22 24  2  0  0  0  0
 20 21  1  0  0  0  0
 19 20  1  0  0  0  0
 19 22  1  0  0  0  0
 17 18  1  0  0  0  0
 17 19  2  0  0  0  0
 15 16  1  0  0  0  0
 15 17  1  0  0  0  0
 14 15  2  0  0  0  0
 14 24  1  0  0  0  0
 11 12  1  0  0  0  0
 11 13  1  0  0  0  0
 11 14  1  0  0  0  0
  9 10  1  0  0  0  0
  9 11  1  0  0  0  0
  9 26  1  0  0  0  0
  7  8  1  0  0  0  0
  7  9  1  0  0  0  0
 30 31  1  0  0  0  0
 30 32  1  0  0  0  0
 30 33  1  0  0  0  0
 28 29  1  0  0  0  0
 28 30  1  0  0  0  0
M  END
$$$$
default_name
  -OEChem-02102213163D

 33 33  0     1  0  0  0  0  0999 V2000
   -4.0702   -3.8485    1.4554 H   0  0  0  0  0  0  0  0  0  0  0  0
   -4.0012   -2.9605    0.8284 C   0  0  0  0  0  0  0  0  0  0  0  0
   -4.7652   -2.2435    1.1234 H   0  0  0  0  0  0  0  0  0  0  0  0
   -4.1352   -3.2385   -0.2156 H   0  0  0  0  0  0  0  0  0  0  0  0
   -2.6362   -2.3395    1.0094 C   0  0  0  0  0  0  0  0  0  0  0  0
   -1.8292   -2.8395    1.7814 O   0  0  0  0  0  0  0  0  0  0  0  0
   -2.3832   -1.2445    0.2964 N   0  0  0  0  0  0  0  0  0  0  0  0
   -3.1102   -0.8685   -0.2946 H   0  0  0  0  0  0  0  0  0  0  0  0
   -1.1292   -0.4875    0.3524 C   0  0  1  0  0  0  0  0  0  0  0  0
   -0.3087   -1.1556    0.0882 H   0  0  0  0  0  0  0  0  0  0  0  0
   -1.1749    0.6534   -0.6787 C   0  0  0  0  0  0  0  0  0  0  0  0
   -2.2075    0.8020   -0.9973 H   0  0  0  0  0  0  0  0  0  0  0  0
   -0.8449    1.5765   -0.1992 H   0  0  0  0  0  0  0  0  0  0  0  0
   -0.3328    0.4006   -1.9142 C   0  0  0  0  0  0  0  0  0  0  0  0
   -0.5124    1.1860   -3.0705 C   0  0  0  0  0  0  0  0  0  0  0  0
   -1.2719    1.9566   -3.0889 H   0  0  0  0  0  0  0  0  0  0  0  0
    0.2999    0.9741   -4.2015 C   0  0  0  0  0  0  0  0  0  0  0  0
    0.1585    1.5763   -5.0858 H   0  0  0  0  0  0  0  0  0  0  0  0
    1.2977   -0.0245   -4.1742 C   0  0  0  0  0  0  0  0  0  0  0  0
    2.0882   -0.2347   -5.2587 O   0  0  0  0  0  0  0  0  0  0  0  0
    1.8154    0.2912   -6.0117 H   0  0  0  0  0  0  0  0  0  0  0  0
    1.4794   -0.8062   -3.0145 C   0  0  0  0  0  0  0  0  0  0  0  0
    2.2428   -1.5696   -3.0074 H   0  0  0  0  0  0  0  0  0  0  0  0
    0.6628   -0.5950   -1.8873 C   0  0  0  0  0  0  0  0  0  0  0  0
    0.7968   -1.2022   -0.9999 H   0  0  0  0  0  0  0  0  0  0  0  0
   -0.8664    0.0378    1.7736 C   0  0  0  0  0  0  0  0  0  0  0  0
    0.2529   -0.0672    2.2760 O   0  0  0  0  0  0  0  0  0  0  0  0
   -1.8947    0.5991    2.4221 N   0  0  0  0  0  0  0  0  0  0  0  0
   -2.7942    0.5936    1.9635 H   0  0  0  0  0  0  0  0  0  0  0  0
   -1.8170    1.1453    3.7750 C   0  0  0  0  0  0  0  0  0  0  0  0
   -0.9697    1.8290    3.8506 H   0  0  0  0  0  0  0  0  0  0  0  0
   -2.7354    1.6828    4.0167 H   0  0  0  0  0  0  0  0  0  0  0  0
   -1.6754    0.3334    4.4914 H   0  0  0  0  0  0  0  0  0  0  0  0
  5  6  2  0  0  0  0
  5  7  1  0  0  0  0
  2  3  1  0  0  0  0
  2  4  1  0  0  0  0
  2  5  1  0  0  0  0
  1  2  1  0  0  0  0
 26 27  2  0  0  0  0
 26 28  1  0  0  0  0
 24 25  1  0  0  0  0
 22 23  1  0  0  0  0
 22 24  2  0  0  0  0
 20 21  1  0  0  0  0
 19 20  1  0  0  0  0
 19 22  1  0  0  0  0
 17 18  1  0  0  0  0
 17 19  2  0  0  0  0
 15 16  1  0  0  0  0
 15 17  1  0  0  0  0
 14 15  2  0  0  0  0
 14 24  1  0  0  0  0
 11 12  1  0  0  0  0
 11 13  1  0  0  0  0
 11 14  1  0  0  0  0
  9 10  1  0  0  0  0
  9 11  1  0  0  0  0
  9 26  1  0  0  0  0
  7  8  1  0  0  0  0
  7  9  1  0  0  0  0
 30 31  1  0  0  0  0
 30 32  1  0  0  0  0
 30 33  1  0  0  0  0
 28 29  1  0  0  0  0
 28 30  1  0  0  0  0
M  END
$$$$
default_name
  -OEChem-02102213163D

 33 33  0     1  0  0  0  0  0999 V2000
   -4.0702   -3.8485    1.4554 H   0  0  0  0  0  0  0  0  0  0  0  0
   -4.0012   -2.9605    0.8284 C   0  0  0  0  0  0  0  0  0  0  0  0
   -4.7652   -2.2435    1.1234 H   0  0  0  0  0  0  0  0  0  0  0  0
   -4.1352   -3.2385   -0.2156 H   0  0  0  0  0  0  0  0  0  0  0  0
   -2.6362   -2.3395    1.0094 C   0  0  0  0  0  0  0  0  0  0  0  0
   -1.8292   -2.8395    1.7814 O   0  0  0  0  0  0  0  0  0  0  0  0
   -2.3832   -1.2445    0.2964 N   0  0  0  0  0  0  0  0  0  0  0  0
   -3.1102   -0.8685   -0.2946 H   0  0  0  0  0  0  0  0  0  0  0  0
   -1.1292   -0.4875    0.3524 C   0  0  1  0  0  0  0  0  0  0  0  0
   -0.3087   -1.1556    0.0882 H   0  0  0  0  0  0  0  0  0  0  0  0
   -1.1749    0.6534   -0.6787 C   0  0  0  0  0  0  0  0  0  0  0  0
   -2.2081    0.9825   -0.7975 H   0  0  0  0  0  0  0  0  0  0  0  0
   -0.6044    1.5004   -0.2940 H   0  0  0  0  0  0  0  0  0  0  0  0
   -0.6431    0.2692   -2.0459 C   0  0  0  0  0  0  0  0  0  0  0  0
   -0.6226    1.2131   -3.0923 C   0  0  0  0  0  0  0  0  0  0  0  0
   -1.0117    2.2097   -2.9299 H   0  0  0  0  0  0  0  0  0  0  0  0
   -0.0903    0.8634   -4.3485 C   0  0  0  0  0  0  0  0  0  0  0  0
   -0.0777    1.5882   -5.1480 H   0  0  0  0  0  0  0  0  0  0  0  0
    0.4266   -0.4338   -4.5575 C   0  0  0  0  0  0  0  0  0  0  0  0
    0.9448   -0.7798   -5.7645 O   0  0  0  0  0  0  0  0  0  0  0  0
    0.8218   -0.0927   -6.4207 H   0  0  0  0  0  0  0  0  0  0  0  0
    0.4098   -1.3755   -3.5078 C   0  0  0  0  0  0  0  0  0  0  0  0
    0.8041   -2.3655   -3.6812 H   0  0  0  0  0  0  0  0  0  0  0  0
   -0.1270   -1.0244   -2.2546 C   0  0  0  0  0  0  0  0  0  0  0  0
   -0.1481   -1.7513   -1.4514 H   0  0  0  0  0  0  0  0  0  0  0  0
   -0.8664    0.0378    1.7736 C   0  0  0  0  0  0  0  0  0  0  0  0
    0.2529   -0.0672    2.2760 O   0  0  0  0  0  0  0  0  0  0  0  0
   -1.8947    0.5991    2.4221 N   0  0  0  0  0  0  0  0  0  0  0  0
   -2.7942    0.5936    1.9635 H   0  0  0  0  0  0  0  0  0  0  0  0
   -1.8170    1.1453    3.7750 C   0  0  0  0  0  0  0  0  0  0  0  0
   -0.9697    1.8290    3.8506 H   0  0  0  0  0  0  0  0  0  0  0  0
   -2.7354    1.6828    4.0167 H   0  0  0  0  0  0  0  0  0  0  0  0
   -1.6754    0.3334    4.4914 H   0  0  0  0  0  0  0  0  0  0  0  0
  5  6  2  0  0  0  0
  5  7  1  0  0  0  0
  2  3  1  0  0  0  0
  2  4  1  0  0  0  0
  2  5  1  0  0  0  0
  1  2  1  0  0  0  0
 26 27  2  0  0  0  0
 26 28  1  0  0  0  0
 24 25  1  0  0  0  0
 22 23  1  0  0  0  0
 22 24  2  0  0  0  0
 20 21  1  0  0  0  0
 19 20  1  0  0  0  0
 19 22  1  0  0  0  0
 17 18  1  0  0  0  0
 17 19  2  0  0  0  0
 15 16  1  0  0  0  0
 15 17  1  0  0  0  0
 14 15  2  0  0  0  0
 14 24  1  0  0  0  0
 11 12  1  0  0  0  0
 11 13  1  0  0  0  0
 11 14  1  0  0  0  0
  9 10  1  0  0  0  0
  9 11  1  0  0  0  0
  9 26  1  0  0  0  0
  7  8  1  0  0  0  0
  7  9  1  0  0  0  0
 30 31  1  0  0  0  0
 30 32  1  0  0  0  0
 30 33  1  0  0  0  0
 28 29  1  0  0  0  0
 28 30  1  0  0  0  0
M  END
$$$$
default_name
  -OEChem-02102213163D

 33 33  0     1  0  0  0  0  0999 V2000
   -4.0702   -3.8485    1.4554 H   0  0  0  0  0  0  0  0  0  0  0  0
   -4.0012   -2.9605    0.8284 C   0  0  0  0  0  0  0  0  0  0  0  0
   -4.7652   -2.2435    1.1234 H   0  0  0  0  0  0  0  0  0  0  0  0
   -4.1352   -3.2385   -0.2156 H   0  0  0  0  0  0  0  0  0  0  0  0
   -2.6362   -2.3395    1.0094 C   0  0  0  0  0  0  0  0  0  0  0  0
   -1.8292   -2.8395    1.7814 O   0  0  0  0  0  0  0  0  0  0  0  0
   -2.3832   -1.2445    0.2964 N   0  0  0  0  0  0  0  0  0  0  0  0
   -3.1102   -0.8685   -0.2946 H   0  0  0  0  0  0  0  0  0  0  0  0
   -1.1292   -0.4875    0.3524 C   0  0  1  0  0  0  0  0  0  0  0  0
   -0.3087   -1.1556    0.0882 H   0  0  0  0  0  0  0  0  0  0  0  0
   -1.1749    0.6534   -0.6787 C   0  0  0  0  0  0  0  0  0  0  0  0
   -2.2081    0.9825   -0.7975 H   0  0  0  0  0  0  0  0  0  0  0  0
   -0.6044    1.5004   -0.2940 H   0  0  0  0  0  0  0  0  0  0  0  0
   -0.6431    0.2692   -2.0459 C   0  0  0  0  0  0  0  0  0  0  0  0
   -0.3260    1.2650   -2.9914 C   0  0  0  0  0  0  0  0  0  0  0  0
   -0.4862    2.3083   -2.7532 H   0  0  0  0  0  0  0  0  0  0  0  0
    0.2058    0.9049   -4.2450 C   0  0  0  0  0  0  0  0  0  0  0  0
    0.4460    1.6699   -4.9672 H   0  0  0  0  0  0  0  0  0  0  0  0
    0.4246   -0.4558   -4.5521 C   0  0  0  0  0  0  0  0  0  0  0  0
    0.9397   -0.8131   -5.7571 O   0  0  0  0  0  0  0  0  0  0  0  0
    1.0287   -0.0643   -6.3482 H   0  0  0  0  0  0  0  0  0  0  0  0
    0.1112   -1.4506   -3.6028 C   0  0  0  0  0  0  0  0  0  0  0  0
    0.2789   -2.4878   -3.8511 H   0  0  0  0  0  0  0  0  0  0  0  0
   -0.4244   -1.0878   -2.3525 C   0  0  0  0  0  0  0  0  0  0  0  0
   -0.6736   -1.8532   -1.6272 H   0  0  0  0  0  0  0  0  0  0  0  0
   -0.8664    0.0378    1.7736 C   0  0  0  0  0  0  0  0  0  0  0  0
    0.2529   -0.0672    2.2760 O   0  0  0  0  0  0  0  0  0  0  0  0
   -1.8947    0.5991    2.4221 N   0  0  0  0  0  0  0  0  0  0  0  0
   -2.7942    0.5936    1.9635 H   0  0  0  0  0  0  0  0  0  0  0  0
   -1.8170    1.1453    3.7750 C   0  0  0  0  0  0  0  0  0  0  0  0
   -0.9697    1.8290    3.8506 H   0  0  0  0  0  0  0  0  0  0  0  0
   -2.7354    1.6828    4.0167 H   0  0  0  0  0  0  0  0  0  0  0  0
   -1.6754    0.3334    4.4914 H   0  0  0  0  0  0  0  0  0  0  0  0
  5  6  2  0  0  0  0
  5  7  1  0  0  0  0
  2  3  1  0  0  0  0
  2  4  1  0  0  0  0
  2  5  1  0  0  0  0
  1  2  1  0  0  0  0
 26 27  2  0  0  0  0
 26 28  1  0  0  0  0
 24 25  1  0  0  0  0
 22 23  1  0  0  0  0
 22 24  2  0  0  0  0
 20 21  1  0  0  0  0
 19 20  1  0  0  0  0
 19 22  1  0  0  0  0
 17 18  1  0  0  0  0
 17 19  2  0  0  0  0
 15 16  1  0  0  0  0
 15 17  1  0  0  0  0
 14 15  2  0  0  0  0
 14 24  1  0  0  0  0
 11 12  1  0  0  0  0
 11 13  1  0  0  0  0
 11 14  1  0  0  0  0
  9 10  1  0  0  0  0
  9 11  1  0  0  0  0
  9 26  1  0  0  0  0
  7  8  1  0  0  0  0
  7  9  1  0  0  0  0
 30 31  1  0  0  0  0
 30 32  1  0  0  0  0
 30 33  1  0  0  0  0
 28 29  1  0  0  0  0
 28 30  1  0  0  0  0
M  END
$$$$
default_name
  -OEChem-02102213163D

 33 33  0     1  0  0  0  0  0999 V2000
   -4.0702   -3.8485    1.4554 H   0  0  0  0  0  0  0  0  0  0  0  0
   -4.0012   -2.9605    0.8284 C   0  0  0  0  0  0  0  0  0  0  0  0
   -4.7652   -2.2435    1.1234 H   0  0  0  0  0  0  0  0  0  0  0  0
   -4.1352   -3.2385   -0.2156 H   0  0  0  0  0  0  0  0  0  0  0  0
   -2.6362   -2.3395    1.0094 C   0  0  0  0  0  0  0  0  0  0  0  0
   -1.8292   -2.8395    1.7814 O   0  0  0  0  0  0  0  0  0  0  0  0
   -2.3832   -1.2445    0.2964 N   0  0  0  0  0  0  0  0  0  0  0  0
   -3.1102   -0.8685   -0.2946 H   0  0  0  0  0  0  0  0  0  0  0  0
   -1.1292   -0.4875    0.3524 C   0  0  1  0  0  0  0  0  0  0  0  0
   -0.3087   -1.1556    0.0882 H   0  0  0  0  0  0  0  0  0  0  0  0
   -1.1749    0.6534   -0.6787 C   0  0  0  0  0  0  0  0  0  0  0  0
   -2.2081    0.9825   -0.7975 H   0  0  0  0  0  0  0  0  0  0  0  0
   -0.6044    1.5004   -0.2940 H   0  0  0  0  0  0  0  0  0  0  0  0
   -0.6431    0.2692   -2.0459 C   0  0  0  0  0  0  0  0  0  0  0  0
   -0.0339    1.2367   -2.8699 C   0  0  0  0  0  0  0  0  0  0  0  0
    0.0327    2.2649   -2.5391 H   0  0  0  0  0  0  0  0  0  0  0  0
    0.4948    0.8665   -4.1218 C   0  0  0  0  0  0  0  0  0  0  0  0
    0.9592    1.6103   -4.7509 H   0  0  0  0  0  0  0  0  0  0  0  0
    0.4171   -0.4770   -4.5491 C   0  0  0  0  0  0  0  0  0  0  0  0
    0.9265   -0.8447   -5.7534 O   0  0  0  0  0  0  0  0  0  0  0  0
    1.2305   -0.0918   -6.2620 H   0  0  0  0  0  0  0  0  0  0  0  0
   -0.1885   -1.4448   -3.7211 C   0  0  0  0  0  0  0  0  0  0  0  0
   -0.2458   -2.4680   -4.0608 H   0  0  0  0  0  0  0  0  0  0  0  0
   -0.7201   -1.0707   -2.4723 C   0  0  0  0  0  0  0  0  0  0  0  0
   -1.1935   -1.8131   -1.8407 H   0  0  0  0  0  0  0  0  0  0  0  0
   -0.8664    0.0378    1.7736 C   0  0  0  0  0  0  0  0  0  0  0  0
    0.2529   -0.0672    2.2760 O   0  0  0  0  0  0  0  0  0  0  0  0
   -1.8947    0.5991    2.4221 N   0  0  0  0  0  0  0  0  0  0  0  0
   -2.7942    0.5936    1.9635 H   0  0  0  0  0  0  0  0  0  0  0  0
   -1.8170    1.1453    3.7750 C   0  0  0  0  0  0  0  0  0  0  0  0
   -0.9697    1.8290    3.8506 H   0  0  0  0  0  0  0  0  0  0  0  0
   -2.7354    1.6828    4.0167 H   0  0  0  0  0  0  0  0  0  0  0  0
   -1.6754    0.3334    4.4914 H   0  0  0  0  0  0  0  0  0  0  0  0
  5  6  2  0  0  0  0
  5  7  1  0  0  0  0
  2  3  1  0  0  0  0
  2  4  1  0  0  0  0
  2  5  1  0  0  0  0
  1  2  1  0  0  0  0
 26 27  2  0  0  0  0
 26 28  1  0  0  0  0
 24 25  1  0  0  0  0
 22 23  1  0  0  0  0
 22 24  2  0  0  0  0
 20 21  1  0  0  0  0
 19 20  1  0  0  0  0
 19 22  1  0  0  0  0
 17 18  1  0  0  0  0
 17 19  2  0  0  0  0
 15 16  1  0  0  0  0
 15 17  1  0  0  0  0
 14 15  2  0  0  0  0
 14 24  1  0  0  0  0
 11 12  1  0  0  0  0
 11 13  1  0  0  0  0
 11 14  1  0  0  0  0
  9 10  1  0  0  0  0
  9 11  1  0  0  0  0
  9 26  1  0  0  0  0
  7  8  1  0  0  0  0
  7  9  1  0  0  0  0
 30 31  1  0  0  0  0
 30 32  1  0  0  0  0
 30 33  1  0  0  0  0
 28 29  1  0  0  0  0
 28 30  1  0  0  0  0
M  END
$$$$
default_name
  -OEChem-02102213163D

 33 33  0     1  0  0  0  0  0999 V2000
   -4.0702   -3.8485    1.4554 H   0  0  0  0  0  0  0  0  0  0  0  0
   -4.0012   -2.9605    0.8284 C   0  0  0  0  0  0  0  0  0  0  0  0
   -4.7652   -2.2435    1.1234 H   0  0  0  0  0  0  0  0  0  0  0  0
   -4.1352   -3.2385   -0.2156 H   0  0  0  0  0  0  0  0  0  0  0  0
   -2.6362   -2.3395    1.0094 C   0  0  0  0  0  0  0  0  0  0  0  0
   -1.8292   -2.8395    1.7814 O   0  0  0  0  0  0  0  0  0  0  0  0
   -2.3832   -1.2445    0.2964 N   0  0  0  0  0  0  0  0  0  0  0  0
   -3.1102   -0.8685   -0.2946 H   0  0  0  0  0  0  0  0  0  0  0  0
   -1.1292   -0.4875    0.3524 C   0  0  1  0  0  0  0  0  0  0  0  0
   -0.3087   -1.1556    0.0882 H   0  0  0  0  0  0  0  0  0  0  0  0
   -1.1749    0.6534   -0.6787 C   0  0  0  0  0  0  0  0  0  0  0  0
   -2.2081    0.9825   -0.7975 H   0  0  0  0  0  0  0  0  0  0  0  0
   -0.6044    1.5004   -0.2940 H   0  0  0  0  0  0  0  0  0  0  0  0
   -0.6431    0.2692   -2.0459 C   0  0  0  0  0  0  0  0  0  0  0  0
    0.2336    1.1303   -2.7359 C   0  0  0  0  0  0  0  0  0  0  0  0
    0.5098    2.0825   -2.3022 H   0  0  0  0  0  0  0  0  0  0  0  0
    0.7568    0.7508   -3.9873 C   0  0  0  0  0  0  0  0  0  0  0  0
    1.4267    1.4133   -4.5136 H   0  0  0  0  0  0  0  0  0  0  0  0
    0.4047   -0.4961   -4.5485 C   0  0  0  0  0  0  0  0  0  0  0  0
    0.9062   -0.8725   -5.7535 O   0  0  0  0  0  0  0  0  0  0  0  0
    1.4133   -0.1732   -6.1680 H   0  0  0  0  0  0  0  0  0  0  0  0
   -0.4689   -1.3586   -3.8544 C   0  0  0  0  0  0  0  0  0  0  0  0
   -0.7342   -2.3074   -4.2959 H   0  0  0  0  0  0  0  0  0  0  0  0
   -0.9938   -0.9744   -2.6058 C   0  0  0  0  0  0  0  0  0  0  0  0
   -1.6722   -1.6336   -2.0774 H   0  0  0  0  0  0  0  0  0  0  0  0
   -0.8664    0.0378    1.7736 C   0  0  0  0  0  0  0  0  0  0  0  0
    0.2529   -0.0672    2.2760 O   0  0  0  0  0  0  0  0  0  0  0  0
   -1.8947    0.5991    2.4221 N   0  0  0  0  0  0  0  0  0  0  0  0
   -2.7942    0.5936    1.9635 H   0  0  0  0  0  0  0  0  0  0  0  0
   -1.8170    1.1453    3.7750 C   0  0  0  0  0  0  0  0  0  0  0  0
   -0.9697    1.8290    3.8506 H   0  0  0  0  0  0  0  0  0  0  0  0
   -2.7354    1.6828    4.0167 H   0  0  0  0  0  0  0  0  0  0  0  0
   -1.6754    0.3334    4.4914 H   0  0  0  0  0  0  0  0  0  0  0  0
  5  6  2  0  0  0  0
  5  7  1  0  0  0  0
  2  3  1  0  0  0  0
  2  4  1  0  0  0  0
  2  5  1  0  0  0  0
  1  2  1  0  0  0  0
 26 27  2  0  0  0  0
 26 28  1  0  0  0  0
 24 25  1  0  0  0  0
 22 23  1  0  0  0  0
 22 24  2  0  0  0  0
 20 21  1  0  0  0  0
 19 20  1  0  0  0  0
 19 22  1  0  0  0  0
 17 18  1  0  0  0  0
 17 19  2  0  0  0  0
 15 16  1  0  0  0  0
 15 17  1  0  0  0  0
 14 15  2  0  0  0  0
 14 24  1  0  0  0  0
 11 12  1  0  0  0  0
 11 13  1  0  0  0  0
 11 14  1  0  0  0  0
  9 10  1  0  0  0  0
  9 11  1  0  0  0  0
  9 26  1  0  0  0  0
  7  8  1  0  0  0  0
  7  9  1  0  0  0  0
 30 31  1  0  0  0  0
 30 32  1  0  0  0  0
 30 33  1  0  0  0  0
 28 29  1  0  0  0  0
 28 30  1  0  0  0  0
M  END
$$$$
default_name
  -OEChem-02102213163D

 33 33  0     1  0  0  0  0  0999 V2000
   -4.0702   -3.8485    1.4554 H   0  0  0  0  0  0  0  0  0  0  0  0
   -4.0012   -2.9605    0.8284 C   0  0  0  0  0  0  0  0  0  0  0  0
   -4.7652   -2.2435    1.1234 H   0  0  0  0  0  0  0  0  0  0  0  0
   -4.1352   -3.2385   -0.2156 H   0  0  0  0  0  0  0  0  0  0  0  0
   -2.6362   -2.3395    1.0094 C   0  0  0  0  0  0  0  0  0  0  0  0
   -1.8292   -2.8395    1.7814 O   0  0  0  0  0  0  0  0  0  0  0  0
   -2.3832   -1.2445    0.2964 N   0  0  0  0  0  0  0  0  0  0  0  0
   -3.1102   -0.8685   -0.2946 H   0  0  0  0  0  0  0  0  0  0  0  0
   -1.1292   -0.4875    0.3524 C   0  0  1  0  0  0  0  0  0  0  0  0
   -0.3087   -1.1556    0.0882 H   0  0  0  0  0  0  0  0  0  0  0  0
   -1.1749    0.6534   -0.6787 C   0  0  0  0  0  0  0  0  0  0  0  0
   -2.2081    0.9825   -0.7975 H   0  0  0  0  0  0  0  0  0  0  0  0
   -0.6044    1.5004   -0.2940 H   0  0  0  0  0  0  0  0  0  0  0  0
   -0.6431    0.2692   -2.0459 C   0  0  0  0  0  0  0  0  0  0  0  0
    0.4585    0.9528   -2.5986 C   0  0  0  0  0  0  0  0  0  0  0  0
    0.9126    1.7734   -2.0587 H   0  0  0  0  0  0  0  0  0  0  0  0
    0.9742    0.5656   -3.8507 C   0  0  0  0  0  0  0  0  0  0  0  0
    1.8168    1.0924   -4.2717 H   0  0  0  0  0  0  0  0  0  0  0  0
    0.3882   -0.5116   -4.5506 C   0  0  0  0  0  0  0  0  0  0  0  0
    0.8800   -0.8946   -5.7574 O   0  0  0  0  0  0  0  0  0  0  0  0
    1.5647   -0.3031   -6.0726 H   0  0  0  0  0  0  0  0  0  0  0  0
   -0.7109   -1.1978   -3.9937 C   0  0  0  0  0  0  0  0  0  0  0  0
   -1.1531   -2.0170   -4.5405 H   0  0  0  0  0  0  0  0  0  0  0  0
   -1.2270   -0.8054   -2.7441 C   0  0  0  0  0  0  0  0  0  0  0  0
   -2.0773   -1.3271   -2.3211 H   0  0  0  0  0  0  0  0  0  0  0  0
   -0.8664    0.0378    1.7736 C   0  0  0  0  0  0  0  0  0  0  0  0
    0.2529   -0.0672    2.2760 O   0  0  0  0  0  0  0  0  0  0  0  0
   -1.8947    0.5991    2.4221 N   0  0  0  0  0  0  0  0  0  0  0  0
   -2.7942    0.5936    1.9635 H   0  0  0  0  0  0  0  0  0  0  0  0
   -1.8170    1.1453    3.7750 C   0  0  0  0  0  0  0  0  0  0  0  0
   -0.9697    1.8290    3.8506 H   0  0  0  0  0  0  0  0  0  0  0  0
   -2.7354    1.6828    4.0167 H   0  0  0  0  0  0  0  0  0  0  0  0
   -1.6754    0.3334    4.4914 H   0  0  0  0  0  0  0  0  0  0  0  0
  5  6  2  0  0  0  0
  5  7  1  0  0  0  0
  2  3  1  0  0  0  0
  2  4  1  0  0  0  0
  2  5  1  0  0  0  0
  1  2  1  0  0  0  0
 26 27  2  0  0  0  0
 26 28  1  0  0  0  0
 24 25  1  0  0  0  0
 22 23  1  0  0  0  0
 22 24  2  0  0  0  0
 20 21  1  0  0  0  0
 19 20  1  0  0  0  0
 19 22  1  0  0  0  0
 17 18  1  0  0  0  0
 17 19  2  0  0  0  0
 15 16  1  0  0  0  0
 15 17  1  0  0  0  0
 14 15  2  0  0  0  0
 14 24  1  0  0  0  0
 11 12  1  0  0  0  0
 11 13  1  0  0  0  0
 11 14  1  0  0  0  0
  9 10  1  0  0  0  0
  9 11  1  0  0  0  0
  9 26  1  0  0  0  0
  7  8  1  0  0  0  0
  7  9  1  0  0  0  0
 30 31  1  0  0  0  0
 30 32  1  0  0  0  0
 30 33  1  0  0  0  0
 28 29  1  0  0  0  0
 28 30  1  0  0  0  0
M  END
$$$$
default_name
  -OEChem-02102213163D

 33 33  0     1  0  0  0  0  0999 V2000
   -4.0702   -3.8485    1.4554 H   0  0  0  0  0  0  0  0  0  0  0  0
   -4.0012   -2.9605    0.8284 C   0  0  0  0  0  0  0  0  0  0  0  0
   -4.7652   -2.2435    1.1234 H   0  0  0  0  0  0  0  0  0  0  0  0
   -4.1352   -3.2385   -0.2156 H   0  0  0  0  0  0  0  0  0  0  0  0
   -2.6362   -2.3395    1.0094 C   0  0  0  0  0  0  0  0  0  0  0  0
   -1.8292   -2.8395    1.7814 O   0  0  0  0  0  0  0  0  0  0  0  0
   -2.3832   -1.2445    0.2964 N   0  0  0  0  0  0  0  0  0  0  0  0
   -3.1102   -0.8685   -0.2946 H   0  0  0  0  0  0  0  0  0  0  0  0
   -1.1292   -0.4875    0.3524 C   0  0  1  0  0  0  0  0  0  0  0  0
   -0.3087   -1.1556    0.0882 H   0  0  0  0  0  0  0  0  0  0  0  0
   -1.1749    0.6534   -0.6787 C   0  0  0  0  0  0  0  0  0  0  0  0
   -2.2081    0.9825   -0.7975 H   0  0  0  0  0  0  0  0  0  0  0  0
   -0.6044    1.5004   -0.2940 H   0  0  0  0  0  0  0  0  0  0  0  0
   -0.6431    0.2692   -2.0459 C   0  0  0  0  0  0  0  0  0  0  0  0
    0.6252    0.7165   -2.4673 C   0  0  0  0  0  0  0  0  0  0  0  0
    1.2135    1.3588   -1.8251 H   0  0  0  0  0  0  0  0  0  0  0  0
    1.1319    0.3237   -3.7214 C   0  0  0  0  0  0  0  0  0  0  0  0
    2.1028    0.6694   -4.0415 H   0  0  0  0  0  0  0  0  0  0  0  0
    0.3688   -0.5226   -4.5550 C   0  0  0  0  0  0  0  0  0  0  0  0
    0.8499   -0.9095   -5.7650 O   0  0  0  0  0  0  0  0  0  0  0  0
    1.6743   -0.4725   -5.9823 H   0  0  0  0  0  0  0  0  0  0  0  0
   -0.8980   -0.9733   -4.1296 C   0  0  0  0  0  0  0  0  0  0  0  0
   -1.4739   -1.6165   -4.7778 H   0  0  0  0  0  0  0  0  0  0  0  0
   -1.4037   -0.5752   -2.8775 C   0  0  0  0  0  0  0  0  0  0  0  0
   -2.3811   -0.9143   -2.5553 H   0  0  0  0  0  0  0  0  0  0  0  0
   -0.8664    0.0378    1.7736 C   0  0  0  0  0  0  0  0  0  0  0  0
    0.2529   -0.0672    2.2760 O   0  0  0  0  0  0  0  0  0  0  0  0
   -1.8947    0.5991    2.4221 N   0  0  0  0  0  0  0  0  0  0  0  0
   -2.7942    0.5936    1.9635 H   0  0  0  0  0  0  0  0  0  0  0  0
   -1.8170    1.1453    3.7750 C   0  0  0  0  0  0  0  0  0  0  0  0
   -0.9697    1.8290    3.8506 H   0  0  0  0  0  0  0  0  0  0  0  0
   -2.7354    1.6828    4.0167 H   0  0  0  0  0  0  0  0  0  0  0  0
   -1.6754    0.3334    4.4914 H   0  0  0  0  0  0  0  0  0  0  0  0
  5  6  2  0  0  0  0
  5  7  1  0  0  0  0
  2  3  1  0  0  0  0
  2  4  1  0  0  0  0
  2  5  1  0  0  0  0
  1  2  1  0  0  0  0
 26 27  2  0  0  0  0
 26 28  1  0  0  0  0
 24 25  1  0  0  0  0
 22 23  1  0  0  0  0
 22 24  2  0  0  0  0
 20 21  1  0  0  0  0
 19 20  1  0  0  0  0
 19 22  1  0  0  0  0
 17 18  1  0  0  0  0
 17 19  2  0  0  0  0
 15 16  1  0  0  0  0
 15 17  1  0  0  0  0
 14 15  2  0  0  0  0
 14 24  1  0  0  0  0
 11 12  1  0  0  0  0
 11 13  1  0  0  0  0
 11 14  1  0  0  0  0
  9 10  1  0  0  0  0
  9 11  1  0  0  0  0
  9 26  1  0  0  0  0
  7  8  1  0  0  0  0
  7  9  1  0  0  0  0
 30 31  1  0  0  0  0
 30 32  1  0  0  0  0
 30 33  1  0  0  0  0
 28 29  1  0  0  0  0
 28 30  1  0  0  0  0
M  END
$$$$
default_name
  -OEChem-02102213163D

 33 33  0     1  0  0  0  0  0999 V2000
   -4.0702   -3.8485    1.4554 H   0  0  0  0  0  0  0  0  0  0  0  0
   -4.0012   -2.9605    0.8284 C   0  0  0  0  0  0  0  0  0  0  0  0
   -4.7652   -2.2435    1.1234 H   0  0  0  0  0  0  0  0  0  0  0  0
   -4.1352   -3.2385   -0.2156 H   0  0  0  0  0  0  0  0  0  0  0  0
   -2.6362   -2.3395    1.0094 C   0  0  0  0  0  0  0  0  0  0  0  0
   -1.8292   -2.8395    1.7814 O   0  0  0  0  0  0  0  0  0  0  0  0
   -2.3832   -1.2445    0.2964 N   0  0  0  0  0  0  0  0  0  0  0  0
   -3.1102   -0.8685   -0.2946 H   0  0  0  0  0  0  0  0  0  0  0  0
   -1.1292   -0.4875    0.3524 C   0  0  1  0  0  0  0  0  0  0  0  0
   -0.3087   -1.1556    0.0882 H   0  0  0  0  0  0  0  0  0  0  0  0
   -1.1749    0.6534   -0.6787 C   0  0  0  0  0  0  0  0  0  0  0  0
   -2.2081    0.9825   -0.7975 H   0  0  0  0  0  0  0  0  0  0  0  0
   -0.6044    1.5004   -0.2940 H   0  0  0  0  0  0  0  0  0  0  0  0
   -0.6431    0.2692   -2.0459 C   0  0  0  0  0  0  0  0  0  0  0  0
    0.7225    0.4375   -2.3510 C   0  0  0  0  0  0  0  0  0  0  0  0
    1.3922    0.8669   -1.6174 H   0  0  0  0  0  0  0  0  0  0  0  0
    1.2194    0.0415   -3.6080 C   0  0  0  0  0  0  0  0  0  0  0  0
    2.2653    0.1733   -3.8389 H   0  0  0  0  0  0  0  0  0  0  0  0
    0.3478   -0.5283   -4.5616 C   0  0  0  0  0  0  0  0  0  0  0  0
    0.8178   -0.9161   -5.7756 O   0  0  0  0  0  0  0  0  0  0  0  0
    1.7348   -0.6699   -5.9033 H   0  0  0  0  0  0  0  0  0  0  0  0
   -1.0175   -0.7005   -4.2527 C   0  0  0  0  0  0  0  0  0  0  0  0
   -1.6748   -1.1333   -4.9918 H   0  0  0  0  0  0  0  0  0  0  0  0
   -1.5120   -0.2994   -2.9971 C   0  0  0  0  0  0  0  0  0  0  0  0
   -2.5628   -0.4235   -2.7640 H   0  0  0  0  0  0  0  0  0  0  0  0
   -0.8664    0.0378    1.7736 C   0  0  0  0  0  0  0  0  0  0  0  0
    0.2529   -0.0672    2.2760 O   0  0  0  0  0  0  0  0  0  0  0  0
   -1.8947    0.5991    2.4221 N   0  0  0  0  0  0  0  0  0  0  0  0
   -2.7942    0.5936    1.9635 H   0  0  0  0  0  0  0  0  0  0  0  0
   -1.8170    1.1453    3.7750 C   0  0  0  0  0  0  0  0  0  0  0  0
   -0.9697    1.8290    3.8506 H   0  0  0  0  0  0  0  0  0  0  0  0
   -2.7354    1.6828    4.0167 H   0  0  0  0  0  0  0  0  0  0  0  0
   -1.6754    0.3334    4.4914 H   0  0  0  0  0  0  0  0  0  0  0  0
  5  6  2  0  0  0  0
  5  7  1  0  0  0  0
  2  3  1  0  0  0  0
  2  4  1  0  0  0  0
  2  5  1  0  0  0  0
  1  2  1  0  0  0  0
 26 27  2  0  0  0  0
 26 28  1  0  0  0  0
 24 25  1  0  0  0  0
 22 23  1  0  0  0  0
 22 24  2  0  0  0  0
 20 21  1  0  0  0  0
 19 20  1  0  0  0  0
 19 22  1  0  0  0  0
 17 18  1  0  0  0  0
 17 19  2  0  0  0  0
 15 16  1  0  0  0  0
 15 17  1  0  0  0  0
 14 15  2  0  0  0  0
 14 24  1  0  0  0  0
 11 12  1  0  0  0  0
 11 13  1  0  0  0  0
 11 14  1  0  0  0  0
  9 10  1  0  0  0  0
  9 11  1  0  0  0  0
  9 26  1  0  0  0  0
  7  8  1  0  0  0  0
  7  9  1  0  0  0  0
 30 31  1  0  0  0  0
 30 32  1  0  0  0  0
 30 33  1  0  0  0  0
 28 29  1  0  0  0  0
 28 30  1  0  0  0  0
M  END
$$$$
default_name
  -OEChem-02102213163D

 33 33  0     1  0  0  0  0  0999 V2000
   -4.0702   -3.8485    1.4554 H   0  0  0  0  0  0  0  0  0  0  0  0
   -4.0012   -2.9605    0.8284 C   0  0  0  0  0  0  0  0  0  0  0  0
   -4.7652   -2.2435    1.1234 H   0  0  0  0  0  0  0  0  0  0  0  0
   -4.1352   -3.2385   -0.2156 H   0  0  0  0  0  0  0  0  0  0  0  0
   -2.6362   -2.3395    1.0094 C   0  0  0  0  0  0  0  0  0  0  0  0
   -1.8292   -2.8395    1.7814 O   0  0  0  0  0  0  0  0  0  0  0  0
   -2.3832   -1.2445    0.2964 N   0  0  0  0  0  0  0  0  0  0  0  0
   -3.1102   -0.8685   -0.2946 H   0  0  0  0  0  0  0  0  0  0  0  0
   -1.1292   -0.4875    0.3524 C   0  0  1  0  0  0  0  0  0  0  0  0
   -0.3087   -1.1556    0.0882 H   0  0  0  0  0  0  0  0  0  0  0  0
   -1.1749    0.6534   -0.6787 C   0  0  0  0  0  0  0  0  0  0  0  0
   -2.2081    0.9825   -0.7975 H   0  0  0  0  0  0  0  0  0  0  0  0
   -0.6044    1.5004   -0.2940 H   0  0  0  0  0  0  0  0  0  0  0  0
   -0.6431    0.2692   -2.0459 C   0  0  0  0  0  0  0  0  0  0  0  0
    0.7438    0.1347   -2.2576 C   0  0  0  0  0  0  0  0  0  0  0  0
    1.4363    0.3313   -1.4497 H   0  0  0  0  0  0  0  0  0  0  0  0
    1.2306   -0.2618   -3.5184 C   0  0  0  0  0  0  0  0  0  0  0  0
    2.2932   -0.3623   -3.6775 H   0  0  0  0  0  0  0  0  0  0  0  0
    0.3266   -0.5283   -4.5698 C   0  0  0  0  0  0  0  0  0  0  0  0
    0.7859   -0.9141   -5.7886 O   0  0  0  0  0  0  0  0  0  0  0  0
    1.7420   -0.8819   -5.8409 H   0  0  0  0  0  0  0  0  0  0  0  0
   -1.0611   -0.3979   -4.3548 C   0  0  0  0  0  0  0  0  0  0  0  0
   -1.7420   -0.6002   -5.1678 H   0  0  0  0  0  0  0  0  0  0  0  0
   -1.5443    0.0030   -3.0947 C   0  0  0  0  0  0  0  0  0  0  0  0
   -2.6101    0.1119   -2.9329 H   0  0  0  0  0  0  0  0  0  0  0  0
   -0.8664    0.0378    1.7736 C   0  0  0  0  0  0  0  0  0  0  0  0
    0.2529   -0.0672    2.2760 O   0  0  0  0  0  0  0  0  0  0  0  0
   -1.8947    0.5991    2.4221 N   0  0  0  0  0  0  0  0  0  0  0  0
   -2.7942    0.5936    1.9635 H   0  0  0  0  0  0  0  0  0  0  0  0
   -1.8170    1.1453    3.7750 C   0  0  0  0  0  0  0  0  0  0  0  0
   -0.9697    1.8290    3.8506 H   0  0  0  0  0  0  0  0  0  0  0  0
   -2.7354    1.6828    4.0167 H   0  0  0  0  0  0  0  0  0  0  0  0
   -1.6754    0.3334    4.4914 H   0  0  0  0  0  0  0  0  0  0  0  0
  5  6  2  0  0  0  0
  5  7  1  0  0  0  0
  2  3  1  0  0  0  0
  2  4  1  0  0  0  0
  2  5  1  0  0  0  0
  1  2  1  0  0  0  0
 26 27  2  0  0  0  0
 26 28  1  0  0  0  0
 24 25  1  0  0  0  0
 22 23  1  0  0  0  0
 22 24  2  0  0  0  0
 20 21  1  0  0  0  0
 19 20  1  0  0  0  0
 19 22  1  0  0  0  0
 17 18  1  0  0  0  0
 17 19  2  0  0  0  0
 15 16  1  0  0  0  0
 15 17  1  0  0  0  0
 14 15  2  0  0  0  0
 14 24  1  0  0  0  0
 11 12  1  0  0  0  0
 11 13  1  0  0  0  0
 11 14  1  0  0  0  0
  9 10  1  0  0  0  0
  9 11  1  0  0  0  0
  9 26  1  0  0  0  0
  7  8  1  0  0  0  0
  7  9  1  0  0  0  0
 30 31  1  0  0  0  0
 30 32  1  0  0  0  0
 30 33  1  0  0  0  0
 28 29  1  0  0  0  0
 28 30  1  0  0  0  0
M  END
$$$$
default_name
  -OEChem-02102213163D

 33 33  0     1  0  0  0  0  0999 V2000
   -4.0702   -3.8485    1.4554 H   0  0  0  0  0  0  0  0  0  0  0  0
   -4.0012   -2.9605    0.8284 C   0  0  0  0  0  0  0  0  0  0  0  0
   -4.7652   -2.2435    1.1234 H   0  0  0  0  0  0  0  0  0  0  0  0
   -4.1352   -3.2385   -0.2156 H   0  0  0  0  0  0  0  0  0  0  0  0
   -2.6362   -2.3395    1.0094 C   0  0  0  0  0  0  0  0  0  0  0  0
   -1.8292   -2.8395    1.7814 O   0  0  0  0  0  0  0  0  0  0  0  0
   -2.3832   -1.2445    0.2964 N   0  0  0  0  0  0  0  0  0  0  0  0
   -3.1102   -0.8685   -0.2946 H   0  0  0  0  0  0  0  0  0  0  0  0
   -1.1292   -0.4875    0.3524 C   0  0  1  0  0  0  0  0  0  0  0  0
   -0.3087   -1.1556    0.0882 H   0  0  0  0  0  0  0  0  0  0  0  0
   -1.1749    0.6534   -0.6787 C   0  0  0  0  0  0  0  0  0  0  0  0
   -2.2081    0.9825   -0.7975 H   0  0  0  0  0  0  0  0  0  0  0  0
   -0.6044    1.5004   -0.2940 H   0  0  0  0  0  0  0  0  0  0  0  0
   -0.6431    0.2692   -2.0459 C   0  0  0  0  0  0  0  0  0  0  0  0
    0.6875   -0.1713   -2.1935 C   0  0  0  0  0  0  0  0  0  0  0  0
    1.3429   -0.2117   -1.3334 H   0  0  0  0  0  0  0  0  0  0  0  0
    1.1647   -0.5656   -3.4587 C   0  0  0  0  0  0  0  0  0  0  0  0
    2.1846   -0.9008   -3.5684 H   0  0  0  0  0  0  0  0  0  0  0  0
    0.3067   -0.5226   -4.5792 C   0  0  0  0  0  0  0  0  0  0  0  0
    0.7564   -0.9035   -5.8030 O   0  0  0  0  0  0  0  0  0  0  0  0
    1.6954   -1.0940   -5.7994 H   0  0  0  0  0  0  0  0  0  0  0  0
   -1.0259   -0.0862   -4.4287 C   0  0  0  0  0  0  0  0  0  0  0  0
   -1.6710   -0.0537   -5.2938 H   0  0  0  0  0  0  0  0  0  0  0  0
   -1.4986    0.3116   -3.1636 C   0  0  0  0  0  0  0  0  0  0  0  0
   -2.5198    0.6555   -3.0505 H   0  0  0  0  0  0  0  0  0  0  0  0
   -0.8664    0.0378    1.7736 C   0  0  0  0  0  0  0  0  0  0  0  0
    0.2529   -0.0672    2.2760 O   0  0  0  0  0  0  0  0  0  0  0  0
   -1.8947    0.5991    2.4221 N   0  0  0  0  0  0  0  0  0  0  0  0
   -2.7942    0.5936    1.9635 H   0  0  0  0  0  0  0  0  0  0  0  0
   -1.8170    1.1453    3.7750 C   0  0  0  0  0  0  0  0  0  0  0  0
   -0.9697    1.8290    3.8506 H   0  0  0  0  0  0  0  0  0  0  0  0
   -2.7354    1.6828    4.0167 H   0  0  0  0  0  0  0  0  0  0  0  0
   -1.6754    0.3334    4.4914 H   0  0  0  0  0  0  0  0  0  0  0  0
  5  6  2  0  0  0  0
  5  7  1  0  0  0  0
  2  3  1  0  0  0  0
  2  4  1  0  0  0  0
  2  5  1  0  0  0  0
  1  2  1  0  0  0  0
 26 27  2  0  0  0  0
 26 28  1  0  0  0  0
 24 25  1  0  0  0  0
 22 23  1  0  0  0  0
 22 24  2  0  0  0  0
 20 21  1  0  0  0  0
 19 20  1  0  0  0  0
 19 22  1  0  0  0  0
 17 18  1  0  0  0  0
 17 19  2  0  0  0  0
 15 16  1  0  0  0  0
 15 17  1  0  0  0  0
 14 15  2  0  0  0  0
 14 24  1  0  0  0  0
 11 12  1  0  0  0  0
 11 13  1  0  0  0  0
 11 14  1  0  0  0  0
  9 10  1  0  0  0  0
  9 11  1  0  0  0  0
  9 26  1  0  0  0  0
  7  8  1  0  0  0  0
  7  9  1  0  0  0  0
 30 31  1  0  0  0  0
 30 32  1  0  0  0  0
 30 33  1  0  0  0  0
 28 29  1  0  0  0  0
 28 30  1  0  0  0  0
M  END
$$$$
default_name
  -OEChem-02102213163D

 33 33  0     1  0  0  0  0  0999 V2000
   -4.0702   -3.8485    1.4554 H   0  0  0  0  0  0  0  0  0  0  0  0
   -4.0012   -2.9605    0.8284 C   0  0  0  0  0  0  0  0  0  0  0  0
   -4.7652   -2.2435    1.1234 H   0  0  0  0  0  0  0  0  0  0  0  0
   -4.1352   -3.2385   -0.2156 H   0  0  0  0  0  0  0  0  0  0  0  0
   -2.6362   -2.3395    1.0094 C   0  0  0  0  0  0  0  0  0  0  0  0
   -1.8292   -2.8395    1.7814 O   0  0  0  0  0  0  0  0  0  0  0  0
   -2.3832   -1.2445    0.2964 N   0  0  0  0  0  0  0  0  0  0  0  0
   -3.1102   -0.8685   -0.2946 H   0  0  0  0  0  0  0  0  0  0  0  0
   -1.1292   -0.4875    0.3524 C   0  0  1  0  0  0  0  0  0  0  0  0
   -0.3087   -1.1556    0.0882 H   0  0  0  0  0  0  0  0  0  0  0  0
   -1.1749    0.6534   -0.6787 C   0  0  0  0  0  0  0  0  0  0  0  0
   -2.2081    0.9825   -0.7975 H   0  0  0  0  0  0  0  0  0  0  0  0
   -0.6044    1.5004   -0.2940 H   0  0  0  0  0  0  0  0  0  0  0  0
   -0.6431    0.2692   -2.0459 C   0  0  0  0  0  0  0  0  0  0  0  0
    0.5576   -0.4595   -2.1631 C   0  0  0  0  0  0  0  0  0  0  0  0
    1.1184   -0.7249   -1.2765 H   0  0  0  0  0  0  0  0  0  0  0  0
    1.0263   -0.8490   -3.4329 C   0  0  0  0  0  0  0  0  0  0  0  0
    1.9469   -1.4055   -3.5190 H   0  0  0  0  0  0  0  0  0  0  0  0
    0.2894   -0.5116   -4.5890 C   0  0  0  0  0  0  0  0  0  0  0  0
    0.7314   -0.8851   -5.8179 O   0  0  0  0  0  0  0  0  0  0  0  0
    1.5982   -1.2918   -5.7817 H   0  0  0  0  0  0  0  0  0  0  0  0
   -0.9144    0.2133   -4.4695 C   0  0  0  0  0  0  0  0  0  0  0  0
   -1.4667    0.4691   -5.3612 H   0  0  0  0  0  0  0  0  0  0  0  0
   -1.3779    0.6052   -3.1992 C   0  0  0  0  0  0  0  0  0  0  0  0
   -2.2981    1.1702   -3.1089 H   0  0  0  0  0  0  0  0  0  0  0  0
   -0.8664    0.0378    1.7736 C   0  0  0  0  0  0  0  0  0  0  0  0
    0.2529   -0.0672    2.2760 O   0  0  0  0  0  0  0  0  0  0  0  0
   -1.8947    0.5991    2.4221 N   0  0  0  0  0  0  0  0  0  0  0  0
   -2.7942    0.5936    1.9635 H   0  0  0  0  0  0  0  0  0  0  0  0
   -1.8170    1.1453    3.7750 C   0  0  0  0  0  0  0  0  0  0  0  0
   -0.9697    1.8290    3.8506 H   0  0  0  0  0  0  0  0  0  0  0  0
   -2.7354    1.6828    4.0167 H   0  0  0  0  0  0  0  0  0  0  0  0
   -1.6754    0.3334    4.4914 H   0  0  0  0  0  0  0  0  0  0  0  0
  5  6  2  0  0  0  0
  5  7  1  0  0  0  0
  2  3  1  0  0  0  0
  2  4  1  0  0  0  0
  2  5  1  0  0  0  0
  1  2  1  0  0  0  0
 26 27  2  0  0  0  0
 26 28  1  0  0  0  0
 24 25  1  0  0  0  0
 22 23  1  0  0  0  0
 22 24  2  0  0  0  0
 20 21  1  0  0  0  0
 19 20  1  0  0  0  0
 19 22  1  0  0  0  0
 17 18  1  0  0  0  0
 17 19  2  0  0  0  0
 15 16  1  0  0  0  0
 15 17  1  0  0  0  0
 14 15  2  0  0  0  0
 14 24  1  0  0  0  0
 11 12  1  0  0  0  0
 11 13  1  0  0  0  0
 11 14  1  0  0  0  0
  9 10  1  0  0  0  0
  9 11  1  0  0  0  0
  9 26  1  0  0  0  0
  7  8  1  0  0  0  0
  7  9  1  0  0  0  0
 30 31  1  0  0  0  0
 30 32  1  0  0  0  0
 30 33  1  0  0  0  0
 28 29  1  0  0  0  0
 28 30  1  0  0  0  0
M  END
$$$$
default_name
  -OEChem-02102213163D

 33 33  0     1  0  0  0  0  0999 V2000
   -4.0702   -3.8485    1.4554 H   0  0  0  0  0  0  0  0  0  0  0  0
   -4.0012   -2.9605    0.8284 C   0  0  0  0  0  0  0  0  0  0  0  0
   -4.7652   -2.2435    1.1234 H   0  0  0  0  0  0  0  0  0  0  0  0
   -4.1352   -3.2385   -0.2156 H   0  0  0  0  0  0  0  0  0  0  0  0
   -2.6362   -2.3395    1.0094 C   0  0  0  0  0  0  0  0  0  0  0  0
   -1.8292   -2.8395    1.7814 O   0  0  0  0  0  0  0  0  0  0  0  0
   -2.3832   -1.2445    0.2964 N   0  0  0  0  0  0  0  0  0  0  0  0
   -3.1102   -0.8685   -0.2946 H   0  0  0  0  0  0  0  0  0  0  0  0
   -1.1292   -0.4875    0.3524 C   0  0  1  0  0  0  0  0  0  0  0  0
   -0.3087   -1.1556    0.0882 H   0  0  0  0  0  0  0  0  0  0  0  0
   -1.1749    0.6534   -0.6787 C   0  0  0  0  0  0  0  0  0  0  0  0
   -2.2081    0.9825   -0.7975 H   0  0  0  0  0  0  0  0  0  0  0  0
   -0.6044    1.5004   -0.2940 H   0  0  0  0  0  0  0  0  0  0  0  0
   -0.6431    0.2692   -2.0459 C   0  0  0  0  0  0  0  0  0  0  0  0
    0.3628   -0.7103   -2.1683 C   0  0  0  0  0  0  0  0  0  0  0  0
    0.7781   -1.1734   -1.2828 H   0  0  0  0  0  0  0  0  0  0  0  0
    0.8248   -1.0928   -3.4427 C   0  0  0  0  0  0  0  0  0  0  0  0
    1.5963   -1.8421   -3.5327 H   0  0  0  0  0  0  0  0  0  0  0  0
    0.2759   -0.4961   -4.5986 C   0  0  0  0  0  0  0  0  0  0  0  0
    0.7125   -0.8602   -5.8323 O   0  0  0  0  0  0  0  0  0  0  0  0
    1.4569   -1.4618   -5.7888 H   0  0  0  0  0  0  0  0  0  0  0  0
   -0.7341    0.4804   -4.4744 C   0  0  0  0  0  0  0  0  0  0  0  0
   -1.1428    0.9326   -5.3655 H   0  0  0  0  0  0  0  0  0  0  0  0
   -1.1905    0.8639   -3.1990 C   0  0  0  0  0  0  0  0  0  0  0  0
   -1.9599    1.6208   -3.1040 H   0  0  0  0  0  0  0  0  0  0  0  0
   -0.8664    0.0378    1.7736 C   0  0  0  0  0  0  0  0  0  0  0  0
    0.2529   -0.0672    2.2760 O   0  0  0  0  0  0  0  0  0  0  0  0
   -1.8947    0.5991    2.4221 N   0  0  0  0  0  0  0  0  0  0  0  0
   -2.7942    0.5936    1.9635 H   0  0  0  0  0  0  0  0  0  0  0  0
   -1.8170    1.1453    3.7750 C   0  0  0  0  0  0  0  0  0  0  0  0
   -0.9697    1.8290    3.8506 H   0  0  0  0  0  0  0  0  0  0  0  0
   -2.7354    1.6828    4.0167 H   0  0  0  0  0  0  0  0  0  0  0  0
   -1.6754    0.3334    4.4914 H   0  0  0  0  0  0  0  0  0  0  0  0
  5  6  2  0  0  0  0
  5  7  1  0  0  0  0
  2  3  1  0  0  0  0
  2  4  1  0  0  0  0
  2  5  1  0  0  0  0
  1  2  1  0  0  0  0
 26 27  2  0  0  0  0
 26 28  1  0  0  0  0
 24 25  1  0  0  0  0
 22 23  1  0  0  0  0
 22 24  2  0  0  0  0
 20 21  1  0  0  0  0
 19 20  1  0  0  0  0
 19 22  1  0  0  0  0
 17 18  1  0  0  0  0
 17 19  2  0  0  0  0
 15 16  1  0  0  0  0
 15 17  1  0  0  0  0
 14 15  2  0  0  0  0
 14 24  1  0  0  0  0
 11 12  1  0  0  0  0
 11 13  1  0  0  0  0
 11 14  1  0  0  0  0
  9 10  1  0  0  0  0
  9 11  1  0  0  0  0
  9 26  1  0  0  0  0
  7  8  1  0  0  0  0
  7  9  1  0  0  0  0
 30 31  1  0  0  0  0
 30 32  1  0  0  0  0
 30 33  1  0  0  0  0
 28 29  1  0  0  0  0
 28 30  1  0  0  0  0
M  END
$$$$
default_name
  -OEChem-02102213163D

 33 33  0     1  0  0  0  0  0999 V2000
   -4.0702   -3.8485    1.4554 H   0  0  0  0  0  0  0  0  0  0  0  0
   -4.0012   -2.9605    0.8284 C   0  0  0  0  0  0  0  0  0  0  0  0
   -4.7652   -2.2435    1.1234 H   0  0  0  0  0  0  0  0  0  0  0  0
   -4.1352   -3.2385   -0.2156 H   0  0  0  0  0  0  0  0  0  0  0  0
   -2.6362   -2.3395    1.0094 C   0  0  0  0  0  0  0  0  0  0  0  0
   -1.8292   -2.8395    1.7814 O   0  0  0  0  0  0  0  0  0  0  0  0
   -2.3832   -1.2445    0.2964 N   0  0  0  0  0  0  0  0  0  0  0  0
   -3.1102   -0.8685   -0.2946 H   0  0  0  0  0  0  0  0  0  0  0  0
   -1.1292   -0.4875    0.3524 C   0  0  1  0  0  0  0  0  0  0  0  0
   -0.3087   -1.1556    0.0882 H   0  0  0  0  0  0  0  0  0  0  0  0
   -1.1749    0.6534   -0.6787 C   0  0  0  0  0  0  0  0  0  0  0  0
   -2.2081    0.9825   -0.7975 H   0  0  0  0  0  0  0  0  0  0  0  0
   -0.6044    1.5004   -0.2940 H   0  0  0  0  0  0  0  0  0  0  0  0
   -0.6431    0.2692   -2.0459 C   0  0  0  0  0  0  0  0  0  0  0  0
    0.1165   -0.9067   -2.2090 C   0  0  0  0  0  0  0  0  0  0  0  0
    0.3451   -1.5267   -1.3520 H   0  0  0  0  0  0  0  0  0  0  0  0
    0.5739   -1.2804   -3.4876 C   0  0  0  0  0  0  0  0  0  0  0  0
    1.1566   -2.1806   -3.6086 H   0  0  0  0  0  0  0  0  0  0  0  0
    0.2671   -0.4770   -4.6074 C   0  0  0  0  0  0  0  0  0  0  0  0
    0.7010   -0.8304   -5.8451 O   0  0  0  0  0  0  0  0  0  0  0  0
    1.2813   -1.5923   -5.8205 H   0  0  0  0  0  0  0  0  0  0  0  0
   -0.4973    0.6967   -4.4431 C   0  0  0  0  0  0  0  0  0  0  0  0
   -0.7217    1.3050   -5.3063 H   0  0  0  0  0  0  0  0  0  0  0  0
   -0.9491    1.0700   -3.1631 C   0  0  0  0  0  0  0  0  0  0  0  0
   -1.5285    1.9768   -3.0362 H   0  0  0  0  0  0  0  0  0  0  0  0
   -0.8664    0.0378    1.7736 C   0  0  0  0  0  0  0  0  0  0  0  0
    0.2529   -0.0672    2.2760 O   0  0  0  0  0  0  0  0  0  0  0  0
   -1.8947    0.5991    2.4221 N   0  0  0  0  0  0  0  0  0  0  0  0
   -2.7942    0.5936    1.9635 H   0  0  0  0  0  0  0  0  0  0  0  0
   -1.8170    1.1453    3.7750 C   0  0  0  0  0  0  0  0  0  0  0  0
   -0.9697    1.8290    3.8506 H   0  0  0  0  0  0  0  0  0  0  0  0
   -2.7354    1.6828    4.0167 H   0  0  0  0  0  0  0  0  0  0  0  0
   -1.6754    0.3334    4.4914 H   0  0  0  0  0  0  0  0  0  0  0  0
  5  6  2  0  0  0  0
  5  7  1  0  0  0  0
  2  3  1  0  0  0  0
  2  4  1  0  0  0  0
  2  5  1  0  0  0  0
  1  2  1  0  0  0  0
 26 27  2  0  0  0  0
 26 28  1  0  0  0  0
 24 25  1  0  0  0  0
 22 23  1  0  0  0  0
 22 24  2  0  0  0  0
 20 21  1  0  0  0  0
 19 20  1  0  0  0  0
 19 22  1  0  0  0  0
 17 18  1  0  0  0  0
 17 19  2  0  0  0  0
 15 16  1  0  0  0  0
 15 17  1  0  0  0  0
 14 15  2  0  0  0  0
 14 24  1  0  0  0  0
 11 12  1  0  0  0  0
 11 13  1  0  0  0  0
 11 14  1  0  0  0  0
  9 10  1  0  0  0  0
  9 11  1  0  0  0  0
  9 26  1  0  0  0  0
  7  8  1  0  0  0  0
  7  9  1  0  0  0  0
 30 31  1  0  0  0  0
 30 32  1  0  0  0  0
 30 33  1  0  0  0  0
 28 29  1  0  0  0  0
 28 30  1  0  0  0  0
M  END
$$$$
default_name
  -OEChem-02102213163D

 33 33  0     1  0  0  0  0  0999 V2000
   -4.0702   -3.8485    1.4554 H   0  0  0  0  0  0  0  0  0  0  0  0
   -4.0012   -2.9605    0.8284 C   0  0  0  0  0  0  0  0  0  0  0  0
   -4.7652   -2.2435    1.1234 H   0  0  0  0  0  0  0  0  0  0  0  0
   -4.1352   -3.2385   -0.2156 H   0  0  0  0  0  0  0  0  0  0  0  0
   -2.6362   -2.3395    1.0094 C   0  0  0  0  0  0  0  0  0  0  0  0
   -1.8292   -2.8395    1.7814 O   0  0  0  0  0  0  0  0  0  0  0  0
   -2.3832   -1.2445    0.2964 N   0  0  0  0  0  0  0  0  0  0  0  0
   -3.1102   -0.8685   -0.2946 H   0  0  0  0  0  0  0  0  0  0  0  0
   -1.1292   -0.4875    0.3524 C   0  0  1  0  0  0  0  0  0  0  0  0
   -0.3087   -1.1556    0.0882 H   0  0  0  0  0  0  0  0  0  0  0  0
   -1.1749    0.6534   -0.6787 C   0  0  0  0  0  0  0  0  0  0  0  0
   -2.2081    0.9825   -0.7975 H   0  0  0  0  0  0  0  0  0  0  0  0
   -0.6044    1.5004   -0.2940 H   0  0  0  0  0  0  0  0  0  0  0  0
   -0.6431    0.2692   -2.0459 C   0  0  0  0  0  0  0  0  0  0  0  0
   -0.1645   -1.0352   -2.2822 C   0  0  0  0  0  0  0  0  0  0  0  0
   -0.1510   -1.7606   -1.4792 H   0  0  0  0  0  0  0  0  0  0  0  0
    0.2907   -1.3990   -3.5644 C   0  0  0  0  0  0  0  0  0  0  0  0
    0.6580   -2.3982   -3.7414 H   0  0  0  0  0  0  0  0  0  0  0  0
    0.2636   -0.4558   -4.6147 C   0  0  0  0  0  0  0  0  0  0  0  0
    0.6977   -0.7977   -5.8556 O   0  0  0  0  0  0  0  0  0  0  0  0
    1.0833   -1.6746   -5.8744 H   0  0  0  0  0  0  0  0  0  0  0  0
   -0.2202    0.8476   -4.3777 C   0  0  0  0  0  0  0  0  0  0  0  0
   -0.2318    1.5612   -5.1877 H   0  0  0  0  0  0  0  0  0  0  0  0
   -0.6702    1.2096   -3.0938 C   0  0  0  0  0  0  0  0  0  0  0  0
   -1.0331    2.2138   -2.9101 H   0  0  0  0  0  0  0  0  0  0  0  0
   -0.8664    0.0378    1.7736 C   0  0  0  0  0  0  0  0  0  0  0  0
    0.2529   -0.0672    2.2760 O   0  0  0  0  0  0  0  0  0  0  0  0
   -1.8947    0.5991    2.4221 N   0  0  0  0  0  0  0  0  0  0  0  0
   -2.7942    0.5936    1.9635 H   0  0  0  0  0  0  0  0  0  0  0  0
   -1.8170    1.1453    3.7750 C   0  0  0  0  0  0  0  0  0  0  0  0
   -0.9697    1.8290    3.8506 H   0  0  0  0  0  0  0  0  0  0  0  0
   -2.7354    1.6828    4.0167 H   0  0  0  0  0  0  0  0  0  0  0  0
   -1.6754    0.3334    4.4914 H   0  0  0  0  0  0  0  0  0  0  0  0
  5  6  2  0  0  0  0
  5  7  1  0  0  0  0
  2  3  1  0  0  0  0
  2  4  1  0  0  0  0
  2  5  1  0  0  0  0
  1  2  1  0  0  0  0
 26 27  2  0  0  0  0
 26 28  1  0  0  0  0
 24 25  1  0  0  0  0
 22 23  1  0  0  0  0
 22 24  2  0  0  0  0
 20 21  1  0  0  0  0
 19 20  1  0  0  0  0
 19 22  1  0  0  0  0
 17 18  1  0  0  0  0
 17 19  2  0  0  0  0
 15 16  1  0  0  0  0
 15 17  1  0  0  0  0
 14 15  2  0  0  0  0
 14 24  1  0  0  0  0
 11 12  1  0  0  0  0
 11 13  1  0  0  0  0
 11 14  1  0  0  0  0
  9 10  1  0  0  0  0
  9 11  1  0  0  0  0
  9 26  1  0  0  0  0
  7  8  1  0  0  0  0
  7  9  1  0  0  0  0
 30 31  1  0  0  0  0
 30 32  1  0  0  0  0
 30 33  1  0  0  0  0
 28 29  1  0  0  0  0
 28 30  1  0  0  0  0
M  END
$$$$
default_name
  -OEChem-02102213163D

 33 33  0     1  0  0  0  0  0999 V2000
   -4.0702   -3.8485    1.4554 H   0  0  0  0  0  0  0  0  0  0  0  0
   -4.0012   -2.9605    0.8284 C   0  0  0  0  0  0  0  0  0  0  0  0
   -4.7652   -2.2435    1.1234 H   0  0  0  0  0  0  0  0  0  0  0  0
   -4.1352   -3.2385   -0.2156 H   0  0  0  0  0  0  0  0  0  0  0  0
   -2.6362   -2.3395    1.0094 C   0  0  0  0  0  0  0  0  0  0  0  0
   -1.8292   -2.8395    1.7814 O   0  0  0  0  0  0  0  0  0  0  0  0
   -2.3832   -1.2445    0.2964 N   0  0  0  0  0  0  0  0  0  0  0  0
   -3.1102   -0.8685   -0.2946 H   0  0  0  0  0  0  0  0  0  0  0  0
   -1.1292   -0.4875    0.3524 C   0  0  1  0  0  0  0  0  0  0  0  0
   -0.3087   -1.1556    0.0882 H   0  0  0  0  0  0  0  0  0  0  0  0
   -1.1749    0.6534   -0.6787 C   0  0  0  0  0  0  0  0  0  0  0  0
   -2.2081    0.9825   -0.7975 H   0  0  0  0  0  0  0  0  0  0  0  0
   -0.6044    1.5004   -0.2940 H   0  0  0  0  0  0  0  0  0  0  0  0
   -0.6431    0.2692   -2.0459 C   0  0  0  0  0  0  0  0  0  0  0  0
   -0.4612   -1.0871   -2.3830 C   0  0  0  0  0  0  0  0  0  0  0  0
   -0.6765   -1.8592   -1.6559 H   0  0  0  0  0  0  0  0  0  0  0  0
   -0.0054   -1.4405   -3.6680 C   0  0  0  0  0  0  0  0  0  0  0  0
    0.1342   -2.4800   -3.9222 H   0  0  0  0  0  0  0  0  0  0  0  0
    0.2657   -0.4338   -4.6201 C   0  0  0  0  0  0  0  0  0  0  0  0
    0.7028   -0.7644   -5.8630 O   0  0  0  0  0  0  0  0  0  0  0  0
    0.8764   -1.7029   -5.9469 H   0  0  0  0  0  0  0  0  0  0  0  0
    0.0784    0.9227   -4.2826 C   0  0  0  0  0  0  0  0  0  0  0  0
    0.2934    1.6835   -5.0178 H   0  0  0  0  0  0  0  0  0  0  0  0
   -0.3728    1.2730   -2.9959 C   0  0  0  0  0  0  0  0  0  0  0  0
   -0.5076    2.3158   -2.7343 H   0  0  0  0  0  0  0  0  0  0  0  0
   -0.8664    0.0378    1.7736 C   0  0  0  0  0  0  0  0  0  0  0  0
    0.2529   -0.0672    2.2760 O   0  0  0  0  0  0  0  0  0  0  0  0
   -1.8947    0.5991    2.4221 N   0  0  0  0  0  0  0  0  0  0  0  0
   -2.7942    0.5936    1.9635 H   0  0  0  0  0  0  0  0  0  0  0  0
   -1.8170    1.1453    3.7750 C   0  0  0  0  0  0  0  0  0  0  0  0
   -0.9697    1.8290    3.8506 H   0  0  0  0  0  0  0  0  0  0  0  0
   -2.7354    1.6828    4.0167 H   0  0  0  0  0  0  0  0  0  0  0  0
   -1.6754    0.3334    4.4914 H   0  0  0  0  0  0  0  0  0  0  0  0
  5  6  2  0  0  0  0
  5  7  1  0  0  0  0
  2  3  1  0  0  0  0
  2  4  1  0  0  0  0
  2  5  1  0  0  0  0
  1  2  1  0  0  0  0
 26 27  2  0  0  0  0
 26 28  1  0  0  0  0
 24 25  1  0  0  0  0
 22 23  1  0  0  0  0
 22 24  2  0  0  0  0
 20 21  1  0  0  0  0
 19 20  1  0  0  0  0
 19 22  1  0  0  0  0
 17 18  1  0  0  0  0
 17 19  2  0  0  0  0
 15 16  1  0  0  0  0
 15 17  1  0  0  0  0
 14 15  2  0  0  0  0
 14 24  1  0  0  0  0
 11 12  1  0  0  0  0
 11 13  1  0  0  0  0
 11 14  1  0  0  0  0
  9 10  1  0  0  0  0
  9 11  1  0  0  0  0
  9 26  1  0  0  0  0
  7  8  1  0  0  0  0
  7  9  1  0  0  0  0
 30 31  1  0  0  0  0
 30 32  1  0  0  0  0
 30 33  1  0  0  0  0
 28 29  1  0  0  0  0
 28 30  1  0  0  0  0
M  END
$$$$
default_name
  -OEChem-02102213163D

 33 33  0     1  0  0  0  0  0999 V2000
   -4.0702   -3.8485    1.4554 H   0  0  0  0  0  0  0  0  0  0  0  0
   -4.0012   -2.9605    0.8284 C   0  0  0  0  0  0  0  0  0  0  0  0
   -4.7652   -2.2435    1.1234 H   0  0  0  0  0  0  0  0  0  0  0  0
   -4.1352   -3.2385   -0.2156 H   0  0  0  0  0  0  0  0  0  0  0  0
   -2.6362   -2.3395    1.0094 C   0  0  0  0  0  0  0  0  0  0  0  0
   -1.8292   -2.8395    1.7814 O   0  0  0  0  0  0  0  0  0  0  0  0
   -2.3832   -1.2445    0.2964 N   0  0  0  0  0  0  0  0  0  0  0  0
   -3.1102   -0.8685   -0.2946 H   0  0  0  0  0  0  0  0  0  0  0  0
   -1.1292   -0.4875    0.3524 C   0  0  1  0  0  0  0  0  0  0  0  0
   -0.3087   -1.1556    0.0882 H   0  0  0  0  0  0  0  0  0  0  0  0
   -1.1749    0.6534   -0.6787 C   0  0  0  0  0  0  0  0  0  0  0  0
   -2.2081    0.9825   -0.7975 H   0  0  0  0  0  0  0  0  0  0  0  0
   -0.6044    1.5004   -0.2940 H   0  0  0  0  0  0  0  0  0  0  0  0
   -0.6431    0.2692   -2.0459 C   0  0  0  0  0  0  0  0  0  0  0  0
   -0.7533   -1.0589   -2.5045 C   0  0  0  0  0  0  0  0  0  0  0  0
   -1.1954   -1.8158   -1.8700 H   0  0  0  0  0  0  0  0  0  0  0  0
   -0.2944   -1.4021   -3.7912 C   0  0  0  0  0  0  0  0  0  0  0  0
   -0.3789   -2.4203   -4.1386 H   0  0  0  0  0  0  0  0  0  0  0  0
    0.2732   -0.4125   -4.6232 C   0  0  0  0  0  0  0  0  0  0  0  0
    0.7160   -0.7328   -5.8667 O   0  0  0  0  0  0  0  0  0  0  0  0
    0.6746   -1.6754   -6.0331 H   0  0  0  0  0  0  0  0  0  0  0  0
    0.3782    0.9169   -4.1644 C   0  0  0  0  0  0  0  0  0  0  0  0
    0.8180    1.6637   -4.8082 H   0  0  0  0  0  0  0  0  0  0  0  0
   -0.0772    1.2559   -2.8761 C   0  0  0  0  0  0  0  0  0  0  0  0
    0.0123    2.2756   -2.5208 H   0  0  0  0  0  0  0  0  0  0  0  0
   -0.8664    0.0378    1.7736 C   0  0  0  0  0  0  0  0  0  0  0  0
    0.2529   -0.0672    2.2760 O   0  0  0  0  0  0  0  0  0  0  0  0
   -1.8947    0.5991    2.4221 N   0  0  0  0  0  0  0  0  0  0  0  0
   -2.7942    0.5936    1.9635 H   0  0  0  0  0  0  0  0  0  0  0  0
   -1.8170    1.1453    3.7750 C   0  0  0  0  0  0  0  0  0  0  0  0
   -0.9697    1.8290    3.8506 H   0  0  0  0  0  0  0  0  0  0  0  0
   -2.7354    1.6828    4.0167 H   0  0  0  0  0  0  0  0  0  0  0  0
   -1.6754    0.3334    4.4914 H   0  0  0  0  0  0  0  0  0  0  0  0
  5  6  2  0  0  0  0
  5  7  1  0  0  0  0
  2  3  1  0  0  0  0
  2  4  1  0  0  0  0
  2  5  1  0  0  0  0
  1  2  1  0  0  0  0
 26 27  2  0  0  0  0
 26 28  1  0  0  0  0
 24 25  1  0  0  0  0
 22 23  1  0  0  0  0
 22 24  2  0  0  0  0
 20 21  1  0  0  0  0
 19 20  1  0  0  0  0
 19 22  1  0  0  0  0
 17 18  1  0  0  0  0
 17 19  2  0  0  0  0
 15 16  1  0  0  0  0
 15 17  1  0  0  0  0
 14 15  2  0  0  0  0
 14 24  1  0  0  0  0
 11 12  1  0  0  0  0
 11 13  1  0  0  0  0
 11 14  1  0  0  0  0
  9 10  1  0  0  0  0
  9 11  1  0  0  0  0
  9 26  1  0  0  0  0
  7  8  1  0  0  0  0
  7  9  1  0  0  0  0
 30 31  1  0  0  0  0
 30 32  1  0  0  0  0
 30 33  1  0  0  0  0
 28 29  1  0  0  0  0
 28 30  1  0  0  0  0
M  END
$$$$
default_name
  -OEChem-02102213163D

 33 33  0     1  0  0  0  0  0999 V2000
   -4.0702   -3.8485    1.4554 H   0  0  0  0  0  0  0  0  0  0  0  0
   -4.0012   -2.9605    0.8284 C   0  0  0  0  0  0  0  0  0  0  0  0
   -4.7652   -2.2435    1.1234 H   0  0  0  0  0  0  0  0  0  0  0  0
   -4.1352   -3.2385   -0.2156 H   0  0  0  0  0  0  0  0  0  0  0  0
   -2.6362   -2.3395    1.0094 C   0  0  0  0  0  0  0  0  0  0  0  0
   -1.8292   -2.8395    1.7814 O   0  0  0  0  0  0  0  0  0  0  0  0
   -2.3832   -1.2445    0.2964 N   0  0  0  0  0  0  0  0  0  0  0  0
   -3.1102   -0.8685   -0.2946 H   0  0  0  0  0  0  0  0  0  0  0  0
   -1.1292   -0.4875    0.3524 C   0  0  1  0  0  0  0  0  0  0  0  0
   -0.3087   -1.1556    0.0882 H   0  0  0  0  0  0  0  0  0  0  0  0
   -1.1749    0.6534   -0.6787 C   0  0  0  0  0  0  0  0  0  0  0  0
   -2.2081    0.9825   -0.7975 H   0  0  0  0  0  0  0  0  0  0  0  0
   -0.6044    1.5004   -0.2940 H   0  0  0  0  0  0  0  0  0  0  0  0
   -0.6431    0.2692   -2.0459 C   0  0  0  0  0  0  0  0  0  0  0  0
   -1.0208   -0.9524   -2.6385 C   0  0  0  0  0  0  0  0  0  0  0  0
   -1.6725   -1.6333   -2.1069 H   0  0  0  0  0  0  0  0  0  0  0  0
   -0.5565   -1.2864   -3.9257 C   0  0  0  0  0  0  0  0  0  0  0  0
   -0.8464   -2.2233   -4.3758 H   0  0  0  0  0  0  0  0  0  0  0  0
    0.2856   -0.3935   -4.6237 C   0  0  0  0  0  0  0  0  0  0  0  0
    0.7364   -0.7050   -5.8666 O   0  0  0  0  0  0  0  0  0  0  0  0
    0.4918   -1.5940   -6.1271 H   0  0  0  0  0  0  0  0  0  0  0  0
    0.6586    0.8307   -4.0311 C   0  0  0  0  0  0  0  0  0  0  0  0
    1.3065    1.5031   -4.5730 H   0  0  0  0  0  0  0  0  0  0  0  0
    0.1965    1.1596   -2.7425 C   0  0  0  0  0  0  0  0  0  0  0  0
    0.4910    2.0962   -2.2841 H   0  0  0  0  0  0  0  0  0  0  0  0
   -0.8664    0.0378    1.7736 C   0  0  0  0  0  0  0  0  0  0  0  0
    0.2529   -0.0672    2.2760 O   0  0  0  0  0  0  0  0  0  0  0  0
   -1.8947    0.5991    2.4221 N   0  0  0  0  0  0  0  0  0  0  0  0
   -2.7942    0.5936    1.9635 H   0  0  0  0  0  0  0  0  0  0  0  0
   -1.8170    1.1453    3.7750 C   0  0  0  0  0  0  0  0  0  0  0  0
   -0.9697    1.8290    3.8506 H   0  0  0  0  0  0  0  0  0  0  0  0
   -2.7354    1.6828    4.0167 H   0  0  0  0  0  0  0  0  0  0  0  0
   -1.6754    0.3334    4.4914 H   0  0  0  0  0  0  0  0  0  0  0  0
  5  6  2  0  0  0  0
  5  7  1  0  0  0  0
  2  3  1  0  0  0  0
  2  4  1  0  0  0  0
  2  5  1  0  0  0  0
  1  2  1  0  0  0  0
 26 27  2  0  0  0  0
 26 28  1  0  0  0  0
 24 25  1  0  0  0  0
 22 23  1  0  0  0  0
 22 24  2  0  0  0  0
 20 21  1  0  0  0  0
 19 20  1  0  0  0  0
 19 22  1  0  0  0  0
 17 18  1  0  0  0  0
 17 19  2  0  0  0  0
 15 16  1  0  0  0  0
 15 17  1  0  0  0  0
 14 15  2  0  0  0  0
 14 24  1  0  0  0  0
 11 12  1  0  0  0  0
 11 13  1  0  0  0  0
 11 14  1  0  0  0  0
  9 10  1  0  0  0  0
  9 11  1  0  0  0  0
  9 26  1  0  0  0  0
  7  8  1  0  0  0  0
  7  9  1  0  0  0  0
 30 31  1  0  0  0  0
 30 32  1  0  0  0  0
 30 33  1  0  0  0  0
 28 29  1  0  0  0  0
 28 30  1  0  0  0  0
M  END
$$$$
default_name
  -OEChem-02102213163D

 33 33  0     1  0  0  0  0  0999 V2000
   -4.0702   -3.8485    1.4554 H   0  0  0  0  0  0  0  0  0  0  0  0
   -4.0012   -2.9605    0.8284 C   0  0  0  0  0  0  0  0  0  0  0  0
   -4.7652   -2.2435    1.1234 H   0  0  0  0  0  0  0  0  0  0  0  0
   -4.1352   -3.2385   -0.2156 H   0  0  0  0  0  0  0  0  0  0  0  0
   -2.6362   -2.3395    1.0094 C   0  0  0  0  0  0  0  0  0  0  0  0
   -1.8292   -2.8395    1.7814 O   0  0  0  0  0  0  0  0  0  0  0  0
   -2.3832   -1.2445    0.2964 N   0  0  0  0  0  0  0  0  0  0  0  0
   -3.1102   -0.8685   -0.2946 H   0  0  0  0  0  0  0  0  0  0  0  0
   -1.1292   -0.4875    0.3524 C   0  0  1  0  0  0  0  0  0  0  0  0
   -0.3087   -1.1556    0.0882 H   0  0  0  0  0  0  0  0  0  0  0  0
   -1.1749    0.6534   -0.6787 C   0  0  0  0  0  0  0  0  0  0  0  0
   -2.2081    0.9825   -0.7975 H   0  0  0  0  0  0  0  0  0  0  0  0
   -0.6044    1.5004   -0.2940 H   0  0  0  0  0  0  0  0  0  0  0  0
   -0.6431    0.2692   -2.0459 C   0  0  0  0  0  0  0  0  0  0  0  0
   -1.2456   -0.7750   -2.7759 C   0  0  0  0  0  0  0  0  0  0  0  0
   -2.0753   -1.3243   -2.3504 H   0  0  0  0  0  0  0  0  0  0  0  0
   -0.7738   -1.1013   -4.0622 C   0  0  0  0  0  0  0  0  0  0  0  0
   -1.2365   -1.9024   -4.6178 H   0  0  0  0  0  0  0  0  0  0  0  0
    0.3021   -0.3779   -4.6217 C   0  0  0  0  0  0  0  0  0  0  0  0
    0.7625   -0.6829   -5.8627 O   0  0  0  0  0  0  0  0  0  0  0  0
    0.3404   -1.4641   -6.2225 H   0  0  0  0  0  0  0  0  0  0  0  0
    0.9006    0.6699   -3.8917 C   0  0  0  0  0  0  0  0  0  0  0  0
    1.7254    1.2127   -4.3284 H   0  0  0  0  0  0  0  0  0  0  0  0
    0.4297    0.9906   -2.6043 C   0  0  0  0  0  0  0  0  0  0  0  0
    0.8961    1.7896   -2.0404 H   0  0  0  0  0  0  0  0  0  0  0  0
   -0.8664    0.0378    1.7736 C   0  0  0  0  0  0  0  0  0  0  0  0
    0.2529   -0.0672    2.2760 O   0  0  0  0  0  0  0  0  0  0  0  0
   -1.8947    0.5991    2.4221 N   0  0  0  0  0  0  0  0  0  0  0  0
   -2.7942    0.5936    1.9635 H   0  0  0  0  0  0  0  0  0  0  0  0
   -1.8170    1.1453    3.7750 C   0  0  0  0  0  0  0  0  0  0  0  0
   -0.9697    1.8290    3.8506 H   0  0  0  0  0  0  0  0  0  0  0  0
   -2.7354    1.6828    4.0167 H   0  0  0  0  0  0  0  0  0  0  0  0
   -1.6754    0.3334    4.4914 H   0  0  0  0  0  0  0  0  0  0  0  0
  5  6  2  0  0  0  0
  5  7  1  0  0  0  0
  2  3  1  0  0  0  0
  2  4  1  0  0  0  0
  2  5  1  0  0  0  0
  1  2  1  0  0  0  0
 26 27  2  0  0  0  0
 26 28  1  0  0  0  0
 24 25  1  0  0  0  0
 22 23  1  0  0  0  0
 22 24  2  0  0  0  0
 20 21  1  0  0  0  0
 19 20  1  0  0  0  0
 19 22  1  0  0  0  0
 17 18  1  0  0  0  0
 17 19  2  0  0  0  0
 15 16  1  0  0  0  0
 15 17  1  0  0  0  0
 14 15  2  0  0  0  0
 14 24  1  0  0  0  0
 11 12  1  0  0  0  0
 11 13  1  0  0  0  0
 11 14  1  0  0  0  0
  9 10  1  0  0  0  0
  9 11  1  0  0  0  0
  9 26  1  0  0  0  0
  7  8  1  0  0  0  0
  7  9  1  0  0  0  0
 30 31  1  0  0  0  0
 30 32  1  0  0  0  0
 30 33  1  0  0  0  0
 28 29  1  0  0  0  0
 28 30  1  0  0  0  0
M  END
$$$$
default_name
  -OEChem-02102213163D

 33 33  0     1  0  0  0  0  0999 V2000
   -4.0702   -3.8485    1.4554 H   0  0  0  0  0  0  0  0  0  0  0  0
   -4.0012   -2.9605    0.8284 C   0  0  0  0  0  0  0  0  0  0  0  0
   -4.7652   -2.2435    1.1234 H   0  0  0  0  0  0  0  0  0  0  0  0
   -4.1352   -3.2385   -0.2156 H   0  0  0  0  0  0  0  0  0  0  0  0
   -2.6362   -2.3395    1.0094 C   0  0  0  0  0  0  0  0  0  0  0  0
   -1.8292   -2.8395    1.7814 O   0  0  0  0  0  0  0  0  0  0  0  0
   -2.3832   -1.2445    0.2964 N   0  0  0  0  0  0  0  0  0  0  0  0
   -3.1102   -0.8685   -0.2946 H   0  0  0  0  0  0  0  0  0  0  0  0
   -1.1292   -0.4875    0.3524 C   0  0  1  0  0  0  0  0  0  0  0  0
   -0.3087   -1.1556    0.0882 H   0  0  0  0  0  0  0  0  0  0  0  0
   -1.1749    0.6534   -0.6787 C   0  0  0  0  0  0  0  0  0  0  0  0
   -2.2081    0.9825   -0.7975 H   0  0  0  0  0  0  0  0  0  0  0  0
   -0.6044    1.5004   -0.2940 H   0  0  0  0  0  0  0  0  0  0  0  0
   -0.6431    0.2692   -2.0459 C   0  0  0  0  0  0  0  0  0  0  0  0
   -1.4124   -0.5387   -2.9071 C   0  0  0  0  0  0  0  0  0  0  0  0
   -2.3762   -0.9097   -2.5840 H   0  0  0  0  0  0  0  0  0  0  0  0
   -0.9315   -0.8593   -4.1916 C   0  0  0  0  0  0  0  0  0  0  0  0
   -1.5226   -1.4795   -4.8479 H   0  0  0  0  0  0  0  0  0  0  0  0
    0.3215   -0.3669   -4.6172 C   0  0  0  0  0  0  0  0  0  0  0  0
    0.7927   -0.6680   -5.8551 O   0  0  0  0  0  0  0  0  0  0  0  0
    0.2308   -1.2947   -6.3128 H   0  0  0  0  0  0  0  0  0  0  0  0
    1.0877    0.4454   -3.7559 C   0  0  0  0  0  0  0  0  0  0  0  0
    2.0462    0.8122   -4.0911 H   0  0  0  0  0  0  0  0  0  0  0  0
    0.6064    0.7603   -2.4709 C   0  0  0  0  0  0  0  0  0  0  0  0
    1.1999    1.3769   -1.8062 H   0  0  0  0  0  0  0  0  0  0  0  0
   -0.8664    0.0378    1.7736 C   0  0  0  0  0  0  0  0  0  0  0  0
    0.2529   -0.0672    2.2760 O   0  0  0  0  0  0  0  0  0  0  0  0
   -1.8947    0.5991    2.4221 N   0  0  0  0  0  0  0  0  0  0  0  0
   -2.7942    0.5936    1.9635 H   0  0  0  0  0  0  0  0  0  0  0  0
   -1.8170    1.1453    3.7750 C   0  0  0  0  0  0  0  0  0  0  0  0
   -0.9697    1.8290    3.8506 H   0  0  0  0  0  0  0  0  0  0  0  0
   -2.7354    1.6828    4.0167 H   0  0  0  0  0  0  0  0  0  0  0  0
   -1.6754    0.3334    4.4914 H   0  0  0  0  0  0  0  0  0  0  0  0
  5  6  2  0  0  0  0
  5  7  1  0  0  0  0
  2  3  1  0  0  0  0
  2  4  1  0  0  0  0
  2  5  1  0  0  0  0
  1  2  1  0  0  0  0
 26 27  2  0  0  0  0
 26 28  1  0  0  0  0
 24 25  1  0  0  0  0
 22 23  1  0  0  0  0
 22 24  2  0  0  0  0
 20 21  1  0  0  0  0
 19 20  1  0  0  0  0
 19 22  1  0  0  0  0
 17 18  1  0  0  0  0
 17 19  2  0  0  0  0
 15 16  1  0  0  0  0
 15 17  1  0  0  0  0
 14 15  2  0  0  0  0
 14 24  1  0  0  0  0
 11 12  1  0  0  0  0
 11 13  1  0  0  0  0
 11 14  1  0  0  0  0
  9 10  1  0  0  0  0
  9 11  1  0  0  0  0
  9 26  1  0  0  0  0
  7  8  1  0  0  0  0
  7  9  1  0  0  0  0
 30 31  1  0  0  0  0
 30 32  1  0  0  0  0
 30 33  1  0  0  0  0
 28 29  1  0  0  0  0
 28 30  1  0  0  0  0
M  END
$$$$
default_name
  -OEChem-02102213163D

 33 33  0     1  0  0  0  0  0999 V2000
   -4.0702   -3.8485    1.4554 H   0  0  0  0  0  0  0  0  0  0  0  0
   -4.0012   -2.9605    0.8284 C   0  0  0  0  0  0  0  0  0  0  0  0
   -4.7652   -2.2435    1.1234 H   0  0  0  0  0  0  0  0  0  0  0  0
   -4.1352   -3.2385   -0.2156 H   0  0  0  0  0  0  0  0  0  0  0  0
   -2.6362   -2.3395    1.0094 C   0  0  0  0  0  0  0  0  0  0  0  0
   -1.8292   -2.8395    1.7814 O   0  0  0  0  0  0  0  0  0  0  0  0
   -2.3832   -1.2445    0.2964 N   0  0  0  0  0  0  0  0  0  0  0  0
   -3.1102   -0.8685   -0.2946 H   0  0  0  0  0  0  0  0  0  0  0  0
   -1.1292   -0.4875    0.3524 C   0  0  1  0  0  0  0  0  0  0  0  0
   -0.3087   -1.1556    0.0882 H   0  0  0  0  0  0  0  0  0  0  0  0
   -1.1749    0.6534   -0.6787 C   0  0  0  0  0  0  0  0  0  0  0  0
   -2.2081    0.9825   -0.7975 H   0  0  0  0  0  0  0  0  0  0  0  0
   -0.6044    1.5004   -0.2940 H   0  0  0  0  0  0  0  0  0  0  0  0
   -0.6431    0.2692   -2.0459 C   0  0  0  0  0  0  0  0  0  0  0  0
   -1.5097   -0.2596   -3.0234 C   0  0  0  0  0  0  0  0  0  0  0  0
   -2.5548   -0.4178   -2.7918 H   0  0  0  0  0  0  0  0  0  0  0  0
   -1.0190   -0.5771   -4.3049 C   0  0  0  0  0  0  0  0  0  0  0  0
   -1.6851   -0.9833   -5.0506 H   0  0  0  0  0  0  0  0  0  0  0  0
    0.3425   -0.3612   -4.6106 C   0  0  0  0  0  0  0  0  0  0  0  0
    0.8248   -0.6614   -5.8445 O   0  0  0  0  0  0  0  0  0  0  0  0
    0.1703   -1.0973   -6.3918 H   0  0  0  0  0  0  0  0  0  0  0  0
    1.2071    0.1726   -3.6327 C   0  0  0  0  0  0  0  0  0  0  0  0
    2.2470    0.3290   -3.8771 H   0  0  0  0  0  0  0  0  0  0  0  0
    0.7147    0.4846   -2.3513 C   0  0  0  0  0  0  0  0  0  0  0  0
    1.3816    0.8860   -1.5976 H   0  0  0  0  0  0  0  0  0  0  0  0
   -0.8664    0.0378    1.7736 C   0  0  0  0  0  0  0  0  0  0  0  0
    0.2529   -0.0672    2.2760 O   0  0  0  0  0  0  0  0  0  0  0  0
   -1.8947    0.5991    2.4221 N   0  0  0  0  0  0  0  0  0  0  0  0
   -2.7942    0.5936    1.9635 H   0  0  0  0  0  0  0  0  0  0  0  0
   -1.8170    1.1453    3.7750 C   0  0  0  0  0  0  0  0  0  0  0  0
   -0.9697    1.8290    3.8506 H   0  0  0  0  0  0  0  0  0  0  0  0
   -2.7354    1.6828    4.0167 H   0  0  0  0  0  0  0  0  0  0  0  0
   -1.6754    0.3334    4.4914 H   0  0  0  0  0  0  0  0  0  0  0  0
  5  6  2  0  0  0  0
  5  7  1  0  0  0  0
  2  3  1  0  0  0  0
  2  4  1  0  0  0  0
  2  5  1  0  0  0  0
  1  2  1  0  0  0  0
 26 27  2  0  0  0  0
 26 28  1  0  0  0  0
 24 25  1  0  0  0  0
 22 23  1  0  0  0  0
 22 24  2  0  0  0  0
 20 21  1  0  0  0  0
 19 20  1  0  0  0  0
 19 22  1  0  0  0  0
 17 18  1  0  0  0  0
 17 19  2  0  0  0  0
 15 16  1  0  0  0  0
 15 17  1  0  0  0  0
 14 15  2  0  0  0  0
 14 24  1  0  0  0  0
 11 12  1  0  0  0  0
 11 13  1  0  0  0  0
 11 14  1  0  0  0  0
  9 10  1  0  0  0  0
  9 11  1  0  0  0  0
  9 26  1  0  0  0  0
  7  8  1  0  0  0  0
  7  9  1  0  0  0  0
 30 31  1  0  0  0  0
 30 32  1  0  0  0  0
 30 33  1  0  0  0  0
 28 29  1  0  0  0  0
 28 30  1  0  0  0  0
M  END
$$$$
default_name
  -OEChem-02102213163D

 33 33  0     1  0  0  0  0  0999 V2000
   -4.0702   -3.8485    1.4554 H   0  0  0  0  0  0  0  0  0  0  0  0
   -4.0012   -2.9605    0.8284 C   0  0  0  0  0  0  0  0  0  0  0  0
   -4.7652   -2.2435    1.1234 H   0  0  0  0  0  0  0  0  0  0  0  0
   -4.1352   -3.2385   -0.2156 H   0  0  0  0  0  0  0  0  0  0  0  0
   -2.6362   -2.3395    1.0094 C   0  0  0  0  0  0  0  0  0  0  0  0
   -1.8292   -2.8395    1.7814 O   0  0  0  0  0  0  0  0  0  0  0  0
   -2.3832   -1.2445    0.2964 N   0  0  0  0  0  0  0  0  0  0  0  0
   -3.1102   -0.8685   -0.2946 H   0  0  0  0  0  0  0  0  0  0  0  0
   -1.1292   -0.4875    0.3524 C   0  0  1  0  0  0  0  0  0  0  0  0
   -0.3087   -1.1556    0.0882 H   0  0  0  0  0  0  0  0  0  0  0  0
   -1.1749    0.6534   -0.6787 C   0  0  0  0  0  0  0  0  0  0  0  0
   -2.2081    0.9825   -0.7975 H   0  0  0  0  0  0  0  0  0  0  0  0
   -0.6044    1.5004   -0.2940 H   0  0  0  0  0  0  0  0  0  0  0  0
   -0.6431    0.2692   -2.0459 C   0  0  0  0  0  0  0  0  0  0  0  0
   -1.5309    0.0432   -3.1168 C   0  0  0  0  0  0  0  0  0  0  0  0
   -2.5990    0.1179   -2.9595 H   0  0  0  0  0  0  0  0  0  0  0  0
   -1.0302   -0.2738   -4.3945 C   0  0  0  0  0  0  0  0  0  0  0  0
   -1.7130   -0.4477   -5.2120 H   0  0  0  0  0  0  0  0  0  0  0  0
    0.3637   -0.3612   -4.6024 C   0  0  0  0  0  0  0  0  0  0  0  0
    0.8566   -0.6634   -5.8315 O   0  0  0  0  0  0  0  0  0  0  0  0
    0.1631   -0.8853   -6.4542 H   0  0  0  0  0  0  0  0  0  0  0  0
    1.2508   -0.1300   -3.5307 C   0  0  0  0  0  0  0  0  0  0  0  0
    2.3143   -0.2041   -3.7012 H   0  0  0  0  0  0  0  0  0  0  0  0
    0.7470    0.1822   -2.2537 C   0  0  0  0  0  0  0  0  0  0  0  0
    1.4289    0.3506   -1.4287 H   0  0  0  0  0  0  0  0  0  0  0  0
   -0.8664    0.0378    1.7736 C   0  0  0  0  0  0  0  0  0  0  0  0
    0.2529   -0.0672    2.2760 O   0  0  0  0  0  0  0  0  0  0  0  0
   -1.8947    0.5991    2.4221 N   0  0  0  0  0  0  0  0  0  0  0  0
   -2.7942    0.5936    1.9635 H   0  0  0  0  0  0  0  0  0  0  0  0
   -1.8170    1.1453    3.7750 C   0  0  0  0  0  0  0  0  0  0  0  0
   -0.9697    1.8290    3.8506 H   0  0  0  0  0  0  0  0  0  0  0  0
   -2.7354    1.6828    4.0167 H   0  0  0  0  0  0  0  0  0  0  0  0
   -1.6754    0.3334    4.4914 H   0  0  0  0  0  0  0  0  0  0  0  0
  5  6  2  0  0  0  0
  5  7  1  0  0  0  0
  2  3  1  0  0  0  0
  2  4  1  0  0  0  0
  2  5  1  0  0  0  0
  1  2  1  0  0  0  0
 26 27  2  0  0  0  0
 26 28  1  0  0  0  0
 24 25  1  0  0  0  0
 22 23  1  0  0  0  0
 22 24  2  0  0  0  0
 20 21  1  0  0  0  0
 19 20  1  0  0  0  0
 19 22  1  0  0  0  0
 17 18  1  0  0  0  0
 17 19  2  0  0  0  0
 15 16  1  0  0  0  0
 15 17  1  0  0  0  0
 14 15  2  0  0  0  0
 14 24  1  0  0  0  0
 11 12  1  0  0  0  0
 11 13  1  0  0  0  0
 11 14  1  0  0  0  0
  9 10  1  0  0  0  0
  9 11  1  0  0  0  0
  9 26  1  0  0  0  0
  7  8  1  0  0  0  0
  7  9  1  0  0  0  0
 30 31  1  0  0  0  0
 30 32  1  0  0  0  0
 30 33  1  0  0  0  0
 28 29  1  0  0  0  0
 28 30  1  0  0  0  0
M  END
$$$$
default_name
  -OEChem-02102213163D

 33 33  0     1  0  0  0  0  0999 V2000
   -4.0702   -3.8485    1.4554 H   0  0  0  0  0  0  0  0  0  0  0  0
   -4.0012   -2.9605    0.8284 C   0  0  0  0  0  0  0  0  0  0  0  0
   -4.7652   -2.2435    1.1234 H   0  0  0  0  0  0  0  0  0  0  0  0
   -4.1352   -3.2385   -0.2156 H   0  0  0  0  0  0  0  0  0  0  0  0
   -2.6362   -2.3395    1.0094 C   0  0  0  0  0  0  0  0  0  0  0  0
   -1.8292   -2.8395    1.7814 O   0  0  0  0  0  0  0  0  0  0  0  0
   -2.3832   -1.2445    0.2964 N   0  0  0  0  0  0  0  0  0  0  0  0
   -3.1102   -0.8685   -0.2946 H   0  0  0  0  0  0  0  0  0  0  0  0
   -1.1292   -0.4875    0.3524 C   0  0  1  0  0  0  0  0  0  0  0  0
   -0.3087   -1.1556    0.0882 H   0  0  0  0  0  0  0  0  0  0  0  0
   -1.1749    0.6534   -0.6787 C   0  0  0  0  0  0  0  0  0  0  0  0
   -2.2081    0.9825   -0.7975 H   0  0  0  0  0  0  0  0  0  0  0  0
   -0.6044    1.5004   -0.2940 H   0  0  0  0  0  0  0  0  0  0  0  0
   -0.6431    0.2692   -2.0459 C   0  0  0  0  0  0  0  0  0  0  0  0
   -1.4747    0.3491   -3.1809 C   0  0  0  0  0  0  0  0  0  0  0  0
   -2.5056    0.6609   -3.0758 H   0  0  0  0  0  0  0  0  0  0  0  0
   -0.9643    0.0300   -4.4543 C   0  0  0  0  0  0  0  0  0  0  0  0
   -1.6044    0.0908   -5.3210 H   0  0  0  0  0  0  0  0  0  0  0  0
    0.3836   -0.3669   -4.5930 C   0  0  0  0  0  0  0  0  0  0  0  0
    0.8861   -0.6740   -5.8171 O   0  0  0  0  0  0  0  0  0  0  0  0
    0.2097   -0.6732   -6.4957 H   0  0  0  0  0  0  0  0  0  0  0  0
    1.2156   -0.4416   -3.4568 C   0  0  0  0  0  0  0  0  0  0  0  0
    2.2433   -0.7506   -3.5752 H   0  0  0  0  0  0  0  0  0  0  0  0
    0.7013   -0.1264   -2.1847 C   0  0  0  0  0  0  0  0  0  0  0  0
    1.3386   -0.1930   -1.3110 H   0  0  0  0  0  0  0  0  0  0  0  0
   -0.8664    0.0378    1.7736 C   0  0  0  0  0  0  0  0  0  0  0  0
    0.2529   -0.0672    2.2760 O   0  0  0  0  0  0  0  0  0  0  0  0
   -1.8947    0.5991    2.4221 N   0  0  0  0  0  0  0  0  0  0  0  0
   -2.7942    0.5936    1.9635 H   0  0  0  0  0  0  0  0  0  0  0  0
   -1.8170    1.1453    3.7750 C   0  0  0  0  0  0  0  0  0  0  0  0
   -0.9697    1.8290    3.8506 H   0  0  0  0  0  0  0  0  0  0  0  0
   -2.7354    1.6828    4.0167 H   0  0  0  0  0  0  0  0  0  0  0  0
   -1.6754    0.3334    4.4914 H   0  0  0  0  0  0  0  0  0  0  0  0
  5  6  2  0  0  0  0
  5  7  1  0  0  0  0
  2  3  1  0  0  0  0
  2  4  1  0  0  0  0
  2  5  1  0  0  0  0
  1  2  1  0  0  0  0
 26 27  2  0  0  0  0
 26 28  1  0  0  0  0
 24 25  1  0  0  0  0
 22 23  1  0  0  0  0
 22 24  2  0  0  0  0
 20 21  1  0  0  0  0
 19 20  1  0  0  0  0
 19 22  1  0  0  0  0
 17 18  1  0  0  0  0
 17 19  2  0  0  0  0
 15 16  1  0  0  0  0
 15 17  1  0  0  0  0
 14 15  2  0  0  0  0
 14 24  1  0  0  0  0
 11 12  1  0  0  0  0
 11 13  1  0  0  0  0
 11 14  1  0  0  0  0
  9 10  1  0  0  0  0
  9 11  1  0  0  0  0
  9 26  1  0  0  0  0
  7  8  1  0  0  0  0
  7  9  1  0  0  0  0
 30 31  1  0  0  0  0
 30 32  1  0  0  0  0
 30 33  1  0  0  0  0
 28 29  1  0  0  0  0
 28 30  1  0  0  0  0
M  END
$$$$
default_name
  -OEChem-02102213163D

 33 33  0     1  0  0  0  0  0999 V2000
   -4.0702   -3.8485    1.4554 H   0  0  0  0  0  0  0  0  0  0  0  0
   -4.0012   -2.9605    0.8284 C   0  0  0  0  0  0  0  0  0  0  0  0
   -4.7652   -2.2435    1.1234 H   0  0  0  0  0  0  0  0  0  0  0  0
   -4.1352   -3.2385   -0.2156 H   0  0  0  0  0  0  0  0  0  0  0  0
   -2.6362   -2.3395    1.0094 C   0  0  0  0  0  0  0  0  0  0  0  0
   -1.8292   -2.8395    1.7814 O   0  0  0  0  0  0  0  0  0  0  0  0
   -2.3832   -1.2445    0.2964 N   0  0  0  0  0  0  0  0  0  0  0  0
   -3.1102   -0.8685   -0.2946 H   0  0  0  0  0  0  0  0  0  0  0  0
   -1.1292   -0.4875    0.3524 C   0  0  1  0  0  0  0  0  0  0  0  0
   -0.3087   -1.1556    0.0882 H   0  0  0  0  0  0  0  0  0  0  0  0
   -1.1749    0.6534   -0.6787 C   0  0  0  0  0  0  0  0  0  0  0  0
   -2.2081    0.9825   -0.7975 H   0  0  0  0  0  0  0  0  0  0  0  0
   -0.6044    1.5004   -0.2940 H   0  0  0  0  0  0  0  0  0  0  0  0
   -0.6431    0.2692   -2.0459 C   0  0  0  0  0  0  0  0  0  0  0  0
   -1.3447    0.6373   -3.2114 C   0  0  0  0  0  0  0  0  0  0  0  0
   -2.2811    1.1741   -3.1327 H   0  0  0  0  0  0  0  0  0  0  0  0
   -0.8259    0.3134   -4.4801 C   0  0  0  0  0  0  0  0  0  0  0  0
   -1.3666    0.5955   -5.3704 H   0  0  0  0  0  0  0  0  0  0  0  0
    0.4009   -0.3779   -4.5832 C   0  0  0  0  0  0  0  0  0  0  0  0
    0.9111   -0.6924   -5.8022 O   0  0  0  0  0  0  0  0  0  0  0  0
    0.3069   -0.4754   -6.5134 H   0  0  0  0  0  0  0  0  0  0  0  0
    1.1041   -0.7412   -3.4160 C   0  0  0  0  0  0  0  0  0  0  0  0
    2.0389   -1.2734   -3.5077 H   0  0  0  0  0  0  0  0  0  0  0  0
    0.5806   -0.4200   -2.1492 C   0  0  0  0  0  0  0  0  0  0  0  0
    1.1169   -0.7076   -1.2526 H   0  0  0  0  0  0  0  0  0  0  0  0
   -0.8664    0.0378    1.7736 C   0  0  0  0  0  0  0  0  0  0  0  0
    0.2529   -0.0672    2.2760 O   0  0  0  0  0  0  0  0  0  0  0  0
   -1.8947    0.5991    2.4221 N   0  0  0  0  0  0  0  0  0  0  0  0
   -2.7942    0.5936    1.9635 H   0  0  0  0  0  0  0  0  0  0  0  0
   -1.8170    1.1453    3.7750 C   0  0  0  0  0  0  0  0  0  0  0  0
   -0.9697    1.8290    3.8506 H   0  0  0  0  0  0  0  0  0  0  0  0
   -2.7354    1.6828    4.0167 H   0  0  0  0  0  0  0  0  0  0  0  0
   -1.6754    0.3334    4.4914 H   0  0  0  0  0  0  0  0  0  0  0  0
  5  6  2  0  0  0  0
  5  7  1  0  0  0  0
  2  3  1  0  0  0  0
  2  4  1  0  0  0  0
  2  5  1  0  0  0  0
  1  2  1  0  0  0  0
 26 27  2  0  0  0  0
 26 28  1  0  0  0  0
 24 25  1  0  0  0  0
 22 23  1  0  0  0  0
 22 24  2  0  0  0  0
 20 21  1  0  0  0  0
 19 20  1  0  0  0  0
 19 22  1  0  0  0  0
 17 18  1  0  0  0  0
 17 19  2  0  0  0  0
 15 16  1  0  0  0  0
 15 17  1  0  0  0  0
 14 15  2  0  0  0  0
 14 24  1  0  0  0  0
 11 12  1  0  0  0  0
 11 13  1  0  0  0  0
 11 14  1  0  0  0  0
  9 10  1  0  0  0  0
  9 11  1  0  0  0  0
  9 26  1  0  0  0  0
  7  8  1  0  0  0  0
  7  9  1  0  0  0  0
 30 31  1  0  0  0  0
 30 32  1  0  0  0  0
 30 33  1  0  0  0  0
 28 29  1  0  0  0  0
 28 30  1  0  0  0  0
M  END
$$$$
default_name
  -OEChem-02102213163D

 33 33  0     1  0  0  0  0  0999 V2000
   -4.0702   -3.8485    1.4554 H   0  0  0  0  0  0  0  0  0  0  0  0
   -4.0012   -2.9605    0.8284 C   0  0  0  0  0  0  0  0  0  0  0  0
   -4.7652   -2.2435    1.1234 H   0  0  0  0  0  0  0  0  0  0  0  0
   -4.1352   -3.2385   -0.2156 H   0  0  0  0  0  0  0  0  0  0  0  0
   -2.6362   -2.3395    1.0094 C   0  0  0  0  0  0  0  0  0  0  0  0
   -1.8292   -2.8395    1.7814 O   0  0  0  0  0  0  0  0  0  0  0  0
   -2.3832   -1.2445    0.2964 N   0  0  0  0  0  0  0  0  0  0  0  0
   -3.1102   -0.8685   -0.2946 H   0  0  0  0  0  0  0  0  0  0  0  0
   -1.1292   -0.4875    0.3524 C   0  0  1  0  0  0  0  0  0  0  0  0
   -0.3087   -1.1556    0.0882 H   0  0  0  0  0  0  0  0  0  0  0  0
   -1.1749    0.6534   -0.6787 C   0  0  0  0  0  0  0  0  0  0  0  0
   -2.2081    0.9825   -0.7975 H   0  0  0  0  0  0  0  0  0  0  0  0
   -0.6044    1.5004   -0.2940 H   0  0  0  0  0  0  0  0  0  0  0  0
   -0.6431    0.2692   -2.0459 C   0  0  0  0  0  0  0  0  0  0  0  0
   -1.1500    0.8882   -3.2061 C   0  0  0  0  0  0  0  0  0  0  0  0
   -1.9408    1.6226   -3.1263 H   0  0  0  0  0  0  0  0  0  0  0  0
   -0.6244    0.5572   -4.4702 C   0  0  0  0  0  0  0  0  0  0  0  0
   -1.0160    1.0320   -5.3567 H   0  0  0  0  0  0  0  0  0  0  0  0
    0.4144   -0.3935   -4.5736 C   0  0  0  0  0  0  0  0  0  0  0  0
    0.9300   -0.7173   -5.7878 O   0  0  0  0  0  0  0  0  0  0  0  0
    0.4482   -0.3055   -6.5062 H   0  0  0  0  0  0  0  0  0  0  0  0
    0.9238   -1.0083   -3.4111 C   0  0  0  0  0  0  0  0  0  0  0  0
    1.7151   -1.7369   -3.5034 H   0  0  0  0  0  0  0  0  0  0  0  0
    0.3932   -0.6787   -2.1494 C   0  0  0  0  0  0  0  0  0  0  0  0
    0.7787   -1.1583   -1.2575 H   0  0  0  0  0  0  0  0  0  0  0  0
   -0.8664    0.0378    1.7736 C   0  0  0  0  0  0  0  0  0  0  0  0
    0.2529   -0.0672    2.2760 O   0  0  0  0  0  0  0  0  0  0  0  0
   -1.8947    0.5991    2.4221 N   0  0  0  0  0  0  0  0  0  0  0  0
   -2.7942    0.5936    1.9635 H   0  0  0  0  0  0  0  0  0  0  0  0
   -1.8170    1.1453    3.7750 C   0  0  0  0  0  0  0  0  0  0  0  0
   -0.9697    1.8290    3.8506 H   0  0  0  0  0  0  0  0  0  0  0  0
   -2.7354    1.6828    4.0167 H   0  0  0  0  0  0  0  0  0  0  0  0
   -1.6754    0.3334    4.4914 H   0  0  0  0  0  0  0  0  0  0  0  0
  5  6  2  0  0  0  0
  5  7  1  0  0  0  0
  2  3  1  0  0  0  0
  2  4  1  0  0  0  0
  2  5  1  0  0  0  0
  1  2  1  0  0  0  0
 26 27  2  0  0  0  0
 26 28  1  0  0  0  0
 24 25  1  0  0  0  0
 22 23  1  0  0  0  0
 22 24  2  0  0  0  0
 20 21  1  0  0  0  0
 19 20  1  0  0  0  0
 19 22  1  0  0  0  0
 17 18  1  0  0  0  0
 17 19  2  0  0  0  0
 15 16  1  0  0  0  0
 15 17  1  0  0  0  0
 14 15  2  0  0  0  0
 14 24  1  0  0  0  0
 11 12  1  0  0  0  0
 11 13  1  0  0  0  0
 11 14  1  0  0  0  0
  9 10  1  0  0  0  0
  9 11  1  0  0  0  0
  9 26  1  0  0  0  0
  7  8  1  0  0  0  0
  7  9  1  0  0  0  0
 30 31  1  0  0  0  0
 30 32  1  0  0  0  0
 30 33  1  0  0  0  0
 28 29  1  0  0  0  0
 28 30  1  0  0  0  0
M  END
$$$$
default_name
  -OEChem-02102213163D

 33 33  0     1  0  0  0  0  0999 V2000
   -4.0702   -3.8485    1.4554 H   0  0  0  0  0  0  0  0  0  0  0  0
   -4.0012   -2.9605    0.8284 C   0  0  0  0  0  0  0  0  0  0  0  0
   -4.7652   -2.2435    1.1234 H   0  0  0  0  0  0  0  0  0  0  0  0
   -4.1352   -3.2385   -0.2156 H   0  0  0  0  0  0  0  0  0  0  0  0
   -2.6362   -2.3395    1.0094 C   0  0  0  0  0  0  0  0  0  0  0  0
   -1.8292   -2.8395    1.7814 O   0  0  0  0  0  0  0  0  0  0  0  0
   -2.3832   -1.2445    0.2964 N   0  0  0  0  0  0  0  0  0  0  0  0
   -3.1102   -0.8685   -0.2946 H   0  0  0  0  0  0  0  0  0  0  0  0
   -1.1292   -0.4875    0.3524 C   0  0  1  0  0  0  0  0  0  0  0  0
   -0.3087   -1.1556    0.0882 H   0  0  0  0  0  0  0  0  0  0  0  0
   -1.1749    0.6534   -0.6787 C   0  0  0  0  0  0  0  0  0  0  0  0
   -2.2081    0.9825   -0.7975 H   0  0  0  0  0  0  0  0  0  0  0  0
   -0.6044    1.5004   -0.2940 H   0  0  0  0  0  0  0  0  0  0  0  0
   -0.6431    0.2692   -2.0459 C   0  0  0  0  0  0  0  0  0  0  0  0
   -0.9037    1.0845   -3.1655 C   0  0  0  0  0  0  0  0  0  0  0  0
   -1.5078    1.9758   -3.0572 H   0  0  0  0  0  0  0  0  0  0  0  0
   -0.3735    0.7448   -4.4254 C   0  0  0  0  0  0  0  0  0  0  0  0
   -0.5764    1.3706   -5.2809 H   0  0  0  0  0  0  0  0  0  0  0  0
    0.4232   -0.4125   -4.5648 C   0  0  0  0  0  0  0  0  0  0  0  0
    0.9415   -0.7472   -5.7750 O   0  0  0  0  0  0  0  0  0  0  0  0
    0.6238   -0.1749   -6.4746 H   0  0  0  0  0  0  0  0  0  0  0  0
    0.6870   -1.2246   -3.4424 C   0  0  0  0  0  0  0  0  0  0  0  0
    1.2939   -2.1093   -3.5626 H   0  0  0  0  0  0  0  0  0  0  0  0
    0.1518   -0.8849   -2.1853 C   0  0  0  0  0  0  0  0  0  0  0  0
    0.3473   -1.5143   -1.3253 H   0  0  0  0  0  0  0  0  0  0  0  0
   -0.8664    0.0378    1.7736 C   0  0  0  0  0  0  0  0  0  0  0  0
    0.2529   -0.0672    2.2760 O   0  0  0  0  0  0  0  0  0  0  0  0
   -1.8947    0.5991    2.4221 N   0  0  0  0  0  0  0  0  0  0  0  0
   -2.7942    0.5936    1.9635 H   0  0  0  0  0  0  0  0  0  0  0  0
   -1.8170    1.1453    3.7750 C   0  0  0  0  0  0  0  0  0  0  0  0
   -0.9697    1.8290    3.8506 H   0  0  0  0  0  0  0  0  0  0  0  0
   -2.7354    1.6828    4.0167 H   0  0  0  0  0  0  0  0  0  0  0  0
   -1.6754    0.3334    4.4914 H   0  0  0  0  0  0  0  0  0  0  0  0
  5  6  2  0  0  0  0
  5  7  1  0  0  0  0
  2  3  1  0  0  0  0
  2  4  1  0  0  0  0
  2  5  1  0  0  0  0
  1  2  1  0  0  0  0
 26 27  2  0  0  0  0
 26 28  1  0  0  0  0
 24 25  1  0  0  0  0
 22 23  1  0  0  0  0
 22 24  2  0  0  0  0
 20 21  1  0  0  0  0
 19 20  1  0  0  0  0
 19 22  1  0  0  0  0
 17 18  1  0  0  0  0
 17 19  2  0  0  0  0
 15 16  1  0  0  0  0
 15 17  1  0  0  0  0
 14 15  2  0  0  0  0
 14 24  1  0  0  0  0
 11 12  1  0  0  0  0
 11 13  1  0  0  0  0
 11 14  1  0  0  0  0
  9 10  1  0  0  0  0
  9 11  1  0  0  0  0
  9 26  1  0  0  0  0
  7  8  1  0  0  0  0
  7  9  1  0  0  0  0
 30 31  1  0  0  0  0
 30 32  1  0  0  0  0
 30 33  1  0  0  0  0
 28 29  1  0  0  0  0
 28 30  1  0  0  0  0
M  END
$$$$
default_name
  -OEChem-02102213163D

 33 33  0     1  0  0  0  0  0999 V2000
   -4.0702   -3.8485    1.4554 H   0  0  0  0  0  0  0  0  0  0  0  0
   -4.0012   -2.9605    0.8284 C   0  0  0  0  0  0  0  0  0  0  0  0
   -4.7652   -2.2435    1.1234 H   0  0  0  0  0  0  0  0  0  0  0  0
   -4.1352   -3.2385   -0.2156 H   0  0  0  0  0  0  0  0  0  0  0  0
   -2.6362   -2.3395    1.0094 C   0  0  0  0  0  0  0  0  0  0  0  0
   -1.8292   -2.8395    1.7814 O   0  0  0  0  0  0  0  0  0  0  0  0
   -2.3832   -1.2445    0.2964 N   0  0  0  0  0  0  0  0  0  0  0  0
   -3.1102   -0.8685   -0.2946 H   0  0  0  0  0  0  0  0  0  0  0  0
   -1.1292   -0.4875    0.3524 C   0  0  1  0  0  0  0  0  0  0  0  0
   -0.3087   -1.1556    0.0882 H   0  0  0  0  0  0  0  0  0  0  0  0
   -1.1749    0.6534   -0.6787 C   0  0  0  0  0  0  0  0  0  0  0  0
   -2.1390    1.1586   -0.6058 H   0  0  0  0  0  0  0  0  0  0  0  0
   -0.4034    1.3845   -0.4312 H   0  0  0  0  0  0  0  0  0  0  0  0
   -0.9909    0.1951   -2.1125 C   0  0  0  0  0  0  0  0  0  0  0  0
   -1.0097    1.1306   -3.1664 C   0  0  0  0  0  0  0  0  0  0  0  0
   -1.1821    2.1782   -2.9572 H   0  0  0  0  0  0  0  0  0  0  0  0
   -0.7979    0.7052   -4.4923 C   0  0  0  0  0  0  0  0  0  0  0  0
   -0.8145    1.4240   -5.2970 H   0  0  0  0  0  0  0  0  0  0  0  0
   -0.5628   -0.6602   -4.7642 C   0  0  0  0  0  0  0  0  0  0  0  0
   -0.3545   -1.0801   -6.0392 O   0  0  0  0  0  0  0  0  0  0  0  0
   -0.4811   -0.3760   -6.6765 H   0  0  0  0  0  0  0  0  0  0  0  0
   -0.5394   -1.5943   -3.7078 C   0  0  0  0  0  0  0  0  0  0  0  0
   -0.3630   -2.6362   -3.9290 H   0  0  0  0  0  0  0  0  0  0  0  0
   -0.7560   -1.1666   -2.3841 C   0  0  0  0  0  0  0  0  0  0  0  0
   -0.7472   -1.8862   -1.5741 H   0  0  0  0  0  0  0  0  0  0  0  0
   -0.8664    0.0378    1.7736 C   0  0  0  0  0  0  0  0  0  0  0  0
    0.2529   -0.0672    2.2760 O   0  0  0  0  0  0  0  0  0  0  0  0
   -1.8947    0.5991    2.4221 N   0  0  0  0  0  0  0  0  0  0  0  0
   -2.7942    0.5936    1.9635 H   0  0  0  0  0  0  0  0  0  0  0  0
   -1.8170    1.1453    3.7750 C   0  0  0  0  0  0  0  0  0  0  0  0
   -0.9697    1.8290    3.8506 H   0  0  0  0  0  0  0  0  0  0  0  0
   -2.7354    1.6828    4.0167 H   0  0  0  0  0  0  0  0  0  0  0  0
   -1.6754    0.3334    4.4914 H   0  0  0  0  0  0  0  0  0  0  0  0
  5  6  2  0  0  0  0
  5  7  1  0  0  0  0
  2  3  1  0  0  0  0
  2  4  1  0  0  0  0
  2  5  1  0  0  0  0
  1  2  1  0  0  0  0
 26 27  2  0  0  0  0
 26 28  1  0  0  0  0
 24 25  1  0  0  0  0
 22 23  1  0  0  0  0
 22 24  2  0  0  0  0
 20 21  1  0  0  0  0
 19 20  1  0  0  0  0
 19 22  1  0  0  0  0
 17 18  1  0  0  0  0
 17 19  2  0  0  0  0
 15 16  1  0  0  0  0
 15 17  1  0  0  0  0
 14 15  2  0  0  0  0
 14 24  1  0  0  0  0
 11 12  1  0  0  0  0
 11 13  1  0  0  0  0
 11 14  1  0  0  0  0
  9 10  1  0  0  0  0
  9 11  1  0  0  0  0
  9 26  1  0  0  0  0
  7  8  1  0  0  0  0
  7  9  1  0  0  0  0
 30 31  1  0  0  0  0
 30 32  1  0  0  0  0
 30 33  1  0  0  0  0
 28 29  1  0  0  0  0
 28 30  1  0  0  0  0
M  END
$$$$
default_name
  -OEChem-02102213163D

 33 33  0     1  0  0  0  0  0999 V2000
   -4.0702   -3.8485    1.4554 H   0  0  0  0  0  0  0  0  0  0  0  0
   -4.0012   -2.9605    0.8284 C   0  0  0  0  0  0  0  0  0  0  0  0
   -4.7652   -2.2435    1.1234 H   0  0  0  0  0  0  0  0  0  0  0  0
   -4.1352   -3.2385   -0.2156 H   0  0  0  0  0  0  0  0  0  0  0  0
   -2.6362   -2.3395    1.0094 C   0  0  0  0  0  0  0  0  0  0  0  0
   -1.8292   -2.8395    1.7814 O   0  0  0  0  0  0  0  0  0  0  0  0
   -2.3832   -1.2445    0.2964 N   0  0  0  0  0  0  0  0  0  0  0  0
   -3.1102   -0.8685   -0.2946 H   0  0  0  0  0  0  0  0  0  0  0  0
   -1.1292   -0.4875    0.3524 C   0  0  1  0  0  0  0  0  0  0  0  0
   -0.3087   -1.1556    0.0882 H   0  0  0  0  0  0  0  0  0  0  0  0
   -1.1749    0.6534   -0.6787 C   0  0  0  0  0  0  0  0  0  0  0  0
   -2.1390    1.1586   -0.6058 H   0  0  0  0  0  0  0  0  0  0  0  0
   -0.4034    1.3845   -0.4312 H   0  0  0  0  0  0  0  0  0  0  0  0
   -0.9909    0.1951   -2.1125 C   0  0  0  0  0  0  0  0  0  0  0  0
   -0.6947    1.1291   -3.1255 C   0  0  0  0  0  0  0  0  0  0  0  0
   -0.6235    2.1822   -2.8867 H   0  0  0  0  0  0  0  0  0  0  0  0
   -0.4847    0.6935   -4.4483 C   0  0  0  0  0  0  0  0  0  0  0  0
   -0.2596    1.4116   -5.2218 H   0  0  0  0  0  0  0  0  0  0  0  0
   -0.5676   -0.6816   -4.7580 C   0  0  0  0  0  0  0  0  0  0  0  0
   -0.3638   -1.1121   -6.0301 O   0  0  0  0  0  0  0  0  0  0  0  0
   -0.2623   -0.3848   -6.6456 H   0  0  0  0  0  0  0  0  0  0  0  0
   -0.8592   -1.6153   -3.7421 C   0  0  0  0  0  0  0  0  0  0  0  0
   -0.9242   -2.6636   -3.9923 H   0  0  0  0  0  0  0  0  0  0  0  0
   -1.0731   -1.1763   -2.4217 C   0  0  0  0  0  0  0  0  0  0  0  0
   -1.3063   -1.8934   -1.6436 H   0  0  0  0  0  0  0  0  0  0  0  0
   -0.8664    0.0378    1.7736 C   0  0  0  0  0  0  0  0  0  0  0  0
    0.2529   -0.0672    2.2760 O   0  0  0  0  0  0  0  0  0  0  0  0
   -1.8947    0.5991    2.4221 N   0  0  0  0  0  0  0  0  0  0  0  0
   -2.7942    0.5936    1.9635 H   0  0  0  0  0  0  0  0  0  0  0  0
   -1.8170    1.1453    3.7750 C   0  0  0  0  0  0  0  0  0  0  0  0
   -0.9697    1.8290    3.8506 H   0  0  0  0  0  0  0  0  0  0  0  0
   -2.7354    1.6828    4.0167 H   0  0  0  0  0  0  0  0  0  0  0  0
   -1.6754    0.3334    4.4914 H   0  0  0  0  0  0  0  0  0  0  0  0
  5  6  2  0  0  0  0
  5  7  1  0  0  0  0
  2  3  1  0  0  0  0
  2  4  1  0  0  0  0
  2  5  1  0  0  0  0
  1  2  1  0  0  0  0
 26 27  2  0  0  0  0
 26 28  1  0  0  0  0
 24 25  1  0  0  0  0
 22 23  1  0  0  0  0
 22 24  2  0  0  0  0
 20 21  1  0  0  0  0
 19 20  1  0  0  0  0
 19 22  1  0  0  0  0
 17 18  1  0  0  0  0
 17 19  2  0  0  0  0
 15 16  1  0  0  0  0
 15 17  1  0  0  0  0
 14 15  2  0  0  0  0
 14 24  1  0  0  0  0
 11 12  1  0  0  0  0
 11 13  1  0  0  0  0
 11 14  1  0  0  0  0
  9 10  1  0  0  0  0
  9 11  1  0  0  0  0
  9 26  1  0  0  0  0
  7  8  1  0  0  0  0
  7  9  1  0  0  0  0
 30 31  1  0  0  0  0
 30 32  1  0  0  0  0
 30 33  1  0  0  0  0
 28 29  1  0  0  0  0
 28 30  1  0  0  0  0
M  END
$$$$
default_name
  -OEChem-02102213163D

 33 33  0     1  0  0  0  0  0999 V2000
   -4.0702   -3.8485    1.4554 H   0  0  0  0  0  0  0  0  0  0  0  0
   -4.0012   -2.9605    0.8284 C   0  0  0  0  0  0  0  0  0  0  0  0
   -4.7652   -2.2435    1.1234 H   0  0  0  0  0  0  0  0  0  0  0  0
   -4.1352   -3.2385   -0.2156 H   0  0  0  0  0  0  0  0  0  0  0  0
   -2.6362   -2.3395    1.0094 C   0  0  0  0  0  0  0  0  0  0  0  0
   -1.8292   -2.8395    1.7814 O   0  0  0  0  0  0  0  0  0  0  0  0
   -2.3832   -1.2445    0.2964 N   0  0  0  0  0  0  0  0  0  0  0  0
   -3.1102   -0.8685   -0.2946 H   0  0  0  0  0  0  0  0  0  0  0  0
   -1.1292   -0.4875    0.3524 C   0  0  1  0  0  0  0  0  0  0  0  0
   -0.3087   -1.1556    0.0882 H   0  0  0  0  0  0  0  0  0  0  0  0
   -1.1749    0.6534   -0.6787 C   0  0  0  0  0  0  0  0  0  0  0  0
   -2.1390    1.1586   -0.6058 H   0  0  0  0  0  0  0  0  0  0  0  0
   -0.4034    1.3845   -0.4312 H   0  0  0  0  0  0  0  0  0  0  0  0
   -0.9909    0.1951   -2.1125 C   0  0  0  0  0  0  0  0  0  0  0  0
   -0.3941    1.0493   -3.0614 C   0  0  0  0  0  0  0  0  0  0  0  0
   -0.0884    2.0470   -2.7749 H   0  0  0  0  0  0  0  0  0  0  0  0
   -0.1885    0.6042   -4.3818 C   0  0  0  0  0  0  0  0  0  0  0  0
    0.2674    1.2615   -5.1062 H   0  0  0  0  0  0  0  0  0  0  0  0
   -0.5779   -0.7012   -4.7531 C   0  0  0  0  0  0  0  0  0  0  0  0
   -0.3812   -1.1409   -6.0232 O   0  0  0  0  0  0  0  0  0  0  0  0
   -0.0556   -0.4478   -6.5989 H   0  0  0  0  0  0  0  0  0  0  0  0
   -1.1705   -1.5564   -3.8010 C   0  0  0  0  0  0  0  0  0  0  0  0
   -1.4680   -2.5507   -4.0981 H   0  0  0  0  0  0  0  0  0  0  0  0
   -1.3788   -1.1070   -2.4832 C   0  0  0  0  0  0  0  0  0  0  0  0
   -1.8426   -1.7613   -1.7546 H   0  0  0  0  0  0  0  0  0  0  0  0
   -0.8664    0.0378    1.7736 C   0  0  0  0  0  0  0  0  0  0  0  0
    0.2529   -0.0672    2.2760 O   0  0  0  0  0  0  0  0  0  0  0  0
   -1.8947    0.5991    2.4221 N   0  0  0  0  0  0  0  0  0  0  0  0
   -2.7942    0.5936    1.9635 H   0  0  0  0  0  0  0  0  0  0  0  0
   -1.8170    1.1453    3.7750 C   0  0  0  0  0  0  0  0  0  0  0  0
   -0.9697    1.8290    3.8506 H   0  0  0  0  0  0  0  0  0  0  0  0
   -2.7354    1.6828    4.0167 H   0  0  0  0  0  0  0  0  0  0  0  0
   -1.6754    0.3334    4.4914 H   0  0  0  0  0  0  0  0  0  0  0  0
  5  6  2  0  0  0  0
  5  7  1  0  0  0  0
  2  3  1  0  0  0  0
  2  4  1  0  0  0  0
  2  5  1  0  0  0  0
  1  2  1  0  0  0  0
 26 27  2  0  0  0  0
 26 28  1  0  0  0  0
 24 25  1  0  0  0  0
 22 23  1  0  0  0  0
 22 24  2  0  0  0  0
 20 21  1  0  0  0  0
 19 20  1  0  0  0  0
 19 22  1  0  0  0  0
 17 18  1  0  0  0  0
 17 19  2  0  0  0  0
 15 16  1  0  0  0  0
 15 17  1  0  0  0  0
 14 15  2  0  0  0  0
 14 24  1  0  0  0  0
 11 12  1  0  0  0  0
 11 13  1  0  0  0  0
 11 14  1  0  0  0  0
  9 10  1  0  0  0  0
  9 11  1  0  0  0  0
  9 26  1  0  0  0  0
  7  8  1  0  0  0  0
  7  9  1  0  0  0  0
 30 31  1  0  0  0  0
 30 32  1  0  0  0  0
 30 33  1  0  0  0  0
 28 29  1  0  0  0  0
 28 30  1  0  0  0  0
M  END
$$$$
default_name
  -OEChem-02102213163D

 33 33  0     1  0  0  0  0  0999 V2000
   -4.0702   -3.8485    1.4554 H   0  0  0  0  0  0  0  0  0  0  0  0
   -4.0012   -2.9605    0.8284 C   0  0  0  0  0  0  0  0  0  0  0  0
   -4.7652   -2.2435    1.1234 H   0  0  0  0  0  0  0  0  0  0  0  0
   -4.1352   -3.2385   -0.2156 H   0  0  0  0  0  0  0  0  0  0  0  0
   -2.6362   -2.3395    1.0094 C   0  0  0  0  0  0  0  0  0  0  0  0
   -1.8292   -2.8395    1.7814 O   0  0  0  0  0  0  0  0  0  0  0  0
   -2.3832   -1.2445    0.2964 N   0  0  0  0  0  0  0  0  0  0  0  0
   -3.1102   -0.8685   -0.2946 H   0  0  0  0  0  0  0  0  0  0  0  0
   -1.1292   -0.4875    0.3524 C   0  0  1  0  0  0  0  0  0  0  0  0
   -0.3087   -1.1556    0.0882 H   0  0  0  0  0  0  0  0  0  0  0  0
   -1.1749    0.6534   -0.6787 C   0  0  0  0  0  0  0  0  0  0  0  0
   -2.1390    1.1586   -0.6058 H   0  0  0  0  0  0  0  0  0  0  0  0
   -0.4034    1.3845   -0.4312 H   0  0  0  0  0  0  0  0  0  0  0  0
   -0.9909    0.1951   -2.1125 C   0  0  0  0  0  0  0  0  0  0  0  0
   -0.1282    0.8966   -2.9784 C   0  0  0  0  0  0  0  0  0  0  0  0
    0.3866    1.7821   -2.6292 H   0  0  0  0  0  0  0  0  0  0  0  0
    0.0706    0.4433   -4.2971 C   0  0  0  0  0  0  0  0  0  0  0  0
    0.7307    0.9839   -4.9579 H   0  0  0  0  0  0  0  0  0  0  0  0
   -0.5931   -0.7178   -4.7497 C   0  0  0  0  0  0  0  0  0  0  0  0
   -0.4057   -1.1647   -6.0187 O   0  0  0  0  0  0  0  0  0  0  0  0
    0.1250   -0.5607   -6.5396 H   0  0  0  0  0  0  0  0  0  0  0  0
   -1.4522   -1.4214   -3.8803 C   0  0  0  0  0  0  0  0  0  0  0  0
   -1.9573   -2.3053   -4.2394 H   0  0  0  0  0  0  0  0  0  0  0  0
   -1.6523   -0.9632   -2.5642 C   0  0  0  0  0  0  0  0  0  0  0  0
   -2.3197   -1.4990   -1.8997 H   0  0  0  0  0  0  0  0  0  0  0  0
   -0.8664    0.0378    1.7736 C   0  0  0  0  0  0  0  0  0  0  0  0
    0.2529   -0.0672    2.2760 O   0  0  0  0  0  0  0  0  0  0  0  0
   -1.8947    0.5991    2.4221 N   0  0  0  0  0  0  0  0  0  0  0  0
   -2.7942    0.5936    1.9635 H   0  0  0  0  0  0  0  0  0  0  0  0
   -1.8170    1.1453    3.7750 C   0  0  0  0  0  0  0  0  0  0  0  0
   -0.9697    1.8290    3.8506 H   0  0  0  0  0  0  0  0  0  0  0  0
   -2.7354    1.6828    4.0167 H   0  0  0  0  0  0  0  0  0  0  0  0
   -1.6754    0.3334    4.4914 H   0  0  0  0  0  0  0  0  0  0  0  0
  5  6  2  0  0  0  0
  5  7  1  0  0  0  0
  2  3  1  0  0  0  0
  2  4  1  0  0  0  0
  2  5  1  0  0  0  0
  1  2  1  0  0  0  0
 26 27  2  0  0  0  0
 26 28  1  0  0  0  0
 24 25  1  0  0  0  0
 22 23  1  0  0  0  0
 22 24  2  0  0  0  0
 20 21  1  0  0  0  0
 19 20  1  0  0  0  0
 19 22  1  0  0  0  0
 17 18  1  0  0  0  0
 17 19  2  0  0  0  0
 15 16  1  0  0  0  0
 15 17  1  0  0  0  0
 14 15  2  0  0  0  0
 14 24  1  0  0  0  0
 11 12  1  0  0  0  0
 11 13  1  0  0  0  0
 11 14  1  0  0  0  0
  9 10  1  0  0  0  0
  9 11  1  0  0  0  0
  9 26  1  0  0  0  0
  7  8  1  0  0  0  0
  7  9  1  0  0  0  0
 30 31  1  0  0  0  0
 30 32  1  0  0  0  0
 30 33  1  0  0  0  0
 28 29  1  0  0  0  0
 28 30  1  0  0  0  0
M  END
$$$$
default_name
  -OEChem-02102213163D

 33 33  0     1  0  0  0  0  0999 V2000
   -4.0702   -3.8485    1.4554 H   0  0  0  0  0  0  0  0  0  0  0  0
   -4.0012   -2.9605    0.8284 C   0  0  0  0  0  0  0  0  0  0  0  0
   -4.7652   -2.2435    1.1234 H   0  0  0  0  0  0  0  0  0  0  0  0
   -4.1352   -3.2385   -0.2156 H   0  0  0  0  0  0  0  0  0  0  0  0
   -2.6362   -2.3395    1.0094 C   0  0  0  0  0  0  0  0  0  0  0  0
   -1.8292   -2.8395    1.7814 O   0  0  0  0  0  0  0  0  0  0  0  0
   -2.3832   -1.2445    0.2964 N   0  0  0  0  0  0  0  0  0  0  0  0
   -3.1102   -0.8685   -0.2946 H   0  0  0  0  0  0  0  0  0  0  0  0
   -1.1292   -0.4875    0.3524 C   0  0  1  0  0  0  0  0  0  0  0  0
   -0.3087   -1.1556    0.0882 H   0  0  0  0  0  0  0  0  0  0  0  0
   -1.1749    0.6534   -0.6787 C   0  0  0  0  0  0  0  0  0  0  0  0
   -2.1390    1.1586   -0.6058 H   0  0  0  0  0  0  0  0  0  0  0  0
   -0.4034    1.3845   -0.4312 H   0  0  0  0  0  0  0  0  0  0  0  0
   -0.9909    0.1951   -2.1125 C   0  0  0  0  0  0  0  0  0  0  0  0
    0.0847    0.6815   -2.8823 C   0  0  0  0  0  0  0  0  0  0  0  0
    0.7691    1.4054   -2.4597 H   0  0  0  0  0  0  0  0  0  0  0  0
    0.2748    0.2219   -4.2001 C   0  0  0  0  0  0  0  0  0  0  0  0
    1.0986    0.5977   -4.7872 H   0  0  0  0  0  0  0  0  0  0  0  0
   -0.6120   -0.7303   -4.7482 C   0  0  0  0  0  0  0  0  0  0  0  0
   -0.4356   -1.1819   -6.0170 O   0  0  0  0  0  0  0  0  0  0  0  0
    0.2672   -0.7158   -6.4718 H   0  0  0  0  0  0  0  0  0  0  0  0
   -1.6850   -1.2195   -3.9747 C   0  0  0  0  0  0  0  0  0  0  0  0
   -2.3589   -1.9441   -4.4064 H   0  0  0  0  0  0  0  0  0  0  0  0
   -1.8750   -0.7549   -2.6594 C   0  0  0  0  0  0  0  0  0  0  0  0
   -2.7050   -1.1243   -2.0690 H   0  0  0  0  0  0  0  0  0  0  0  0
   -0.8664    0.0378    1.7736 C   0  0  0  0  0  0  0  0  0  0  0  0
    0.2529   -0.0672    2.2760 O   0  0  0  0  0  0  0  0  0  0  0  0
   -1.8947    0.5991    2.4221 N   0  0  0  0  0  0  0  0  0  0  0  0
   -2.7942    0.5936    1.9635 H   0  0  0  0  0  0  0  0  0  0  0  0
   -1.8170    1.1453    3.7750 C   0  0  0  0  0  0  0  0  0  0  0  0
   -0.9697    1.8290    3.8506 H   0  0  0  0  0  0  0  0  0  0  0  0
   -2.7354    1.6828    4.0167 H   0  0  0  0  0  0  0  0  0  0  0  0
   -1.6754    0.3334    4.4914 H   0  0  0  0  0  0  0  0  0  0  0  0
  5  6  2  0  0  0  0
  5  7  1  0  0  0  0
  2  3  1  0  0  0  0
  2  4  1  0  0  0  0
  2  5  1  0  0  0  0
  1  2  1  0  0  0  0
 26 27  2  0  0  0  0
 26 28  1  0  0  0  0
 24 25  1  0  0  0  0
 22 23  1  0  0  0  0
 22 24  2  0  0  0  0
 20 21  1  0  0  0  0
 19 20  1  0  0  0  0
 19 22  1  0  0  0  0
 17 18  1  0  0  0  0
 17 19  2  0  0  0  0
 15 16  1  0  0  0  0
 15 17  1  0  0  0  0
 14 15  2  0  0  0  0
 14 24  1  0  0  0  0
 11 12  1  0  0  0  0
 11 13  1  0  0  0  0
 11 14  1  0  0  0  0
  9 10  1  0  0  0  0
  9 11  1  0  0  0  0
  9 26  1  0  0  0  0
  7  8  1  0  0  0  0
  7  9  1  0  0  0  0
 30 31  1  0  0  0  0
 30 32  1  0  0  0  0
 30 33  1  0  0  0  0
 28 29  1  0  0  0  0
 28 30  1  0  0  0  0
M  END
$$$$
default_name
  -OEChem-02102213163D

 33 33  0     1  0  0  0  0  0999 V2000
   -4.0702   -3.8485    1.4554 H   0  0  0  0  0  0  0  0  0  0  0  0
   -4.0012   -2.9605    0.8284 C   0  0  0  0  0  0  0  0  0  0  0  0
   -4.7652   -2.2435    1.1234 H   0  0  0  0  0  0  0  0  0  0  0  0
   -4.1352   -3.2385   -0.2156 H   0  0  0  0  0  0  0  0  0  0  0  0
   -2.6362   -2.3395    1.0094 C   0  0  0  0  0  0  0  0  0  0  0  0
   -1.8292   -2.8395    1.7814 O   0  0  0  0  0  0  0  0  0  0  0  0
   -2.3832   -1.2445    0.2964 N   0  0  0  0  0  0  0  0  0  0  0  0
   -3.1102   -0.8685   -0.2946 H   0  0  0  0  0  0  0  0  0  0  0  0
   -1.1292   -0.4875    0.3524 C   0  0  1  0  0  0  0  0  0  0  0  0
   -0.3087   -1.1556    0.0882 H   0  0  0  0  0  0  0  0  0  0  0  0
   -1.1749    0.6534   -0.6787 C   0  0  0  0  0  0  0  0  0  0  0  0
   -2.1390    1.1586   -0.6058 H   0  0  0  0  0  0  0  0  0  0  0  0
   -0.4034    1.3845   -0.4312 H   0  0  0  0  0  0  0  0  0  0  0  0
   -0.9909    0.1951   -2.1125 C   0  0  0  0  0  0  0  0  0  0  0  0
    0.2303    0.4185   -2.7796 C   0  0  0  0  0  0  0  0  0  0  0  0
    1.0332    0.9425   -2.2778 H   0  0  0  0  0  0  0  0  0  0  0  0
    0.4104   -0.0450   -4.0974 C   0  0  0  0  0  0  0  0  0  0  0  0
    1.3462    0.1293   -4.6057 H   0  0  0  0  0  0  0  0  0  0  0  0
   -0.6335   -0.7377   -4.7486 C   0  0  0  0  0  0  0  0  0  0  0  0
   -0.4687   -1.1912   -6.0183 O   0  0  0  0  0  0  0  0  0  0  0  0
    0.3613   -0.9026   -6.4000 H   0  0  0  0  0  0  0  0  0  0  0  0
   -1.8531   -0.9647   -4.0777 C   0  0  0  0  0  0  0  0  0  0  0  0
   -2.6453   -1.4917   -4.5878 H   0  0  0  0  0  0  0  0  0  0  0  0
   -2.0317   -0.4961   -2.7622 C   0  0  0  0  0  0  0  0  0  0  0  0
   -2.9722   -0.6628   -2.2508 H   0  0  0  0  0  0  0  0  0  0  0  0
   -0.8664    0.0378    1.7736 C   0  0  0  0  0  0  0  0  0  0  0  0
    0.2529   -0.0672    2.2760 O   0  0  0  0  0  0  0  0  0  0  0  0
   -1.8947    0.5991    2.4221 N   0  0  0  0  0  0  0  0  0  0  0  0
   -2.7942    0.5936    1.9635 H   0  0  0  0  0  0  0  0  0  0  0  0
   -1.8170    1.1453    3.7750 C   0  0  0  0  0  0  0  0  0  0  0  0
   -0.9697    1.8290    3.8506 H   0  0  0  0  0  0  0  0  0  0  0  0
   -2.7354    1.6828    4.0167 H   0  0  0  0  0  0  0  0  0  0  0  0
   -1.6754    0.3334    4.4914 H   0  0  0  0  0  0  0  0  0  0  0  0
  5  6  2  0  0  0  0
  5  7  1  0  0  0  0
  2  3  1  0  0  0  0
  2  4  1  0  0  0  0
  2  5  1  0  0  0  0
  1  2  1  0  0  0  0
 26 27  2  0  0  0  0
 26 28  1  0  0  0  0
 24 25  1  0  0  0  0
 22 23  1  0  0  0  0
 22 24  2  0  0  0  0
 20 21  1  0  0  0  0
 19 20  1  0  0  0  0
 19 22  1  0  0  0  0
 17 18  1  0  0  0  0
 17 19  2  0  0  0  0
 15 16  1  0  0  0  0
 15 17  1  0  0  0  0
 14 15  2  0  0  0  0
 14 24  1  0  0  0  0
 11 12  1  0  0  0  0
 11 13  1  0  0  0  0
 11 14  1  0  0  0  0
  9 10  1  0  0  0  0
  9 11  1  0  0  0  0
  9 26  1  0  0  0  0
  7  8  1  0  0  0  0
  7  9  1  0  0  0  0
 30 31  1  0  0  0  0
 30 32  1  0  0  0  0
 30 33  1  0  0  0  0
 28 29  1  0  0  0  0
 28 30  1  0  0  0  0
M  END
$$$$
default_name
  -OEChem-02102213163D

 33 33  0     1  0  0  0  0  0999 V2000
   -4.0702   -3.8485    1.4554 H   0  0  0  0  0  0  0  0  0  0  0  0
   -4.0012   -2.9605    0.8284 C   0  0  0  0  0  0  0  0  0  0  0  0
   -4.7652   -2.2435    1.1234 H   0  0  0  0  0  0  0  0  0  0  0  0
   -4.1352   -3.2385   -0.2156 H   0  0  0  0  0  0  0  0  0  0  0  0
   -2.6362   -2.3395    1.0094 C   0  0  0  0  0  0  0  0  0  0  0  0
   -1.8292   -2.8395    1.7814 O   0  0  0  0  0  0  0  0  0  0  0  0
   -2.3832   -1.2445    0.2964 N   0  0  0  0  0  0  0  0  0  0  0  0
   -3.1102   -0.8685   -0.2946 H   0  0  0  0  0  0  0  0  0  0  0  0
   -1.1292   -0.4875    0.3524 C   0  0  1  0  0  0  0  0  0  0  0  0
   -0.3087   -1.1556    0.0882 H   0  0  0  0  0  0  0  0  0  0  0  0
   -1.1749    0.6534   -0.6787 C   0  0  0  0  0  0  0  0  0  0  0  0
   -2.1390    1.1586   -0.6058 H   0  0  0  0  0  0  0  0  0  0  0  0
   -0.4034    1.3845   -0.4312 H   0  0  0  0  0  0  0  0  0  0  0  0
   -0.9909    0.1951   -2.1125 C   0  0  0  0  0  0  0  0  0  0  0  0
    0.2985    0.1257   -2.6772 C   0  0  0  0  0  0  0  0  0  0  0  0
    1.1608    0.4251   -2.0960 H   0  0  0  0  0  0  0  0  0  0  0  0
    0.4679   -0.3392   -3.9959 C   0  0  0  0  0  0  0  0  0  0  0  0
    1.4565   -0.3895   -4.4257 H   0  0  0  0  0  0  0  0  0  0  0  0
   -0.6561   -0.7396   -4.7509 C   0  0  0  0  0  0  0  0  0  0  0  0
   -0.5029   -1.1921   -6.0224 O   0  0  0  0  0  0  0  0  0  0  0  0
    0.4009   -1.1082   -6.3291 H   0  0  0  0  0  0  0  0  0  0  0  0
   -1.9451   -0.6741   -4.1824 C   0  0  0  0  0  0  0  0  0  0  0  0
   -2.7971   -0.9789   -4.7713 H   0  0  0  0  0  0  0  0  0  0  0  0
   -2.1116   -0.2047   -2.8657 C   0  0  0  0  0  0  0  0  0  0  0  0
   -3.1032   -0.1459   -2.4329 H   0  0  0  0  0  0  0  0  0  0  0  0
   -0.8664    0.0378    1.7736 C   0  0  0  0  0  0  0  0  0  0  0  0
    0.2529   -0.0672    2.2760 O   0  0  0  0  0  0  0  0  0  0  0  0
   -1.8947    0.5991    2.4221 N   0  0  0  0  0  0  0  0  0  0  0  0
   -2.7942    0.5936    1.9635 H   0  0  0  0  0  0  0  0  0  0  0  0
   -1.8170    1.1453    3.7750 C   0  0  0  0  0  0  0  0  0  0  0  0
   -0.9697    1.8290    3.8506 H   0  0  0  0  0  0  0  0  0  0  0  0
   -2.7354    1.6828    4.0167 H   0  0  0  0  0  0  0  0  0  0  0  0
   -1.6754    0.3334    4.4914 H   0  0  0  0  0  0  0  0  0  0  0  0
  5  6  2  0  0  0  0
  5  7  1  0  0  0  0
  2  3  1  0  0  0  0
  2  4  1  0  0  0  0
  2  5  1  0  0  0  0
  1  2  1  0  0  0  0
 26 27  2  0  0  0  0
 26 28  1  0  0  0  0
 24 25  1  0  0  0  0
 22 23  1  0  0  0  0
 22 24  2  0  0  0  0
 20 21  1  0  0  0  0
 19 20  1  0  0  0  0
 19 22  1  0  0  0  0
 17 18  1  0  0  0  0
 17 19  2  0  0  0  0
 15 16  1  0  0  0  0
 15 17  1  0  0  0  0
 14 15  2  0  0  0  0
 14 24  1  0  0  0  0
 11 12  1  0  0  0  0
 11 13  1  0  0  0  0
 11 14  1  0  0  0  0
  9 10  1  0  0  0  0
  9 11  1  0  0  0  0
  9 26  1  0  0  0  0
  7  8  1  0  0  0  0
  7  9  1  0  0  0  0
 30 31  1  0  0  0  0
 30 32  1  0  0  0  0
 30 33  1  0  0  0  0
 28 29  1  0  0  0  0
 28 30  1  0  0  0  0
M  END
$$$$
default_name
  -OEChem-02102213163D

 33 33  0     1  0  0  0  0  0999 V2000
   -4.0702   -3.8485    1.4554 H   0  0  0  0  0  0  0  0  0  0  0  0
   -4.0012   -2.9605    0.8284 C   0  0  0  0  0  0  0  0  0  0  0  0
   -4.7652   -2.2435    1.1234 H   0  0  0  0  0  0  0  0  0  0  0  0
   -4.1352   -3.2385   -0.2156 H   0  0  0  0  0  0  0  0  0  0  0  0
   -2.6362   -2.3395    1.0094 C   0  0  0  0  0  0  0  0  0  0  0  0
   -1.8292   -2.8395    1.7814 O   0  0  0  0  0  0  0  0  0  0  0  0
   -2.3832   -1.2445    0.2964 N   0  0  0  0  0  0  0  0  0  0  0  0
   -3.1102   -0.8685   -0.2946 H   0  0  0  0  0  0  0  0  0  0  0  0
   -1.1292   -0.4875    0.3524 C   0  0  1  0  0  0  0  0  0  0  0  0
   -0.3087   -1.1556    0.0882 H   0  0  0  0  0  0  0  0  0  0  0  0
   -1.1749    0.6534   -0.6787 C   0  0  0  0  0  0  0  0  0  0  0  0
   -2.1390    1.1586   -0.6058 H   0  0  0  0  0  0  0  0  0  0  0  0
   -0.4034    1.3845   -0.4312 H   0  0  0  0  0  0  0  0  0  0  0  0
   -0.9909    0.1951   -2.1125 C   0  0  0  0  0  0  0  0  0  0  0  0
    0.2847   -0.1770   -2.5822 C   0  0  0  0  0  0  0  0  0  0  0  0
    1.1432   -0.1116   -1.9267 H   0  0  0  0  0  0  0  0  0  0  0  0
    0.4436   -0.6406   -3.9027 C   0  0  0  0  0  0  0  0  0  0  0  0
    1.4221   -0.9232   -4.2595 H   0  0  0  0  0  0  0  0  0  0  0  0
   -0.6781   -0.7358   -4.7549 C   0  0  0  0  0  0  0  0  0  0  0  0
   -0.5358   -1.1844   -6.0291 O   0  0  0  0  0  0  0  0  0  0  0  0
    0.3832   -1.3188   -6.2641 H   0  0  0  0  0  0  0  0  0  0  0  0
   -1.9546   -0.3676   -4.2816 C   0  0  0  0  0  0  0  0  0  0  0  0
   -2.8039   -0.4407   -4.9442 H   0  0  0  0  0  0  0  0  0  0  0  0
   -2.1094    0.0997   -2.9627 C   0  0  0  0  0  0  0  0  0  0  0  0
   -3.0890    0.3911   -2.6027 H   0  0  0  0  0  0  0  0  0  0  0  0
   -0.8664    0.0378    1.7736 C   0  0  0  0  0  0  0  0  0  0  0  0
    0.2529   -0.0672    2.2760 O   0  0  0  0  0  0  0  0  0  0  0  0
   -1.8947    0.5991    2.4221 N   0  0  0  0  0  0  0  0  0  0  0  0
   -2.7942    0.5936    1.9635 H   0  0  0  0  0  0  0  0  0  0  0  0
   -1.8170    1.1453    3.7750 C   0  0  0  0  0  0  0  0  0  0  0  0
   -0.9697    1.8290    3.8506 H   0  0  0  0  0  0  0  0  0  0  0  0
   -2.7354    1.6828    4.0167 H   0  0  0  0  0  0  0  0  0  0  0  0
   -1.6754    0.3334    4.4914 H   0  0  0  0  0  0  0  0  0  0  0  0
  5  6  2  0  0  0  0
  5  7  1  0  0  0  0
  2  3  1  0  0  0  0
  2  4  1  0  0  0  0
  2  5  1  0  0  0  0
  1  2  1  0  0  0  0
 26 27  2  0  0  0  0
 26 28  1  0  0  0  0
 24 25  1  0  0  0  0
 22 23  1  0  0  0  0
 22 24  2  0  0  0  0
 20 21  1  0  0  0  0
 19 20  1  0  0  0  0
 19 22  1  0  0  0  0
 17 18  1  0  0  0  0
 17 19  2  0  0  0  0
 15 16  1  0  0  0  0
 15 17  1  0  0  0  0
 14 15  2  0  0  0  0
 14 24  1  0  0  0  0
 11 12  1  0  0  0  0
 11 13  1  0  0  0  0
 11 14  1  0  0  0  0
  9 10  1  0  0  0  0
  9 11  1  0  0  0  0
  9 26  1  0  0  0  0
  7  8  1  0  0  0  0
  7  9  1  0  0  0  0
 30 31  1  0  0  0  0
 30 32  1  0  0  0  0
 30 33  1  0  0  0  0
 28 29  1  0  0  0  0
 28 30  1  0  0  0  0
M  END
$$$$
default_name
  -OEChem-02102213163D

 33 33  0     1  0  0  0  0  0999 V2000
   -4.0702   -3.8485    1.4554 H   0  0  0  0  0  0  0  0  0  0  0  0
   -4.0012   -2.9605    0.8284 C   0  0  0  0  0  0  0  0  0  0  0  0
   -4.7652   -2.2435    1.1234 H   0  0  0  0  0  0  0  0  0  0  0  0
   -4.1352   -3.2385   -0.2156 H   0  0  0  0  0  0  0  0  0  0  0  0
   -2.6362   -2.3395    1.0094 C   0  0  0  0  0  0  0  0  0  0  0  0
   -1.8292   -2.8395    1.7814 O   0  0  0  0  0  0  0  0  0  0  0  0
   -2.3832   -1.2445    0.2964 N   0  0  0  0  0  0  0  0  0  0  0  0
   -3.1102   -0.8685   -0.2946 H   0  0  0  0  0  0  0  0  0  0  0  0
   -1.1292   -0.4875    0.3524 C   0  0  1  0  0  0  0  0  0  0  0  0
   -0.3087   -1.1556    0.0882 H   0  0  0  0  0  0  0  0  0  0  0  0
   -1.1749    0.6534   -0.6787 C   0  0  0  0  0  0  0  0  0  0  0  0
   -2.1390    1.1586   -0.6058 H   0  0  0  0  0  0  0  0  0  0  0  0
   -0.4034    1.3845   -0.4312 H   0  0  0  0  0  0  0  0  0  0  0  0
   -0.9909    0.1951   -2.1125 C   0  0  0  0  0  0  0  0  0  0  0  0
    0.1899   -0.4691   -2.5010 C   0  0  0  0  0  0  0  0  0  0  0  0
    0.9817   -0.6310   -1.7813 H   0  0  0  0  0  0  0  0  0  0  0  0
    0.3390   -0.9288   -3.8240 C   0  0  0  0  0  0  0  0  0  0  0  0
    1.2452   -1.4355   -4.1184 H   0  0  0  0  0  0  0  0  0  0  0  0
   -0.6982   -0.7266   -4.7604 C   0  0  0  0  0  0  0  0  0  0  0  0
   -0.5652   -1.1688   -6.0379 O   0  0  0  0  0  0  0  0  0  0  0  0
    0.3095   -1.5199   -6.2093 H   0  0  0  0  0  0  0  0  0  0  0  0
   -1.8811   -0.0662   -4.3686 C   0  0  0  0  0  0  0  0  0  0  0  0
   -2.6652    0.0863   -5.0949 H   0  0  0  0  0  0  0  0  0  0  0  0
   -2.0253    0.3962   -3.0467 C   0  0  0  0  0  0  0  0  0  0  0  0
   -2.9306    0.9117   -2.7488 H   0  0  0  0  0  0  0  0  0  0  0  0
   -0.8664    0.0378    1.7736 C   0  0  0  0  0  0  0  0  0  0  0  0
    0.2529   -0.0672    2.2760 O   0  0  0  0  0  0  0  0  0  0  0  0
   -1.8947    0.5991    2.4221 N   0  0  0  0  0  0  0  0  0  0  0  0
   -2.7942    0.5936    1.9635 H   0  0  0  0  0  0  0  0  0  0  0  0
   -1.8170    1.1453    3.7750 C   0  0  0  0  0  0  0  0  0  0  0  0
   -0.9697    1.8290    3.8506 H   0  0  0  0  0  0  0  0  0  0  0  0
   -2.7354    1.6828    4.0167 H   0  0  0  0  0  0  0  0  0  0  0  0
   -1.6754    0.3334    4.4914 H   0  0  0  0  0  0  0  0  0  0  0  0
  5  6  2  0  0  0  0
  5  7  1  0  0  0  0
  2  3  1  0  0  0  0
  2  4  1  0  0  0  0
  2  5  1  0  0  0  0
  1  2  1  0  0  0  0
 26 27  2  0  0  0  0
 26 28  1  0  0  0  0
 24 25  1  0  0  0  0
 22 23  1  0  0  0  0
 22 24  2  0  0  0  0
 20 21  1  0  0  0  0
 19 20  1  0  0  0  0
 19 22  1  0  0  0  0
 17 18  1  0  0  0  0
 17 19  2  0  0  0  0
 15 16  1  0  0  0  0
 15 17  1  0  0  0  0
 14 15  2  0  0  0  0
 14 24  1  0  0  0  0
 11 12  1  0  0  0  0
 11 13  1  0  0  0  0
 11 14  1  0  0  0  0
  9 10  1  0  0  0  0
  9 11  1  0  0  0  0
  9 26  1  0  0  0  0
  7  8  1  0  0  0  0
  7  9  1  0  0  0  0
 30 31  1  0  0  0  0
 30 32  1  0  0  0  0
 30 33  1  0  0  0  0
 28 29  1  0  0  0  0
 28 30  1  0  0  0  0
M  END
$$$$
default_name
  -OEChem-02102213163D

 33 33  0     1  0  0  0  0  0999 V2000
   -4.0702   -3.8485    1.4554 H   0  0  0  0  0  0  0  0  0  0  0  0
   -4.0012   -2.9605    0.8284 C   0  0  0  0  0  0  0  0  0  0  0  0
   -4.7652   -2.2435    1.1234 H   0  0  0  0  0  0  0  0  0  0  0  0
   -4.1352   -3.2385   -0.2156 H   0  0  0  0  0  0  0  0  0  0  0  0
   -2.6362   -2.3395    1.0094 C   0  0  0  0  0  0  0  0  0  0  0  0
   -1.8292   -2.8395    1.7814 O   0  0  0  0  0  0  0  0  0  0  0  0
   -2.3832   -1.2445    0.2964 N   0  0  0  0  0  0  0  0  0  0  0  0
   -3.1102   -0.8685   -0.2946 H   0  0  0  0  0  0  0  0  0  0  0  0
   -1.1292   -0.4875    0.3524 C   0  0  1  0  0  0  0  0  0  0  0  0
   -0.3087   -1.1556    0.0882 H   0  0  0  0  0  0  0  0  0  0  0  0
   -1.1749    0.6534   -0.6787 C   0  0  0  0  0  0  0  0  0  0  0  0
   -2.1390    1.1586   -0.6058 H   0  0  0  0  0  0  0  0  0  0  0  0
   -0.4034    1.3845   -0.4312 H   0  0  0  0  0  0  0  0  0  0  0  0
   -0.9909    0.1951   -2.1125 C   0  0  0  0  0  0  0  0  0  0  0  0
    0.0205   -0.7305   -2.4392 C   0  0  0  0  0  0  0  0  0  0  0  0
    0.6871   -1.0978   -1.6699 H   0  0  0  0  0  0  0  0  0  0  0  0
    0.1614   -1.1840   -3.7652 C   0  0  0  0  0  0  0  0  0  0  0  0
    0.9379   -1.8915   -4.0121 H   0  0  0  0  0  0  0  0  0  0  0  0
   -0.7149   -0.7127   -4.7670 C   0  0  0  0  0  0  0  0  0  0  0  0
   -0.5891   -1.1461   -6.0482 O   0  0  0  0  0  0  0  0  0  0  0  0
    0.1849   -1.6979   -6.1684 H   0  0  0  0  0  0  0  0  0  0  0  0
   -1.7295    0.2098   -4.4373 C   0  0  0  0  0  0  0  0  0  0  0  0
   -2.3905    0.5661   -5.2130 H   0  0  0  0  0  0  0  0  0  0  0  0
   -1.8649    0.6646   -3.1119 C   0  0  0  0  0  0  0  0  0  0  0  0
   -2.6387    1.3804   -2.8612 H   0  0  0  0  0  0  0  0  0  0  0  0
   -0.8664    0.0378    1.7736 C   0  0  0  0  0  0  0  0  0  0  0  0
    0.2529   -0.0672    2.2760 O   0  0  0  0  0  0  0  0  0  0  0  0
   -1.8947    0.5991    2.4221 N   0  0  0  0  0  0  0  0  0  0  0  0
   -2.7942    0.5936    1.9635 H   0  0  0  0  0  0  0  0  0  0  0  0
   -1.8170    1.1453    3.7750 C   0  0  0  0  0  0  0  0  0  0  0  0
   -0.9697    1.8290    3.8506 H   0  0  0  0  0  0  0  0  0  0  0  0
   -2.7354    1.6828    4.0167 H   0  0  0  0  0  0  0  0  0  0  0  0
   -1.6754    0.3334    4.4914 H   0  0  0  0  0  0  0  0  0  0  0  0
  5  6  2  0  0  0  0
  5  7  1  0  0  0  0
  2  3  1  0  0  0  0
  2  4  1  0  0  0  0
  2  5  1  0  0  0  0
  1  2  1  0  0  0  0
 26 27  2  0  0  0  0
 26 28  1  0  0  0  0
 24 25  1  0  0  0  0
 22 23  1  0  0  0  0
 22 24  2  0  0  0  0
 20 21  1  0  0  0  0
 19 20  1  0  0  0  0
 19 22  1  0  0  0  0
 17 18  1  0  0  0  0
 17 19  2  0  0  0  0
 15 16  1  0  0  0  0
 15 17  1  0  0  0  0
 14 15  2  0  0  0  0
 14 24  1  0  0  0  0
 11 12  1  0  0  0  0
 11 13  1  0  0  0  0
 11 14  1  0  0  0  0
  9 10  1  0  0  0  0
  9 11  1  0  0  0  0
  9 26  1  0  0  0  0
  7  8  1  0  0  0  0
  7  9  1  0  0  0  0
 30 31  1  0  0  0  0
 30 32  1  0  0  0  0
 30 33  1  0  0  0  0
 28 29  1  0  0  0  0
 28 30  1  0  0  0  0
M  END
$$$$
default_name
  -OEChem-02102213163D

 33 33  0     1  0  0  0  0  0999 V2000
   -4.0702   -3.8485    1.4554 H   0  0  0  0  0  0  0  0  0  0  0  0
   -4.0012   -2.9605    0.8284 C   0  0  0  0  0  0  0  0  0  0  0  0
   -4.7652   -2.2435    1.1234 H   0  0  0  0  0  0  0  0  0  0  0  0
   -4.1352   -3.2385   -0.2156 H   0  0  0  0  0  0  0  0  0  0  0  0
   -2.6362   -2.3395    1.0094 C   0  0  0  0  0  0  0  0  0  0  0  0
   -1.8292   -2.8395    1.7814 O   0  0  0  0  0  0  0  0  0  0  0  0
   -2.3832   -1.2445    0.2964 N   0  0  0  0  0  0  0  0  0  0  0  0
   -3.1102   -0.8685   -0.2946 H   0  0  0  0  0  0  0  0  0  0  0  0
   -1.1292   -0.4875    0.3524 C   0  0  1  0  0  0  0  0  0  0  0  0
   -0.3087   -1.1556    0.0882 H   0  0  0  0  0  0  0  0  0  0  0  0
   -1.1749    0.6534   -0.6787 C   0  0  0  0  0  0  0  0  0  0  0  0
   -2.1390    1.1586   -0.6058 H   0  0  0  0  0  0  0  0  0  0  0  0
   -0.4034    1.3845   -0.4312 H   0  0  0  0  0  0  0  0  0  0  0  0
   -0.9909    0.1951   -2.1125 C   0  0  0  0  0  0  0  0  0  0  0  0
   -0.2120   -0.9435   -2.4009 C   0  0  0  0  0  0  0  0  0  0  0  0
    0.2797   -1.4801   -1.6000 H   0  0  0  0  0  0  0  0  0  0  0  0
   -0.0773   -1.3889   -3.7303 C   0  0  0  0  0  0  0  0  0  0  0  0
    0.5212   -2.2602   -3.9477 H   0  0  0  0  0  0  0  0  0  0  0  0
   -0.7271   -0.6949   -4.7742 C   0  0  0  0  0  0  0  0  0  0  0  0
   -0.6059   -1.1181   -6.0593 O   0  0  0  0  0  0  0  0  0  0  0  0
    0.0177   -1.8406   -6.1442 H   0  0  0  0  0  0  0  0  0  0  0  0
   -1.5101    0.4413   -4.4832 C   0  0  0  0  0  0  0  0  0  0  0  0
   -1.9985    0.9660   -5.2905 H   0  0  0  0  0  0  0  0  0  0  0  0
   -1.6391    0.8867   -3.1539 C   0  0  0  0  0  0  0  0  0  0  0  0
   -2.2333    1.7652   -2.9322 H   0  0  0  0  0  0  0  0  0  0  0  0
   -0.8664    0.0378    1.7736 C   0  0  0  0  0  0  0  0  0  0  0  0
    0.2529   -0.0672    2.2760 O   0  0  0  0  0  0  0  0  0  0  0  0
   -1.8947    0.5991    2.4221 N   0  0  0  0  0  0  0  0  0  0  0  0
   -2.7942    0.5936    1.9635 H   0  0  0  0  0  0  0  0  0  0  0  0
   -1.8170    1.1453    3.7750 C   0  0  0  0  0  0  0  0  0  0  0  0
   -0.9697    1.8290    3.8506 H   0  0  0  0  0  0  0  0  0  0  0  0
   -2.7354    1.6828    4.0167 H   0  0  0  0  0  0  0  0  0  0  0  0
   -1.6754    0.3334    4.4914 H   0  0  0  0  0  0  0  0  0  0  0  0
  5  6  2  0  0  0  0
  5  7  1  0  0  0  0
  2  3  1  0  0  0  0
  2  4  1  0  0  0  0
  2  5  1  0  0  0  0
  1  2  1  0  0  0  0
 26 27  2  0  0  0  0
 26 28  1  0  0  0  0
 24 25  1  0  0  0  0
 22 23  1  0  0  0  0
 22 24  2  0  0  0  0
 20 21  1  0  0  0  0
 19 20  1  0  0  0  0
 19 22  1  0  0  0  0
 17 18  1  0  0  0  0
 17 19  2  0  0  0  0
 15 16  1  0  0  0  0
 15 17  1  0  0  0  0
 14 15  2  0  0  0  0
 14 24  1  0  0  0  0
 11 12  1  0  0  0  0
 11 13  1  0  0  0  0
 11 14  1  0  0  0  0
  9 10  1  0  0  0  0
  9 11  1  0  0  0  0
  9 26  1  0  0  0  0
  7  8  1  0  0  0  0
  7  9  1  0  0  0  0
 30 31  1  0  0  0  0
 30 32  1  0  0  0  0
 30 33  1  0  0  0  0
 28 29  1  0  0  0  0
 28 30  1  0  0  0  0
M  END
$$$$
default_name
  -OEChem-02102213163D

 33 33  0     1  0  0  0  0  0999 V2000
   -4.0702   -3.8485    1.4554 H   0  0  0  0  0  0  0  0  0  0  0  0
   -4.0012   -2.9605    0.8284 C   0  0  0  0  0  0  0  0  0  0  0  0
   -4.7652   -2.2435    1.1234 H   0  0  0  0  0  0  0  0  0  0  0  0
   -4.1352   -3.2385   -0.2156 H   0  0  0  0  0  0  0  0  0  0  0  0
   -2.6362   -2.3395    1.0094 C   0  0  0  0  0  0  0  0  0  0  0  0
   -1.8292   -2.8395    1.7814 O   0  0  0  0  0  0  0  0  0  0  0  0
   -2.3832   -1.2445    0.2964 N   0  0  0  0  0  0  0  0  0  0  0  0
   -3.1102   -0.8685   -0.2946 H   0  0  0  0  0  0  0  0  0  0  0  0
   -1.1292   -0.4875    0.3524 C   0  0  1  0  0  0  0  0  0  0  0  0
   -0.3087   -1.1556    0.0882 H   0  0  0  0  0  0  0  0  0  0  0  0
   -1.1749    0.6534   -0.6787 C   0  0  0  0  0  0  0  0  0  0  0  0
   -2.1390    1.1586   -0.6058 H   0  0  0  0  0  0  0  0  0  0  0  0
   -0.4034    1.3845   -0.4312 H   0  0  0  0  0  0  0  0  0  0  0  0
   -0.9909    0.1951   -2.1125 C   0  0  0  0  0  0  0  0  0  0  0  0
   -0.4916   -1.0936   -2.3888 C   0  0  0  0  0  0  0  0  0  0  0  0
   -0.2129   -1.7518   -1.5764 H   0  0  0  0  0  0  0  0  0  0  0  0
   -0.3607   -1.5295   -3.7217 C   0  0  0  0  0  0  0  0  0  0  0  0
    0.0234   -2.5163   -3.9297 H   0  0  0  0  0  0  0  0  0  0  0  0
   -0.7340   -0.6746   -4.7816 C   0  0  0  0  0  0  0  0  0  0  0  0
   -0.6143   -1.0866   -6.0704 O   0  0  0  0  0  0  0  0  0  0  0  0
   -0.1806   -1.9382   -6.1384 H   0  0  0  0  0  0  0  0  0  0  0  0
   -1.2380    0.6128   -4.5031 C   0  0  0  0  0  0  0  0  0  0  0  0
   -1.5159    1.2589   -5.3222 H   0  0  0  0  0  0  0  0  0  0  0  0
   -1.3634    1.0473   -3.1699 C   0  0  0  0  0  0  0  0  0  0  0  0
   -1.7420    2.0399   -2.9569 H   0  0  0  0  0  0  0  0  0  0  0  0
   -0.8664    0.0378    1.7736 C   0  0  0  0  0  0  0  0  0  0  0  0
    0.2529   -0.0672    2.2760 O   0  0  0  0  0  0  0  0  0  0  0  0
   -1.8947    0.5991    2.4221 N   0  0  0  0  0  0  0  0  0  0  0  0
   -2.7942    0.5936    1.9635 H   0  0  0  0  0  0  0  0  0  0  0  0
   -1.8170    1.1453    3.7750 C   0  0  0  0  0  0  0  0  0  0  0  0
   -0.9697    1.8290    3.8506 H   0  0  0  0  0  0  0  0  0  0  0  0
   -2.7354    1.6828    4.0167 H   0  0  0  0  0  0  0  0  0  0  0  0
   -1.6754    0.3334    4.4914 H   0  0  0  0  0  0  0  0  0  0  0  0
  5  6  2  0  0  0  0
  5  7  1  0  0  0  0
  2  3  1  0  0  0  0
  2  4  1  0  0  0  0
  2  5  1  0  0  0  0
  1  2  1  0  0  0  0
 26 27  2  0  0  0  0
 26 28  1  0  0  0  0
 24 25  1  0  0  0  0
 22 23  1  0  0  0  0
 22 24  2  0  0  0  0
 20 21  1  0  0  0  0
 19 20  1  0  0  0  0
 19 22  1  0  0  0  0
 17 18  1  0  0  0  0
 17 19  2  0  0  0  0
 15 16  1  0  0  0  0
 15 17  1  0  0  0  0
 14 15  2  0  0  0  0
 14 24  1  0  0  0  0
 11 12  1  0  0  0  0
 11 13  1  0  0  0  0
 11 14  1  0  0  0  0
  9 10  1  0  0  0  0
  9 11  1  0  0  0  0
  9 26  1  0  0  0  0
  7  8  1  0  0  0  0
  7  9  1  0  0  0  0
 30 31  1  0  0  0  0
 30 32  1  0  0  0  0
 30 33  1  0  0  0  0
 28 29  1  0  0  0  0
 28 30  1  0  0  0  0
M  END
$$$$
default_name
  -OEChem-02102213163D

 33 33  0     1  0  0  0  0  0999 V2000
   -4.0702   -3.8485    1.4554 H   0  0  0  0  0  0  0  0  0  0  0  0
   -4.0012   -2.9605    0.8284 C   0  0  0  0  0  0  0  0  0  0  0  0
   -4.7652   -2.2435    1.1234 H   0  0  0  0  0  0  0  0  0  0  0  0
   -4.1352   -3.2385   -0.2156 H   0  0  0  0  0  0  0  0  0  0  0  0
   -2.6362   -2.3395    1.0094 C   0  0  0  0  0  0  0  0  0  0  0  0
   -1.8292   -2.8395    1.7814 O   0  0  0  0  0  0  0  0  0  0  0  0
   -2.3832   -1.2445    0.2964 N   0  0  0  0  0  0  0  0  0  0  0  0
   -3.1102   -0.8685   -0.2946 H   0  0  0  0  0  0  0  0  0  0  0  0
   -1.1292   -0.4875    0.3524 C   0  0  1  0  0  0  0  0  0  0  0  0
   -0.3087   -1.1556    0.0882 H   0  0  0  0  0  0  0  0  0  0  0  0
   -1.1749    0.6534   -0.6787 C   0  0  0  0  0  0  0  0  0  0  0  0
   -2.1390    1.1586   -0.6058 H   0  0  0  0  0  0  0  0  0  0  0  0
   -0.4034    1.3845   -0.4312 H   0  0  0  0  0  0  0  0  0  0  0  0
   -0.9909    0.1951   -2.1125 C   0  0  0  0  0  0  0  0  0  0  0  0
   -0.7994   -1.1705   -2.4037 C   0  0  0  0  0  0  0  0  0  0  0  0
   -0.7570   -1.8945   -1.6006 H   0  0  0  0  0  0  0  0  0  0  0  0
   -0.6695   -1.5962   -3.7401 C   0  0  0  0  0  0  0  0  0  0  0  0
   -0.5214   -2.6424   -3.9593 H   0  0  0  0  0  0  0  0  0  0  0  0
   -0.7351   -0.6530   -4.7887 C   0  0  0  0  0  0  0  0  0  0  0  0
   -0.6139   -1.0538   -6.0809 O   0  0  0  0  0  0  0  0  0  0  0  0
   -0.3964   -1.9842   -6.1514 H   0  0  0  0  0  0  0  0  0  0  0  0
   -0.9316    0.7125   -4.4956 C   0  0  0  0  0  0  0  0  0  0  0  0
   -0.9757    1.4246   -5.3059 H   0  0  0  0  0  0  0  0  0  0  0  0
   -1.0566    1.1354   -3.1587 C   0  0  0  0  0  0  0  0  0  0  0  0
   -1.1983    2.1858   -2.9338 H   0  0  0  0  0  0  0  0  0  0  0  0
   -0.8664    0.0378    1.7736 C   0  0  0  0  0  0  0  0  0  0  0  0
    0.2529   -0.0672    2.2760 O   0  0  0  0  0  0  0  0  0  0  0  0
   -1.8947    0.5991    2.4221 N   0  0  0  0  0  0  0  0  0  0  0  0
   -2.7942    0.5936    1.9635 H   0  0  0  0  0  0  0  0  0  0  0  0
   -1.8170    1.1453    3.7750 C   0  0  0  0  0  0  0  0  0  0  0  0
   -0.9697    1.8290    3.8506 H   0  0  0  0  0  0  0  0  0  0  0  0
   -2.7354    1.6828    4.0167 H   0  0  0  0  0  0  0  0  0  0  0  0
   -1.6754    0.3334    4.4914 H   0  0  0  0  0  0  0  0  0  0  0  0
  5  6  2  0  0  0  0
  5  7  1  0  0  0  0
  2  3  1  0  0  0  0
  2  4  1  0  0  0  0
  2  5  1  0  0  0  0
  1  2  1  0  0  0  0
 26 27  2  0  0  0  0
 26 28  1  0  0  0  0
 24 25  1  0  0  0  0
 22 23  1  0  0  0  0
 22 24  2  0  0  0  0
 20 21  1  0  0  0  0
 19 20  1  0  0  0  0
 19 22  1  0  0  0  0
 17 18  1  0  0  0  0
 17 19  2  0  0  0  0
 15 16  1  0  0  0  0
 15 17  1  0  0  0  0
 14 15  2  0  0  0  0
 14 24  1  0  0  0  0
 11 12  1  0  0  0  0
 11 13  1  0  0  0  0
 11 14  1  0  0  0  0
  9 10  1  0  0  0  0
  9 11  1  0  0  0  0
  9 26  1  0  0  0  0
  7  8  1  0  0  0  0
  7  9  1  0  0  0  0
 30 31  1  0  0  0  0
 30 32  1  0  0  0  0
 30 33  1  0  0  0  0
 28 29  1  0  0  0  0
 28 30  1  0  0  0  0
M  END
$$$$
default_name
  -OEChem-02102213163D

 33 33  0     1  0  0  0  0  0999 V2000
   -4.0702   -3.8485    1.4554 H   0  0  0  0  0  0  0  0  0  0  0  0
   -4.0012   -2.9605    0.8284 C   0  0  0  0  0  0  0  0  0  0  0  0
   -4.7652   -2.2435    1.1234 H   0  0  0  0  0  0  0  0  0  0  0  0
   -4.1352   -3.2385   -0.2156 H   0  0  0  0  0  0  0  0  0  0  0  0
   -2.6362   -2.3395    1.0094 C   0  0  0  0  0  0  0  0  0  0  0  0
   -1.8292   -2.8395    1.7814 O   0  0  0  0  0  0  0  0  0  0  0  0
   -2.3832   -1.2445    0.2964 N   0  0  0  0  0  0  0  0  0  0  0  0
   -3.1102   -0.8685   -0.2946 H   0  0  0  0  0  0  0  0  0  0  0  0
   -1.1292   -0.4875    0.3524 C   0  0  1  0  0  0  0  0  0  0  0  0
   -0.3087   -1.1556    0.0882 H   0  0  0  0  0  0  0  0  0  0  0  0
   -1.1749    0.6534   -0.6787 C   0  0  0  0  0  0  0  0  0  0  0  0
   -2.1390    1.1586   -0.6058 H   0  0  0  0  0  0  0  0  0  0  0  0
   -0.4034    1.3845   -0.4312 H   0  0  0  0  0  0  0  0  0  0  0  0
   -0.9909    0.1951   -2.1125 C   0  0  0  0  0  0  0  0  0  0  0  0
   -1.1144   -1.1690   -2.4447 C   0  0  0  0  0  0  0  0  0  0  0  0
   -1.3156   -1.8984   -1.6710 H   0  0  0  0  0  0  0  0  0  0  0  0
   -0.9827   -1.5845   -3.7840 C   0  0  0  0  0  0  0  0  0  0  0  0
   -1.0763   -2.6300   -4.0345 H   0  0  0  0  0  0  0  0  0  0  0  0
   -0.7303   -0.6316   -4.7949 C   0  0  0  0  0  0  0  0  0  0  0  0
   -0.6046   -1.0219   -6.0899 O   0  0  0  0  0  0  0  0  0  0  0  0
   -0.6152   -1.9754   -6.1823 H   0  0  0  0  0  0  0  0  0  0  0  0
   -0.6119    0.7335   -4.4613 C   0  0  0  0  0  0  0  0  0  0  0  0
   -0.4145    1.4520   -5.2426 H   0  0  0  0  0  0  0  0  0  0  0  0
   -0.7395    1.1451   -3.1211 C   0  0  0  0  0  0  0  0  0  0  0  0
   -0.6392    2.1930   -2.8643 H   0  0  0  0  0  0  0  0  0  0  0  0
   -0.8664    0.0378    1.7736 C   0  0  0  0  0  0  0  0  0  0  0  0
    0.2529   -0.0672    2.2760 O   0  0  0  0  0  0  0  0  0  0  0  0
   -1.8947    0.5991    2.4221 N   0  0  0  0  0  0  0  0  0  0  0  0
   -2.7942    0.5936    1.9635 H   0  0  0  0  0  0  0  0  0  0  0  0
   -1.8170    1.1453    3.7750 C   0  0  0  0  0  0  0  0  0  0  0  0
   -0.9697    1.8290    3.8506 H   0  0  0  0  0  0  0  0  0  0  0  0
   -2.7354    1.6828    4.0167 H   0  0  0  0  0  0  0  0  0  0  0  0
   -1.6754    0.3334    4.4914 H   0  0  0  0  0  0  0  0  0  0  0  0
  5  6  2  0  0  0  0
  5  7  1  0  0  0  0
  2  3  1  0  0  0  0
  2  4  1  0  0  0  0
  2  5  1  0  0  0  0
  1  2  1  0  0  0  0
 26 27  2  0  0  0  0
 26 28  1  0  0  0  0
 24 25  1  0  0  0  0
 22 23  1  0  0  0  0
 22 24  2  0  0  0  0
 20 21  1  0  0  0  0
 19 20  1  0  0  0  0
 19 22  1  0  0  0  0
 17 18  1  0  0  0  0
 17 19  2  0  0  0  0
 15 16  1  0  0  0  0
 15 17  1  0  0  0  0
 14 15  2  0  0  0  0
 14 24  1  0  0  0  0
 11 12  1  0  0  0  0
 11 13  1  0  0  0  0
 11 14  1  0  0  0  0
  9 10  1  0  0  0  0
  9 11  1  0  0  0  0
  9 26  1  0  0  0  0
  7  8  1  0  0  0  0
  7  9  1  0  0  0  0
 30 31  1  0  0  0  0
 30 32  1  0  0  0  0
 30 33  1  0  0  0  0
 28 29  1  0  0  0  0
 28 30  1  0  0  0  0
M  END
$$$$
default_name
  -OEChem-02102213163D

 33 33  0     1  0  0  0  0  0999 V2000
   -4.0702   -3.8485    1.4554 H   0  0  0  0  0  0  0  0  0  0  0  0
   -4.0012   -2.9605    0.8284 C   0  0  0  0  0  0  0  0  0  0  0  0
   -4.7652   -2.2435    1.1234 H   0  0  0  0  0  0  0  0  0  0  0  0
   -4.1352   -3.2385   -0.2156 H   0  0  0  0  0  0  0  0  0  0  0  0
   -2.6362   -2.3395    1.0094 C   0  0  0  0  0  0  0  0  0  0  0  0
   -1.8292   -2.8395    1.7814 O   0  0  0  0  0  0  0  0  0  0  0  0
   -2.3832   -1.2445    0.2964 N   0  0  0  0  0  0  0  0  0  0  0  0
   -3.1102   -0.8685   -0.2946 H   0  0  0  0  0  0  0  0  0  0  0  0
   -1.1292   -0.4875    0.3524 C   0  0  1  0  0  0  0  0  0  0  0  0
   -0.3087   -1.1556    0.0882 H   0  0  0  0  0  0  0  0  0  0  0  0
   -1.1749    0.6534   -0.6787 C   0  0  0  0  0  0  0  0  0  0  0  0
   -2.1390    1.1586   -0.6058 H   0  0  0  0  0  0  0  0  0  0  0  0
   -0.4034    1.3845   -0.4312 H   0  0  0  0  0  0  0  0  0  0  0  0
   -0.9909    0.1951   -2.1125 C   0  0  0  0  0  0  0  0  0  0  0  0
   -1.4150   -1.0892   -2.5088 C   0  0  0  0  0  0  0  0  0  0  0  0
   -1.8506   -1.7633   -1.7829 H   0  0  0  0  0  0  0  0  0  0  0  0
   -1.2789   -1.4952   -3.8506 C   0  0  0  0  0  0  0  0  0  0  0  0
   -1.6033   -2.4799   -4.1502 H   0  0  0  0  0  0  0  0  0  0  0  0
   -0.7200   -0.6120   -4.7998 C   0  0  0  0  0  0  0  0  0  0  0  0
   -0.5871   -0.9930   -6.0969 O   0  0  0  0  0  0  0  0  0  0  0  0
   -0.8219   -1.9124   -6.2290 H   0  0  0  0  0  0  0  0  0  0  0  0
   -0.3006    0.6745   -4.4025 C   0  0  0  0  0  0  0  0  0  0  0  0
    0.1293    1.3392   -5.1367 H   0  0  0  0  0  0  0  0  0  0  0  0
   -0.4338    1.0758   -3.0597 C   0  0  0  0  0  0  0  0  0  0  0  0
   -0.1028    2.0610   -2.7533 H   0  0  0  0  0  0  0  0  0  0  0  0
   -0.8664    0.0378    1.7736 C   0  0  0  0  0  0  0  0  0  0  0  0
    0.2529   -0.0672    2.2760 O   0  0  0  0  0  0  0  0  0  0  0  0
   -1.8947    0.5991    2.4221 N   0  0  0  0  0  0  0  0  0  0  0  0
   -2.7942    0.5936    1.9635 H   0  0  0  0  0  0  0  0  0  0  0  0
   -1.8170    1.1453    3.7750 C   0  0  0  0  0  0  0  0  0  0  0  0
   -0.9697    1.8290    3.8506 H   0  0  0  0  0  0  0  0  0  0  0  0
   -2.7354    1.6828    4.0167 H   0  0  0  0  0  0  0  0  0  0  0  0
   -1.6754    0.3334    4.4914 H   0  0  0  0  0  0  0  0  0  0  0  0
  5  6  2  0  0  0  0
  5  7  1  0  0  0  0
  2  3  1  0  0  0  0
  2  4  1  0  0  0  0
  2  5  1  0  0  0  0
  1  2  1  0  0  0  0
 26 27  2  0  0  0  0
 26 28  1  0  0  0  0
 24 25  1  0  0  0  0
 22 23  1  0  0  0  0
 22 24  2  0  0  0  0
 20 21  1  0  0  0  0
 19 20  1  0  0  0  0
 19 22  1  0  0  0  0
 17 18  1  0  0  0  0
 17 19  2  0  0  0  0
 15 16  1  0  0  0  0
 15 17  1  0  0  0  0
 14 15  2  0  0  0  0
 14 24  1  0  0  0  0
 11 12  1  0  0  0  0
 11 13  1  0  0  0  0
 11 14  1  0  0  0  0
  9 10  1  0  0  0  0
  9 11  1  0  0  0  0
  9 26  1  0  0  0  0
  7  8  1  0  0  0  0
  7  9  1  0  0  0  0
 30 31  1  0  0  0  0
 30 32  1  0  0  0  0
 30 33  1  0  0  0  0
 28 29  1  0  0  0  0
 28 30  1  0  0  0  0
M  END
$$$$
default_name
  -OEChem-02102213163D

 33 33  0     1  0  0  0  0  0999 V2000
   -4.0702   -3.8485    1.4554 H   0  0  0  0  0  0  0  0  0  0  0  0
   -4.0012   -2.9605    0.8284 C   0  0  0  0  0  0  0  0  0  0  0  0
   -4.7652   -2.2435    1.1234 H   0  0  0  0  0  0  0  0  0  0  0  0
   -4.1352   -3.2385   -0.2156 H   0  0  0  0  0  0  0  0  0  0  0  0
   -2.6362   -2.3395    1.0094 C   0  0  0  0  0  0  0  0  0  0  0  0
   -1.8292   -2.8395    1.7814 O   0  0  0  0  0  0  0  0  0  0  0  0
   -2.3832   -1.2445    0.2964 N   0  0  0  0  0  0  0  0  0  0  0  0
   -3.1102   -0.8685   -0.2946 H   0  0  0  0  0  0  0  0  0  0  0  0
   -1.1292   -0.4875    0.3524 C   0  0  1  0  0  0  0  0  0  0  0  0
   -0.3087   -1.1556    0.0882 H   0  0  0  0  0  0  0  0  0  0  0  0
   -1.1749    0.6534   -0.6787 C   0  0  0  0  0  0  0  0  0  0  0  0
   -2.1390    1.1586   -0.6058 H   0  0  0  0  0  0  0  0  0  0  0  0
   -0.4034    1.3845   -0.4312 H   0  0  0  0  0  0  0  0  0  0  0  0
   -0.9909    0.1951   -2.1125 C   0  0  0  0  0  0  0  0  0  0  0  0
   -1.6809   -0.9365   -2.5917 C   0  0  0  0  0  0  0  0  0  0  0  0
   -2.3256   -1.4984   -1.9286 H   0  0  0  0  0  0  0  0  0  0  0  0
   -1.5380   -1.3344   -3.9352 C   0  0  0  0  0  0  0  0  0  0  0  0
   -2.0666   -2.2023   -4.2984 H   0  0  0  0  0  0  0  0  0  0  0  0
   -0.7048   -0.5954   -4.8032 C   0  0  0  0  0  0  0  0  0  0  0  0
   -0.5626   -0.9692   -6.1013 O   0  0  0  0  0  0  0  0  0  0  0  0
   -1.0025   -1.7995   -6.2883 H   0  0  0  0  0  0  0  0  0  0  0  0
   -0.0189    0.5396   -4.3232 C   0  0  0  0  0  0  0  0  0  0  0  0
    0.6186    1.0938   -4.9954 H   0  0  0  0  0  0  0  0  0  0  0  0
   -0.1603    0.9320   -2.9786 C   0  0  0  0  0  0  0  0  0  0  0  0
    0.3743    1.7986   -2.6082 H   0  0  0  0  0  0  0  0  0  0  0  0
   -0.8664    0.0378    1.7736 C   0  0  0  0  0  0  0  0  0  0  0  0
    0.2529   -0.0672    2.2760 O   0  0  0  0  0  0  0  0  0  0  0  0
   -1.8947    0.5991    2.4221 N   0  0  0  0  0  0  0  0  0  0  0  0
   -2.7942    0.5936    1.9635 H   0  0  0  0  0  0  0  0  0  0  0  0
   -1.8170    1.1453    3.7750 C   0  0  0  0  0  0  0  0  0  0  0  0
   -0.9697    1.8290    3.8506 H   0  0  0  0  0  0  0  0  0  0  0  0
   -2.7354    1.6828    4.0167 H   0  0  0  0  0  0  0  0  0  0  0  0
   -1.6754    0.3334    4.4914 H   0  0  0  0  0  0  0  0  0  0  0  0
  5  6  2  0  0  0  0
  5  7  1  0  0  0  0
  2  3  1  0  0  0  0
  2  4  1  0  0  0  0
  2  5  1  0  0  0  0
  1  2  1  0  0  0  0
 26 27  2  0  0  0  0
 26 28  1  0  0  0  0
 24 25  1  0  0  0  0
 22 23  1  0  0  0  0
 22 24  2  0  0  0  0
 20 21  1  0  0  0  0
 19 20  1  0  0  0  0
 19 22  1  0  0  0  0
 17 18  1  0  0  0  0
 17 19  2  0  0  0  0
 15 16  1  0  0  0  0
 15 17  1  0  0  0  0
 14 15  2  0  0  0  0
 14 24  1  0  0  0  0
 11 12  1  0  0  0  0
 11 13  1  0  0  0  0
 11 14  1  0  0  0  0
  9 10  1  0  0  0  0
  9 11  1  0  0  0  0
  9 26  1  0  0  0  0
  7  8  1  0  0  0  0
  7  9  1  0  0  0  0
 30 31  1  0  0  0  0
 30 32  1  0  0  0  0
 30 33  1  0  0  0  0
 28 29  1  0  0  0  0
 28 30  1  0  0  0  0
M  END
$$$$
default_name
  -OEChem-02102213163D

 33 33  0     1  0  0  0  0  0999 V2000
   -4.0702   -3.8485    1.4554 H   0  0  0  0  0  0  0  0  0  0  0  0
   -4.0012   -2.9605    0.8284 C   0  0  0  0  0  0  0  0  0  0  0  0
   -4.7652   -2.2435    1.1234 H   0  0  0  0  0  0  0  0  0  0  0  0
   -4.1352   -3.2385   -0.2156 H   0  0  0  0  0  0  0  0  0  0  0  0
   -2.6362   -2.3395    1.0094 C   0  0  0  0  0  0  0  0  0  0  0  0
   -1.8292   -2.8395    1.7814 O   0  0  0  0  0  0  0  0  0  0  0  0
   -2.3832   -1.2445    0.2964 N   0  0  0  0  0  0  0  0  0  0  0  0
   -3.1102   -0.8685   -0.2946 H   0  0  0  0  0  0  0  0  0  0  0  0
   -1.1292   -0.4875    0.3524 C   0  0  1  0  0  0  0  0  0  0  0  0
   -0.3087   -1.1556    0.0882 H   0  0  0  0  0  0  0  0  0  0  0  0
   -1.1749    0.6534   -0.6787 C   0  0  0  0  0  0  0  0  0  0  0  0
   -2.1390    1.1586   -0.6058 H   0  0  0  0  0  0  0  0  0  0  0  0
   -0.4034    1.3845   -0.4312 H   0  0  0  0  0  0  0  0  0  0  0  0
   -0.9909    0.1951   -2.1125 C   0  0  0  0  0  0  0  0  0  0  0  0
   -1.8939   -0.7214   -2.6878 C   0  0  0  0  0  0  0  0  0  0  0  0
   -2.7082   -1.1217   -2.0981 H   0  0  0  0  0  0  0  0  0  0  0  0
   -1.7422   -1.1130   -4.0322 C   0  0  0  0  0  0  0  0  0  0  0  0
   -2.4346   -1.8161   -4.4691 H   0  0  0  0  0  0  0  0  0  0  0  0
   -0.6858   -0.5830   -4.8047 C   0  0  0  0  0  0  0  0  0  0  0  0
   -0.5328   -0.9520   -6.1030 O   0  0  0  0  0  0  0  0  0  0  0  0
   -1.1447   -1.6444   -6.3561 H   0  0  0  0  0  0  0  0  0  0  0  0
    0.2139    0.3377   -4.2288 C   0  0  0  0  0  0  0  0  0  0  0  0
    1.0202    0.7326   -4.8284 H   0  0  0  0  0  0  0  0  0  0  0  0
    0.0624    0.7237   -2.8834 C   0  0  0  0  0  0  0  0  0  0  0  0
    0.7595    1.4240   -2.4389 H   0  0  0  0  0  0  0  0  0  0  0  0
   -0.8664    0.0378    1.7736 C   0  0  0  0  0  0  0  0  0  0  0  0
    0.2529   -0.0672    2.2760 O   0  0  0  0  0  0  0  0  0  0  0  0
   -1.8947    0.5991    2.4221 N   0  0  0  0  0  0  0  0  0  0  0  0
   -2.7942    0.5936    1.9635 H   0  0  0  0  0  0  0  0  0  0  0  0
   -1.8170    1.1453    3.7750 C   0  0  0  0  0  0  0  0  0  0  0  0
   -0.9697    1.8290    3.8506 H   0  0  0  0  0  0  0  0  0  0  0  0
   -2.7354    1.6828    4.0167 H   0  0  0  0  0  0  0  0  0  0  0  0
   -1.6754    0.3334    4.4914 H   0  0  0  0  0  0  0  0  0  0  0  0
  5  6  2  0  0  0  0
  5  7  1  0  0  0  0
  2  3  1  0  0  0  0
  2  4  1  0  0  0  0
  2  5  1  0  0  0  0
  1  2  1  0  0  0  0
 26 27  2  0  0  0  0
 26 28  1  0  0  0  0
 24 25  1  0  0  0  0
 22 23  1  0  0  0  0
 22 24  2  0  0  0  0
 20 21  1  0  0  0  0
 19 20  1  0  0  0  0
 19 22  1  0  0  0  0
 17 18  1  0  0  0  0
 17 19  2  0  0  0  0
 15 16  1  0  0  0  0
 15 17  1  0  0  0  0
 14 15  2  0  0  0  0
 14 24  1  0  0  0  0
 11 12  1  0  0  0  0
 11 13  1  0  0  0  0
 11 14  1  0  0  0  0
  9 10  1  0  0  0  0
  9 11  1  0  0  0  0
  9 26  1  0  0  0  0
  7  8  1  0  0  0  0
  7  9  1  0  0  0  0
 30 31  1  0  0  0  0
 30 32  1  0  0  0  0
 30 33  1  0  0  0  0
 28 29  1  0  0  0  0
 28 30  1  0  0  0  0
M  END
$$$$
default_name
  -OEChem-02102213163D

 33 33  0     1  0  0  0  0  0999 V2000
   -4.0702   -3.8485    1.4554 H   0  0  0  0  0  0  0  0  0  0  0  0
   -4.0012   -2.9605    0.8284 C   0  0  0  0  0  0  0  0  0  0  0  0
   -4.7652   -2.2435    1.1234 H   0  0  0  0  0  0  0  0  0  0  0  0
   -4.1352   -3.2385   -0.2156 H   0  0  0  0  0  0  0  0  0  0  0  0
   -2.6362   -2.3395    1.0094 C   0  0  0  0  0  0  0  0  0  0  0  0
   -1.8292   -2.8395    1.7814 O   0  0  0  0  0  0  0  0  0  0  0  0
   -2.3832   -1.2445    0.2964 N   0  0  0  0  0  0  0  0  0  0  0  0
   -3.1102   -0.8685   -0.2946 H   0  0  0  0  0  0  0  0  0  0  0  0
   -1.1292   -0.4875    0.3524 C   0  0  1  0  0  0  0  0  0  0  0  0
   -0.3087   -1.1556    0.0882 H   0  0  0  0  0  0  0  0  0  0  0  0
   -1.1749    0.6534   -0.6787 C   0  0  0  0  0  0  0  0  0  0  0  0
   -2.1390    1.1586   -0.6058 H   0  0  0  0  0  0  0  0  0  0  0  0
   -0.4034    1.3845   -0.4312 H   0  0  0  0  0  0  0  0  0  0  0  0
   -0.9909    0.1951   -2.1125 C   0  0  0  0  0  0  0  0  0  0  0  0
   -2.0394   -0.4584   -2.7905 C   0  0  0  0  0  0  0  0  0  0  0  0
   -2.9723   -0.6588   -2.2800 H   0  0  0  0  0  0  0  0  0  0  0  0
   -1.8777   -0.8461   -4.1350 C   0  0  0  0  0  0  0  0  0  0  0  0
   -2.6822   -1.3477   -4.6506 H   0  0  0  0  0  0  0  0  0  0  0  0
   -0.6643   -0.5755   -4.8044 C   0  0  0  0  0  0  0  0  0  0  0  0
   -0.4996   -0.9427   -6.1017 O   0  0  0  0  0  0  0  0  0  0  0  0
   -1.2388   -1.4576   -6.4279 H   0  0  0  0  0  0  0  0  0  0  0  0
    0.3820    0.0829   -4.1257 C   0  0  0  0  0  0  0  0  0  0  0  0
    1.3066    0.2802   -4.6470 H   0  0  0  0  0  0  0  0  0  0  0  0
    0.2190    0.4649   -2.7806 C   0  0  0  0  0  0  0  0  0  0  0  0
    1.0268    0.9625   -2.2571 H   0  0  0  0  0  0  0  0  0  0  0  0
   -0.8664    0.0378    1.7736 C   0  0  0  0  0  0  0  0  0  0  0  0
    0.2529   -0.0672    2.2760 O   0  0  0  0  0  0  0  0  0  0  0  0
   -1.8947    0.5991    2.4221 N   0  0  0  0  0  0  0  0  0  0  0  0
   -2.7942    0.5936    1.9635 H   0  0  0  0  0  0  0  0  0  0  0  0
   -1.8170    1.1453    3.7750 C   0  0  0  0  0  0  0  0  0  0  0  0
   -0.9697    1.8290    3.8506 H   0  0  0  0  0  0  0  0  0  0  0  0
   -2.7354    1.6828    4.0167 H   0  0  0  0  0  0  0  0  0  0  0  0
   -1.6754    0.3334    4.4914 H   0  0  0  0  0  0  0  0  0  0  0  0
  5  6  2  0  0  0  0
  5  7  1  0  0  0  0
  2  3  1  0  0  0  0
  2  4  1  0  0  0  0
  2  5  1  0  0  0  0
  1  2  1  0  0  0  0
 26 27  2  0  0  0  0
 26 28  1  0  0  0  0
 24 25  1  0  0  0  0
 22 23  1  0  0  0  0
 22 24  2  0  0  0  0
 20 21  1  0  0  0  0
 19 20  1  0  0  0  0
 19 22  1  0  0  0  0
 17 18  1  0  0  0  0
 17 19  2  0  0  0  0
 15 16  1  0  0  0  0
 15 17  1  0  0  0  0
 14 15  2  0  0  0  0
 14 24  1  0  0  0  0
 11 12  1  0  0  0  0
 11 13  1  0  0  0  0
 11 14  1  0  0  0  0
  9 10  1  0  0  0  0
  9 11  1  0  0  0  0
  9 26  1  0  0  0  0
  7  8  1  0  0  0  0
  7  9  1  0  0  0  0
 30 31  1  0  0  0  0
 30 32  1  0  0  0  0
 30 33  1  0  0  0  0
 28 29  1  0  0  0  0
 28 30  1  0  0  0  0
M  END
$$$$
default_name
  -OEChem-02102213163D

 33 33  0     1  0  0  0  0  0999 V2000
   -4.0702   -3.8485    1.4554 H   0  0  0  0  0  0  0  0  0  0  0  0
   -4.0012   -2.9605    0.8284 C   0  0  0  0  0  0  0  0  0  0  0  0
   -4.7652   -2.2435    1.1234 H   0  0  0  0  0  0  0  0  0  0  0  0
   -4.1352   -3.2385   -0.2156 H   0  0  0  0  0  0  0  0  0  0  0  0
   -2.6362   -2.3395    1.0094 C   0  0  0  0  0  0  0  0  0  0  0  0
   -1.8292   -2.8395    1.7814 O   0  0  0  0  0  0  0  0  0  0  0  0
   -2.3832   -1.2445    0.2964 N   0  0  0  0  0  0  0  0  0  0  0  0
   -3.1102   -0.8685   -0.2946 H   0  0  0  0  0  0  0  0  0  0  0  0
   -1.1292   -0.4875    0.3524 C   0  0  1  0  0  0  0  0  0  0  0  0
   -0.3087   -1.1556    0.0882 H   0  0  0  0  0  0  0  0  0  0  0  0
   -1.1749    0.6534   -0.6787 C   0  0  0  0  0  0  0  0  0  0  0  0
   -2.1390    1.1586   -0.6058 H   0  0  0  0  0  0  0  0  0  0  0  0
   -0.4034    1.3845   -0.4312 H   0  0  0  0  0  0  0  0  0  0  0  0
   -0.9909    0.1951   -2.1125 C   0  0  0  0  0  0  0  0  0  0  0  0
   -2.1076   -0.1656   -2.8929 C   0  0  0  0  0  0  0  0  0  0  0  0
   -3.0999   -0.1414   -2.4618 H   0  0  0  0  0  0  0  0  0  0  0  0
   -1.9353   -0.5519   -4.2364 C   0  0  0  0  0  0  0  0  0  0  0  0
   -2.7925   -0.8289   -4.8306 H   0  0  0  0  0  0  0  0  0  0  0  0
   -0.6418   -0.5737   -4.8021 C   0  0  0  0  0  0  0  0  0  0  0  0
   -0.4654   -0.9418   -6.0976 O   0  0  0  0  0  0  0  0  0  0  0  0
   -1.2784   -1.2520   -6.4987 H   0  0  0  0  0  0  0  0  0  0  0  0
    0.4740   -0.2077   -4.0210 C   0  0  0  0  0  0  0  0  0  0  0  0
    1.4584   -0.2326   -4.4636 H   0  0  0  0  0  0  0  0  0  0  0  0
    0.2990    0.1735   -2.6771 C   0  0  0  0  0  0  0  0  0  0  0  0
    1.1577    0.4456   -2.0750 H   0  0  0  0  0  0  0  0  0  0  0  0
   -0.8664    0.0378    1.7736 C   0  0  0  0  0  0  0  0  0  0  0  0
    0.2529   -0.0672    2.2760 O   0  0  0  0  0  0  0  0  0  0  0  0
   -1.8947    0.5991    2.4221 N   0  0  0  0  0  0  0  0  0  0  0  0
   -2.7942    0.5936    1.9635 H   0  0  0  0  0  0  0  0  0  0  0  0
   -1.8170    1.1453    3.7750 C   0  0  0  0  0  0  0  0  0  0  0  0
   -0.9697    1.8290    3.8506 H   0  0  0  0  0  0  0  0  0  0  0  0
   -2.7354    1.6828    4.0167 H   0  0  0  0  0  0  0  0  0  0  0  0
   -1.6754    0.3334    4.4914 H   0  0  0  0  0  0  0  0  0  0  0  0
  5  6  2  0  0  0  0
  5  7  1  0  0  0  0
  2  3  1  0  0  0  0
  2  4  1  0  0  0  0
  2  5  1  0  0  0  0
  1  2  1  0  0  0  0
 26 27  2  0  0  0  0
 26 28  1  0  0  0  0
 24 25  1  0  0  0  0
 22 23  1  0  0  0  0
 22 24  2  0  0  0  0
 20 21  1  0  0  0  0
 19 20  1  0  0  0  0
 19 22  1  0  0  0  0
 17 18  1  0  0  0  0
 17 19  2  0  0  0  0
 15 16  1  0  0  0  0
 15 17  1  0  0  0  0
 14 15  2  0  0  0  0
 14 24  1  0  0  0  0
 11 12  1  0  0  0  0
 11 13  1  0  0  0  0
 11 14  1  0  0  0  0
  9 10  1  0  0  0  0
  9 11  1  0  0  0  0
  9 26  1  0  0  0  0
  7  8  1  0  0  0  0
  7  9  1  0  0  0  0
 30 31  1  0  0  0  0
 30 32  1  0  0  0  0
 30 33  1  0  0  0  0
 28 29  1  0  0  0  0
 28 30  1  0  0  0  0
M  END
$$$$
default_name
  -OEChem-02102213163D

 33 33  0     1  0  0  0  0  0999 V2000
   -4.0702   -3.8485    1.4554 H   0  0  0  0  0  0  0  0  0  0  0  0
   -4.0012   -2.9605    0.8284 C   0  0  0  0  0  0  0  0  0  0  0  0
   -4.7652   -2.2435    1.1234 H   0  0  0  0  0  0  0  0  0  0  0  0
   -4.1352   -3.2385   -0.2156 H   0  0  0  0  0  0  0  0  0  0  0  0
   -2.6362   -2.3395    1.0094 C   0  0  0  0  0  0  0  0  0  0  0  0
   -1.8292   -2.8395    1.7814 O   0  0  0  0  0  0  0  0  0  0  0  0
   -2.3832   -1.2445    0.2964 N   0  0  0  0  0  0  0  0  0  0  0  0
   -3.1102   -0.8685   -0.2946 H   0  0  0  0  0  0  0  0  0  0  0  0
   -1.1292   -0.4875    0.3524 C   0  0  1  0  0  0  0  0  0  0  0  0
   -0.3087   -1.1556    0.0882 H   0  0  0  0  0  0  0  0  0  0  0  0
   -1.1749    0.6534   -0.6787 C   0  0  0  0  0  0  0  0  0  0  0  0
   -2.1390    1.1586   -0.6058 H   0  0  0  0  0  0  0  0  0  0  0  0
   -0.4034    1.3845   -0.4312 H   0  0  0  0  0  0  0  0  0  0  0  0
   -0.9909    0.1951   -2.1125 C   0  0  0  0  0  0  0  0  0  0  0  0
   -2.0938    0.1371   -2.9879 C   0  0  0  0  0  0  0  0  0  0  0  0
   -3.0823    0.3953   -2.6311 H   0  0  0  0  0  0  0  0  0  0  0  0
   -1.9110   -0.2504   -4.3297 C   0  0  0  0  0  0  0  0  0  0  0  0
   -2.7580   -0.2952   -4.9968 H   0  0  0  0  0  0  0  0  0  0  0  0
   -0.6197   -0.5774   -4.7980 C   0  0  0  0  0  0  0  0  0  0  0  0
   -0.4325   -0.9495   -6.0909 O   0  0  0  0  0  0  0  0  0  0  0  0
   -1.2607   -1.0414   -6.5638 H   0  0  0  0  0  0  0  0  0  0  0  0
    0.4835   -0.5142   -3.9218 C   0  0  0  0  0  0  0  0  0  0  0  0
    1.4652   -0.7708   -4.2907 H   0  0  0  0  0  0  0  0  0  0  0  0
    0.2968   -0.1309   -2.5801 C   0  0  0  0  0  0  0  0  0  0  0  0
    1.1435   -0.0914   -1.9052 H   0  0  0  0  0  0  0  0  0  0  0  0
   -0.8664    0.0378    1.7736 C   0  0  0  0  0  0  0  0  0  0  0  0
    0.2529   -0.0672    2.2760 O   0  0  0  0  0  0  0  0  0  0  0  0
   -1.8947    0.5991    2.4221 N   0  0  0  0  0  0  0  0  0  0  0  0
   -2.7942    0.5936    1.9635 H   0  0  0  0  0  0  0  0  0  0  0  0
   -1.8170    1.1453    3.7750 C   0  0  0  0  0  0  0  0  0  0  0  0
   -0.9697    1.8290    3.8506 H   0  0  0  0  0  0  0  0  0  0  0  0
   -2.7354    1.6828    4.0167 H   0  0  0  0  0  0  0  0  0  0  0  0
   -1.6754    0.3334    4.4914 H   0  0  0  0  0  0  0  0  0  0  0  0
  5  6  2  0  0  0  0
  5  7  1  0  0  0  0
  2  3  1  0  0  0  0
  2  4  1  0  0  0  0
  2  5  1  0  0  0  0
  1  2  1  0  0  0  0
 26 27  2  0  0  0  0
 26 28  1  0  0  0  0
 24 25  1  0  0  0  0
 22 23  1  0  0  0  0
 22 24  2  0  0  0  0
 20 21  1  0  0  0  0
 19 20  1  0  0  0  0
 19 22  1  0  0  0  0
 17 18  1  0  0  0  0
 17 19  2  0  0  0  0
 15 16  1  0  0  0  0
 15 17  1  0  0  0  0
 14 15  2  0  0  0  0
 14 24  1  0  0  0  0
 11 12  1  0  0  0  0
 11 13  1  0  0  0  0
 11 14  1  0  0  0  0
  9 10  1  0  0  0  0
  9 11  1  0  0  0  0
  9 26  1  0  0  0  0
  7  8  1  0  0  0  0
  7  9  1  0  0  0  0
 30 31  1  0  0  0  0
 30 32  1  0  0  0  0
 30 33  1  0  0  0  0
 28 29  1  0  0  0  0
 28 30  1  0  0  0  0
M  END
$$$$
default_name
  -OEChem-02102213163D

 33 33  0     1  0  0  0  0  0999 V2000
   -4.0702   -3.8485    1.4554 H   0  0  0  0  0  0  0  0  0  0  0  0
   -4.0012   -2.9605    0.8284 C   0  0  0  0  0  0  0  0  0  0  0  0
   -4.7652   -2.2435    1.1234 H   0  0  0  0  0  0  0  0  0  0  0  0
   -4.1352   -3.2385   -0.2156 H   0  0  0  0  0  0  0  0  0  0  0  0
   -2.6362   -2.3395    1.0094 C   0  0  0  0  0  0  0  0  0  0  0  0
   -1.8292   -2.8395    1.7814 O   0  0  0  0  0  0  0  0  0  0  0  0
   -2.3832   -1.2445    0.2964 N   0  0  0  0  0  0  0  0  0  0  0  0
   -3.1102   -0.8685   -0.2946 H   0  0  0  0  0  0  0  0  0  0  0  0
   -1.1292   -0.4875    0.3524 C   0  0  1  0  0  0  0  0  0  0  0  0
   -0.3087   -1.1556    0.0882 H   0  0  0  0  0  0  0  0  0  0  0  0
   -1.1749    0.6534   -0.6787 C   0  0  0  0  0  0  0  0  0  0  0  0
   -2.1390    1.1586   -0.6058 H   0  0  0  0  0  0  0  0  0  0  0  0
   -0.4034    1.3845   -0.4312 H   0  0  0  0  0  0  0  0  0  0  0  0
   -0.9909    0.1951   -2.1125 C   0  0  0  0  0  0  0  0  0  0  0  0
   -1.9990    0.4291   -3.0691 C   0  0  0  0  0  0  0  0  0  0  0  0
   -2.9207    0.9147   -2.7764 H   0  0  0  0  0  0  0  0  0  0  0  0
   -1.8064    0.0377   -4.4084 C   0  0  0  0  0  0  0  0  0  0  0  0
   -2.5811    0.2171   -5.1379 H   0  0  0  0  0  0  0  0  0  0  0  0
   -0.5997   -0.5866   -4.7925 C   0  0  0  0  0  0  0  0  0  0  0  0
   -0.4031   -0.9652   -6.0822 O   0  0  0  0  0  0  0  0  0  0  0  0
   -1.1870   -0.8403   -6.6186 H   0  0  0  0  0  0  0  0  0  0  0  0
    0.4100   -0.8156   -3.8349 C   0  0  0  0  0  0  0  0  0  0  0  0
    1.3265   -1.2978   -4.1400 H   0  0  0  0  0  0  0  0  0  0  0  0
    0.2127   -0.4274   -2.4961 C   0  0  0  0  0  0  0  0  0  0  0  0
    0.9851   -0.6120   -1.7591 H   0  0  0  0  0  0  0  0  0  0  0  0
   -0.8664    0.0378    1.7736 C   0  0  0  0  0  0  0  0  0  0  0  0
    0.2529   -0.0672    2.2760 O   0  0  0  0  0  0  0  0  0  0  0  0
   -1.8947    0.5991    2.4221 N   0  0  0  0  0  0  0  0  0  0  0  0
   -2.7942    0.5936    1.9635 H   0  0  0  0  0  0  0  0  0  0  0  0
   -1.8170    1.1453    3.7750 C   0  0  0  0  0  0  0  0  0  0  0  0
   -0.9697    1.8290    3.8506 H   0  0  0  0  0  0  0  0  0  0  0  0
   -2.7354    1.6828    4.0167 H   0  0  0  0  0  0  0  0  0  0  0  0
   -1.6754    0.3334    4.4914 H   0  0  0  0  0  0  0  0  0  0  0  0
  5  6  2  0  0  0  0
  5  7  1  0  0  0  0
  2  3  1  0  0  0  0
  2  4  1  0  0  0  0
  2  5  1  0  0  0  0
  1  2  1  0  0  0  0
 26 27  2  0  0  0  0
 26 28  1  0  0  0  0
 24 25  1  0  0  0  0
 22 23  1  0  0  0  0
 22 24  2  0  0  0  0
 20 21  1  0  0  0  0
 19 20  1  0  0  0  0
 19 22  1  0  0  0  0
 17 18  1  0  0  0  0
 17 19  2  0  0  0  0
 15 16  1  0  0  0  0
 15 17  1  0  0  0  0
 14 15  2  0  0  0  0
 14 24  1  0  0  0  0
 11 12  1  0  0  0  0
 11 13  1  0  0  0  0
 11 14  1  0  0  0  0
  9 10  1  0  0  0  0
  9 11  1  0  0  0  0
  9 26  1  0  0  0  0
  7  8  1  0  0  0  0
  7  9  1  0  0  0  0
 30 31  1  0  0  0  0
 30 32  1  0  0  0  0
 30 33  1  0  0  0  0
 28 29  1  0  0  0  0
 28 30  1  0  0  0  0
M  END
$$$$
default_name
  -OEChem-02102213163D

 33 33  0     1  0  0  0  0  0999 V2000
   -4.0702   -3.8485    1.4554 H   0  0  0  0  0  0  0  0  0  0  0  0
   -4.0012   -2.9605    0.8284 C   0  0  0  0  0  0  0  0  0  0  0  0
   -4.7652   -2.2435    1.1234 H   0  0  0  0  0  0  0  0  0  0  0  0
   -4.1352   -3.2385   -0.2156 H   0  0  0  0  0  0  0  0  0  0  0  0
   -2.6362   -2.3395    1.0094 C   0  0  0  0  0  0  0  0  0  0  0  0
   -1.8292   -2.8395    1.7814 O   0  0  0  0  0  0  0  0  0  0  0  0
   -2.3832   -1.2445    0.2964 N   0  0  0  0  0  0  0  0  0  0  0  0
   -3.1102   -0.8685   -0.2946 H   0  0  0  0  0  0  0  0  0  0  0  0
   -1.1292   -0.4875    0.3524 C   0  0  1  0  0  0  0  0  0  0  0  0
   -0.3087   -1.1556    0.0882 H   0  0  0  0  0  0  0  0  0  0  0  0
   -1.1749    0.6534   -0.6787 C   0  0  0  0  0  0  0  0  0  0  0  0
   -2.1390    1.1586   -0.6058 H   0  0  0  0  0  0  0  0  0  0  0  0
   -0.4034    1.3845   -0.4312 H   0  0  0  0  0  0  0  0  0  0  0  0
   -0.9909    0.1951   -2.1125 C   0  0  0  0  0  0  0  0  0  0  0  0
   -1.8296    0.6906   -3.1310 C   0  0  0  0  0  0  0  0  0  0  0  0
   -2.6262    1.3815   -2.8879 H   0  0  0  0  0  0  0  0  0  0  0  0
   -1.6288    0.2929   -4.4671 C   0  0  0  0  0  0  0  0  0  0  0  0
   -2.2738    0.6731   -5.2443 H   0  0  0  0  0  0  0  0  0  0  0  0
   -0.5830   -0.6005   -4.7859 C   0  0  0  0  0  0  0  0  0  0  0  0
   -0.3792   -0.9878   -6.0719 O   0  0  0  0  0  0  0  0  0  0  0  0
   -1.0624   -0.6623   -6.6595 H   0  0  0  0  0  0  0  0  0  0  0  0
    0.2584   -1.0916   -3.7661 C   0  0  0  0  0  0  0  0  0  0  0  0
    1.0518   -1.7776   -4.0219 H   0  0  0  0  0  0  0  0  0  0  0  0
    0.0522   -0.6958   -2.4309 C   0  0  0  0  0  0  0  0  0  0  0  0
    0.6932   -1.0807   -1.6467 H   0  0  0  0  0  0  0  0  0  0  0  0
   -0.8664    0.0378    1.7736 C   0  0  0  0  0  0  0  0  0  0  0  0
    0.2529   -0.0672    2.2760 O   0  0  0  0  0  0  0  0  0  0  0  0
   -1.8947    0.5991    2.4221 N   0  0  0  0  0  0  0  0  0  0  0  0
   -2.7942    0.5936    1.9635 H   0  0  0  0  0  0  0  0  0  0  0  0
   -1.8170    1.1453    3.7750 C   0  0  0  0  0  0  0  0  0  0  0  0
   -0.9697    1.8290    3.8506 H   0  0  0  0  0  0  0  0  0  0  0  0
   -2.7354    1.6828    4.0167 H   0  0  0  0  0  0  0  0  0  0  0  0
   -1.6754    0.3334    4.4914 H   0  0  0  0  0  0  0  0  0  0  0  0
  5  6  2  0  0  0  0
  5  7  1  0  0  0  0
  2  3  1  0  0  0  0
  2  4  1  0  0  0  0
  2  5  1  0  0  0  0
  1  2  1  0  0  0  0
 26 27  2  0  0  0  0
 26 28  1  0  0  0  0
 24 25  1  0  0  0  0
 22 23  1  0  0  0  0
 22 24  2  0  0  0  0
 20 21  1  0  0  0  0
 19 20  1  0  0  0  0
 19 22  1  0  0  0  0
 17 18  1  0  0  0  0
 17 19  2  0  0  0  0
 15 16  1  0  0  0  0
 15 17  1  0  0  0  0
 14 15  2  0  0  0  0
 14 24  1  0  0  0  0
 11 12  1  0  0  0  0
 11 13  1  0  0  0  0
 11 14  1  0  0  0  0
  9 10  1  0  0  0  0
  9 11  1  0  0  0  0
  9 26  1  0  0  0  0
  7  8  1  0  0  0  0
  7  9  1  0  0  0  0
 30 31  1  0  0  0  0
 30 32  1  0  0  0  0
 30 33  1  0  0  0  0
 28 29  1  0  0  0  0
 28 30  1  0  0  0  0
M  END
$$$$
default_name
  -OEChem-02102213163D

 33 33  0     1  0  0  0  0  0999 V2000
   -4.0702   -3.8485    1.4554 H   0  0  0  0  0  0  0  0  0  0  0  0
   -4.0012   -2.9605    0.8284 C   0  0  0  0  0  0  0  0  0  0  0  0
   -4.7652   -2.2435    1.1234 H   0  0  0  0  0  0  0  0  0  0  0  0
   -4.1352   -3.2385   -0.2156 H   0  0  0  0  0  0  0  0  0  0  0  0
   -2.6362   -2.3395    1.0094 C   0  0  0  0  0  0  0  0  0  0  0  0
   -1.8292   -2.8395    1.7814 O   0  0  0  0  0  0  0  0  0  0  0  0
   -2.3832   -1.2445    0.2964 N   0  0  0  0  0  0  0  0  0  0  0  0
   -3.1102   -0.8685   -0.2946 H   0  0  0  0  0  0  0  0  0  0  0  0
   -1.1292   -0.4875    0.3524 C   0  0  1  0  0  0  0  0  0  0  0  0
   -0.3087   -1.1556    0.0882 H   0  0  0  0  0  0  0  0  0  0  0  0
   -1.1749    0.6534   -0.6787 C   0  0  0  0  0  0  0  0  0  0  0  0
   -2.1390    1.1586   -0.6058 H   0  0  0  0  0  0  0  0  0  0  0  0
   -0.4034    1.3845   -0.4312 H   0  0  0  0  0  0  0  0  0  0  0  0
   -0.9909    0.1951   -2.1125 C   0  0  0  0  0  0  0  0  0  0  0  0
   -1.5971    0.9036   -3.1692 C   0  0  0  0  0  0  0  0  0  0  0  0
   -2.2188    1.7638   -2.9578 H   0  0  0  0  0  0  0  0  0  0  0  0
   -1.3901    0.4978   -4.5020 C   0  0  0  0  0  0  0  0  0  0  0  0
   -1.8571    1.0418   -5.3086 H   0  0  0  0  0  0  0  0  0  0  0  0
   -0.5708   -0.6183   -4.7787 C   0  0  0  0  0  0  0  0  0  0  0  0
   -0.3625   -1.0158   -6.0608 O   0  0  0  0  0  0  0  0  0  0  0  0
   -0.8952   -0.5196   -6.6837 H   0  0  0  0  0  0  0  0  0  0  0  0
    0.0390   -1.3231   -3.7203 C   0  0  0  0  0  0  0  0  0  0  0  0
    0.6598   -2.1776   -3.9443 H   0  0  0  0  0  0  0  0  0  0  0  0
   -0.1735   -0.9179   -2.3889 C   0  0  0  0  0  0  0  0  0  0  0  0
    0.2878   -1.4655   -1.5757 H   0  0  0  0  0  0  0  0  0  0  0  0
   -0.8664    0.0378    1.7736 C   0  0  0  0  0  0  0  0  0  0  0  0
    0.2529   -0.0672    2.2760 O   0  0  0  0  0  0  0  0  0  0  0  0
   -1.8947    0.5991    2.4221 N   0  0  0  0  0  0  0  0  0  0  0  0
   -2.7942    0.5936    1.9635 H   0  0  0  0  0  0  0  0  0  0  0  0
   -1.8170    1.1453    3.7750 C   0  0  0  0  0  0  0  0  0  0  0  0
   -0.9697    1.8290    3.8506 H   0  0  0  0  0  0  0  0  0  0  0  0
   -2.7354    1.6828    4.0167 H   0  0  0  0  0  0  0  0  0  0  0  0
   -1.6754    0.3334    4.4914 H   0  0  0  0  0  0  0  0  0  0  0  0
  5  6  2  0  0  0  0
  5  7  1  0  0  0  0
  2  3  1  0  0  0  0
  2  4  1  0  0  0  0
  2  5  1  0  0  0  0
  1  2  1  0  0  0  0
 26 27  2  0  0  0  0
 26 28  1  0  0  0  0
 24 25  1  0  0  0  0
 22 23  1  0  0  0  0
 22 24  2  0  0  0  0
 20 21  1  0  0  0  0
 19 20  1  0  0  0  0
 19 22  1  0  0  0  0
 17 18  1  0  0  0  0
 17 19  2  0  0  0  0
 15 16  1  0  0  0  0
 15 17  1  0  0  0  0
 14 15  2  0  0  0  0
 14 24  1  0  0  0  0
 11 12  1  0  0  0  0
 11 13  1  0  0  0  0
 11 14  1  0  0  0  0
  9 10  1  0  0  0  0
  9 11  1  0  0  0  0
  9 26  1  0  0  0  0
  7  8  1  0  0  0  0
  7  9  1  0  0  0  0
 30 31  1  0  0  0  0
 30 32  1  0  0  0  0
 30 33  1  0  0  0  0
 28 29  1  0  0  0  0
 28 30  1  0  0  0  0
M  END
$$$$
default_name
  -OEChem-02102213163D

 33 33  0     1  0  0  0  0  0999 V2000
   -4.0702   -3.8485    1.4554 H   0  0  0  0  0  0  0  0  0  0  0  0
   -4.0012   -2.9605    0.8284 C   0  0  0  0  0  0  0  0  0  0  0  0
   -4.7652   -2.2435    1.1234 H   0  0  0  0  0  0  0  0  0  0  0  0
   -4.1352   -3.2385   -0.2156 H   0  0  0  0  0  0  0  0  0  0  0  0
   -2.6362   -2.3395    1.0094 C   0  0  0  0  0  0  0  0  0  0  0  0
   -1.8292   -2.8395    1.7814 O   0  0  0  0  0  0  0  0  0  0  0  0
   -2.3832   -1.2445    0.2964 N   0  0  0  0  0  0  0  0  0  0  0  0
   -3.1102   -0.8685   -0.2946 H   0  0  0  0  0  0  0  0  0  0  0  0
   -1.1292   -0.4875    0.3524 C   0  0  1  0  0  0  0  0  0  0  0  0
   -0.3087   -1.1556    0.0882 H   0  0  0  0  0  0  0  0  0  0  0  0
   -1.1749    0.6534   -0.6787 C   0  0  0  0  0  0  0  0  0  0  0  0
   -2.1390    1.1586   -0.6058 H   0  0  0  0  0  0  0  0  0  0  0  0
   -0.4034    1.3845   -0.4312 H   0  0  0  0  0  0  0  0  0  0  0  0
   -0.9909    0.1951   -2.1125 C   0  0  0  0  0  0  0  0  0  0  0  0
   -1.3175    1.0537   -3.1813 C   0  0  0  0  0  0  0  0  0  0  0  0
   -1.7262    2.0355   -2.9814 H   0  0  0  0  0  0  0  0  0  0  0  0
   -1.1067    0.6384   -4.5106 C   0  0  0  0  0  0  0  0  0  0  0  0
   -1.3594    1.2979   -5.3266 H   0  0  0  0  0  0  0  0  0  0  0  0
   -0.5639   -0.6387   -4.7713 C   0  0  0  0  0  0  0  0  0  0  0  0
   -0.3541   -1.0473   -6.0496 O   0  0  0  0  0  0  0  0  0  0  0  0
   -0.6969   -0.4220   -6.6895 H   0  0  0  0  0  0  0  0  0  0  0  0
   -0.2331   -1.4946   -3.7004 C   0  0  0  0  0  0  0  0  0  0  0  0
    0.1772   -2.4704   -3.9126 H   0  0  0  0  0  0  0  0  0  0  0  0
   -0.4492   -1.0785   -2.3729 C   0  0  0  0  0  0  0  0  0  0  0  0
   -0.2035   -1.7403   -1.5509 H   0  0  0  0  0  0  0  0  0  0  0  0
   -0.8664    0.0378    1.7736 C   0  0  0  0  0  0  0  0  0  0  0  0
    0.2529   -0.0672    2.2760 O   0  0  0  0  0  0  0  0  0  0  0  0
   -1.8947    0.5991    2.4221 N   0  0  0  0  0  0  0  0  0  0  0  0
   -2.7942    0.5936    1.9635 H   0  0  0  0  0  0  0  0  0  0  0  0
   -1.8170    1.1453    3.7750 C   0  0  0  0  0  0  0  0  0  0  0  0
   -0.9697    1.8290    3.8506 H   0  0  0  0  0  0  0  0  0  0  0  0
   -2.7354    1.6828    4.0167 H   0  0  0  0  0  0  0  0  0  0  0  0
   -1.6754    0.3334    4.4914 H   0  0  0  0  0  0  0  0  0  0  0  0
  5  6  2  0  0  0  0
  5  7  1  0  0  0  0
  2  3  1  0  0  0  0
  2  4  1  0  0  0  0
  2  5  1  0  0  0  0
  1  2  1  0  0  0  0
 26 27  2  0  0  0  0
 26 28  1  0  0  0  0
 24 25  1  0  0  0  0
 22 23  1  0  0  0  0
 22 24  2  0  0  0  0
 20 21  1  0  0  0  0
 19 20  1  0  0  0  0
 19 22  1  0  0  0  0
 17 18  1  0  0  0  0
 17 19  2  0  0  0  0
 15 16  1  0  0  0  0
 15 17  1  0  0  0  0
 14 15  2  0  0  0  0
 14 24  1  0  0  0  0
 11 12  1  0  0  0  0
 11 13  1  0  0  0  0
 11 14  1  0  0  0  0
  9 10  1  0  0  0  0
  9 11  1  0  0  0  0
  9 26  1  0  0  0  0
  7  8  1  0  0  0  0
  7  9  1  0  0  0  0
 30 31  1  0  0  0  0
 30 32  1  0  0  0  0
 30 33  1  0  0  0  0
 28 29  1  0  0  0  0
 28 30  1  0  0  0  0
M  END
$$$$
default_name
  -OEChem-02102213163D

 33 33  0     1  0  0  0  0  0999 V2000
   -4.0702   -3.8485    1.4554 H   0  0  0  0  0  0  0  0  0  0  0  0
   -4.0012   -2.9605    0.8284 C   0  0  0  0  0  0  0  0  0  0  0  0
   -4.7652   -2.2435    1.1234 H   0  0  0  0  0  0  0  0  0  0  0  0
   -4.1352   -3.2385   -0.2156 H   0  0  0  0  0  0  0  0  0  0  0  0
   -2.6362   -2.3395    1.0094 C   0  0  0  0  0  0  0  0  0  0  0  0
   -1.8292   -2.8395    1.7814 O   0  0  0  0  0  0  0  0  0  0  0  0
   -2.3832   -1.2445    0.2964 N   0  0  0  0  0  0  0  0  0  0  0  0
   -3.1102   -0.8685   -0.2946 H   0  0  0  0  0  0  0  0  0  0  0  0
   -1.1292   -0.4875    0.3524 C   0  0  1  0  0  0  0  0  0  0  0  0
   -0.3087   -1.1556    0.0882 H   0  0  0  0  0  0  0  0  0  0  0  0
   -1.1749    0.6534   -0.6787 C   0  0  0  0  0  0  0  0  0  0  0  0
   -2.0049    1.3181   -0.4352 H   0  0  0  0  0  0  0  0  0  0  0  0
   -0.2558    1.2366   -0.6014 H   0  0  0  0  0  0  0  0  0  0  0  0
   -1.3525    0.1833   -2.1095 C   0  0  0  0  0  0  0  0  0  0  0  0
   -1.4121    1.1175   -3.1630 C   0  0  0  0  0  0  0  0  0  0  0  0
   -1.3574    2.1772   -2.9506 H   0  0  0  0  0  0  0  0  0  0  0  0
   -1.5364    0.6740   -4.4941 C   0  0  0  0  0  0  0  0  0  0  0  0
   -1.5833    1.3921   -5.2982 H   0  0  0  0  0  0  0  0  0  0  0  0
   -1.5975   -0.7090   -4.7723 C   0  0  0  0  0  0  0  0  0  0  0  0
   -1.7143   -1.1469   -6.0528 O   0  0  0  0  0  0  0  0  0  0  0  0
   -1.8377   -0.4256   -6.6712 H   0  0  0  0  0  0  0  0  0  0  0  0
   -1.5328   -1.6425   -3.7172 C   0  0  0  0  0  0  0  0  0  0  0  0
   -1.5849   -2.6971   -3.9423 H   0  0  0  0  0  0  0  0  0  0  0  0
   -1.4132   -1.1959   -2.3874 C   0  0  0  0  0  0  0  0  0  0  0  0
   -1.3728   -1.9135   -1.5766 H   0  0  0  0  0  0  0  0  0  0  0  0
   -0.8664    0.0378    1.7736 C   0  0  0  0  0  0  0  0  0  0  0  0
    0.2529   -0.0672    2.2760 O   0  0  0  0  0  0  0  0  0  0  0  0
   -1.8947    0.5991    2.4221 N   0  0  0  0  0  0  0  0  0  0  0  0
   -2.7942    0.5936    1.9635 H   0  0  0  0  0  0  0  0  0  0  0  0
   -1.8170    1.1453    3.7750 C   0  0  0  0  0  0  0  0  0  0  0  0
   -0.9697    1.8290    3.8506 H   0  0  0  0  0  0  0  0  0  0  0  0
   -2.7354    1.6828    4.0167 H   0  0  0  0  0  0  0  0  0  0  0  0
   -1.6754    0.3334    4.4914 H   0  0  0  0  0  0  0  0  0  0  0  0
  5  6  2  0  0  0  0
  5  7  1  0  0  0  0
  2  3  1  0  0  0  0
  2  4  1  0  0  0  0
  2  5  1  0  0  0  0
  1  2  1  0  0  0  0
 26 27  2  0  0  0  0
 26 28  1  0  0  0  0
 24 25  1  0  0  0  0
 22 23  1  0  0  0  0
 22 24  2  0  0  0  0
 20 21  1  0  0  0  0
 19 20  1  0  0  0  0
 19 22  1  0  0  0  0
 17 18  1  0  0  0  0
 17 19  2  0  0  0  0
 15 16  1  0  0  0  0
 15 17  1  0  0  0  0
 14 15  2  0  0  0  0
 14 24  1  0  0  0  0
 11 12  1  0  0  0  0
 11 13  1  0  0  0  0
 11 14  1  0  0  0  0
  9 10  1  0  0  0  0
  9 11  1  0  0  0  0
  9 26  1  0  0  0  0
  7  8  1  0  0  0  0
  7  9  1  0  0  0  0
 30 31  1  0  0  0  0
 30 32  1  0  0  0  0
 30 33  1  0  0  0  0
 28 29  1  0  0  0  0
 28 30  1  0  0  0  0
M  END
$$$$
default_name
  -OEChem-02102213163D

 33 33  0     1  0  0  0  0  0999 V2000
   -4.0702   -3.8485    1.4554 H   0  0  0  0  0  0  0  0  0  0  0  0
   -4.0012   -2.9605    0.8284 C   0  0  0  0  0  0  0  0  0  0  0  0
   -4.7652   -2.2435    1.1234 H   0  0  0  0  0  0  0  0  0  0  0  0
   -4.1352   -3.2385   -0.2156 H   0  0  0  0  0  0  0  0  0  0  0  0
   -2.6362   -2.3395    1.0094 C   0  0  0  0  0  0  0  0  0  0  0  0
   -1.8292   -2.8395    1.7814 O   0  0  0  0  0  0  0  0  0  0  0  0
   -2.3832   -1.2445    0.2964 N   0  0  0  0  0  0  0  0  0  0  0  0
   -3.1102   -0.8685   -0.2946 H   0  0  0  0  0  0  0  0  0  0  0  0
   -1.1292   -0.4875    0.3524 C   0  0  1  0  0  0  0  0  0  0  0  0
   -0.3087   -1.1556    0.0882 H   0  0  0  0  0  0  0  0  0  0  0  0
   -1.1749    0.6534   -0.6787 C   0  0  0  0  0  0  0  0  0  0  0  0
   -2.0049    1.3181   -0.4352 H   0  0  0  0  0  0  0  0  0  0  0  0
   -0.2558    1.2366   -0.6014 H   0  0  0  0  0  0  0  0  0  0  0  0
   -1.3525    0.1833   -2.1095 C   0  0  0  0  0  0  0  0  0  0  0  0
   -1.1002    1.0607   -3.1831 C   0  0  0  0  0  0  0  0  0  0  0  0
   -0.8035    2.0831   -2.9884 H   0  0  0  0  0  0  0  0  0  0  0  0
   -1.2274    0.6075   -4.5106 C   0  0  0  0  0  0  0  0  0  0  0  0
   -1.0350    1.2825   -5.3303 H   0  0  0  0  0  0  0  0  0  0  0  0
   -1.6046   -0.7292   -4.7648 C   0  0  0  0  0  0  0  0  0  0  0  0
   -1.7271   -1.1768   -6.0414 O   0  0  0  0  0  0  0  0  0  0  0  0
   -1.6220   -0.4727   -6.6826 H   0  0  0  0  0  0  0  0  0  0  0  0
   -1.8518   -1.6072   -3.6892 C   0  0  0  0  0  0  0  0  0  0  0  0
   -2.1438   -2.6257   -3.8964 H   0  0  0  0  0  0  0  0  0  0  0  0
   -1.7284   -1.1499   -2.3634 C   0  0  0  0  0  0  0  0  0  0  0  0
   -1.9275   -1.8225   -1.5376 H   0  0  0  0  0  0  0  0  0  0  0  0
   -0.8664    0.0378    1.7736 C   0  0  0  0  0  0  0  0  0  0  0  0
    0.2529   -0.0672    2.2760 O   0  0  0  0  0  0  0  0  0  0  0  0
   -1.8947    0.5991    2.4221 N   0  0  0  0  0  0  0  0  0  0  0  0
   -2.7942    0.5936    1.9635 H   0  0  0  0  0  0  0  0  0  0  0  0
   -1.8170    1.1453    3.7750 C   0  0  0  0  0  0  0  0  0  0  0  0
   -0.9697    1.8290    3.8506 H   0  0  0  0  0  0  0  0  0  0  0  0
   -2.7354    1.6828    4.0167 H   0  0  0  0  0  0  0  0  0  0  0  0
   -1.6754    0.3334    4.4914 H   0  0  0  0  0  0  0  0  0  0  0  0
  5  6  2  0  0  0  0
  5  7  1  0  0  0  0
  2  3  1  0  0  0  0
  2  4  1  0  0  0  0
  2  5  1  0  0  0  0
  1  2  1  0  0  0  0
 26 27  2  0  0  0  0
 26 28  1  0  0  0  0
 24 25  1  0  0  0  0
 22 23  1  0  0  0  0
 22 24  2  0  0  0  0
 20 21  1  0  0  0  0
 19 20  1  0  0  0  0
 19 22  1  0  0  0  0
 17 18  1  0  0  0  0
 17 19  2  0  0  0  0
 15 16  1  0  0  0  0
 15 17  1  0  0  0  0
 14 15  2  0  0  0  0
 14 24  1  0  0  0  0
 11 12  1  0  0  0  0
 11 13  1  0  0  0  0
 11 14  1  0  0  0  0
  9 10  1  0  0  0  0
  9 11  1  0  0  0  0
  9 26  1  0  0  0  0
  7  8  1  0  0  0  0
  7  9  1  0  0  0  0
 30 31  1  0  0  0  0
 30 32  1  0  0  0  0
 30 33  1  0  0  0  0
 28 29  1  0  0  0  0
 28 30  1  0  0  0  0
M  END
$$$$
default_name
  -OEChem-02102213163D

 33 33  0     1  0  0  0  0  0999 V2000
   -4.0702   -3.8485    1.4554 H   0  0  0  0  0  0  0  0  0  0  0  0
   -4.0012   -2.9605    0.8284 C   0  0  0  0  0  0  0  0  0  0  0  0
   -4.7652   -2.2435    1.1234 H   0  0  0  0  0  0  0  0  0  0  0  0
   -4.1352   -3.2385   -0.2156 H   0  0  0  0  0  0  0  0  0  0  0  0
   -2.6362   -2.3395    1.0094 C   0  0  0  0  0  0  0  0  0  0  0  0
   -1.8292   -2.8395    1.7814 O   0  0  0  0  0  0  0  0  0  0  0  0
   -2.3832   -1.2445    0.2964 N   0  0  0  0  0  0  0  0  0  0  0  0
   -3.1102   -0.8685   -0.2946 H   0  0  0  0  0  0  0  0  0  0  0  0
   -1.1292   -0.4875    0.3524 C   0  0  1  0  0  0  0  0  0  0  0  0
   -0.3087   -1.1556    0.0882 H   0  0  0  0  0  0  0  0  0  0  0  0
   -1.1749    0.6534   -0.6787 C   0  0  0  0  0  0  0  0  0  0  0  0
   -2.0049    1.3181   -0.4352 H   0  0  0  0  0  0  0  0  0  0  0  0
   -0.2558    1.2366   -0.6014 H   0  0  0  0  0  0  0  0  0  0  0  0
   -1.3525    0.1833   -2.1095 C   0  0  0  0  0  0  0  0  0  0  0  0
   -0.8112    0.9292   -3.1757 C   0  0  0  0  0  0  0  0  0  0  0  0
   -0.2885    1.8558   -2.9777 H   0  0  0  0  0  0  0  0  0  0  0  0
   -0.9439    0.4673   -4.4997 C   0  0  0  0  0  0  0  0  0  0  0  0
   -0.5295    1.0418   -5.3139 H   0  0  0  0  0  0  0  0  0  0  0  0
   -1.6170   -0.7468   -4.7574 C   0  0  0  0  0  0  0  0  0  0  0  0
   -1.7476   -1.2023   -6.0305 O   0  0  0  0  0  0  0  0  0  0  0  0
   -1.4242   -0.5712   -6.6747 H   0  0  0  0  0  0  0  0  0  0  0  0
   -2.1537   -1.4944   -3.6888 C   0  0  0  0  0  0  0  0  0  0  0  0
   -2.6700   -2.4189   -3.8990 H   0  0  0  0  0  0  0  0  0  0  0  0
   -2.0235   -1.0278   -2.3669 C   0  0  0  0  0  0  0  0  0  0  0  0
   -2.4442   -1.5980   -1.5473 H   0  0  0  0  0  0  0  0  0  0  0  0
   -0.8664    0.0378    1.7736 C   0  0  0  0  0  0  0  0  0  0  0  0
    0.2529   -0.0672    2.2760 O   0  0  0  0  0  0  0  0  0  0  0  0
   -1.8947    0.5991    2.4221 N   0  0  0  0  0  0  0  0  0  0  0  0
   -2.7942    0.5936    1.9635 H   0  0  0  0  0  0  0  0  0  0  0  0
   -1.8170    1.1453    3.7750 C   0  0  0  0  0  0  0  0  0  0  0  0
   -0.9697    1.8290    3.8506 H   0  0  0  0  0  0  0  0  0  0  0  0
   -2.7354    1.6828    4.0167 H   0  0  0  0  0  0  0  0  0  0  0  0
   -1.6754    0.3334    4.4914 H   0  0  0  0  0  0  0  0  0  0  0  0
  5  6  2  0  0  0  0
  5  7  1  0  0  0  0
  2  3  1  0  0  0  0
  2  4  1  0  0  0  0
  2  5  1  0  0  0  0
  1  2  1  0  0  0  0
 26 27  2  0  0  0  0
 26 28  1  0  0  0  0
 24 25  1  0  0  0  0
 22 23  1  0  0  0  0
 22 24  2  0  0  0  0
 20 21  1  0  0  0  0
 19 20  1  0  0  0  0
 19 22  1  0  0  0  0
 17 18  1  0  0  0  0
 17 19  2  0  0  0  0
 15 16  1  0  0  0  0
 15 17  1  0  0  0  0
 14 15  2  0  0  0  0
 14 24  1  0  0  0  0
 11 12  1  0  0  0  0
 11 13  1  0  0  0  0
 11 14  1  0  0  0  0
  9 10  1  0  0  0  0
  9 11  1  0  0  0  0
  9 26  1  0  0  0  0
  7  8  1  0  0  0  0
  7  9  1  0  0  0  0
 30 31  1  0  0  0  0
 30 32  1  0  0  0  0
 30 33  1  0  0  0  0
 28 29  1  0  0  0  0
 28 30  1  0  0  0  0
M  END
$$$$
default_name
  -OEChem-02102213163D

 33 33  0     1  0  0  0  0  0999 V2000
   -4.0702   -3.8485    1.4554 H   0  0  0  0  0  0  0  0  0  0  0  0
   -4.0012   -2.9605    0.8284 C   0  0  0  0  0  0  0  0  0  0  0  0
   -4.7652   -2.2435    1.1234 H   0  0  0  0  0  0  0  0  0  0  0  0
   -4.1352   -3.2385   -0.2156 H   0  0  0  0  0  0  0  0  0  0  0  0
   -2.6362   -2.3395    1.0094 C   0  0  0  0  0  0  0  0  0  0  0  0
   -1.8292   -2.8395    1.7814 O   0  0  0  0  0  0  0  0  0  0  0  0
   -2.3832   -1.2445    0.2964 N   0  0  0  0  0  0  0  0  0  0  0  0
   -3.1102   -0.8685   -0.2946 H   0  0  0  0  0  0  0  0  0  0  0  0
   -1.1292   -0.4875    0.3524 C   0  0  1  0  0  0  0  0  0  0  0  0
   -0.3087   -1.1556    0.0882 H   0  0  0  0  0  0  0  0  0  0  0  0
   -1.1749    0.6534   -0.6787 C   0  0  0  0  0  0  0  0  0  0  0  0
   -2.0049    1.3181   -0.4352 H   0  0  0  0  0  0  0  0  0  0  0  0
   -0.2558    1.2366   -0.6014 H   0  0  0  0  0  0  0  0  0  0  0  0
   -1.3525    0.1833   -2.1095 C   0  0  0  0  0  0  0  0  0  0  0  0
   -0.5648    0.7318   -3.1414 C   0  0  0  0  0  0  0  0  0  0  0  0
    0.1526    1.5108   -2.9190 H   0  0  0  0  0  0  0  0  0  0  0  0
   -0.7051    0.2630   -4.4622 C   0  0  0  0  0  0  0  0  0  0  0  0
   -0.1014    0.6864   -5.2502 H   0  0  0  0  0  0  0  0  0  0  0  0
   -1.6339   -0.7605   -4.7508 C   0  0  0  0  0  0  0  0  0  0  0  0
   -1.7745   -1.2215   -6.0208 O   0  0  0  0  0  0  0  0  0  0  0  0
   -1.2578   -0.7143   -6.6483 H   0  0  0  0  0  0  0  0  0  0  0  0
   -2.4177   -1.3116   -3.7161 C   0  0  0  0  0  0  0  0  0  0  0  0
   -3.1275   -2.0907   -3.9501 H   0  0  0  0  0  0  0  0  0  0  0  0
   -2.2785   -0.8378   -2.3977 C   0  0  0  0  0  0  0  0  0  0  0  0
   -2.8877   -1.2552   -1.6049 H   0  0  0  0  0  0  0  0  0  0  0  0
   -0.8664    0.0378    1.7736 C   0  0  0  0  0  0  0  0  0  0  0  0
    0.2529   -0.0672    2.2760 O   0  0  0  0  0  0  0  0  0  0  0  0
   -1.8947    0.5991    2.4221 N   0  0  0  0  0  0  0  0  0  0  0  0
   -2.7942    0.5936    1.9635 H   0  0  0  0  0  0  0  0  0  0  0  0
   -1.8170    1.1453    3.7750 C   0  0  0  0  0  0  0  0  0  0  0  0
   -0.9697    1.8290    3.8506 H   0  0  0  0  0  0  0  0  0  0  0  0
   -2.7354    1.6828    4.0167 H   0  0  0  0  0  0  0  0  0  0  0  0
   -1.6754    0.3334    4.4914 H   0  0  0  0  0  0  0  0  0  0  0  0
  5  6  2  0  0  0  0
  5  7  1  0  0  0  0
  2  3  1  0  0  0  0
  2  4  1  0  0  0  0
  2  5  1  0  0  0  0
  1  2  1  0  0  0  0
 26 27  2  0  0  0  0
 26 28  1  0  0  0  0
 24 25  1  0  0  0  0
 22 23  1  0  0  0  0
 22 24  2  0  0  0  0
 20 21  1  0  0  0  0
 19 20  1  0  0  0  0
 19 22  1  0  0  0  0
 17 18  1  0  0  0  0
 17 19  2  0  0  0  0
 15 16  1  0  0  0  0
 15 17  1  0  0  0  0
 14 15  2  0  0  0  0
 14 24  1  0  0  0  0
 11 12  1  0  0  0  0
 11 13  1  0  0  0  0
 11 14  1  0  0  0  0
  9 10  1  0  0  0  0
  9 11  1  0  0  0  0
  9 26  1  0  0  0  0
  7  8  1  0  0  0  0
  7  9  1  0  0  0  0
 30 31  1  0  0  0  0
 30 32  1  0  0  0  0
 30 33  1  0  0  0  0
 28 29  1  0  0  0  0
 28 30  1  0  0  0  0
M  END
$$$$
default_name
  -OEChem-02102213163D

 33 33  0     1  0  0  0  0  0999 V2000
   -4.0702   -3.8485    1.4554 H   0  0  0  0  0  0  0  0  0  0  0  0
   -4.0012   -2.9605    0.8284 C   0  0  0  0  0  0  0  0  0  0  0  0
   -4.7652   -2.2435    1.1234 H   0  0  0  0  0  0  0  0  0  0  0  0
   -4.1352   -3.2385   -0.2156 H   0  0  0  0  0  0  0  0  0  0  0  0
   -2.6362   -2.3395    1.0094 C   0  0  0  0  0  0  0  0  0  0  0  0
   -1.8292   -2.8395    1.7814 O   0  0  0  0  0  0  0  0  0  0  0  0
   -2.3832   -1.2445    0.2964 N   0  0  0  0  0  0  0  0  0  0  0  0
   -3.1102   -0.8685   -0.2946 H   0  0  0  0  0  0  0  0  0  0  0  0
   -1.1292   -0.4875    0.3524 C   0  0  1  0  0  0  0  0  0  0  0  0
   -0.3087   -1.1556    0.0882 H   0  0  0  0  0  0  0  0  0  0  0  0
   -1.1749    0.6534   -0.6787 C   0  0  0  0  0  0  0  0  0  0  0  0
   -2.0049    1.3181   -0.4352 H   0  0  0  0  0  0  0  0  0  0  0  0
   -0.2558    1.2366   -0.6014 H   0  0  0  0  0  0  0  0  0  0  0  0
   -1.3525    0.1833   -2.1095 C   0  0  0  0  0  0  0  0  0  0  0  0
   -0.3778    0.4819   -3.0826 C   0  0  0  0  0  0  0  0  0  0  0  0
    0.4898    1.0716   -2.8166 H   0  0  0  0  0  0  0  0  0  0  0  0
   -0.5273    0.0085   -4.4006 C   0  0  0  0  0  0  0  0  0  0  0  0
    0.2202    0.2405   -5.1436 H   0  0  0  0  0  0  0  0  0  0  0  0
   -1.6540   -0.7695   -4.7454 C   0  0  0  0  0  0  0  0  0  0  0  0
   -1.8060   -1.2332   -6.0130 O   0  0  0  0  0  0  0  0  0  0  0  0
   -1.1342   -0.8925   -6.6051 H   0  0  0  0  0  0  0  0  0  0  0  0
   -2.6260   -1.0715   -3.7691 C   0  0  0  0  0  0  0  0  0  0  0  0
   -3.4852   -1.6636   -4.0461 H   0  0  0  0  0  0  0  0  0  0  0  0
   -2.4759   -0.5930   -2.4537 C   0  0  0  0  0  0  0  0  0  0  0  0
   -3.2278   -0.8176   -1.7065 H   0  0  0  0  0  0  0  0  0  0  0  0
   -0.8664    0.0378    1.7736 C   0  0  0  0  0  0  0  0  0  0  0  0
    0.2529   -0.0672    2.2760 O   0  0  0  0  0  0  0  0  0  0  0  0
   -1.8947    0.5991    2.4221 N   0  0  0  0  0  0  0  0  0  0  0  0
   -2.7942    0.5936    1.9635 H   0  0  0  0  0  0  0  0  0  0  0  0
   -1.8170    1.1453    3.7750 C   0  0  0  0  0  0  0  0  0  0  0  0
   -0.9697    1.8290    3.8506 H   0  0  0  0  0  0  0  0  0  0  0  0
   -2.7354    1.6828    4.0167 H   0  0  0  0  0  0  0  0  0  0  0  0
   -1.6754    0.3334    4.4914 H   0  0  0  0  0  0  0  0  0  0  0  0
  5  6  2  0  0  0  0
  5  7  1  0  0  0  0
  2  3  1  0  0  0  0
  2  4  1  0  0  0  0
  2  5  1  0  0  0  0
  1  2  1  0  0  0  0
 26 27  2  0  0  0  0
 26 28  1  0  0  0  0
 24 25  1  0  0  0  0
 22 23  1  0  0  0  0
 22 24  2  0  0  0  0
 20 21  1  0  0  0  0
 19 20  1  0  0  0  0
 19 22  1  0  0  0  0
 17 18  1  0  0  0  0
 17 19  2  0  0  0  0
 15 16  1  0  0  0  0
 15 17  1  0  0  0  0
 14 15  2  0  0  0  0
 14 24  1  0  0  0  0
 11 12  1  0  0  0  0
 11 13  1  0  0  0  0
 11 14  1  0  0  0  0
  9 10  1  0  0  0  0
  9 11  1  0  0  0  0
  9 26  1  0  0  0  0
  7  8  1  0  0  0  0
  7  9  1  0  0  0  0
 30 31  1  0  0  0  0
 30 32  1  0  0  0  0
 30 33  1  0  0  0  0
 28 29  1  0  0  0  0
 28 30  1  0  0  0  0
M  END
$$$$
default_name
  -OEChem-02102213163D

 33 33  0     1  0  0  0  0  0999 V2000
   -4.0702   -3.8485    1.4554 H   0  0  0  0  0  0  0  0  0  0  0  0
   -4.0012   -2.9605    0.8284 C   0  0  0  0  0  0  0  0  0  0  0  0
   -4.7652   -2.2435    1.1234 H   0  0  0  0  0  0  0  0  0  0  0  0
   -4.1352   -3.2385   -0.2156 H   0  0  0  0  0  0  0  0  0  0  0  0
   -2.6362   -2.3395    1.0094 C   0  0  0  0  0  0  0  0  0  0  0  0
   -1.8292   -2.8395    1.7814 O   0  0  0  0  0  0  0  0  0  0  0  0
   -2.3832   -1.2445    0.2964 N   0  0  0  0  0  0  0  0  0  0  0  0
   -3.1102   -0.8685   -0.2946 H   0  0  0  0  0  0  0  0  0  0  0  0
   -1.1292   -0.4875    0.3524 C   0  0  1  0  0  0  0  0  0  0  0  0
   -0.3087   -1.1556    0.0882 H   0  0  0  0  0  0  0  0  0  0  0  0
   -1.1749    0.6534   -0.6787 C   0  0  0  0  0  0  0  0  0  0  0  0
   -2.0049    1.3181   -0.4352 H   0  0  0  0  0  0  0  0  0  0  0  0
   -0.2558    1.2366   -0.6014 H   0  0  0  0  0  0  0  0  0  0  0  0
   -1.3525    0.1833   -2.1095 C   0  0  0  0  0  0  0  0  0  0  0  0
   -0.2628    0.1967   -3.0031 C   0  0  0  0  0  0  0  0  0  0  0  0
    0.6999    0.5682   -2.6772 H   0  0  0  0  0  0  0  0  0  0  0  0
   -0.4227   -0.2788   -4.3192 C   0  0  0  0  0  0  0  0  0  0  0  0
    0.4134   -0.2656   -5.0013 H   0  0  0  0  0  0  0  0  0  0  0  0
   -1.6761   -0.7730   -4.7415 C   0  0  0  0  0  0  0  0  0  0  0  0
   -1.8399   -1.2366   -6.0077 O   0  0  0  0  0  0  0  0  0  0  0  0
   -1.0617   -1.0934   -6.5481 H   0  0  0  0  0  0  0  0  0  0  0  0
   -2.7642   -0.7903   -3.8444 C   0  0  0  0  0  0  0  0  0  0  0  0
   -3.7187   -1.1665   -4.1804 H   0  0  0  0  0  0  0  0  0  0  0  0
   -2.6024   -0.3100   -2.5310 C   0  0  0  0  0  0  0  0  0  0  0  0
   -3.4412   -0.3150   -1.8451 H   0  0  0  0  0  0  0  0  0  0  0  0
   -0.8664    0.0378    1.7736 C   0  0  0  0  0  0  0  0  0  0  0  0
    0.2529   -0.0672    2.2760 O   0  0  0  0  0  0  0  0  0  0  0  0
   -1.8947    0.5991    2.4221 N   0  0  0  0  0  0  0  0  0  0  0  0
   -2.7942    0.5936    1.9635 H   0  0  0  0  0  0  0  0  0  0  0  0
   -1.8170    1.1453    3.7750 C   0  0  0  0  0  0  0  0  0  0  0  0
   -0.9697    1.8290    3.8506 H   0  0  0  0  0  0  0  0  0  0  0  0
   -2.7354    1.6828    4.0167 H   0  0  0  0  0  0  0  0  0  0  0  0
   -1.6754    0.3334    4.4914 H   0  0  0  0  0  0  0  0  0  0  0  0
  5  6  2  0  0  0  0
  5  7  1  0  0  0  0
  2  3  1  0  0  0  0
  2  4  1  0  0  0  0
  2  5  1  0  0  0  0
  1  2  1  0  0  0  0
 26 27  2  0  0  0  0
 26 28  1  0  0  0  0
 24 25  1  0  0  0  0
 22 23  1  0  0  0  0
 22 24  2  0  0  0  0
 20 21  1  0  0  0  0
 19 20  1  0  0  0  0
 19 22  1  0  0  0  0
 17 18  1  0  0  0  0
 17 19  2  0  0  0  0
 15 16  1  0  0  0  0
 15 17  1  0  0  0  0
 14 15  2  0  0  0  0
 14 24  1  0  0  0  0
 11 12  1  0  0  0  0
 11 13  1  0  0  0  0
 11 14  1  0  0  0  0
  9 10  1  0  0  0  0
  9 11  1  0  0  0  0
  9 26  1  0  0  0  0
  7  8  1  0  0  0  0
  7  9  1  0  0  0  0
 30 31  1  0  0  0  0
 30 32  1  0  0  0  0
 30 33  1  0  0  0  0
 28 29  1  0  0  0  0
 28 30  1  0  0  0  0
M  END
$$$$
default_name
  -OEChem-02102213163D

 33 33  0     1  0  0  0  0  0999 V2000
   -4.0702   -3.8485    1.4554 H   0  0  0  0  0  0  0  0  0  0  0  0
   -4.0012   -2.9605    0.8284 C   0  0  0  0  0  0  0  0  0  0  0  0
   -4.7652   -2.2435    1.1234 H   0  0  0  0  0  0  0  0  0  0  0  0
   -4.1352   -3.2385   -0.2156 H   0  0  0  0  0  0  0  0  0  0  0  0
   -2.6362   -2.3395    1.0094 C   0  0  0  0  0  0  0  0  0  0  0  0
   -1.8292   -2.8395    1.7814 O   0  0  0  0  0  0  0  0  0  0  0  0
   -2.3832   -1.2445    0.2964 N   0  0  0  0  0  0  0  0  0  0  0  0
   -3.1102   -0.8685   -0.2946 H   0  0  0  0  0  0  0  0  0  0  0  0
   -1.1292   -0.4875    0.3524 C   0  0  1  0  0  0  0  0  0  0  0  0
   -0.3087   -1.1556    0.0882 H   0  0  0  0  0  0  0  0  0  0  0  0
   -1.1749    0.6534   -0.6787 C   0  0  0  0  0  0  0  0  0  0  0  0
   -2.0049    1.3181   -0.4352 H   0  0  0  0  0  0  0  0  0  0  0  0
   -0.2558    1.2366   -0.6014 H   0  0  0  0  0  0  0  0  0  0  0  0
   -1.3525    0.1833   -2.1095 C   0  0  0  0  0  0  0  0  0  0  0  0
   -0.2278   -0.1044   -2.9085 C   0  0  0  0  0  0  0  0  0  0  0  0
    0.7689    0.0348   -2.5105 H   0  0  0  0  0  0  0  0  0  0  0  0
   -0.3984   -0.5795   -4.2234 C   0  0  0  0  0  0  0  0  0  0  0  0
    0.4651   -0.7973   -4.8330 H   0  0  0  0  0  0  0  0  0  0  0  0
   -1.6987   -0.7709   -4.7394 C   0  0  0  0  0  0  0  0  0  0  0  0
   -1.8738   -1.2315   -6.0052 O   0  0  0  0  0  0  0  0  0  0  0  0
   -1.0454   -1.3035   -6.4811 H   0  0  0  0  0  0  0  0  0  0  0  0
   -2.8230   -0.4872   -3.9367 C   0  0  0  0  0  0  0  0  0  0  0  0
   -3.8121   -0.6334   -4.3440 H   0  0  0  0  0  0  0  0  0  0  0  0
   -2.6492   -0.0081   -2.6244 C   0  0  0  0  0  0  0  0  0  0  0  0
   -3.5135    0.2185   -2.0115 H   0  0  0  0  0  0  0  0  0  0  0  0
   -0.8664    0.0378    1.7736 C   0  0  0  0  0  0  0  0  0  0  0  0
    0.2529   -0.0672    2.2760 O   0  0  0  0  0  0  0  0  0  0  0  0
   -1.8947    0.5991    2.4221 N   0  0  0  0  0  0  0  0  0  0  0  0
   -2.7942    0.5936    1.9635 H   0  0  0  0  0  0  0  0  0  0  0  0
   -1.8170    1.1453    3.7750 C   0  0  0  0  0  0  0  0  0  0  0  0
   -0.9697    1.8290    3.8506 H   0  0  0  0  0  0  0  0  0  0  0  0
   -2.7354    1.6828    4.0167 H   0  0  0  0  0  0  0  0  0  0  0  0
   -1.6754    0.3334    4.4914 H   0  0  0  0  0  0  0  0  0  0  0  0
  5  6  2  0  0  0  0
  5  7  1  0  0  0  0
  2  3  1  0  0  0  0
  2  4  1  0  0  0  0
  2  5  1  0  0  0  0
  1  2  1  0  0  0  0
 26 27  2  0  0  0  0
 26 28  1  0  0  0  0
 24 25  1  0  0  0  0
 22 23  1  0  0  0  0
 22 24  2  0  0  0  0
 20 21  1  0  0  0  0
 19 20  1  0  0  0  0
 19 22  1  0  0  0  0
 17 18  1  0  0  0  0
 17 19  2  0  0  0  0
 15 16  1  0  0  0  0
 15 17  1  0  0  0  0
 14 15  2  0  0  0  0
 14 24  1  0  0  0  0
 11 12  1  0  0  0  0
 11 13  1  0  0  0  0
 11 14  1  0  0  0  0
  9 10  1  0  0  0  0
  9 11  1  0  0  0  0
  9 26  1  0  0  0  0
  7  8  1  0  0  0  0
  7  9  1  0  0  0  0
 30 31  1  0  0  0  0
 30 32  1  0  0  0  0
 30 33  1  0  0  0  0
 28 29  1  0  0  0  0
 28 30  1  0  0  0  0
M  END
$$$$
default_name
  -OEChem-02102213163D

 33 33  0     1  0  0  0  0  0999 V2000
   -4.0702   -3.8485    1.4554 H   0  0  0  0  0  0  0  0  0  0  0  0
   -4.0012   -2.9605    0.8284 C   0  0  0  0  0  0  0  0  0  0  0  0
   -4.7652   -2.2435    1.1234 H   0  0  0  0  0  0  0  0  0  0  0  0
   -4.1352   -3.2385   -0.2156 H   0  0  0  0  0  0  0  0  0  0  0  0
   -2.6362   -2.3395    1.0094 C   0  0  0  0  0  0  0  0  0  0  0  0
   -1.8292   -2.8395    1.7814 O   0  0  0  0  0  0  0  0  0  0  0  0
   -2.3832   -1.2445    0.2964 N   0  0  0  0  0  0  0  0  0  0  0  0
   -3.1102   -0.8685   -0.2946 H   0  0  0  0  0  0  0  0  0  0  0  0
   -1.1292   -0.4875    0.3524 C   0  0  1  0  0  0  0  0  0  0  0  0
   -0.3087   -1.1556    0.0882 H   0  0  0  0  0  0  0  0  0  0  0  0
   -1.1749    0.6534   -0.6787 C   0  0  0  0  0  0  0  0  0  0  0  0
   -2.0049    1.3181   -0.4352 H   0  0  0  0  0  0  0  0  0  0  0  0
   -0.2558    1.2366   -0.6014 H   0  0  0  0  0  0  0  0  0  0  0  0
   -1.3525    0.1833   -2.1095 C   0  0  0  0  0  0  0  0  0  0  0  0
   -0.2751   -0.4010   -2.8052 C   0  0  0  0  0  0  0  0  0  0  0  0
    0.6918   -0.4922   -2.3278 H   0  0  0  0  0  0  0  0  0  0  0  0
   -0.4560   -0.8729   -4.1199 C   0  0  0  0  0  0  0  0  0  0  0  0
    0.3716   -1.3183   -4.6502 H   0  0  0  0  0  0  0  0  0  0  0  0
   -1.7201   -0.7633   -4.7392 C   0  0  0  0  0  0  0  0  0  0  0  0
   -1.9056   -1.2181   -6.0056 O   0  0  0  0  0  0  0  0  0  0  0  0
   -1.0863   -1.5084   -6.4087 H   0  0  0  0  0  0  0  0  0  0  0  0
   -2.7984   -0.1829   -4.0398 C   0  0  0  0  0  0  0  0  0  0  0  0
   -3.7590   -0.1007   -4.5256 H   0  0  0  0  0  0  0  0  0  0  0  0
   -2.6132    0.2921   -2.7275 C   0  0  0  0  0  0  0  0  0  0  0  0
   -3.4397    0.7464   -2.1941 H   0  0  0  0  0  0  0  0  0  0  0  0
   -0.8664    0.0378    1.7736 C   0  0  0  0  0  0  0  0  0  0  0  0
    0.2529   -0.0672    2.2760 O   0  0  0  0  0  0  0  0  0  0  0  0
   -1.8947    0.5991    2.4221 N   0  0  0  0  0  0  0  0  0  0  0  0
   -2.7942    0.5936    1.9635 H   0  0  0  0  0  0  0  0  0  0  0  0
   -1.8170    1.1453    3.7750 C   0  0  0  0  0  0  0  0  0  0  0  0
   -0.9697    1.8290    3.8506 H   0  0  0  0  0  0  0  0  0  0  0  0
   -2.7354    1.6828    4.0167 H   0  0  0  0  0  0  0  0  0  0  0  0
   -1.6754    0.3334    4.4914 H   0  0  0  0  0  0  0  0  0  0  0  0
  5  6  2  0  0  0  0
  5  7  1  0  0  0  0
  2  3  1  0  0  0  0
  2  4  1  0  0  0  0
  2  5  1  0  0  0  0
  1  2  1  0  0  0  0
 26 27  2  0  0  0  0
 26 28  1  0  0  0  0
 24 25  1  0  0  0  0
 22 23  1  0  0  0  0
 22 24  2  0  0  0  0
 20 21  1  0  0  0  0
 19 20  1  0  0  0  0
 19 22  1  0  0  0  0
 17 18  1  0  0  0  0
 17 19  2  0  0  0  0
 15 16  1  0  0  0  0
 15 17  1  0  0  0  0
 14 15  2  0  0  0  0
 14 24  1  0  0  0  0
 11 12  1  0  0  0  0
 11 13  1  0  0  0  0
 11 14  1  0  0  0  0
  9 10  1  0  0  0  0
  9 11  1  0  0  0  0
  9 26  1  0  0  0  0
  7  8  1  0  0  0  0
  7  9  1  0  0  0  0
 30 31  1  0  0  0  0
 30 32  1  0  0  0  0
 30 33  1  0  0  0  0
 28 29  1  0  0  0  0
 28 30  1  0  0  0  0
M  END
$$$$
default_name
  -OEChem-02102213163D

 33 33  0     1  0  0  0  0  0999 V2000
   -4.0702   -3.8485    1.4554 H   0  0  0  0  0  0  0  0  0  0  0  0
   -4.0012   -2.9605    0.8284 C   0  0  0  0  0  0  0  0  0  0  0  0
   -4.7652   -2.2435    1.1234 H   0  0  0  0  0  0  0  0  0  0  0  0
   -4.1352   -3.2385   -0.2156 H   0  0  0  0  0  0  0  0  0  0  0  0
   -2.6362   -2.3395    1.0094 C   0  0  0  0  0  0  0  0  0  0  0  0
   -1.8292   -2.8395    1.7814 O   0  0  0  0  0  0  0  0  0  0  0  0
   -2.3832   -1.2445    0.2964 N   0  0  0  0  0  0  0  0  0  0  0  0
   -3.1102   -0.8685   -0.2946 H   0  0  0  0  0  0  0  0  0  0  0  0
   -1.1292   -0.4875    0.3524 C   0  0  1  0  0  0  0  0  0  0  0  0
   -0.3087   -1.1556    0.0882 H   0  0  0  0  0  0  0  0  0  0  0  0
   -1.1749    0.6534   -0.6787 C   0  0  0  0  0  0  0  0  0  0  0  0
   -2.0049    1.3181   -0.4352 H   0  0  0  0  0  0  0  0  0  0  0  0
   -0.2558    1.2366   -0.6014 H   0  0  0  0  0  0  0  0  0  0  0  0
   -1.3525    0.1833   -2.1095 C   0  0  0  0  0  0  0  0  0  0  0  0
   -0.4015   -0.6728   -2.7002 C   0  0  0  0  0  0  0  0  0  0  0  0
    0.4740   -0.9768   -2.1415 H   0  0  0  0  0  0  0  0  0  0  0  0
   -0.5916   -1.1392   -4.0155 C   0  0  0  0  0  0  0  0  0  0  0  0
    0.1394   -1.7933   -4.4653 H   0  0  0  0  0  0  0  0  0  0  0  0
   -1.7390   -0.7508   -4.7410 C   0  0  0  0  0  0  0  0  0  0  0  0
   -1.9330   -1.1975   -6.0090 O   0  0  0  0  0  0  0  0  0  0  0  0
   -1.1816   -1.6941   -6.3359 H   0  0  0  0  0  0  0  0  0  0  0  0
   -2.6921    0.1020   -4.1465 C   0  0  0  0  0  0  0  0  0  0  0  0
   -3.5631    0.3954   -4.7130 H   0  0  0  0  0  0  0  0  0  0  0  0
   -2.4969    0.5702   -2.8333 C   0  0  0  0  0  0  0  0  0  0  0  0
   -3.2249    1.2327   -2.3805 H   0  0  0  0  0  0  0  0  0  0  0  0
   -0.8664    0.0378    1.7736 C   0  0  0  0  0  0  0  0  0  0  0  0
    0.2529   -0.0672    2.2760 O   0  0  0  0  0  0  0  0  0  0  0  0
   -1.8947    0.5991    2.4221 N   0  0  0  0  0  0  0  0  0  0  0  0
   -2.7942    0.5936    1.9635 H   0  0  0  0  0  0  0  0  0  0  0  0
   -1.8170    1.1453    3.7750 C   0  0  0  0  0  0  0  0  0  0  0  0
   -0.9697    1.8290    3.8506 H   0  0  0  0  0  0  0  0  0  0  0  0
   -2.7354    1.6828    4.0167 H   0  0  0  0  0  0  0  0  0  0  0  0
   -1.6754    0.3334    4.4914 H   0  0  0  0  0  0  0  0  0  0  0  0
  5  6  2  0  0  0  0
  5  7  1  0  0  0  0
  2  3  1  0  0  0  0
  2  4  1  0  0  0  0
  2  5  1  0  0  0  0
  1  2  1  0  0  0  0
 26 27  2  0  0  0  0
 26 28  1  0  0  0  0
 24 25  1  0  0  0  0
 22 23  1  0  0  0  0
 22 24  2  0  0  0  0
 20 21  1  0  0  0  0
 19 20  1  0  0  0  0
 19 22  1  0  0  0  0
 17 18  1  0  0  0  0
 17 19  2  0  0  0  0
 15 16  1  0  0  0  0
 15 17  1  0  0  0  0
 14 15  2  0  0  0  0
 14 24  1  0  0  0  0
 11 12  1  0  0  0  0
 11 13  1  0  0  0  0
 11 14  1  0  0  0  0
  9 10  1  0  0  0  0
  9 11  1  0  0  0  0
  9 26  1  0  0  0  0
  7  8  1  0  0  0  0
  7  9  1  0  0  0  0
 30 31  1  0  0  0  0
 30 32  1  0  0  0  0
 30 33  1  0  0  0  0
 28 29  1  0  0  0  0
 28 30  1  0  0  0  0
M  END
$$$$
default_name
  -OEChem-02102213163D

 33 33  0     1  0  0  0  0  0999 V2000
   -4.0702   -3.8485    1.4554 H   0  0  0  0  0  0  0  0  0  0  0  0
   -4.0012   -2.9605    0.8284 C   0  0  0  0  0  0  0  0  0  0  0  0
   -4.7652   -2.2435    1.1234 H   0  0  0  0  0  0  0  0  0  0  0  0
   -4.1352   -3.2385   -0.2156 H   0  0  0  0  0  0  0  0  0  0  0  0
   -2.6362   -2.3395    1.0094 C   0  0  0  0  0  0  0  0  0  0  0  0
   -1.8292   -2.8395    1.7814 O   0  0  0  0  0  0  0  0  0  0  0  0
   -2.3832   -1.2445    0.2964 N   0  0  0  0  0  0  0  0  0  0  0  0
   -3.1102   -0.8685   -0.2946 H   0  0  0  0  0  0  0  0  0  0  0  0
   -1.1292   -0.4875    0.3524 C   0  0  1  0  0  0  0  0  0  0  0  0
   -0.3087   -1.1556    0.0882 H   0  0  0  0  0  0  0  0  0  0  0  0
   -1.1749    0.6534   -0.6787 C   0  0  0  0  0  0  0  0  0  0  0  0
   -2.0049    1.3181   -0.4352 H   0  0  0  0  0  0  0  0  0  0  0  0
   -0.2558    1.2366   -0.6014 H   0  0  0  0  0  0  0  0  0  0  0  0
   -1.3525    0.1833   -2.1095 C   0  0  0  0  0  0  0  0  0  0  0  0
   -0.5984   -0.9013   -2.6007 C   0  0  0  0  0  0  0  0  0  0  0  0
    0.1304   -1.3861   -1.9643 H   0  0  0  0  0  0  0  0  0  0  0  0
   -0.7960   -1.3601   -3.9176 C   0  0  0  0  0  0  0  0  0  0  0  0
   -0.2156   -2.1898   -4.2909 H   0  0  0  0  0  0  0  0  0  0  0  0
   -1.7540   -0.7341   -4.7446 C   0  0  0  0  0  0  0  0  0  0  0  0
   -1.9541   -1.1709   -6.0151 O   0  0  0  0  0  0  0  0  0  0  0  0
   -1.3249   -1.8480   -6.2675 H   0  0  0  0  0  0  0  0  0  0  0  0
   -2.5112    0.3479   -4.2498 C   0  0  0  0  0  0  0  0  0  0  0  0
   -3.2376    0.8211   -4.8932 H   0  0  0  0  0  0  0  0  0  0  0  0
   -2.3081    0.8071   -2.9346 C   0  0  0  0  0  0  0  0  0  0  0  0
   -2.8837    1.6444   -2.5582 H   0  0  0  0  0  0  0  0  0  0  0  0
   -0.8664    0.0378    1.7736 C   0  0  0  0  0  0  0  0  0  0  0  0
    0.2529   -0.0672    2.2760 O   0  0  0  0  0  0  0  0  0  0  0  0
   -1.8947    0.5991    2.4221 N   0  0  0  0  0  0  0  0  0  0  0  0
   -2.7942    0.5936    1.9635 H   0  0  0  0  0  0  0  0  0  0  0  0
   -1.8170    1.1453    3.7750 C   0  0  0  0  0  0  0  0  0  0  0  0
   -0.9697    1.8290    3.8506 H   0  0  0  0  0  0  0  0  0  0  0  0
   -2.7354    1.6828    4.0167 H   0  0  0  0  0  0  0  0  0  0  0  0
   -1.6754    0.3334    4.4914 H   0  0  0  0  0  0  0  0  0  0  0  0
  5  6  2  0  0  0  0
  5  7  1  0  0  0  0
  2  3  1  0  0  0  0
  2  4  1  0  0  0  0
  2  5  1  0  0  0  0
  1  2  1  0  0  0  0
 26 27  2  0  0  0  0
 26 28  1  0  0  0  0
 24 25  1  0  0  0  0
 22 23  1  0  0  0  0
 22 24  2  0  0  0  0
 20 21  1  0  0  0  0
 19 20  1  0  0  0  0
 19 22  1  0  0  0  0
 17 18  1  0  0  0  0
 17 19  2  0  0  0  0
 15 16  1  0  0  0  0
 15 17  1  0  0  0  0
 14 15  2  0  0  0  0
 14 24  1  0  0  0  0
 11 12  1  0  0  0  0
 11 13  1  0  0  0  0
 11 14  1  0  0  0  0
  9 10  1  0  0  0  0
  9 11  1  0  0  0  0
  9 26  1  0  0  0  0
  7  8  1  0  0  0  0
  7  9  1  0  0  0  0
 30 31  1  0  0  0  0
 30 32  1  0  0  0  0
 30 33  1  0  0  0  0
 28 29  1  0  0  0  0
 28 30  1  0  0  0  0
M  END
$$$$
default_name
  -OEChem-02102213163D

 33 33  0     1  0  0  0  0  0999 V2000
   -4.0702   -3.8485    1.4554 H   0  0  0  0  0  0  0  0  0  0  0  0
   -4.0012   -2.9605    0.8284 C   0  0  0  0  0  0  0  0  0  0  0  0
   -4.7652   -2.2435    1.1234 H   0  0  0  0  0  0  0  0  0  0  0  0
   -4.1352   -3.2385   -0.2156 H   0  0  0  0  0  0  0  0  0  0  0  0
   -2.6362   -2.3395    1.0094 C   0  0  0  0  0  0  0  0  0  0  0  0
   -1.8292   -2.8395    1.7814 O   0  0  0  0  0  0  0  0  0  0  0  0
   -2.3832   -1.2445    0.2964 N   0  0  0  0  0  0  0  0  0  0  0  0
   -3.1102   -0.8685   -0.2946 H   0  0  0  0  0  0  0  0  0  0  0  0
   -1.1292   -0.4875    0.3524 C   0  0  1  0  0  0  0  0  0  0  0  0
   -0.3087   -1.1556    0.0882 H   0  0  0  0  0  0  0  0  0  0  0  0
   -1.1749    0.6534   -0.6787 C   0  0  0  0  0  0  0  0  0  0  0  0
   -2.0049    1.3181   -0.4352 H   0  0  0  0  0  0  0  0  0  0  0  0
   -0.2558    1.2366   -0.6014 H   0  0  0  0  0  0  0  0  0  0  0  0
   -1.3525    0.1833   -2.1095 C   0  0  0  0  0  0  0  0  0  0  0  0
   -0.8523   -1.0709   -2.5134 C   0  0  0  0  0  0  0  0  0  0  0  0
   -0.3158   -1.6922   -1.8084 H   0  0  0  0  0  0  0  0  0  0  0  0
   -1.0552   -1.5205   -3.8327 C   0  0  0  0  0  0  0  0  0  0  0  0
   -0.6694   -2.4807   -4.1390 H   0  0  0  0  0  0  0  0  0  0  0  0
   -1.7641   -0.7144   -4.7498 C   0  0  0  0  0  0  0  0  0  0  0  0
   -1.9676   -1.1404   -6.0235 O   0  0  0  0  0  0  0  0  0  0  0  0
   -1.5064   -1.9596   -6.2083 H   0  0  0  0  0  0  0  0  0  0  0  0
   -2.2682    0.5382   -4.3425 C   0  0  0  0  0  0  0  0  0  0  0  0
   -2.8048    1.1474   -5.0542 H   0  0  0  0  0  0  0  0  0  0  0  0
   -2.0598    0.9869   -3.0244 C   0  0  0  0  0  0  0  0  0  0  0  0
   -2.4393    1.9534   -2.7148 H   0  0  0  0  0  0  0  0  0  0  0  0
   -0.8664    0.0378    1.7736 C   0  0  0  0  0  0  0  0  0  0  0  0
    0.2529   -0.0672    2.2760 O   0  0  0  0  0  0  0  0  0  0  0  0
   -1.8947    0.5991    2.4221 N   0  0  0  0  0  0  0  0  0  0  0  0
   -2.7942    0.5936    1.9635 H   0  0  0  0  0  0  0  0  0  0  0  0
   -1.8170    1.1453    3.7750 C   0  0  0  0  0  0  0  0  0  0  0  0
   -0.9697    1.8290    3.8506 H   0  0  0  0  0  0  0  0  0  0  0  0
   -2.7354    1.6828    4.0167 H   0  0  0  0  0  0  0  0  0  0  0  0
   -1.6754    0.3334    4.4914 H   0  0  0  0  0  0  0  0  0  0  0  0
  5  6  2  0  0  0  0
  5  7  1  0  0  0  0
  2  3  1  0  0  0  0
  2  4  1  0  0  0  0
  2  5  1  0  0  0  0
  1  2  1  0  0  0  0
 26 27  2  0  0  0  0
 26 28  1  0  0  0  0
 24 25  1  0  0  0  0
 22 23  1  0  0  0  0
 22 24  2  0  0  0  0
 20 21  1  0  0  0  0
 19 20  1  0  0  0  0
 19 22  1  0  0  0  0
 17 18  1  0  0  0  0
 17 19  2  0  0  0  0
 15 16  1  0  0  0  0
 15 17  1  0  0  0  0
 14 15  2  0  0  0  0
 14 24  1  0  0  0  0
 11 12  1  0  0  0  0
 11 13  1  0  0  0  0
 11 14  1  0  0  0  0
  9 10  1  0  0  0  0
  9 11  1  0  0  0  0
  9 26  1  0  0  0  0
  7  8  1  0  0  0  0
  7  9  1  0  0  0  0
 30 31  1  0  0  0  0
 30 32  1  0  0  0  0
 30 33  1  0  0  0  0
 28 29  1  0  0  0  0
 28 30  1  0  0  0  0
M  END
$$$$
default_name
  -OEChem-02102213163D

 33 33  0     1  0  0  0  0  0999 V2000
   -4.0702   -3.8485    1.4554 H   0  0  0  0  0  0  0  0  0  0  0  0
   -4.0012   -2.9605    0.8284 C   0  0  0  0  0  0  0  0  0  0  0  0
   -4.7652   -2.2435    1.1234 H   0  0  0  0  0  0  0  0  0  0  0  0
   -4.1352   -3.2385   -0.2156 H   0  0  0  0  0  0  0  0  0  0  0  0
   -2.6362   -2.3395    1.0094 C   0  0  0  0  0  0  0  0  0  0  0  0
   -1.8292   -2.8395    1.7814 O   0  0  0  0  0  0  0  0  0  0  0  0
   -2.3832   -1.2445    0.2964 N   0  0  0  0  0  0  0  0  0  0  0  0
   -3.1102   -0.8685   -0.2946 H   0  0  0  0  0  0  0  0  0  0  0  0
   -1.1292   -0.4875    0.3524 C   0  0  1  0  0  0  0  0  0  0  0  0
   -0.3087   -1.1556    0.0882 H   0  0  0  0  0  0  0  0  0  0  0  0
   -1.1749    0.6534   -0.6787 C   0  0  0  0  0  0  0  0  0  0  0  0
   -2.0049    1.3181   -0.4352 H   0  0  0  0  0  0  0  0  0  0  0  0
   -0.2558    1.2366   -0.6014 H   0  0  0  0  0  0  0  0  0  0  0  0
   -1.3525    0.1833   -2.1095 C   0  0  0  0  0  0  0  0  0  0  0  0
   -1.1460   -1.1700   -2.4444 C   0  0  0  0  0  0  0  0  0  0  0  0
   -0.8339   -1.8742   -1.6843 H   0  0  0  0  0  0  0  0  0  0  0  0
   -1.3516   -1.6097   -3.7666 C   0  0  0  0  0  0  0  0  0  0  0  0
   -1.1910   -2.6464   -4.0199 H   0  0  0  0  0  0  0  0  0  0  0  0
   -1.7687   -0.6931   -4.7563 C   0  0  0  0  0  0  0  0  0  0  0  0
   -1.9724   -1.1078   -6.0336 O   0  0  0  0  0  0  0  0  0  0  0  0
   -1.7137   -2.0212   -6.1623 H   0  0  0  0  0  0  0  0  0  0  0  0
   -1.9795    0.6598   -4.4183 C   0  0  0  0  0  0  0  0  0  0  0  0
   -2.2942    1.3519   -5.1847 H   0  0  0  0  0  0  0  0  0  0  0  0
   -1.7688    1.0971   -3.0968 C   0  0  0  0  0  0  0  0  0  0  0  0
   -1.9221    2.1385   -2.8399 H   0  0  0  0  0  0  0  0  0  0  0  0
   -0.8664    0.0378    1.7736 C   0  0  0  0  0  0  0  0  0  0  0  0
    0.2529   -0.0672    2.2760 O   0  0  0  0  0  0  0  0  0  0  0  0
   -1.8947    0.5991    2.4221 N   0  0  0  0  0  0  0  0  0  0  0  0
   -2.7942    0.5936    1.9635 H   0  0  0  0  0  0  0  0  0  0  0  0
   -1.8170    1.1453    3.7750 C   0  0  0  0  0  0  0  0  0  0  0  0
   -0.9697    1.8290    3.8506 H   0  0  0  0  0  0  0  0  0  0  0  0
   -2.7354    1.6828    4.0167 H   0  0  0  0  0  0  0  0  0  0  0  0
   -1.6754    0.3334    4.4914 H   0  0  0  0  0  0  0  0  0  0  0  0
  5  6  2  0  0  0  0
  5  7  1  0  0  0  0
  2  3  1  0  0  0  0
  2  4  1  0  0  0  0
  2  5  1  0  0  0  0
  1  2  1  0  0  0  0
 26 27  2  0  0  0  0
 26 28  1  0  0  0  0
 24 25  1  0  0  0  0
 22 23  1  0  0  0  0
 22 24  2  0  0  0  0
 20 21  1  0  0  0  0
 19 20  1  0  0  0  0
 19 22  1  0  0  0  0
 17 18  1  0  0  0  0
 17 19  2  0  0  0  0
 15 16  1  0  0  0  0
 15 17  1  0  0  0  0
 14 15  2  0  0  0  0
 14 24  1  0  0  0  0
 11 12  1  0  0  0  0
 11 13  1  0  0  0  0
 11 14  1  0  0  0  0
  9 10  1  0  0  0  0
  9 11  1  0  0  0  0
  9 26  1  0  0  0  0
  7  8  1  0  0  0  0
  7  9  1  0  0  0  0
 30 31  1  0  0  0  0
 30 32  1  0  0  0  0
 30 33  1  0  0  0  0
 28 29  1  0  0  0  0
 28 30  1  0  0  0  0
M  END
$$$$
default_name
  -OEChem-02102213163D

 33 33  0     1  0  0  0  0  0999 V2000
   -4.0702   -3.8485    1.4554 H   0  0  0  0  0  0  0  0  0  0  0  0
   -4.0012   -2.9605    0.8284 C   0  0  0  0  0  0  0  0  0  0  0  0
   -4.7652   -2.2435    1.1234 H   0  0  0  0  0  0  0  0  0  0  0  0
   -4.1352   -3.2385   -0.2156 H   0  0  0  0  0  0  0  0  0  0  0  0
   -2.6362   -2.3395    1.0094 C   0  0  0  0  0  0  0  0  0  0  0  0
   -1.8292   -2.8395    1.7814 O   0  0  0  0  0  0  0  0  0  0  0  0
   -2.3832   -1.2445    0.2964 N   0  0  0  0  0  0  0  0  0  0  0  0
   -3.1102   -0.8685   -0.2946 H   0  0  0  0  0  0  0  0  0  0  0  0
   -1.1292   -0.4875    0.3524 C   0  0  1  0  0  0  0  0  0  0  0  0
   -0.3087   -1.1556    0.0882 H   0  0  0  0  0  0  0  0  0  0  0  0
   -1.1749    0.6534   -0.6787 C   0  0  0  0  0  0  0  0  0  0  0  0
   -2.0049    1.3181   -0.4352 H   0  0  0  0  0  0  0  0  0  0  0  0
   -0.2558    1.2366   -0.6014 H   0  0  0  0  0  0  0  0  0  0  0  0
   -1.3525    0.1833   -2.1095 C   0  0  0  0  0  0  0  0  0  0  0  0
   -1.4595   -1.1920   -2.3983 C   0  0  0  0  0  0  0  0  0  0  0  0
   -1.3889   -1.9197   -1.6005 H   0  0  0  0  0  0  0  0  0  0  0  0
   -1.6649   -1.6214   -3.7239 C   0  0  0  0  0  0  0  0  0  0  0  0
   -1.7448   -2.6754   -3.9416 H   0  0  0  0  0  0  0  0  0  0  0  0
   -1.7674   -0.6716   -4.7635 C   0  0  0  0  0  0  0  0  0  0  0  0
   -1.9684   -1.0754   -6.0447 O   0  0  0  0  0  0  0  0  0  0  0  0
   -1.9326   -2.0288   -6.1327 H   0  0  0  0  0  0  0  0  0  0  0  0
   -1.6649    0.7045   -4.4720 C   0  0  0  0  0  0  0  0  0  0  0  0
   -1.7405    1.4209   -5.2761 H   0  0  0  0  0  0  0  0  0  0  0  0
   -1.4551    1.1303   -3.1466 C   0  0  0  0  0  0  0  0  0  0  0  0
   -1.3672    2.1873   -2.9247 H   0  0  0  0  0  0  0  0  0  0  0  0
   -0.8664    0.0378    1.7736 C   0  0  0  0  0  0  0  0  0  0  0  0
    0.2529   -0.0672    2.2760 O   0  0  0  0  0  0  0  0  0  0  0  0
   -1.8947    0.5991    2.4221 N   0  0  0  0  0  0  0  0  0  0  0  0
   -2.7942    0.5936    1.9635 H   0  0  0  0  0  0  0  0  0  0  0  0
   -1.8170    1.1453    3.7750 C   0  0  0  0  0  0  0  0  0  0  0  0
   -0.9697    1.8290    3.8506 H   0  0  0  0  0  0  0  0  0  0  0  0
   -2.7354    1.6828    4.0167 H   0  0  0  0  0  0  0  0  0  0  0  0
   -1.6754    0.3334    4.4914 H   0  0  0  0  0  0  0  0  0  0  0  0
  5  6  2  0  0  0  0
  5  7  1  0  0  0  0
  2  3  1  0  0  0  0
  2  4  1  0  0  0  0
  2  5  1  0  0  0  0
  1  2  1  0  0  0  0
 26 27  2  0  0  0  0
 26 28  1  0  0  0  0
 24 25  1  0  0  0  0
 22 23  1  0  0  0  0
 22 24  2  0  0  0  0
 20 21  1  0  0  0  0
 19 20  1  0  0  0  0
 19 22  1  0  0  0  0
 17 18  1  0  0  0  0
 17 19  2  0  0  0  0
 15 16  1  0  0  0  0
 15 17  1  0  0  0  0
 14 15  2  0  0  0  0
 14 24  1  0  0  0  0
 11 12  1  0  0  0  0
 11 13  1  0  0  0  0
 11 14  1  0  0  0  0
  9 10  1  0  0  0  0
  9 11  1  0  0  0  0
  9 26  1  0  0  0  0
  7  8  1  0  0  0  0
  7  9  1  0  0  0  0
 30 31  1  0  0  0  0
 30 32  1  0  0  0  0
 30 33  1  0  0  0  0
 28 29  1  0  0  0  0
 28 30  1  0  0  0  0
M  END
$$$$
default_name
  -OEChem-02102213163D

 33 33  0     1  0  0  0  0  0999 V2000
   -4.0702   -3.8485    1.4554 H   0  0  0  0  0  0  0  0  0  0  0  0
   -4.0012   -2.9605    0.8284 C   0  0  0  0  0  0  0  0  0  0  0  0
   -4.7652   -2.2435    1.1234 H   0  0  0  0  0  0  0  0  0  0  0  0
   -4.1352   -3.2385   -0.2156 H   0  0  0  0  0  0  0  0  0  0  0  0
   -2.6362   -2.3395    1.0094 C   0  0  0  0  0  0  0  0  0  0  0  0
   -1.8292   -2.8395    1.7814 O   0  0  0  0  0  0  0  0  0  0  0  0
   -2.3832   -1.2445    0.2964 N   0  0  0  0  0  0  0  0  0  0  0  0
   -3.1102   -0.8685   -0.2946 H   0  0  0  0  0  0  0  0  0  0  0  0
   -1.1292   -0.4875    0.3524 C   0  0  1  0  0  0  0  0  0  0  0  0
   -0.3087   -1.1556    0.0882 H   0  0  0  0  0  0  0  0  0  0  0  0
   -1.1749    0.6534   -0.6787 C   0  0  0  0  0  0  0  0  0  0  0  0
   -2.0049    1.3181   -0.4352 H   0  0  0  0  0  0  0  0  0  0  0  0
   -0.2558    1.2366   -0.6014 H   0  0  0  0  0  0  0  0  0  0  0  0
   -1.3525    0.1833   -2.1095 C   0  0  0  0  0  0  0  0  0  0  0  0
   -1.7714   -1.1353   -2.3782 C   0  0  0  0  0  0  0  0  0  0  0  0
   -1.9427   -1.8256   -1.5627 H   0  0  0  0  0  0  0  0  0  0  0  0
   -1.9739   -1.5550   -3.7074 C   0  0  0  0  0  0  0  0  0  0  0  0
   -2.2931   -2.5658   -3.9096 H   0  0  0  0  0  0  0  0  0  0  0  0
   -1.7602   -0.6513   -4.7710 C   0  0  0  0  0  0  0  0  0  0  0  0
   -1.9556   -1.0455   -6.0562 O   0  0  0  0  0  0  0  0  0  0  0  0
   -2.1484   -1.9817   -6.1214 H   0  0  0  0  0  0  0  0  0  0  0  0
   -1.3459    0.6692   -4.5000 C   0  0  0  0  0  0  0  0  0  0  0  0
   -1.1816    1.3495   -5.3220 H   0  0  0  0  0  0  0  0  0  0  0  0
   -1.1399    1.0843   -3.1706 C   0  0  0  0  0  0  0  0  0  0  0  0
   -0.8125    2.0963   -2.9637 H   0  0  0  0  0  0  0  0  0  0  0  0
   -0.8664    0.0378    1.7736 C   0  0  0  0  0  0  0  0  0  0  0  0
    0.2529   -0.0672    2.2760 O   0  0  0  0  0  0  0  0  0  0  0  0
   -1.8947    0.5991    2.4221 N   0  0  0  0  0  0  0  0  0  0  0  0
   -2.7942    0.5936    1.9635 H   0  0  0  0  0  0  0  0  0  0  0  0
   -1.8170    1.1453    3.7750 C   0  0  0  0  0  0  0  0  0  0  0  0
   -0.9697    1.8290    3.8506 H   0  0  0  0  0  0  0  0  0  0  0  0
   -2.7354    1.6828    4.0167 H   0  0  0  0  0  0  0  0  0  0  0  0
   -1.6754    0.3334    4.4914 H   0  0  0  0  0  0  0  0  0  0  0  0
  5  6  2  0  0  0  0
  5  7  1  0  0  0  0
  2  3  1  0  0  0  0
  2  4  1  0  0  0  0
  2  5  1  0  0  0  0
  1  2  1  0  0  0  0
 26 27  2  0  0  0  0
 26 28  1  0  0  0  0
 24 25  1  0  0  0  0
 22 23  1  0  0  0  0
 22 24  2  0  0  0  0
 20 21  1  0  0  0  0
 19 20  1  0  0  0  0
 19 22  1  0  0  0  0
 17 18  1  0  0  0  0
 17 19  2  0  0  0  0
 15 16  1  0  0  0  0
 15 17  1  0  0  0  0
 14 15  2  0  0  0  0
 14 24  1  0  0  0  0
 11 12  1  0  0  0  0
 11 13  1  0  0  0  0
 11 14  1  0  0  0  0
  9 10  1  0  0  0  0
  9 11  1  0  0  0  0
  9 26  1  0  0  0  0
  7  8  1  0  0  0  0
  7  9  1  0  0  0  0
 30 31  1  0  0  0  0
 30 32  1  0  0  0  0
 30 33  1  0  0  0  0
 28 29  1  0  0  0  0
 28 30  1  0  0  0  0
M  END
$$$$
default_name
  -OEChem-02102213163D

 33 33  0     1  0  0  0  0  0999 V2000
   -4.0702   -3.8485    1.4554 H   0  0  0  0  0  0  0  0  0  0  0  0
   -4.0012   -2.9605    0.8284 C   0  0  0  0  0  0  0  0  0  0  0  0
   -4.7652   -2.2435    1.1234 H   0  0  0  0  0  0  0  0  0  0  0  0
   -4.1352   -3.2385   -0.2156 H   0  0  0  0  0  0  0  0  0  0  0  0
   -2.6362   -2.3395    1.0094 C   0  0  0  0  0  0  0  0  0  0  0  0
   -1.8292   -2.8395    1.7814 O   0  0  0  0  0  0  0  0  0  0  0  0
   -2.3832   -1.2445    0.2964 N   0  0  0  0  0  0  0  0  0  0  0  0
   -3.1102   -0.8685   -0.2946 H   0  0  0  0  0  0  0  0  0  0  0  0
   -1.1292   -0.4875    0.3524 C   0  0  1  0  0  0  0  0  0  0  0  0
   -0.3087   -1.1556    0.0882 H   0  0  0  0  0  0  0  0  0  0  0  0
   -1.1749    0.6534   -0.6787 C   0  0  0  0  0  0  0  0  0  0  0  0
   -2.0049    1.3181   -0.4352 H   0  0  0  0  0  0  0  0  0  0  0  0
   -0.2558    1.2366   -0.6014 H   0  0  0  0  0  0  0  0  0  0  0  0
   -1.3525    0.1833   -2.1095 C   0  0  0  0  0  0  0  0  0  0  0  0
   -2.0603   -1.0037   -2.3856 C   0  0  0  0  0  0  0  0  0  0  0  0
   -2.4577   -1.5983   -1.5734 H   0  0  0  0  0  0  0  0  0  0  0  0
   -2.2574   -1.4148   -3.7182 C   0  0  0  0  0  0  0  0  0  0  0  0
   -2.7986   -2.3251   -3.9259 H   0  0  0  0  0  0  0  0  0  0  0  0
   -1.7478   -0.6337   -4.7784 C   0  0  0  0  0  0  0  0  0  0  0  0
   -1.9351   -1.0200   -6.0671 O   0  0  0  0  0  0  0  0  0  0  0  0
   -2.3462   -1.8833   -6.1292 H   0  0  0  0  0  0  0  0  0  0  0  0
   -1.0440    0.5563   -4.5004 C   0  0  0  0  0  0  0  0  0  0  0  0
   -0.6554    1.1427   -5.3194 H   0  0  0  0  0  0  0  0  0  0  0  0
   -0.8447    0.9622   -3.1671 C   0  0  0  0  0  0  0  0  0  0  0  0
   -0.2958    1.8718   -2.9540 H   0  0  0  0  0  0  0  0  0  0  0  0
   -0.8664    0.0378    1.7736 C   0  0  0  0  0  0  0  0  0  0  0  0
    0.2529   -0.0672    2.2760 O   0  0  0  0  0  0  0  0  0  0  0  0
   -1.8947    0.5991    2.4221 N   0  0  0  0  0  0  0  0  0  0  0  0
   -2.7942    0.5936    1.9635 H   0  0  0  0  0  0  0  0  0  0  0  0
   -1.8170    1.1453    3.7750 C   0  0  0  0  0  0  0  0  0  0  0  0
   -0.9697    1.8290    3.8506 H   0  0  0  0  0  0  0  0  0  0  0  0
   -2.7354    1.6828    4.0167 H   0  0  0  0  0  0  0  0  0  0  0  0
   -1.6754    0.3334    4.4914 H   0  0  0  0  0  0  0  0  0  0  0  0
  5  6  2  0  0  0  0
  5  7  1  0  0  0  0
  2  3  1  0  0  0  0
  2  4  1  0  0  0  0
  2  5  1  0  0  0  0
  1  2  1  0  0  0  0
 26 27  2  0  0  0  0
 26 28  1  0  0  0  0
 24 25  1  0  0  0  0
 22 23  1  0  0  0  0
 22 24  2  0  0  0  0
 20 21  1  0  0  0  0
 19 20  1  0  0  0  0
 19 22  1  0  0  0  0
 17 18  1  0  0  0  0
 17 19  2  0  0  0  0
 15 16  1  0  0  0  0
 15 17  1  0  0  0  0
 14 15  2  0  0  0  0
 14 24  1  0  0  0  0
 11 12  1  0  0  0  0
 11 13  1  0  0  0  0
 11 14  1  0  0  0  0
  9 10  1  0  0  0  0
  9 11  1  0  0  0  0
  9 26  1  0  0  0  0
  7  8  1  0  0  0  0
  7  9  1  0  0  0  0
 30 31  1  0  0  0  0
 30 32  1  0  0  0  0
 30 33  1  0  0  0  0
 28 29  1  0  0  0  0
 28 30  1  0  0  0  0
M  END
$$$$
default_name
  -OEChem-02102213163D

 33 33  0     1  0  0  0  0  0999 V2000
   -4.0702   -3.8485    1.4554 H   0  0  0  0  0  0  0  0  0  0  0  0
   -4.0012   -2.9605    0.8284 C   0  0  0  0  0  0  0  0  0  0  0  0
   -4.7652   -2.2435    1.1234 H   0  0  0  0  0  0  0  0  0  0  0  0
   -4.1352   -3.2385   -0.2156 H   0  0  0  0  0  0  0  0  0  0  0  0
   -2.6362   -2.3395    1.0094 C   0  0  0  0  0  0  0  0  0  0  0  0
   -1.8292   -2.8395    1.7814 O   0  0  0  0  0  0  0  0  0  0  0  0
   -2.3832   -1.2445    0.2964 N   0  0  0  0  0  0  0  0  0  0  0  0
   -3.1102   -0.8685   -0.2946 H   0  0  0  0  0  0  0  0  0  0  0  0
   -1.1292   -0.4875    0.3524 C   0  0  1  0  0  0  0  0  0  0  0  0
   -0.3087   -1.1556    0.0882 H   0  0  0  0  0  0  0  0  0  0  0  0
   -1.1749    0.6534   -0.6787 C   0  0  0  0  0  0  0  0  0  0  0  0
   -2.0049    1.3181   -0.4352 H   0  0  0  0  0  0  0  0  0  0  0  0
   -0.2558    1.2366   -0.6014 H   0  0  0  0  0  0  0  0  0  0  0  0
   -1.3525    0.1833   -2.1095 C   0  0  0  0  0  0  0  0  0  0  0  0
   -2.3068   -0.8063   -2.4199 C   0  0  0  0  0  0  0  0  0  0  0  0
   -2.8989   -1.2534   -1.6321 H   0  0  0  0  0  0  0  0  0  0  0  0
   -2.4962   -1.2105   -3.7557 C   0  0  0  0  0  0  0  0  0  0  0  0
   -3.2267   -1.9697   -3.9896 H   0  0  0  0  0  0  0  0  0  0  0  0
   -1.7310   -0.6200   -4.7850 C   0  0  0  0  0  0  0  0  0  0  0  0
   -1.9082   -1.0008   -6.0767 O   0  0  0  0  0  0  0  0  0  0  0  0
   -2.5125   -1.7401   -6.1556 H   0  0  0  0  0  0  0  0  0  0  0  0
   -0.7800    0.3736   -4.4731 C   0  0  0  0  0  0  0  0  0  0  0  0
   -0.1979    0.8145   -5.2683 H   0  0  0  0  0  0  0  0  0  0  0  0
   -0.5897    0.7722   -3.1363 C   0  0  0  0  0  0  0  0  0  0  0  0
    0.1476    1.5290   -2.8964 H   0  0  0  0  0  0  0  0  0  0  0  0
   -0.8664    0.0378    1.7736 C   0  0  0  0  0  0  0  0  0  0  0  0
    0.2529   -0.0672    2.2760 O   0  0  0  0  0  0  0  0  0  0  0  0
   -1.8947    0.5991    2.4221 N   0  0  0  0  0  0  0  0  0  0  0  0
   -2.7942    0.5936    1.9635 H   0  0  0  0  0  0  0  0  0  0  0  0
   -1.8170    1.1453    3.7750 C   0  0  0  0  0  0  0  0  0  0  0  0
   -0.9697    1.8290    3.8506 H   0  0  0  0  0  0  0  0  0  0  0  0
   -2.7354    1.6828    4.0167 H   0  0  0  0  0  0  0  0  0  0  0  0
   -1.6754    0.3334    4.4914 H   0  0  0  0  0  0  0  0  0  0  0  0
  5  6  2  0  0  0  0
  5  7  1  0  0  0  0
  2  3  1  0  0  0  0
  2  4  1  0  0  0  0
  2  5  1  0  0  0  0
  1  2  1  0  0  0  0
 26 27  2  0  0  0  0
 26 28  1  0  0  0  0
 24 25  1  0  0  0  0
 22 23  1  0  0  0  0
 22 24  2  0  0  0  0
 20 21  1  0  0  0  0
 19 20  1  0  0  0  0
 19 22  1  0  0  0  0
 17 18  1  0  0  0  0
 17 19  2  0  0  0  0
 15 16  1  0  0  0  0
 15 17  1  0  0  0  0
 14 15  2  0  0  0  0
 14 24  1  0  0  0  0
 11 12  1  0  0  0  0
 11 13  1  0  0  0  0
 11 14  1  0  0  0  0
  9 10  1  0  0  0  0
  9 11  1  0  0  0  0
  9 26  1  0  0  0  0
  7  8  1  0  0  0  0
  7  9  1  0  0  0  0
 30 31  1  0  0  0  0
 30 32  1  0  0  0  0
 30 33  1  0  0  0  0
 28 29  1  0  0  0  0
 28 30  1  0  0  0  0
M  END
$$$$
default_name
  -OEChem-02102213163D

 33 33  0     1  0  0  0  0  0999 V2000
   -4.0702   -3.8485    1.4554 H   0  0  0  0  0  0  0  0  0  0  0  0
   -4.0012   -2.9605    0.8284 C   0  0  0  0  0  0  0  0  0  0  0  0
   -4.7652   -2.2435    1.1234 H   0  0  0  0  0  0  0  0  0  0  0  0
   -4.1352   -3.2385   -0.2156 H   0  0  0  0  0  0  0  0  0  0  0  0
   -2.6362   -2.3395    1.0094 C   0  0  0  0  0  0  0  0  0  0  0  0
   -1.8292   -2.8395    1.7814 O   0  0  0  0  0  0  0  0  0  0  0  0
   -2.3832   -1.2445    0.2964 N   0  0  0  0  0  0  0  0  0  0  0  0
   -3.1102   -0.8685   -0.2946 H   0  0  0  0  0  0  0  0  0  0  0  0
   -1.1292   -0.4875    0.3524 C   0  0  1  0  0  0  0  0  0  0  0  0
   -0.3087   -1.1556    0.0882 H   0  0  0  0  0  0  0  0  0  0  0  0
   -1.1749    0.6534   -0.6787 C   0  0  0  0  0  0  0  0  0  0  0  0
   -2.0049    1.3181   -0.4352 H   0  0  0  0  0  0  0  0  0  0  0  0
   -0.2558    1.2366   -0.6014 H   0  0  0  0  0  0  0  0  0  0  0  0
   -1.3525    0.1833   -2.1095 C   0  0  0  0  0  0  0  0  0  0  0  0
   -2.4938   -0.5565   -2.4787 C   0  0  0  0  0  0  0  0  0  0  0  0
   -3.2360   -0.8142   -1.7345 H   0  0  0  0  0  0  0  0  0  0  0  0
   -2.6739   -0.9560   -3.8173 C   0  0  0  0  0  0  0  0  0  0  0  0
   -3.5483   -1.5237   -4.0962 H   0  0  0  0  0  0  0  0  0  0  0  0
   -1.7108   -0.6111   -4.7904 C   0  0  0  0  0  0  0  0  0  0  0  0
   -1.8767   -0.9891   -6.0845 O   0  0  0  0  0  0  0  0  0  0  0  0
   -2.6362   -1.5619   -6.1988 H   0  0  0  0  0  0  0  0  0  0  0  0
   -0.5717    0.1335   -4.4200 C   0  0  0  0  0  0  0  0  0  0  0  0
    0.1598    0.3873   -5.1723 H   0  0  0  0  0  0  0  0  0  0  0  0
   -0.3923    0.5274   -3.0804 C   0  0  0  0  0  0  0  0  0  0  0  0
    0.4877    1.0914   -2.7948 H   0  0  0  0  0  0  0  0  0  0  0  0
   -0.8664    0.0378    1.7736 C   0  0  0  0  0  0  0  0  0  0  0  0
    0.2529   -0.0672    2.2760 O   0  0  0  0  0  0  0  0  0  0  0  0
   -1.8947    0.5991    2.4221 N   0  0  0  0  0  0  0  0  0  0  0  0
   -2.7942    0.5936    1.9635 H   0  0  0  0  0  0  0  0  0  0  0  0
   -1.8170    1.1453    3.7750 C   0  0  0  0  0  0  0  0  0  0  0  0
   -0.9697    1.8290    3.8506 H   0  0  0  0  0  0  0  0  0  0  0  0
   -2.7354    1.6828    4.0167 H   0  0  0  0  0  0  0  0  0  0  0  0
   -1.6754    0.3334    4.4914 H   0  0  0  0  0  0  0  0  0  0  0  0
  5  6  2  0  0  0  0
  5  7  1  0  0  0  0
  2  3  1  0  0  0  0
  2  4  1  0  0  0  0
  2  5  1  0  0  0  0
  1  2  1  0  0  0  0
 26 27  2  0  0  0  0
 26 28  1  0  0  0  0
 24 25  1  0  0  0  0
 22 23  1  0  0  0  0
 22 24  2  0  0  0  0
 20 21  1  0  0  0  0
 19 20  1  0  0  0  0
 19 22  1  0  0  0  0
 17 18  1  0  0  0  0
 17 19  2  0  0  0  0
 15 16  1  0  0  0  0
 15 17  1  0  0  0  0
 14 15  2  0  0  0  0
 14 24  1  0  0  0  0
 11 12  1  0  0  0  0
 11 13  1  0  0  0  0
 11 14  1  0  0  0  0
  9 10  1  0  0  0  0
  9 11  1  0  0  0  0
  9 26  1  0  0  0  0
  7  8  1  0  0  0  0
  7  9  1  0  0  0  0
 30 31  1  0  0  0  0
 30 32  1  0  0  0  0
 30 33  1  0  0  0  0
 28 29  1  0  0  0  0
 28 30  1  0  0  0  0
M  END
$$$$
default_name
  -OEChem-02102213163D

 33 33  0     1  0  0  0  0  0999 V2000
   -4.0702   -3.8485    1.4554 H   0  0  0  0  0  0  0  0  0  0  0  0
   -4.0012   -2.9605    0.8284 C   0  0  0  0  0  0  0  0  0  0  0  0
   -4.7652   -2.2435    1.1234 H   0  0  0  0  0  0  0  0  0  0  0  0
   -4.1352   -3.2385   -0.2156 H   0  0  0  0  0  0  0  0  0  0  0  0
   -2.6362   -2.3395    1.0094 C   0  0  0  0  0  0  0  0  0  0  0  0
   -1.8292   -2.8395    1.7814 O   0  0  0  0  0  0  0  0  0  0  0  0
   -2.3832   -1.2445    0.2964 N   0  0  0  0  0  0  0  0  0  0  0  0
   -3.1102   -0.8685   -0.2946 H   0  0  0  0  0  0  0  0  0  0  0  0
   -1.1292   -0.4875    0.3524 C   0  0  1  0  0  0  0  0  0  0  0  0
   -0.3087   -1.1556    0.0882 H   0  0  0  0  0  0  0  0  0  0  0  0
   -1.1749    0.6534   -0.6787 C   0  0  0  0  0  0  0  0  0  0  0  0
   -2.0049    1.3181   -0.4352 H   0  0  0  0  0  0  0  0  0  0  0  0
   -0.2558    1.2366   -0.6014 H   0  0  0  0  0  0  0  0  0  0  0  0
   -1.3525    0.1833   -2.1095 C   0  0  0  0  0  0  0  0  0  0  0  0
   -2.6088   -0.2713   -2.5582 C   0  0  0  0  0  0  0  0  0  0  0  0
   -3.4462   -0.3108   -1.8739 H   0  0  0  0  0  0  0  0  0  0  0  0
   -2.7785   -0.6687   -3.8988 C   0  0  0  0  0  0  0  0  0  0  0  0
   -3.7415   -1.0177   -4.2385 H   0  0  0  0  0  0  0  0  0  0  0  0
   -1.6887   -0.6075   -4.7943 C   0  0  0  0  0  0  0  0  0  0  0  0
   -1.8429   -0.9857   -6.0898 O   0  0  0  0  0  0  0  0  0  0  0  0
   -2.7086   -1.3610   -6.2558 H   0  0  0  0  0  0  0  0  0  0  0  0
   -0.4335   -0.1477   -4.3448 C   0  0  0  0  0  0  0  0  0  0  0  0
    0.3933   -0.1097   -5.0380 H   0  0  0  0  0  0  0  0  0  0  0  0
   -0.2658    0.2444   -3.0031 C   0  0  0  0  0  0  0  0  0  0  0  0
    0.7012    0.5888   -2.6562 H   0  0  0  0  0  0  0  0  0  0  0  0
   -0.8664    0.0378    1.7736 C   0  0  0  0  0  0  0  0  0  0  0  0
    0.2529   -0.0672    2.2760 O   0  0  0  0  0  0  0  0  0  0  0  0
   -1.8947    0.5991    2.4221 N   0  0  0  0  0  0  0  0  0  0  0  0
   -2.7942    0.5936    1.9635 H   0  0  0  0  0  0  0  0  0  0  0  0
   -1.8170    1.1453    3.7750 C   0  0  0  0  0  0  0  0  0  0  0  0
   -0.9697    1.8290    3.8506 H   0  0  0  0  0  0  0  0  0  0  0  0
   -2.7354    1.6828    4.0167 H   0  0  0  0  0  0  0  0  0  0  0  0
   -1.6754    0.3334    4.4914 H   0  0  0  0  0  0  0  0  0  0  0  0
  5  6  2  0  0  0  0
  5  7  1  0  0  0  0
  2  3  1  0  0  0  0
  2  4  1  0  0  0  0
  2  5  1  0  0  0  0
  1  2  1  0  0  0  0
 26 27  2  0  0  0  0
 26 28  1  0  0  0  0
 24 25  1  0  0  0  0
 22 23  1  0  0  0  0
 22 24  2  0  0  0  0
 20 21  1  0  0  0  0
 19 20  1  0  0  0  0
 19 22  1  0  0  0  0
 17 18  1  0  0  0  0
 17 19  2  0  0  0  0
 15 16  1  0  0  0  0
 15 17  1  0  0  0  0
 14 15  2  0  0  0  0
 14 24  1  0  0  0  0
 11 12  1  0  0  0  0
 11 13  1  0  0  0  0
 11 14  1  0  0  0  0
  9 10  1  0  0  0  0
  9 11  1  0  0  0  0
  9 26  1  0  0  0  0
  7  8  1  0  0  0  0
  7  9  1  0  0  0  0
 30 31  1  0  0  0  0
 30 32  1  0  0  0  0
 30 33  1  0  0  0  0
 28 29  1  0  0  0  0
 28 30  1  0  0  0  0
M  END
$$$$
default_name
  -OEChem-02102213163D

 33 33  0     1  0  0  0  0  0999 V2000
   -4.0702   -3.8485    1.4554 H   0  0  0  0  0  0  0  0  0  0  0  0
   -4.0012   -2.9605    0.8284 C   0  0  0  0  0  0  0  0  0  0  0  0
   -4.7652   -2.2435    1.1234 H   0  0  0  0  0  0  0  0  0  0  0  0
   -4.1352   -3.2385   -0.2156 H   0  0  0  0  0  0  0  0  0  0  0  0
   -2.6362   -2.3395    1.0094 C   0  0  0  0  0  0  0  0  0  0  0  0
   -1.8292   -2.8395    1.7814 O   0  0  0  0  0  0  0  0  0  0  0  0
   -2.3832   -1.2445    0.2964 N   0  0  0  0  0  0  0  0  0  0  0  0
   -3.1102   -0.8685   -0.2946 H   0  0  0  0  0  0  0  0  0  0  0  0
   -1.1292   -0.4875    0.3524 C   0  0  1  0  0  0  0  0  0  0  0  0
   -0.3087   -1.1556    0.0882 H   0  0  0  0  0  0  0  0  0  0  0  0
   -1.1749    0.6534   -0.6787 C   0  0  0  0  0  0  0  0  0  0  0  0
   -2.0049    1.3181   -0.4352 H   0  0  0  0  0  0  0  0  0  0  0  0
   -0.2558    1.2366   -0.6014 H   0  0  0  0  0  0  0  0  0  0  0  0
   -1.3525    0.1833   -2.1095 C   0  0  0  0  0  0  0  0  0  0  0  0
   -2.6438    0.0299   -2.6528 C   0  0  0  0  0  0  0  0  0  0  0  0
   -3.5151    0.2226   -2.0406 H   0  0  0  0  0  0  0  0  0  0  0  0
   -2.8029   -0.3680   -3.9945 C   0  0  0  0  0  0  0  0  0  0  0  0
   -3.7932   -0.4860   -4.4068 H   0  0  0  0  0  0  0  0  0  0  0  0
   -1.6661   -0.6096   -4.7964 C   0  0  0  0  0  0  0  0  0  0  0  0
   -1.8089   -0.9908   -6.0923 O   0  0  0  0  0  0  0  0  0  0  0  0
   -2.7250   -1.1509   -6.3228 H   0  0  0  0  0  0  0  0  0  0  0  0
   -0.3747   -0.4508   -4.2525 C   0  0  0  0  0  0  0  0  0  0  0  0
    0.4867   -0.6428   -4.8744 H   0  0  0  0  0  0  0  0  0  0  0  0
   -0.2190   -0.0575   -2.9097 C   0  0  0  0  0  0  0  0  0  0  0  0
    0.7735    0.0553   -2.4898 H   0  0  0  0  0  0  0  0  0  0  0  0
   -0.8664    0.0378    1.7736 C   0  0  0  0  0  0  0  0  0  0  0  0
    0.2529   -0.0672    2.2760 O   0  0  0  0  0  0  0  0  0  0  0  0
   -1.8947    0.5991    2.4221 N   0  0  0  0  0  0  0  0  0  0  0  0
   -2.7942    0.5936    1.9635 H   0  0  0  0  0  0  0  0  0  0  0  0
   -1.8170    1.1453    3.7750 C   0  0  0  0  0  0  0  0  0  0  0  0
   -0.9697    1.8290    3.8506 H   0  0  0  0  0  0  0  0  0  0  0  0
   -2.7354    1.6828    4.0167 H   0  0  0  0  0  0  0  0  0  0  0  0
   -1.6754    0.3334    4.4914 H   0  0  0  0  0  0  0  0  0  0  0  0
  5  6  2  0  0  0  0
  5  7  1  0  0  0  0
  2  3  1  0  0  0  0
  2  4  1  0  0  0  0
  2  5  1  0  0  0  0
  1  2  1  0  0  0  0
 26 27  2  0  0  0  0
 26 28  1  0  0  0  0
 24 25  1  0  0  0  0
 22 23  1  0  0  0  0
 22 24  2  0  0  0  0
 20 21  1  0  0  0  0
 19 20  1  0  0  0  0
 19 22  1  0  0  0  0
 17 18  1  0  0  0  0
 17 19  2  0  0  0  0
 15 16  1  0  0  0  0
 15 17  1  0  0  0  0
 14 15  2  0  0  0  0
 14 24  1  0  0  0  0
 11 12  1  0  0  0  0
 11 13  1  0  0  0  0
 11 14  1  0  0  0  0
  9 10  1  0  0  0  0
  9 11  1  0  0  0  0
  9 26  1  0  0  0  0
  7  8  1  0  0  0  0
  7  9  1  0  0  0  0
 30 31  1  0  0  0  0
 30 32  1  0  0  0  0
 30 33  1  0  0  0  0
 28 29  1  0  0  0  0
 28 30  1  0  0  0  0
M  END
$$$$
default_name
  -OEChem-02102213163D

 33 33  0     1  0  0  0  0  0999 V2000
   -4.0702   -3.8485    1.4554 H   0  0  0  0  0  0  0  0  0  0  0  0
   -4.0012   -2.9605    0.8284 C   0  0  0  0  0  0  0  0  0  0  0  0
   -4.7652   -2.2435    1.1234 H   0  0  0  0  0  0  0  0  0  0  0  0
   -4.1352   -3.2385   -0.2156 H   0  0  0  0  0  0  0  0  0  0  0  0
   -2.6362   -2.3395    1.0094 C   0  0  0  0  0  0  0  0  0  0  0  0
   -1.8292   -2.8395    1.7814 O   0  0  0  0  0  0  0  0  0  0  0  0
   -2.3832   -1.2445    0.2964 N   0  0  0  0  0  0  0  0  0  0  0  0
   -3.1102   -0.8685   -0.2946 H   0  0  0  0  0  0  0  0  0  0  0  0
   -1.1292   -0.4875    0.3524 C   0  0  1  0  0  0  0  0  0  0  0  0
   -0.3087   -1.1556    0.0882 H   0  0  0  0  0  0  0  0  0  0  0  0
   -1.1749    0.6534   -0.6787 C   0  0  0  0  0  0  0  0  0  0  0  0
   -2.0049    1.3181   -0.4352 H   0  0  0  0  0  0  0  0  0  0  0  0
   -0.2558    1.2366   -0.6014 H   0  0  0  0  0  0  0  0  0  0  0  0
   -1.3525    0.1833   -2.1095 C   0  0  0  0  0  0  0  0  0  0  0  0
   -2.5965    0.3265   -2.7561 C   0  0  0  0  0  0  0  0  0  0  0  0
   -3.4380    0.7496   -2.2233 H   0  0  0  0  0  0  0  0  0  0  0  0
   -2.7453   -0.0746   -4.0981 C   0  0  0  0  0  0  0  0  0  0  0  0
   -3.6997    0.0351   -4.5897 H   0  0  0  0  0  0  0  0  0  0  0  0
   -1.6447   -0.6172   -4.7966 C   0  0  0  0  0  0  0  0  0  0  0  0
   -1.7771   -1.0042   -6.0919 O   0  0  0  0  0  0  0  0  0  0  0  0
   -2.6841   -0.9461   -6.3952 H   0  0  0  0  0  0  0  0  0  0  0  0
   -0.3993   -0.7552   -4.1494 C   0  0  0  0  0  0  0  0  0  0  0  0
    0.4336   -1.1755   -4.6927 H   0  0  0  0  0  0  0  0  0  0  0  0
   -0.2550   -0.3577   -2.8066 C   0  0  0  0  0  0  0  0  0  0  0  0
    0.6997   -0.4726   -2.3072 H   0  0  0  0  0  0  0  0  0  0  0  0
   -0.8664    0.0378    1.7736 C   0  0  0  0  0  0  0  0  0  0  0  0
    0.2529   -0.0672    2.2760 O   0  0  0  0  0  0  0  0  0  0  0  0
   -1.8947    0.5991    2.4221 N   0  0  0  0  0  0  0  0  0  0  0  0
   -2.7942    0.5936    1.9635 H   0  0  0  0  0  0  0  0  0  0  0  0
   -1.8170    1.1453    3.7750 C   0  0  0  0  0  0  0  0  0  0  0  0
   -0.9697    1.8290    3.8506 H   0  0  0  0  0  0  0  0  0  0  0  0
   -2.7354    1.6828    4.0167 H   0  0  0  0  0  0  0  0  0  0  0  0
   -1.6754    0.3334    4.4914 H   0  0  0  0  0  0  0  0  0  0  0  0
  5  6  2  0  0  0  0
  5  7  1  0  0  0  0
  2  3  1  0  0  0  0
  2  4  1  0  0  0  0
  2  5  1  0  0  0  0
  1  2  1  0  0  0  0
 26 27  2  0  0  0  0
 26 28  1  0  0  0  0
 24 25  1  0  0  0  0
 22 23  1  0  0  0  0
 22 24  2  0  0  0  0
 20 21  1  0  0  0  0
 19 20  1  0  0  0  0
 19 22  1  0  0  0  0
 17 18  1  0  0  0  0
 17 19  2  0  0  0  0
 15 16  1  0  0  0  0
 15 17  1  0  0  0  0
 14 15  2  0  0  0  0
 14 24  1  0  0  0  0
 11 12  1  0  0  0  0
 11 13  1  0  0  0  0
 11 14  1  0  0  0  0
  9 10  1  0  0  0  0
  9 11  1  0  0  0  0
  9 26  1  0  0  0  0
  7  8  1  0  0  0  0
  7  9  1  0  0  0  0
 30 31  1  0  0  0  0
 30 32  1  0  0  0  0
 30 33  1  0  0  0  0
 28 29  1  0  0  0  0
 28 30  1  0  0  0  0
M  END
$$$$
default_name
  -OEChem-02102213163D

 33 33  0     1  0  0  0  0  0999 V2000
   -4.0702   -3.8485    1.4554 H   0  0  0  0  0  0  0  0  0  0  0  0
   -4.0012   -2.9605    0.8284 C   0  0  0  0  0  0  0  0  0  0  0  0
   -4.7652   -2.2435    1.1234 H   0  0  0  0  0  0  0  0  0  0  0  0
   -4.1352   -3.2385   -0.2156 H   0  0  0  0  0  0  0  0  0  0  0  0
   -2.6362   -2.3395    1.0094 C   0  0  0  0  0  0  0  0  0  0  0  0
   -1.8292   -2.8395    1.7814 O   0  0  0  0  0  0  0  0  0  0  0  0
   -2.3832   -1.2445    0.2964 N   0  0  0  0  0  0  0  0  0  0  0  0
   -3.1102   -0.8685   -0.2946 H   0  0  0  0  0  0  0  0  0  0  0  0
   -1.1292   -0.4875    0.3524 C   0  0  1  0  0  0  0  0  0  0  0  0
   -0.3087   -1.1556    0.0882 H   0  0  0  0  0  0  0  0  0  0  0  0
   -1.1749    0.6534   -0.6787 C   0  0  0  0  0  0  0  0  0  0  0  0
   -2.0049    1.3181   -0.4352 H   0  0  0  0  0  0  0  0  0  0  0  0
   -0.2558    1.2366   -0.6014 H   0  0  0  0  0  0  0  0  0  0  0  0
   -1.3525    0.1833   -2.1095 C   0  0  0  0  0  0  0  0  0  0  0  0
   -2.4701    0.5982   -2.8611 C   0  0  0  0  0  0  0  0  0  0  0  0
   -3.2202    1.2342   -2.4096 H   0  0  0  0  0  0  0  0  0  0  0  0
   -2.6097    0.1917   -4.2024 C   0  0  0  0  0  0  0  0  0  0  0  0
   -3.4675    0.5100   -4.7745 H   0  0  0  0  0  0  0  0  0  0  0  0
   -1.6258   -0.6298   -4.7948 C   0  0  0  0  0  0  0  0  0  0  0  0
   -1.7497   -1.0248   -6.0885 O   0  0  0  0  0  0  0  0  0  0  0  0
   -2.5887   -0.7603   -6.4681 H   0  0  0  0  0  0  0  0  0  0  0  0
   -0.5056   -1.0400   -4.0426 C   0  0  0  0  0  0  0  0  0  0  0  0
    0.2376   -1.6716   -4.5054 H   0  0  0  0  0  0  0  0  0  0  0  0
   -0.3713   -0.6357   -2.7008 C   0  0  0  0  0  0  0  0  0  0  0  0
    0.4849   -0.9589   -2.1207 H   0  0  0  0  0  0  0  0  0  0  0  0
   -0.8664    0.0378    1.7736 C   0  0  0  0  0  0  0  0  0  0  0  0
    0.2529   -0.0672    2.2760 O   0  0  0  0  0  0  0  0  0  0  0  0
   -1.8947    0.5991    2.4221 N   0  0  0  0  0  0  0  0  0  0  0  0
   -2.7942    0.5936    1.9635 H   0  0  0  0  0  0  0  0  0  0  0  0
   -1.8170    1.1453    3.7750 C   0  0  0  0  0  0  0  0  0  0  0  0
   -0.9697    1.8290    3.8506 H   0  0  0  0  0  0  0  0  0  0  0  0
   -2.7354    1.6828    4.0167 H   0  0  0  0  0  0  0  0  0  0  0  0
   -1.6754    0.3334    4.4914 H   0  0  0  0  0  0  0  0  0  0  0  0
  5  6  2  0  0  0  0
  5  7  1  0  0  0  0
  2  3  1  0  0  0  0
  2  4  1  0  0  0  0
  2  5  1  0  0  0  0
  1  2  1  0  0  0  0
 26 27  2  0  0  0  0
 26 28  1  0  0  0  0
 24 25  1  0  0  0  0
 22 23  1  0  0  0  0
 22 24  2  0  0  0  0
 20 21  1  0  0  0  0
 19 20  1  0  0  0  0
 19 22  1  0  0  0  0
 17 18  1  0  0  0  0
 17 19  2  0  0  0  0
 15 16  1  0  0  0  0
 15 17  1  0  0  0  0
 14 15  2  0  0  0  0
 14 24  1  0  0  0  0
 11 12  1  0  0  0  0
 11 13  1  0  0  0  0
 11 14  1  0  0  0  0
  9 10  1  0  0  0  0
  9 11  1  0  0  0  0
  9 26  1  0  0  0  0
  7  8  1  0  0  0  0
  7  9  1  0  0  0  0
 30 31  1  0  0  0  0
 30 32  1  0  0  0  0
 30 33  1  0  0  0  0
 28 29  1  0  0  0  0
 28 30  1  0  0  0  0
M  END
$$$$
default_name
  -OEChem-02102213163D

 33 33  0     1  0  0  0  0  0999 V2000
   -4.0702   -3.8485    1.4554 H   0  0  0  0  0  0  0  0  0  0  0  0
   -4.0012   -2.9605    0.8284 C   0  0  0  0  0  0  0  0  0  0  0  0
   -4.7652   -2.2435    1.1234 H   0  0  0  0  0  0  0  0  0  0  0  0
   -4.1352   -3.2385   -0.2156 H   0  0  0  0  0  0  0  0  0  0  0  0
   -2.6362   -2.3395    1.0094 C   0  0  0  0  0  0  0  0  0  0  0  0
   -1.8292   -2.8395    1.7814 O   0  0  0  0  0  0  0  0  0  0  0  0
   -2.3832   -1.2445    0.2964 N   0  0  0  0  0  0  0  0  0  0  0  0
   -3.1102   -0.8685   -0.2946 H   0  0  0  0  0  0  0  0  0  0  0  0
   -1.1292   -0.4875    0.3524 C   0  0  1  0  0  0  0  0  0  0  0  0
   -0.3087   -1.1556    0.0882 H   0  0  0  0  0  0  0  0  0  0  0  0
   -1.1749    0.6534   -0.6787 C   0  0  0  0  0  0  0  0  0  0  0  0
   -2.0049    1.3181   -0.4352 H   0  0  0  0  0  0  0  0  0  0  0  0
   -0.2558    1.2366   -0.6014 H   0  0  0  0  0  0  0  0  0  0  0  0
   -1.3525    0.1833   -2.1095 C   0  0  0  0  0  0  0  0  0  0  0  0
   -2.2732    0.8267   -2.9606 C   0  0  0  0  0  0  0  0  0  0  0  0
   -2.8766    1.6436   -2.5868 H   0  0  0  0  0  0  0  0  0  0  0  0
   -2.4053    0.4126   -4.3004 C   0  0  0  0  0  0  0  0  0  0  0  0
   -3.1124    0.9065   -4.9489 H   0  0  0  0  0  0  0  0  0  0  0  0
   -1.6108   -0.6465   -4.7912 C   0  0  0  0  0  0  0  0  0  0  0  0
   -1.7286   -1.0514   -6.0824 O   0  0  0  0  0  0  0  0  0  0  0  0
   -2.4455   -0.6065   -6.5364 H   0  0  0  0  0  0  0  0  0  0  0  0
   -0.6865   -1.2859   -3.9394 C   0  0  0  0  0  0  0  0  0  0  0  0
   -0.0878   -2.0973   -4.3251 H   0  0  0  0  0  0  0  0  0  0  0  0
   -0.5601   -0.8727   -2.5995 C   0  0  0  0  0  0  0  0  0  0  0  0
    0.1437   -1.3706   -1.9431 H   0  0  0  0  0  0  0  0  0  0  0  0
   -0.8664    0.0378    1.7736 C   0  0  0  0  0  0  0  0  0  0  0  0
    0.2529   -0.0672    2.2760 O   0  0  0  0  0  0  0  0  0  0  0  0
   -1.8947    0.5991    2.4221 N   0  0  0  0  0  0  0  0  0  0  0  0
   -2.7942    0.5936    1.9635 H   0  0  0  0  0  0  0  0  0  0  0  0
   -1.8170    1.1453    3.7750 C   0  0  0  0  0  0  0  0  0  0  0  0
   -0.9697    1.8290    3.8506 H   0  0  0  0  0  0  0  0  0  0  0  0
   -2.7354    1.6828    4.0167 H   0  0  0  0  0  0  0  0  0  0  0  0
   -1.6754    0.3334    4.4914 H   0  0  0  0  0  0  0  0  0  0  0  0
  5  6  2  0  0  0  0
  5  7  1  0  0  0  0
  2  3  1  0  0  0  0
  2  4  1  0  0  0  0
  2  5  1  0  0  0  0
  1  2  1  0  0  0  0
 26 27  2  0  0  0  0
 26 28  1  0  0  0  0
 24 25  1  0  0  0  0
 22 23  1  0  0  0  0
 22 24  2  0  0  0  0
 20 21  1  0  0  0  0
 19 20  1  0  0  0  0
 19 22  1  0  0  0  0
 17 18  1  0  0  0  0
 17 19  2  0  0  0  0
 15 16  1  0  0  0  0
 15 17  1  0  0  0  0
 14 15  2  0  0  0  0
 14 24  1  0  0  0  0
 11 12  1  0  0  0  0
 11 13  1  0  0  0  0
 11 14  1  0  0  0  0
  9 10  1  0  0  0  0
  9 11  1  0  0  0  0
  9 26  1  0  0  0  0
  7  8  1  0  0  0  0
  7  9  1  0  0  0  0
 30 31  1  0  0  0  0
 30 32  1  0  0  0  0
 30 33  1  0  0  0  0
 28 29  1  0  0  0  0
 28 30  1  0  0  0  0
M  END
$$$$
default_name
  -OEChem-02102213163D

 33 33  0     1  0  0  0  0  0999 V2000
   -4.0702   -3.8485    1.4554 H   0  0  0  0  0  0  0  0  0  0  0  0
   -4.0012   -2.9605    0.8284 C   0  0  0  0  0  0  0  0  0  0  0  0
   -4.7652   -2.2435    1.1234 H   0  0  0  0  0  0  0  0  0  0  0  0
   -4.1352   -3.2385   -0.2156 H   0  0  0  0  0  0  0  0  0  0  0  0
   -2.6362   -2.3395    1.0094 C   0  0  0  0  0  0  0  0  0  0  0  0
   -1.8292   -2.8395    1.7814 O   0  0  0  0  0  0  0  0  0  0  0  0
   -2.3832   -1.2445    0.2964 N   0  0  0  0  0  0  0  0  0  0  0  0
   -3.1102   -0.8685   -0.2946 H   0  0  0  0  0  0  0  0  0  0  0  0
   -1.1292   -0.4875    0.3524 C   0  0  1  0  0  0  0  0  0  0  0  0
   -0.3087   -1.1556    0.0882 H   0  0  0  0  0  0  0  0  0  0  0  0
   -1.1749    0.6534   -0.6787 C   0  0  0  0  0  0  0  0  0  0  0  0
   -2.0049    1.3181   -0.4352 H   0  0  0  0  0  0  0  0  0  0  0  0
   -0.2558    1.2366   -0.6014 H   0  0  0  0  0  0  0  0  0  0  0  0
   -1.3525    0.1833   -2.1095 C   0  0  0  0  0  0  0  0  0  0  0  0
   -2.0193    0.9963   -3.0479 C   0  0  0  0  0  0  0  0  0  0  0  0
   -2.4305    1.9497   -2.7427 H   0  0  0  0  0  0  0  0  0  0  0  0
   -2.1461    0.5731   -4.3853 C   0  0  0  0  0  0  0  0  0  0  0  0
   -2.6586    1.1975   -5.1008 H   0  0  0  0  0  0  0  0  0  0  0  0
   -1.6007   -0.6661   -4.7860 C   0  0  0  0  0  0  0  0  0  0  0  0
   -1.7151   -1.0820   -6.0740 O   0  0  0  0  0  0  0  0  0  0  0  0
   -2.2640   -0.4949   -6.5956 H   0  0  0  0  0  0  0  0  0  0  0  0
   -0.9295   -1.4762   -3.8467 C   0  0  0  0  0  0  0  0  0  0  0  0
   -0.5206   -2.4236   -4.1642 H   0  0  0  0  0  0  0  0  0  0  0  0
   -0.8084   -1.0524   -2.5096 C   0  0  0  0  0  0  0  0  0  0  0  0
   -0.3007   -1.6796   -1.7865 H   0  0  0  0  0  0  0  0  0  0  0  0
   -0.8664    0.0378    1.7736 C   0  0  0  0  0  0  0  0  0  0  0  0
    0.2529   -0.0672    2.2760 O   0  0  0  0  0  0  0  0  0  0  0  0
   -1.8947    0.5991    2.4221 N   0  0  0  0  0  0  0  0  0  0  0  0
   -2.7942    0.5936    1.9635 H   0  0  0  0  0  0  0  0  0  0  0  0
   -1.8170    1.1453    3.7750 C   0  0  0  0  0  0  0  0  0  0  0  0
   -0.9697    1.8290    3.8506 H   0  0  0  0  0  0  0  0  0  0  0  0
   -2.7354    1.6828    4.0167 H   0  0  0  0  0  0  0  0  0  0  0  0
   -1.6754    0.3334    4.4914 H   0  0  0  0  0  0  0  0  0  0  0  0
  5  6  2  0  0  0  0
  5  7  1  0  0  0  0
  2  3  1  0  0  0  0
  2  4  1  0  0  0  0
  2  5  1  0  0  0  0
  1  2  1  0  0  0  0
 26 27  2  0  0  0  0
 26 28  1  0  0  0  0
 24 25  1  0  0  0  0
 22 23  1  0  0  0  0
 22 24  2  0  0  0  0
 20 21  1  0  0  0  0
 19 20  1  0  0  0  0
 19 22  1  0  0  0  0
 17 18  1  0  0  0  0
 17 19  2  0  0  0  0
 15 16  1  0  0  0  0
 15 17  1  0  0  0  0
 14 15  2  0  0  0  0
 14 24  1  0  0  0  0
 11 12  1  0  0  0  0
 11 13  1  0  0  0  0
 11 14  1  0  0  0  0
  9 10  1  0  0  0  0
  9 11  1  0  0  0  0
  9 26  1  0  0  0  0
  7  8  1  0  0  0  0
  7  9  1  0  0  0  0
 30 31  1  0  0  0  0
 30 32  1  0  0  0  0
 30 33  1  0  0  0  0
 28 29  1  0  0  0  0
 28 30  1  0  0  0  0
M  END
$$$$
default_name
  -OEChem-02102213163D

 33 33  0     1  0  0  0  0  0999 V2000
   -4.0702   -3.8485    1.4554 H   0  0  0  0  0  0  0  0  0  0  0  0
   -4.0012   -2.9605    0.8284 C   0  0  0  0  0  0  0  0  0  0  0  0
   -4.7652   -2.2435    1.1234 H   0  0  0  0  0  0  0  0  0  0  0  0
   -4.1352   -3.2385   -0.2156 H   0  0  0  0  0  0  0  0  0  0  0  0
   -2.6362   -2.3395    1.0094 C   0  0  0  0  0  0  0  0  0  0  0  0
   -1.8292   -2.8395    1.7814 O   0  0  0  0  0  0  0  0  0  0  0  0
   -2.3832   -1.2445    0.2964 N   0  0  0  0  0  0  0  0  0  0  0  0
   -3.1102   -0.8685   -0.2946 H   0  0  0  0  0  0  0  0  0  0  0  0
   -1.1292   -0.4875    0.3524 C   0  0  1  0  0  0  0  0  0  0  0  0
   -0.3087   -1.1556    0.0882 H   0  0  0  0  0  0  0  0  0  0  0  0
   -1.1749    0.6534   -0.6787 C   0  0  0  0  0  0  0  0  0  0  0  0
   -2.0049    1.3181   -0.4352 H   0  0  0  0  0  0  0  0  0  0  0  0
   -0.2558    1.2366   -0.6014 H   0  0  0  0  0  0  0  0  0  0  0  0
   -1.3525    0.1833   -2.1095 C   0  0  0  0  0  0  0  0  0  0  0  0
   -1.7255    1.0955   -3.1169 C   0  0  0  0  0  0  0  0  0  0  0  0
   -1.9123    2.1317   -2.8668 H   0  0  0  0  0  0  0  0  0  0  0  0
   -1.8497    0.6622   -4.4513 C   0  0  0  0  0  0  0  0  0  0  0  0
   -2.1371    1.3631   -5.2200 H   0  0  0  0  0  0  0  0  0  0  0  0
   -1.5961   -0.6875   -4.7795 C   0  0  0  0  0  0  0  0  0  0  0  0
   -1.7103   -1.1145   -6.0639 O   0  0  0  0  0  0  0  0  0  0  0  0
   -2.0567   -0.4332   -6.6416 H   0  0  0  0  0  0  0  0  0  0  0  0
   -1.2182   -1.5978   -3.7709 C   0  0  0  0  0  0  0  0  0  0  0  0
   -1.0312   -2.6282   -4.0336 H   0  0  0  0  0  0  0  0  0  0  0  0
   -1.0994   -1.1627   -2.4373 C   0  0  0  0  0  0  0  0  0  0  0  0
   -0.8180   -1.8647   -1.6614 H   0  0  0  0  0  0  0  0  0  0  0  0
   -0.8664    0.0378    1.7736 C   0  0  0  0  0  0  0  0  0  0  0  0
    0.2529   -0.0672    2.2760 O   0  0  0  0  0  0  0  0  0  0  0  0
   -1.8947    0.5991    2.4221 N   0  0  0  0  0  0  0  0  0  0  0  0
   -2.7942    0.5936    1.9635 H   0  0  0  0  0  0  0  0  0  0  0  0
   -1.8170    1.1453    3.7750 C   0  0  0  0  0  0  0  0  0  0  0  0
   -0.9697    1.8290    3.8506 H   0  0  0  0  0  0  0  0  0  0  0  0
   -2.7354    1.6828    4.0167 H   0  0  0  0  0  0  0  0  0  0  0  0
   -1.6754    0.3334    4.4914 H   0  0  0  0  0  0  0  0  0  0  0  0
  5  6  2  0  0  0  0
  5  7  1  0  0  0  0
  2  3  1  0  0  0  0
  2  4  1  0  0  0  0
  2  5  1  0  0  0  0
  1  2  1  0  0  0  0
 26 27  2  0  0  0  0
 26 28  1  0  0  0  0
 24 25  1  0  0  0  0
 22 23  1  0  0  0  0
 22 24  2  0  0  0  0
 20 21  1  0  0  0  0
 19 20  1  0  0  0  0
 19 22  1  0  0  0  0
 17 18  1  0  0  0  0
 17 19  2  0  0  0  0
 15 16  1  0  0  0  0
 15 17  1  0  0  0  0
 14 15  2  0  0  0  0
 14 24  1  0  0  0  0
 11 12  1  0  0  0  0
 11 13  1  0  0  0  0
 11 14  1  0  0  0  0
  9 10  1  0  0  0  0
  9 11  1  0  0  0  0
  9 26  1  0  0  0  0
  7  8  1  0  0  0  0
  7  9  1  0  0  0  0
 30 31  1  0  0  0  0
 30 32  1  0  0  0  0
 30 33  1  0  0  0  0
 28 29  1  0  0  0  0
 28 30  1  0  0  0  0
M  END
$$$$
default_name
  -OEChem-02102213163D

 33 33  0     1  0  0  0  0  0999 V2000
   -4.0702   -3.8485    1.4554 H   0  0  0  0  0  0  0  0  0  0  0  0
   -4.0012   -2.9605    0.8284 C   0  0  0  0  0  0  0  0  0  0  0  0
   -4.7652   -2.2435    1.1234 H   0  0  0  0  0  0  0  0  0  0  0  0
   -4.1352   -3.2385   -0.2156 H   0  0  0  0  0  0  0  0  0  0  0  0
   -2.6362   -2.3395    1.0094 C   0  0  0  0  0  0  0  0  0  0  0  0
   -1.8292   -2.8395    1.7814 O   0  0  0  0  0  0  0  0  0  0  0  0
   -2.3832   -1.2445    0.2964 N   0  0  0  0  0  0  0  0  0  0  0  0
   -3.1102   -0.8685   -0.2946 H   0  0  0  0  0  0  0  0  0  0  0  0
   -1.1292   -0.4875    0.3524 C   0  0  1  0  0  0  0  0  0  0  0  0
   -0.3087   -1.1556    0.0882 H   0  0  0  0  0  0  0  0  0  0  0  0
   -1.1749    0.6534   -0.6787 C   0  0  0  0  0  0  0  0  0  0  0  0
   -1.8149    1.4502   -0.2974 H   0  0  0  0  0  0  0  0  0  0  0  0
   -0.1715    1.0668   -0.7930 H   0  0  0  0  0  0  0  0  0  0  0  0
   -1.7033    0.2347   -2.0371 C   0  0  0  0  0  0  0  0  0  0  0  0
   -1.8024    1.1746   -3.0825 C   0  0  0  0  0  0  0  0  0  0  0  0
   -1.5256    2.2066   -2.9106 H   0  0  0  0  0  0  0  0  0  0  0  0
   -2.2554    0.7719   -4.3538 C   0  0  0  0  0  0  0  0  0  0  0  0
   -2.3316    1.4946   -5.1516 H   0  0  0  0  0  0  0  0  0  0  0  0
   -2.6069   -0.5766   -4.5811 C   0  0  0  0  0  0  0  0  0  0  0  0
   -3.0421   -0.9756   -5.8044 O   0  0  0  0  0  0  0  0  0  0  0  0
   -3.1558   -0.2382   -6.4054 H   0  0  0  0  0  0  0  0  0  0  0  0
   -2.5024   -1.5169   -3.5352 C   0  0  0  0  0  0  0  0  0  0  0  0
   -2.7782   -2.5441   -3.7201 H   0  0  0  0  0  0  0  0  0  0  0  0
   -2.0536   -1.1103   -2.2643 C   0  0  0  0  0  0  0  0  0  0  0  0
   -1.9824   -1.8313   -1.4586 H   0  0  0  0  0  0  0  0  0  0  0  0
   -0.8664    0.0378    1.7736 C   0  0  0  0  0  0  0  0  0  0  0  0
    0.2529   -0.0672    2.2760 O   0  0  0  0  0  0  0  0  0  0  0  0
   -1.8947    0.5991    2.4221 N   0  0  0  0  0  0  0  0  0  0  0  0
   -2.7942    0.5936    1.9635 H   0  0  0  0  0  0  0  0  0  0  0  0
   -1.8170    1.1453    3.7750 C   0  0  0  0  0  0  0  0  0  0  0  0
   -0.9697    1.8290    3.8506 H   0  0  0  0  0  0  0  0  0  0  0  0
   -2.7354    1.6828    4.0167 H   0  0  0  0  0  0  0  0  0  0  0  0
   -1.6754    0.3334    4.4914 H   0  0  0  0  0  0  0  0  0  0  0  0
  5  6  2  0  0  0  0
  5  7  1  0  0  0  0
  2  3  1  0  0  0  0
  2  4  1  0  0  0  0
  2  5  1  0  0  0  0
  1  2  1  0  0  0  0
 26 27  2  0  0  0  0
 26 28  1  0  0  0  0
 24 25  1  0  0  0  0
 22 23  1  0  0  0  0
 22 24  2  0  0  0  0
 20 21  1  0  0  0  0
 19 20  1  0  0  0  0
 19 22  1  0  0  0  0
 17 18  1  0  0  0  0
 17 19  2  0  0  0  0
 15 16  1  0  0  0  0
 15 17  1  0  0  0  0
 14 15  2  0  0  0  0
 14 24  1  0  0  0  0
 11 12  1  0  0  0  0
 11 13  1  0  0  0  0
 11 14  1  0  0  0  0
  9 10  1  0  0  0  0
  9 11  1  0  0  0  0
  9 26  1  0  0  0  0
  7  8  1  0  0  0  0
  7  9  1  0  0  0  0
 30 31  1  0  0  0  0
 30 32  1  0  0  0  0
 30 33  1  0  0  0  0
 28 29  1  0  0  0  0
 28 30  1  0  0  0  0
M  END
$$$$
default_name
  -OEChem-02102213163D

 33 33  0     1  0  0  0  0  0999 V2000
   -4.0702   -3.8485    1.4554 H   0  0  0  0  0  0  0  0  0  0  0  0
   -4.0012   -2.9605    0.8284 C   0  0  0  0  0  0  0  0  0  0  0  0
   -4.7652   -2.2435    1.1234 H   0  0  0  0  0  0  0  0  0  0  0  0
   -4.1352   -3.2385   -0.2156 H   0  0  0  0  0  0  0  0  0  0  0  0
   -2.6362   -2.3395    1.0094 C   0  0  0  0  0  0  0  0  0  0  0  0
   -1.8292   -2.8395    1.7814 O   0  0  0  0  0  0  0  0  0  0  0  0
   -2.3832   -1.2445    0.2964 N   0  0  0  0  0  0  0  0  0  0  0  0
   -3.1102   -0.8685   -0.2946 H   0  0  0  0  0  0  0  0  0  0  0  0
   -1.1292   -0.4875    0.3524 C   0  0  1  0  0  0  0  0  0  0  0  0
   -0.3087   -1.1556    0.0882 H   0  0  0  0  0  0  0  0  0  0  0  0
   -1.1749    0.6534   -0.6787 C   0  0  0  0  0  0  0  0  0  0  0  0
   -1.8149    1.4502   -0.2974 H   0  0  0  0  0  0  0  0  0  0  0  0
   -0.1715    1.0668   -0.7930 H   0  0  0  0  0  0  0  0  0  0  0  0
   -1.7033    0.2347   -2.0371 C   0  0  0  0  0  0  0  0  0  0  0  0
   -1.5148    1.0646   -3.1604 C   0  0  0  0  0  0  0  0  0  0  0  0
   -1.0142    2.0178   -3.0513 H   0  0  0  0  0  0  0  0  0  0  0  0
   -1.9716    0.6528   -4.4275 C   0  0  0  0  0  0  0  0  0  0  0  0
   -1.8270    1.2915   -5.2852 H   0  0  0  0  0  0  0  0  0  0  0  0
   -2.6158   -0.5954   -4.5718 C   0  0  0  0  0  0  0  0  0  0  0  0
   -3.0573   -1.0030   -5.7900 O   0  0  0  0  0  0  0  0  0  0  0  0
   -2.9577   -0.3220   -6.4566 H   0  0  0  0  0  0  0  0  0  0  0  0
   -2.7991   -1.4268   -3.4475 C   0  0  0  0  0  0  0  0  0  0  0  0
   -3.2970   -2.3769   -3.5699 H   0  0  0  0  0  0  0  0  0  0  0  0
   -2.3455   -1.0103   -2.1816 C   0  0  0  0  0  0  0  0  0  0  0  0
   -2.4950   -1.6455   -1.3166 H   0  0  0  0  0  0  0  0  0  0  0  0
   -0.8664    0.0378    1.7736 C   0  0  0  0  0  0  0  0  0  0  0  0
    0.2529   -0.0672    2.2760 O   0  0  0  0  0  0  0  0  0  0  0  0
   -1.8947    0.5991    2.4221 N   0  0  0  0  0  0  0  0  0  0  0  0
   -2.7942    0.5936    1.9635 H   0  0  0  0  0  0  0  0  0  0  0  0
   -1.8170    1.1453    3.7750 C   0  0  0  0  0  0  0  0  0  0  0  0
   -0.9697    1.8290    3.8506 H   0  0  0  0  0  0  0  0  0  0  0  0
   -2.7354    1.6828    4.0167 H   0  0  0  0  0  0  0  0  0  0  0  0
   -1.6754    0.3334    4.4914 H   0  0  0  0  0  0  0  0  0  0  0  0
  5  6  2  0  0  0  0
  5  7  1  0  0  0  0
  2  3  1  0  0  0  0
  2  4  1  0  0  0  0
  2  5  1  0  0  0  0
  1  2  1  0  0  0  0
 26 27  2  0  0  0  0
 26 28  1  0  0  0  0
 24 25  1  0  0  0  0
 22 23  1  0  0  0  0
 22 24  2  0  0  0  0
 20 21  1  0  0  0  0
 19 20  1  0  0  0  0
 19 22  1  0  0  0  0
 17 18  1  0  0  0  0
 17 19  2  0  0  0  0
 15 16  1  0  0  0  0
 15 17  1  0  0  0  0
 14 15  2  0  0  0  0
 14 24  1  0  0  0  0
 11 12  1  0  0  0  0
 11 13  1  0  0  0  0
 11 14  1  0  0  0  0
  9 10  1  0  0  0  0
  9 11  1  0  0  0  0
  9 26  1  0  0  0  0
  7  8  1  0  0  0  0
  7  9  1  0  0  0  0
 30 31  1  0  0  0  0
 30 32  1  0  0  0  0
 30 33  1  0  0  0  0
 28 29  1  0  0  0  0
 28 30  1  0  0  0  0
M  END
$$$$
default_name
  -OEChem-02102213163D

 33 33  0     1  0  0  0  0  0999 V2000
   -4.0702   -3.8485    1.4554 H   0  0  0  0  0  0  0  0  0  0  0  0
   -4.0012   -2.9605    0.8284 C   0  0  0  0  0  0  0  0  0  0  0  0
   -4.7652   -2.2435    1.1234 H   0  0  0  0  0  0  0  0  0  0  0  0
   -4.1352   -3.2385   -0.2156 H   0  0  0  0  0  0  0  0  0  0  0  0
   -2.6362   -2.3395    1.0094 C   0  0  0  0  0  0  0  0  0  0  0  0
   -1.8292   -2.8395    1.7814 O   0  0  0  0  0  0  0  0  0  0  0  0
   -2.3832   -1.2445    0.2964 N   0  0  0  0  0  0  0  0  0  0  0  0
   -3.1102   -0.8685   -0.2946 H   0  0  0  0  0  0  0  0  0  0  0  0
   -1.1292   -0.4875    0.3524 C   0  0  1  0  0  0  0  0  0  0  0  0
   -0.3087   -1.1556    0.0882 H   0  0  0  0  0  0  0  0  0  0  0  0
   -1.1749    0.6534   -0.6787 C   0  0  0  0  0  0  0  0  0  0  0  0
   -1.8149    1.4502   -0.2974 H   0  0  0  0  0  0  0  0  0  0  0  0
   -0.1715    1.0668   -0.7930 H   0  0  0  0  0  0  0  0  0  0  0  0
   -1.7033    0.2347   -2.0371 C   0  0  0  0  0  0  0  0  0  0  0  0
   -1.2570    0.8847   -3.2052 C   0  0  0  0  0  0  0  0  0  0  0  0
   -0.5538    1.7042   -3.1337 H   0  0  0  0  0  0  0  0  0  0  0  0
   -1.7199    0.4653   -4.4676 C   0  0  0  0  0  0  0  0  0  0  0  0
   -1.3772    0.9663   -5.3599 H   0  0  0  0  0  0  0  0  0  0  0  0
   -2.6294   -0.6106   -4.5619 C   0  0  0  0  0  0  0  0  0  0  0  0
   -3.0794   -1.0246   -5.7748 O   0  0  0  0  0  0  0  0  0  0  0  0
   -2.7822   -0.4535   -6.4844 H   0  0  0  0  0  0  0  0  0  0  0  0
   -3.0711   -1.2631   -3.3922 C   0  0  0  0  0  0  0  0  0  0  0  0
   -3.7700   -2.0816   -3.4770 H   0  0  0  0  0  0  0  0  0  0  0  0
   -2.6102   -0.8385   -2.1316 C   0  0  0  0  0  0  0  0  0  0  0  0
   -2.9571   -1.3343   -1.2328 H   0  0  0  0  0  0  0  0  0  0  0  0
   -0.8664    0.0378    1.7736 C   0  0  0  0  0  0  0  0  0  0  0  0
    0.2529   -0.0672    2.2760 O   0  0  0  0  0  0  0  0  0  0  0  0
   -1.8947    0.5991    2.4221 N   0  0  0  0  0  0  0  0  0  0  0  0
   -2.7942    0.5936    1.9635 H   0  0  0  0  0  0  0  0  0  0  0  0
   -1.8170    1.1453    3.7750 C   0  0  0  0  0  0  0  0  0  0  0  0
   -0.9697    1.8290    3.8506 H   0  0  0  0  0  0  0  0  0  0  0  0
   -2.7354    1.6828    4.0167 H   0  0  0  0  0  0  0  0  0  0  0  0
   -1.6754    0.3334    4.4914 H   0  0  0  0  0  0  0  0  0  0  0  0
  5  6  2  0  0  0  0
  5  7  1  0  0  0  0
  2  3  1  0  0  0  0
  2  4  1  0  0  0  0
  2  5  1  0  0  0  0
  1  2  1  0  0  0  0
 26 27  2  0  0  0  0
 26 28  1  0  0  0  0
 24 25  1  0  0  0  0
 22 23  1  0  0  0  0
 22 24  2  0  0  0  0
 20 21  1  0  0  0  0
 19 20  1  0  0  0  0
 19 22  1  0  0  0  0
 17 18  1  0  0  0  0
 17 19  2  0  0  0  0
 15 16  1  0  0  0  0
 15 17  1  0  0  0  0
 14 15  2  0  0  0  0
 14 24  1  0  0  0  0
 11 12  1  0  0  0  0
 11 13  1  0  0  0  0
 11 14  1  0  0  0  0
  9 10  1  0  0  0  0
  9 11  1  0  0  0  0
  9 26  1  0  0  0  0
  7  8  1  0  0  0  0
  7  9  1  0  0  0  0
 30 31  1  0  0  0  0
 30 32  1  0  0  0  0
 30 33  1  0  0  0  0
 28 29  1  0  0  0  0
 28 30  1  0  0  0  0
M  END
$$$$
default_name
  -OEChem-02102213163D

 33 33  0     1  0  0  0  0  0999 V2000
   -4.0702   -3.8485    1.4554 H   0  0  0  0  0  0  0  0  0  0  0  0
   -4.0012   -2.9605    0.8284 C   0  0  0  0  0  0  0  0  0  0  0  0
   -4.7652   -2.2435    1.1234 H   0  0  0  0  0  0  0  0  0  0  0  0
   -4.1352   -3.2385   -0.2156 H   0  0  0  0  0  0  0  0  0  0  0  0
   -2.6362   -2.3395    1.0094 C   0  0  0  0  0  0  0  0  0  0  0  0
   -1.8292   -2.8395    1.7814 O   0  0  0  0  0  0  0  0  0  0  0  0
   -2.3832   -1.2445    0.2964 N   0  0  0  0  0  0  0  0  0  0  0  0
   -3.1102   -0.8685   -0.2946 H   0  0  0  0  0  0  0  0  0  0  0  0
   -1.1292   -0.4875    0.3524 C   0  0  1  0  0  0  0  0  0  0  0  0
   -0.3087   -1.1556    0.0882 H   0  0  0  0  0  0  0  0  0  0  0  0
   -1.1749    0.6534   -0.6787 C   0  0  0  0  0  0  0  0  0  0  0  0
   -1.8149    1.4502   -0.2974 H   0  0  0  0  0  0  0  0  0  0  0  0
   -0.1715    1.0668   -0.7930 H   0  0  0  0  0  0  0  0  0  0  0  0
   -1.7033    0.2347   -2.0371 C   0  0  0  0  0  0  0  0  0  0  0  0
   -1.0464    0.6471   -3.2138 C   0  0  0  0  0  0  0  0  0  0  0  0
   -0.1760    1.2871   -3.1520 H   0  0  0  0  0  0  0  0  0  0  0  0
   -1.5173    0.2222   -4.4715 C   0  0  0  0  0  0  0  0  0  0  0  0
   -1.0128    0.5411   -5.3706 H   0  0  0  0  0  0  0  0  0  0  0  0
   -2.6468   -0.6213   -4.5518 C   0  0  0  0  0  0  0  0  0  0  0  0
   -3.1069   -1.0389   -5.7597 O   0  0  0  0  0  0  0  0  0  0  0  0
   -2.6411   -0.6237   -6.4868 H   0  0  0  0  0  0  0  0  0  0  0  0
   -3.2999   -1.0369   -3.3730 C   0  0  0  0  0  0  0  0  0  0  0  0
   -4.1651   -1.6783   -3.4476 H   0  0  0  0  0  0  0  0  0  0  0  0
   -2.8296   -0.6068   -2.1177 C   0  0  0  0  0  0  0  0  0  0  0  0
   -3.3374   -0.9190   -1.2129 H   0  0  0  0  0  0  0  0  0  0  0  0
   -0.8664    0.0378    1.7736 C   0  0  0  0  0  0  0  0  0  0  0  0
    0.2529   -0.0672    2.2760 O   0  0  0  0  0  0  0  0  0  0  0  0
   -1.8947    0.5991    2.4221 N   0  0  0  0  0  0  0  0  0  0  0  0
   -2.7942    0.5936    1.9635 H   0  0  0  0  0  0  0  0  0  0  0  0
   -1.8170    1.1453    3.7750 C   0  0  0  0  0  0  0  0  0  0  0  0
   -0.9697    1.8290    3.8506 H   0  0  0  0  0  0  0  0  0  0  0  0
   -2.7354    1.6828    4.0167 H   0  0  0  0  0  0  0  0  0  0  0  0
   -1.6754    0.3334    4.4914 H   0  0  0  0  0  0  0  0  0  0  0  0
  5  6  2  0  0  0  0
  5  7  1  0  0  0  0
  2  3  1  0  0  0  0
  2  4  1  0  0  0  0
  2  5  1  0  0  0  0
  1  2  1  0  0  0  0
 26 27  2  0  0  0  0
 26 28  1  0  0  0  0
 24 25  1  0  0  0  0
 22 23  1  0  0  0  0
 22 24  2  0  0  0  0
 20 21  1  0  0  0  0
 19 20  1  0  0  0  0
 19 22  1  0  0  0  0
 17 18  1  0  0  0  0
 17 19  2  0  0  0  0
 15 16  1  0  0  0  0
 15 17  1  0  0  0  0
 14 15  2  0  0  0  0
 14 24  1  0  0  0  0
 11 12  1  0  0  0  0
 11 13  1  0  0  0  0
 11 14  1  0  0  0  0
  9 10  1  0  0  0  0
  9 11  1  0  0  0  0
  9 26  1  0  0  0  0
  7  8  1  0  0  0  0
  7  9  1  0  0  0  0
 30 31  1  0  0  0  0
 30 32  1  0  0  0  0
 30 33  1  0  0  0  0
 28 29  1  0  0  0  0
 28 30  1  0  0  0  0
M  END
$$$$
default_name
  -OEChem-02102213163D

 33 33  0     1  0  0  0  0  0999 V2000
   -4.0702   -3.8485    1.4554 H   0  0  0  0  0  0  0  0  0  0  0  0
   -4.0012   -2.9605    0.8284 C   0  0  0  0  0  0  0  0  0  0  0  0
   -4.7652   -2.2435    1.1234 H   0  0  0  0  0  0  0  0  0  0  0  0
   -4.1352   -3.2385   -0.2156 H   0  0  0  0  0  0  0  0  0  0  0  0
   -2.6362   -2.3395    1.0094 C   0  0  0  0  0  0  0  0  0  0  0  0
   -1.8292   -2.8395    1.7814 O   0  0  0  0  0  0  0  0  0  0  0  0
   -2.3832   -1.2445    0.2964 N   0  0  0  0  0  0  0  0  0  0  0  0
   -3.1102   -0.8685   -0.2946 H   0  0  0  0  0  0  0  0  0  0  0  0
   -1.1292   -0.4875    0.3524 C   0  0  1  0  0  0  0  0  0  0  0  0
   -0.3087   -1.1556    0.0882 H   0  0  0  0  0  0  0  0  0  0  0  0
   -1.1749    0.6534   -0.6787 C   0  0  0  0  0  0  0  0  0  0  0  0
   -1.8149    1.4502   -0.2974 H   0  0  0  0  0  0  0  0  0  0  0  0
   -0.1715    1.0668   -0.7930 H   0  0  0  0  0  0  0  0  0  0  0  0
   -1.7033    0.2347   -2.0371 C   0  0  0  0  0  0  0  0  0  0  0  0
   -0.8976    0.3679   -3.1857 C   0  0  0  0  0  0  0  0  0  0  0  0
    0.0935    0.7950   -3.1051 H   0  0  0  0  0  0  0  0  0  0  0  0
   -1.3777   -0.0600   -4.4388 C   0  0  0  0  0  0  0  0  0  0  0  0
   -0.7586    0.0450   -5.3165 H   0  0  0  0  0  0  0  0  0  0  0  0
   -2.6668   -0.6266   -4.5424 C   0  0  0  0  0  0  0  0  0  0  0  0
   -3.1378   -1.0450   -5.7458 O   0  0  0  0  0  0  0  0  0  0  0  0
   -2.5441   -0.8211   -6.4636 H   0  0  0  0  0  0  0  0  0  0  0  0
   -3.4698   -0.7637   -3.3911 C   0  0  0  0  0  0  0  0  0  0  0  0
   -4.4554   -1.1944   -3.4839 H   0  0  0  0  0  0  0  0  0  0  0  0
   -2.9888   -0.3308   -2.1408 C   0  0  0  0  0  0  0  0  0  0  0  0
   -3.6099   -0.4280   -1.2583 H   0  0  0  0  0  0  0  0  0  0  0  0
   -0.8664    0.0378    1.7736 C   0  0  0  0  0  0  0  0  0  0  0  0
    0.2529   -0.0672    2.2760 O   0  0  0  0  0  0  0  0  0  0  0  0
   -1.8947    0.5991    2.4221 N   0  0  0  0  0  0  0  0  0  0  0  0
   -2.7942    0.5936    1.9635 H   0  0  0  0  0  0  0  0  0  0  0  0
   -1.8170    1.1453    3.7750 C   0  0  0  0  0  0  0  0  0  0  0  0
   -0.9697    1.8290    3.8506 H   0  0  0  0  0  0  0  0  0  0  0  0
   -2.7354    1.6828    4.0167 H   0  0  0  0  0  0  0  0  0  0  0  0
   -1.6754    0.3334    4.4914 H   0  0  0  0  0  0  0  0  0  0  0  0
  5  6  2  0  0  0  0
  5  7  1  0  0  0  0
  2  3  1  0  0  0  0
  2  4  1  0  0  0  0
  2  5  1  0  0  0  0
  1  2  1  0  0  0  0
 26 27  2  0  0  0  0
 26 28  1  0  0  0  0
 24 25  1  0  0  0  0
 22 23  1  0  0  0  0
 22 24  2  0  0  0  0
 20 21  1  0  0  0  0
 19 20  1  0  0  0  0
 19 22  1  0  0  0  0
 17 18  1  0  0  0  0
 17 19  2  0  0  0  0
 15 16  1  0  0  0  0
 15 17  1  0  0  0  0
 14 15  2  0  0  0  0
 14 24  1  0  0  0  0
 11 12  1  0  0  0  0
 11 13  1  0  0  0  0
 11 14  1  0  0  0  0
  9 10  1  0  0  0  0
  9 11  1  0  0  0  0
  9 26  1  0  0  0  0
  7  8  1  0  0  0  0
  7  9  1  0  0  0  0
 30 31  1  0  0  0  0
 30 32  1  0  0  0  0
 30 33  1  0  0  0  0
 28 29  1  0  0  0  0
 28 30  1  0  0  0  0
M  END
$$$$
default_name
  -OEChem-02102213163D

 33 33  0     1  0  0  0  0  0999 V2000
   -4.0702   -3.8485    1.4554 H   0  0  0  0  0  0  0  0  0  0  0  0
   -4.0012   -2.9605    0.8284 C   0  0  0  0  0  0  0  0  0  0  0  0
   -4.7652   -2.2435    1.1234 H   0  0  0  0  0  0  0  0  0  0  0  0
   -4.1352   -3.2385   -0.2156 H   0  0  0  0  0  0  0  0  0  0  0  0
   -2.6362   -2.3395    1.0094 C   0  0  0  0  0  0  0  0  0  0  0  0
   -1.8292   -2.8395    1.7814 O   0  0  0  0  0  0  0  0  0  0  0  0
   -2.3832   -1.2445    0.2964 N   0  0  0  0  0  0  0  0  0  0  0  0
   -3.1102   -0.8685   -0.2946 H   0  0  0  0  0  0  0  0  0  0  0  0
   -1.1292   -0.4875    0.3524 C   0  0  1  0  0  0  0  0  0  0  0  0
   -0.3087   -1.1556    0.0882 H   0  0  0  0  0  0  0  0  0  0  0  0
   -1.1749    0.6534   -0.6787 C   0  0  0  0  0  0  0  0  0  0  0  0
   -1.8149    1.4502   -0.2974 H   0  0  0  0  0  0  0  0  0  0  0  0
   -0.1715    1.0668   -0.7930 H   0  0  0  0  0  0  0  0  0  0  0  0
   -1.7033    0.2347   -2.0371 C   0  0  0  0  0  0  0  0  0  0  0  0
   -0.8205    0.0663   -3.1227 C   0  0  0  0  0  0  0  0  0  0  0  0
    0.2364    0.2614   -2.9962 H   0  0  0  0  0  0  0  0  0  0  0  0
   -1.3106   -0.3619   -4.3718 C   0  0  0  0  0  0  0  0  0  0  0  0
   -0.6320   -0.4882   -5.2013 H   0  0  0  0  0  0  0  0  0  0  0  0
   -2.6880   -0.6263   -4.5342 C   0  0  0  0  0  0  0  0  0  0  0  0
   -3.1701   -1.0425   -5.7340 O   0  0  0  0  0  0  0  0  0  0  0  0
   -2.4978   -1.0321   -6.4166 H   0  0  0  0  0  0  0  0  0  0  0  0
   -3.5692   -0.4620   -3.4455 C   0  0  0  0  0  0  0  0  0  0  0  0
   -4.6209   -0.6631   -3.5833 H   0  0  0  0  0  0  0  0  0  0  0  0
   -3.0770   -0.0294   -2.1995 C   0  0  0  0  0  0  0  0  0  0  0  0
   -3.7560    0.1055   -1.3660 H   0  0  0  0  0  0  0  0  0  0  0  0
   -0.8664    0.0378    1.7736 C   0  0  0  0  0  0  0  0  0  0  0  0
    0.2529   -0.0672    2.2760 O   0  0  0  0  0  0  0  0  0  0  0  0
   -1.8947    0.5991    2.4221 N   0  0  0  0  0  0  0  0  0  0  0  0
   -2.7942    0.5936    1.9635 H   0  0  0  0  0  0  0  0  0  0  0  0
   -1.8170    1.1453    3.7750 C   0  0  0  0  0  0  0  0  0  0  0  0
   -0.9697    1.8290    3.8506 H   0  0  0  0  0  0  0  0  0  0  0  0
   -2.7354    1.6828    4.0167 H   0  0  0  0  0  0  0  0  0  0  0  0
   -1.6754    0.3334    4.4914 H   0  0  0  0  0  0  0  0  0  0  0  0
  5  6  2  0  0  0  0
  5  7  1  0  0  0  0
  2  3  1  0  0  0  0
  2  4  1  0  0  0  0
  2  5  1  0  0  0  0
  1  2  1  0  0  0  0
 26 27  2  0  0  0  0
 26 28  1  0  0  0  0
 24 25  1  0  0  0  0
 22 23  1  0  0  0  0
 22 24  2  0  0  0  0
 20 21  1  0  0  0  0
 19 20  1  0  0  0  0
 19 22  1  0  0  0  0
 17 18  1  0  0  0  0
 17 19  2  0  0  0  0
 15 16  1  0  0  0  0
 15 17  1  0  0  0  0
 14 15  2  0  0  0  0
 14 24  1  0  0  0  0
 11 12  1  0  0  0  0
 11 13  1  0  0  0  0
 11 14  1  0  0  0  0
  9 10  1  0  0  0  0
  9 11  1  0  0  0  0
  9 26  1  0  0  0  0
  7  8  1  0  0  0  0
  7  9  1  0  0  0  0
 30 31  1  0  0  0  0
 30 32  1  0  0  0  0
 30 33  1  0  0  0  0
 28 29  1  0  0  0  0
 28 30  1  0  0  0  0
M  END
$$$$
default_name
  -OEChem-02102213163D

 33 33  0     1  0  0  0  0  0999 V2000
   -4.0702   -3.8485    1.4554 H   0  0  0  0  0  0  0  0  0  0  0  0
   -4.0012   -2.9605    0.8284 C   0  0  0  0  0  0  0  0  0  0  0  0
   -4.7652   -2.2435    1.1234 H   0  0  0  0  0  0  0  0  0  0  0  0
   -4.1352   -3.2385   -0.2156 H   0  0  0  0  0  0  0  0  0  0  0  0
   -2.6362   -2.3395    1.0094 C   0  0  0  0  0  0  0  0  0  0  0  0
   -1.8292   -2.8395    1.7814 O   0  0  0  0  0  0  0  0  0  0  0  0
   -2.3832   -1.2445    0.2964 N   0  0  0  0  0  0  0  0  0  0  0  0
   -3.1102   -0.8685   -0.2946 H   0  0  0  0  0  0  0  0  0  0  0  0
   -1.1292   -0.4875    0.3524 C   0  0  1  0  0  0  0  0  0  0  0  0
   -0.3087   -1.1556    0.0882 H   0  0  0  0  0  0  0  0  0  0  0  0
   -1.1749    0.6534   -0.6787 C   0  0  0  0  0  0  0  0  0  0  0  0
   -1.8149    1.4502   -0.2974 H   0  0  0  0  0  0  0  0  0  0  0  0
   -0.1715    1.0668   -0.7930 H   0  0  0  0  0  0  0  0  0  0  0  0
   -1.7033    0.2347   -2.0371 C   0  0  0  0  0  0  0  0  0  0  0  0
   -0.8204   -0.2372   -3.0291 C   0  0  0  0  0  0  0  0  0  0  0  0
    0.2430   -0.2774   -2.8327 H   0  0  0  0  0  0  0  0  0  0  0  0
   -1.3206   -0.6631   -4.2751 C   0  0  0  0  0  0  0  0  0  0  0  0
   -0.6415   -1.0223   -5.0330 H   0  0  0  0  0  0  0  0  0  0  0  0
   -2.7090   -0.6203   -4.5279 C   0  0  0  0  0  0  0  0  0  0  0  0
   -3.2016   -1.0316   -5.7251 O   0  0  0  0  0  0  0  0  0  0  0  0
   -2.5054   -1.2424   -6.3488 H   0  0  0  0  0  0  0  0  0  0  0  0
   -3.5915   -0.1525   -3.5322 C   0  0  0  0  0  0  0  0  0  0  0  0
   -4.6506   -0.1204   -3.7391 H   0  0  0  0  0  0  0  0  0  0  0  0
   -3.0880    0.2769   -2.2896 C   0  0  0  0  0  0  0  0  0  0  0  0
   -3.7657    0.6449   -1.5285 H   0  0  0  0  0  0  0  0  0  0  0  0
   -0.8664    0.0378    1.7736 C   0  0  0  0  0  0  0  0  0  0  0  0
    0.2529   -0.0672    2.2760 O   0  0  0  0  0  0  0  0  0  0  0  0
   -1.8947    0.5991    2.4221 N   0  0  0  0  0  0  0  0  0  0  0  0
   -2.7942    0.5936    1.9635 H   0  0  0  0  0  0  0  0  0  0  0  0
   -1.8170    1.1453    3.7750 C   0  0  0  0  0  0  0  0  0  0  0  0
   -0.9697    1.8290    3.8506 H   0  0  0  0  0  0  0  0  0  0  0  0
   -2.7354    1.6828    4.0167 H   0  0  0  0  0  0  0  0  0  0  0  0
   -1.6754    0.3334    4.4914 H   0  0  0  0  0  0  0  0  0  0  0  0
  5  6  2  0  0  0  0
  5  7  1  0  0  0  0
  2  3  1  0  0  0  0
  2  4  1  0  0  0  0
  2  5  1  0  0  0  0
  1  2  1  0  0  0  0
 26 27  2  0  0  0  0
 26 28  1  0  0  0  0
 24 25  1  0  0  0  0
 22 23  1  0  0  0  0
 22 24  2  0  0  0  0
 20 21  1  0  0  0  0
 19 20  1  0  0  0  0
 19 22  1  0  0  0  0
 17 18  1  0  0  0  0
 17 19  2  0  0  0  0
 15 16  1  0  0  0  0
 15 17  1  0  0  0  0
 14 15  2  0  0  0  0
 14 24  1  0  0  0  0
 11 12  1  0  0  0  0
 11 13  1  0  0  0  0
 11 14  1  0  0  0  0
  9 10  1  0  0  0  0
  9 11  1  0  0  0  0
  9 26  1  0  0  0  0
  7  8  1  0  0  0  0
  7  9  1  0  0  0  0
 30 31  1  0  0  0  0
 30 32  1  0  0  0  0
 30 33  1  0  0  0  0
 28 29  1  0  0  0  0
 28 30  1  0  0  0  0
M  END
$$$$
default_name
  -OEChem-02102213163D

 33 33  0     1  0  0  0  0  0999 V2000
   -4.0702   -3.8485    1.4554 H   0  0  0  0  0  0  0  0  0  0  0  0
   -4.0012   -2.9605    0.8284 C   0  0  0  0  0  0  0  0  0  0  0  0
   -4.7652   -2.2435    1.1234 H   0  0  0  0  0  0  0  0  0  0  0  0
   -4.1352   -3.2385   -0.2156 H   0  0  0  0  0  0  0  0  0  0  0  0
   -2.6362   -2.3395    1.0094 C   0  0  0  0  0  0  0  0  0  0  0  0
   -1.8292   -2.8395    1.7814 O   0  0  0  0  0  0  0  0  0  0  0  0
   -2.3832   -1.2445    0.2964 N   0  0  0  0  0  0  0  0  0  0  0  0
   -3.1102   -0.8685   -0.2946 H   0  0  0  0  0  0  0  0  0  0  0  0
   -1.1292   -0.4875    0.3524 C   0  0  1  0  0  0  0  0  0  0  0  0
   -0.3087   -1.1556    0.0882 H   0  0  0  0  0  0  0  0  0  0  0  0
   -1.1749    0.6534   -0.6787 C   0  0  0  0  0  0  0  0  0  0  0  0
   -1.8149    1.4502   -0.2974 H   0  0  0  0  0  0  0  0  0  0  0  0
   -0.1715    1.0668   -0.7930 H   0  0  0  0  0  0  0  0  0  0  0  0
   -1.7033    0.2347   -2.0371 C   0  0  0  0  0  0  0  0  0  0  0  0
   -0.8974   -0.5219   -2.9114 C   0  0  0  0  0  0  0  0  0  0  0  0
    0.1127   -0.7845   -2.6257 H   0  0  0  0  0  0  0  0  0  0  0  0
   -1.4069   -0.9429   -4.1552 C   0  0  0  0  0  0  0  0  0  0  0  0
   -0.7865   -1.5208   -4.8229 H   0  0  0  0  0  0  0  0  0  0  0  0
   -2.7284   -0.6091   -4.5238 C   0  0  0  0  0  0  0  0  0  0  0  0
   -3.2300   -1.0129   -5.7198 O   0  0  0  0  0  0  0  0  0  0  0  0
   -2.5664   -1.4377   -6.2649 H   0  0  0  0  0  0  0  0  0  0  0  0
   -3.5350    0.1439   -3.6456 C   0  0  0  0  0  0  0  0  0  0  0  0
   -4.5423    0.3966   -3.9406 H   0  0  0  0  0  0  0  0  0  0  0  0
   -3.0213    0.5671   -2.4050 C   0  0  0  0  0  0  0  0  0  0  0  0
   -3.6385    1.1535   -1.7348 H   0  0  0  0  0  0  0  0  0  0  0  0
   -0.8664    0.0378    1.7736 C   0  0  0  0  0  0  0  0  0  0  0  0
    0.2529   -0.0672    2.2760 O   0  0  0  0  0  0  0  0  0  0  0  0
   -1.8947    0.5991    2.4221 N   0  0  0  0  0  0  0  0  0  0  0  0
   -2.7942    0.5936    1.9635 H   0  0  0  0  0  0  0  0  0  0  0  0
   -1.8170    1.1453    3.7750 C   0  0  0  0  0  0  0  0  0  0  0  0
   -0.9697    1.8290    3.8506 H   0  0  0  0  0  0  0  0  0  0  0  0
   -2.7354    1.6828    4.0167 H   0  0  0  0  0  0  0  0  0  0  0  0
   -1.6754    0.3334    4.4914 H   0  0  0  0  0  0  0  0  0  0  0  0
  5  6  2  0  0  0  0
  5  7  1  0  0  0  0
  2  3  1  0  0  0  0
  2  4  1  0  0  0  0
  2  5  1  0  0  0  0
  1  2  1  0  0  0  0
 26 27  2  0  0  0  0
 26 28  1  0  0  0  0
 24 25  1  0  0  0  0
 22 23  1  0  0  0  0
 22 24  2  0  0  0  0
 20 21  1  0  0  0  0
 19 20  1  0  0  0  0
 19 22  1  0  0  0  0
 17 18  1  0  0  0  0
 17 19  2  0  0  0  0
 15 16  1  0  0  0  0
 15 17  1  0  0  0  0
 14 15  2  0  0  0  0
 14 24  1  0  0  0  0
 11 12  1  0  0  0  0
 11 13  1  0  0  0  0
 11 14  1  0  0  0  0
  9 10  1  0  0  0  0
  9 11  1  0  0  0  0
  9 26  1  0  0  0  0
  7  8  1  0  0  0  0
  7  9  1  0  0  0  0
 30 31  1  0  0  0  0
 30 32  1  0  0  0  0
 30 33  1  0  0  0  0
 28 29  1  0  0  0  0
 28 30  1  0  0  0  0
M  END
$$$$
default_name
  -OEChem-02102213163D

 33 33  0     1  0  0  0  0  0999 V2000
   -4.0702   -3.8485    1.4554 H   0  0  0  0  0  0  0  0  0  0  0  0
   -4.0012   -2.9605    0.8284 C   0  0  0  0  0  0  0  0  0  0  0  0
   -4.7652   -2.2435    1.1234 H   0  0  0  0  0  0  0  0  0  0  0  0
   -4.1352   -3.2385   -0.2156 H   0  0  0  0  0  0  0  0  0  0  0  0
   -2.6362   -2.3395    1.0094 C   0  0  0  0  0  0  0  0  0  0  0  0
   -1.8292   -2.8395    1.7814 O   0  0  0  0  0  0  0  0  0  0  0  0
   -2.3832   -1.2445    0.2964 N   0  0  0  0  0  0  0  0  0  0  0  0
   -3.1102   -0.8685   -0.2946 H   0  0  0  0  0  0  0  0  0  0  0  0
   -1.1292   -0.4875    0.3524 C   0  0  1  0  0  0  0  0  0  0  0  0
   -0.3087   -1.1556    0.0882 H   0  0  0  0  0  0  0  0  0  0  0  0
   -1.1749    0.6534   -0.6787 C   0  0  0  0  0  0  0  0  0  0  0  0
   -1.8149    1.4502   -0.2974 H   0  0  0  0  0  0  0  0  0  0  0  0
   -0.1715    1.0668   -0.7930 H   0  0  0  0  0  0  0  0  0  0  0  0
   -1.7033    0.2347   -2.0371 C   0  0  0  0  0  0  0  0  0  0  0  0
   -1.0462   -0.7685   -2.7775 C   0  0  0  0  0  0  0  0  0  0  0  0
   -0.1454   -1.2256   -2.3893 H   0  0  0  0  0  0  0  0  0  0  0  0
   -1.5638   -1.1824   -4.0203 C   0  0  0  0  0  0  0  0  0  0  0  0
   -1.0572   -1.9498   -4.5854 H   0  0  0  0  0  0  0  0  0  0  0  0
   -2.7448   -0.5934   -4.5223 C   0  0  0  0  0  0  0  0  0  0  0  0
   -3.2536   -0.9877   -5.7184 O   0  0  0  0  0  0  0  0  0  0  0  0
   -2.6765   -1.6046   -6.1706 H   0  0  0  0  0  0  0  0  0  0  0  0
   -3.4036    0.4068   -3.7777 C   0  0  0  0  0  0  0  0  0  0  0  0
   -4.3034    0.8527   -4.1742 H   0  0  0  0  0  0  0  0  0  0  0  0
   -2.8813    0.8216   -2.5379 C   0  0  0  0  0  0  0  0  0  0  0  0
   -3.3829    1.5967   -1.9708 H   0  0  0  0  0  0  0  0  0  0  0  0
   -0.8664    0.0378    1.7736 C   0  0  0  0  0  0  0  0  0  0  0  0
    0.2529   -0.0672    2.2760 O   0  0  0  0  0  0  0  0  0  0  0  0
   -1.8947    0.5991    2.4221 N   0  0  0  0  0  0  0  0  0  0  0  0
   -2.7942    0.5936    1.9635 H   0  0  0  0  0  0  0  0  0  0  0  0
   -1.8170    1.1453    3.7750 C   0  0  0  0  0  0  0  0  0  0  0  0
   -0.9697    1.8290    3.8506 H   0  0  0  0  0  0  0  0  0  0  0  0
   -2.7354    1.6828    4.0167 H   0  0  0  0  0  0  0  0  0  0  0  0
   -1.6754    0.3334    4.4914 H   0  0  0  0  0  0  0  0  0  0  0  0
  5  6  2  0  0  0  0
  5  7  1  0  0  0  0
  2  3  1  0  0  0  0
  2  4  1  0  0  0  0
  2  5  1  0  0  0  0
  1  2  1  0  0  0  0
 26 27  2  0  0  0  0
 26 28  1  0  0  0  0
 24 25  1  0  0  0  0
 22 23  1  0  0  0  0
 22 24  2  0  0  0  0
 20 21  1  0  0  0  0
 19 20  1  0  0  0  0
 19 22  1  0  0  0  0
 17 18  1  0  0  0  0
 17 19  2  0  0  0  0
 15 16  1  0  0  0  0
 15 17  1  0  0  0  0
 14 15  2  0  0  0  0
 14 24  1  0  0  0  0
 11 12  1  0  0  0  0
 11 13  1  0  0  0  0
 11 14  1  0  0  0  0
  9 10  1  0  0  0  0
  9 11  1  0  0  0  0
  9 26  1  0  0  0  0
  7  8  1  0  0  0  0
  7  9  1  0  0  0  0
 30 31  1  0  0  0  0
 30 32  1  0  0  0  0
 30 33  1  0  0  0  0
 28 29  1  0  0  0  0
 28 30  1  0  0  0  0
M  END
$$$$
default_name
  -OEChem-02102213163D

 33 33  0     1  0  0  0  0  0999 V2000
   -4.0702   -3.8485    1.4554 H   0  0  0  0  0  0  0  0  0  0  0  0
   -4.0012   -2.9605    0.8284 C   0  0  0  0  0  0  0  0  0  0  0  0
   -4.7652   -2.2435    1.1234 H   0  0  0  0  0  0  0  0  0  0  0  0
   -4.1352   -3.2385   -0.2156 H   0  0  0  0  0  0  0  0  0  0  0  0
   -2.6362   -2.3395    1.0094 C   0  0  0  0  0  0  0  0  0  0  0  0
   -1.8292   -2.8395    1.7814 O   0  0  0  0  0  0  0  0  0  0  0  0
   -2.3832   -1.2445    0.2964 N   0  0  0  0  0  0  0  0  0  0  0  0
   -3.1102   -0.8685   -0.2946 H   0  0  0  0  0  0  0  0  0  0  0  0
   -1.1292   -0.4875    0.3524 C   0  0  1  0  0  0  0  0  0  0  0  0
   -0.3087   -1.1556    0.0882 H   0  0  0  0  0  0  0  0  0  0  0  0
   -1.1749    0.6534   -0.6787 C   0  0  0  0  0  0  0  0  0  0  0  0
   -1.8149    1.4502   -0.2974 H   0  0  0  0  0  0  0  0  0  0  0  0
   -0.1715    1.0668   -0.7930 H   0  0  0  0  0  0  0  0  0  0  0  0
   -1.7033    0.2347   -2.0371 C   0  0  0  0  0  0  0  0  0  0  0  0
   -1.2567   -0.9601   -2.6366 C   0  0  0  0  0  0  0  0  0  0  0  0
   -0.5140   -1.5704   -2.1396 H   0  0  0  0  0  0  0  0  0  0  0  0
   -1.7805   -1.3653   -3.8797 C   0  0  0  0  0  0  0  0  0  0  0  0
   -1.4351   -2.2799   -4.3366 H   0  0  0  0  0  0  0  0  0  0  0  0
   -2.7571   -0.5743   -4.5234 C   0  0  0  0  0  0  0  0  0  0  0  0
   -3.2706   -0.9579   -5.7210 O   0  0  0  0  0  0  0  0  0  0  0  0
   -2.8283   -1.7318   -6.0723 H   0  0  0  0  0  0  0  0  0  0  0  0
   -3.2063    0.6184   -3.9197 C   0  0  0  0  0  0  0  0  0  0  0  0
   -3.9502    1.2168   -4.4238 H   0  0  0  0  0  0  0  0  0  0  0  0
   -2.6775    1.0230   -2.6793 C   0  0  0  0  0  0  0  0  0  0  0  0
   -3.0164    1.9443   -2.2205 H   0  0  0  0  0  0  0  0  0  0  0  0
   -0.8664    0.0378    1.7736 C   0  0  0  0  0  0  0  0  0  0  0  0
    0.2529   -0.0672    2.2760 O   0  0  0  0  0  0  0  0  0  0  0  0
   -1.8947    0.5991    2.4221 N   0  0  0  0  0  0  0  0  0  0  0  0
   -2.7942    0.5936    1.9635 H   0  0  0  0  0  0  0  0  0  0  0  0
   -1.8170    1.1453    3.7750 C   0  0  0  0  0  0  0  0  0  0  0  0
   -0.9697    1.8290    3.8506 H   0  0  0  0  0  0  0  0  0  0  0  0
   -2.7354    1.6828    4.0167 H   0  0  0  0  0  0  0  0  0  0  0  0
   -1.6754    0.3334    4.4914 H   0  0  0  0  0  0  0  0  0  0  0  0
  5  6  2  0  0  0  0
  5  7  1  0  0  0  0
  2  3  1  0  0  0  0
  2  4  1  0  0  0  0
  2  5  1  0  0  0  0
  1  2  1  0  0  0  0
 26 27  2  0  0  0  0
 26 28  1  0  0  0  0
 24 25  1  0  0  0  0
 22 23  1  0  0  0  0
 22 24  2  0  0  0  0
 20 21  1  0  0  0  0
 19 20  1  0  0  0  0
 19 22  1  0  0  0  0
 17 18  1  0  0  0  0
 17 19  2  0  0  0  0
 15 16  1  0  0  0  0
 15 17  1  0  0  0  0
 14 15  2  0  0  0  0
 14 24  1  0  0  0  0
 11 12  1  0  0  0  0
 11 13  1  0  0  0  0
 11 14  1  0  0  0  0
  9 10  1  0  0  0  0
  9 11  1  0  0  0  0
  9 26  1  0  0  0  0
  7  8  1  0  0  0  0
  7  9  1  0  0  0  0
 30 31  1  0  0  0  0
 30 32  1  0  0  0  0
 30 33  1  0  0  0  0
 28 29  1  0  0  0  0
 28 30  1  0  0  0  0
M  END
$$$$
default_name
  -OEChem-02102213163D

 33 33  0     1  0  0  0  0  0999 V2000
   -4.0702   -3.8485    1.4554 H   0  0  0  0  0  0  0  0  0  0  0  0
   -4.0012   -2.9605    0.8284 C   0  0  0  0  0  0  0  0  0  0  0  0
   -4.7652   -2.2435    1.1234 H   0  0  0  0  0  0  0  0  0  0  0  0
   -4.1352   -3.2385   -0.2156 H   0  0  0  0  0  0  0  0  0  0  0  0
   -2.6362   -2.3395    1.0094 C   0  0  0  0  0  0  0  0  0  0  0  0
   -1.8292   -2.8395    1.7814 O   0  0  0  0  0  0  0  0  0  0  0  0
   -2.3832   -1.2445    0.2964 N   0  0  0  0  0  0  0  0  0  0  0  0
   -3.1102   -0.8685   -0.2946 H   0  0  0  0  0  0  0  0  0  0  0  0
   -1.1292   -0.4875    0.3524 C   0  0  1  0  0  0  0  0  0  0  0  0
   -0.3087   -1.1556    0.0882 H   0  0  0  0  0  0  0  0  0  0  0  0
   -1.1749    0.6534   -0.6787 C   0  0  0  0  0  0  0  0  0  0  0  0
   -1.8149    1.4502   -0.2974 H   0  0  0  0  0  0  0  0  0  0  0  0
   -0.1715    1.0668   -0.7930 H   0  0  0  0  0  0  0  0  0  0  0  0
   -1.7033    0.2347   -2.0371 C   0  0  0  0  0  0  0  0  0  0  0  0
   -1.5145   -1.0837   -2.4982 C   0  0  0  0  0  0  0  0  0  0  0  0
   -0.9677   -1.7955   -1.8938 H   0  0  0  0  0  0  0  0  0  0  0  0
   -2.0422   -1.4789   -3.7429 C   0  0  0  0  0  0  0  0  0  0  0  0
   -1.8945   -2.4888   -4.0936 H   0  0  0  0  0  0  0  0  0  0  0  0
   -2.7645   -0.5531   -4.5270 C   0  0  0  0  0  0  0  0  0  0  0  0
   -3.2799   -0.9253   -5.7274 O   0  0  0  0  0  0  0  0  0  0  0  0
   -3.0115   -1.8106   -5.9768 H   0  0  0  0  0  0  0  0  0  0  0  0
   -2.9566    0.7643   -4.0618 C   0  0  0  0  0  0  0  0  0  0  0  0
   -3.5068    1.4642   -4.6725 H   0  0  0  0  0  0  0  0  0  0  0  0
   -2.4239    1.1576   -2.8194 C   0  0  0  0  0  0  0  0  0  0  0  0
   -2.5640    2.1725   -2.4668 H   0  0  0  0  0  0  0  0  0  0  0  0
   -0.8664    0.0378    1.7736 C   0  0  0  0  0  0  0  0  0  0  0  0
    0.2529   -0.0672    2.2760 O   0  0  0  0  0  0  0  0  0  0  0  0
   -1.8947    0.5991    2.4221 N   0  0  0  0  0  0  0  0  0  0  0  0
   -2.7942    0.5936    1.9635 H   0  0  0  0  0  0  0  0  0  0  0  0
   -1.8170    1.1453    3.7750 C   0  0  0  0  0  0  0  0  0  0  0  0
   -0.9697    1.8290    3.8506 H   0  0  0  0  0  0  0  0  0  0  0  0
   -2.7354    1.6828    4.0167 H   0  0  0  0  0  0  0  0  0  0  0  0
   -1.6754    0.3334    4.4914 H   0  0  0  0  0  0  0  0  0  0  0  0
  5  6  2  0  0  0  0
  5  7  1  0  0  0  0
  2  3  1  0  0  0  0
  2  4  1  0  0  0  0
  2  5  1  0  0  0  0
  1  2  1  0  0  0  0
 26 27  2  0  0  0  0
 26 28  1  0  0  0  0
 24 25  1  0  0  0  0
 22 23  1  0  0  0  0
 22 24  2  0  0  0  0
 20 21  1  0  0  0  0
 19 20  1  0  0  0  0
 19 22  1  0  0  0  0
 17 18  1  0  0  0  0
 17 19  2  0  0  0  0
 15 16  1  0  0  0  0
 15 17  1  0  0  0  0
 14 15  2  0  0  0  0
 14 24  1  0  0  0  0
 11 12  1  0  0  0  0
 11 13  1  0  0  0  0
 11 14  1  0  0  0  0
  9 10  1  0  0  0  0
  9 11  1  0  0  0  0
  9 26  1  0  0  0  0
  7  8  1  0  0  0  0
  7  9  1  0  0  0  0
 30 31  1  0  0  0  0
 30 32  1  0  0  0  0
 30 33  1  0  0  0  0
 28 29  1  0  0  0  0
 28 30  1  0  0  0  0
M  END
$$$$
default_name
  -OEChem-02102213163D

 33 33  0     1  0  0  0  0  0999 V2000
   -4.0702   -3.8485    1.4554 H   0  0  0  0  0  0  0  0  0  0  0  0
   -4.0012   -2.9605    0.8284 C   0  0  0  0  0  0  0  0  0  0  0  0
   -4.7652   -2.2435    1.1234 H   0  0  0  0  0  0  0  0  0  0  0  0
   -4.1352   -3.2385   -0.2156 H   0  0  0  0  0  0  0  0  0  0  0  0
   -2.6362   -2.3395    1.0094 C   0  0  0  0  0  0  0  0  0  0  0  0
   -1.8292   -2.8395    1.7814 O   0  0  0  0  0  0  0  0  0  0  0  0
   -2.3832   -1.2445    0.2964 N   0  0  0  0  0  0  0  0  0  0  0  0
   -3.1102   -0.8685   -0.2946 H   0  0  0  0  0  0  0  0  0  0  0  0
   -1.1292   -0.4875    0.3524 C   0  0  1  0  0  0  0  0  0  0  0  0
   -0.3087   -1.1556    0.0882 H   0  0  0  0  0  0  0  0  0  0  0  0
   -1.1749    0.6534   -0.6787 C   0  0  0  0  0  0  0  0  0  0  0  0
   -1.8149    1.4502   -0.2974 H   0  0  0  0  0  0  0  0  0  0  0  0
   -0.1715    1.0668   -0.7930 H   0  0  0  0  0  0  0  0  0  0  0  0
   -1.7033    0.2347   -2.0371 C   0  0  0  0  0  0  0  0  0  0  0  0
   -1.8021   -1.1308   -2.3719 C   0  0  0  0  0  0  0  0  0  0  0  0
   -1.4758   -1.8856   -1.6684 H   0  0  0  0  0  0  0  0  0  0  0  0
   -2.3312   -1.5157   -3.6192 C   0  0  0  0  0  0  0  0  0  0  0  0
   -2.4039   -2.5621   -3.8728 H   0  0  0  0  0  0  0  0  0  0  0  0
   -2.7664   -0.5313   -4.5330 C   0  0  0  0  0  0  0  0  0  0  0  0
   -3.2809   -0.8923   -5.7372 O   0  0  0  0  0  0  0  0  0  0  0  0
   -3.2135   -1.8357   -5.8905 H   0  0  0  0  0  0  0  0  0  0  0  0
   -2.6714    0.8344   -4.1943 C   0  0  0  0  0  0  0  0  0  0  0  0
   -3.0034    1.5779   -4.9033 H   0  0  0  0  0  0  0  0  0  0  0  0
   -2.1378    1.2161   -2.9487 C   0  0  0  0  0  0  0  0  0  0  0  0
   -2.0564    2.2659   -2.6930 H   0  0  0  0  0  0  0  0  0  0  0  0
   -0.8664    0.0378    1.7736 C   0  0  0  0  0  0  0  0  0  0  0  0
    0.2529   -0.0672    2.2760 O   0  0  0  0  0  0  0  0  0  0  0  0
   -1.8947    0.5991    2.4221 N   0  0  0  0  0  0  0  0  0  0  0  0
   -2.7942    0.5936    1.9635 H   0  0  0  0  0  0  0  0  0  0  0  0
   -1.8170    1.1453    3.7750 C   0  0  0  0  0  0  0  0  0  0  0  0
   -0.9697    1.8290    3.8506 H   0  0  0  0  0  0  0  0  0  0  0  0
   -2.7354    1.6828    4.0167 H   0  0  0  0  0  0  0  0  0  0  0  0
   -1.6754    0.3334    4.4914 H   0  0  0  0  0  0  0  0  0  0  0  0
  5  6  2  0  0  0  0
  5  7  1  0  0  0  0
  2  3  1  0  0  0  0
  2  4  1  0  0  0  0
  2  5  1  0  0  0  0
  1  2  1  0  0  0  0
 26 27  2  0  0  0  0
 26 28  1  0  0  0  0
 24 25  1  0  0  0  0
 22 23  1  0  0  0  0
 22 24  2  0  0  0  0
 20 21  1  0  0  0  0
 19 20  1  0  0  0  0
 19 22  1  0  0  0  0
 17 18  1  0  0  0  0
 17 19  2  0  0  0  0
 15 16  1  0  0  0  0
 15 17  1  0  0  0  0
 14 15  2  0  0  0  0
 14 24  1  0  0  0  0
 11 12  1  0  0  0  0
 11 13  1  0  0  0  0
 11 14  1  0  0  0  0
  9 10  1  0  0  0  0
  9 11  1  0  0  0  0
  9 26  1  0  0  0  0
  7  8  1  0  0  0  0
  7  9  1  0  0  0  0
 30 31  1  0  0  0  0
 30 32  1  0  0  0  0
 30 33  1  0  0  0  0
 28 29  1  0  0  0  0
 28 30  1  0  0  0  0
M  END
$$$$
default_name
  -OEChem-02102213163D

 33 33  0     1  0  0  0  0  0999 V2000
   -4.0702   -3.8485    1.4554 H   0  0  0  0  0  0  0  0  0  0  0  0
   -4.0012   -2.9605    0.8284 C   0  0  0  0  0  0  0  0  0  0  0  0
   -4.7652   -2.2435    1.1234 H   0  0  0  0  0  0  0  0  0  0  0  0
   -4.1352   -3.2385   -0.2156 H   0  0  0  0  0  0  0  0  0  0  0  0
   -2.6362   -2.3395    1.0094 C   0  0  0  0  0  0  0  0  0  0  0  0
   -1.8292   -2.8395    1.7814 O   0  0  0  0  0  0  0  0  0  0  0  0
   -2.3832   -1.2445    0.2964 N   0  0  0  0  0  0  0  0  0  0  0  0
   -3.1102   -0.8685   -0.2946 H   0  0  0  0  0  0  0  0  0  0  0  0
   -1.1292   -0.4875    0.3524 C   0  0  1  0  0  0  0  0  0  0  0  0
   -0.3087   -1.1556    0.0882 H   0  0  0  0  0  0  0  0  0  0  0  0
   -1.1749    0.6534   -0.6787 C   0  0  0  0  0  0  0  0  0  0  0  0
   -1.8149    1.4502   -0.2974 H   0  0  0  0  0  0  0  0  0  0  0  0
   -0.1715    1.0668   -0.7930 H   0  0  0  0  0  0  0  0  0  0  0  0
   -1.7033    0.2347   -2.0371 C   0  0  0  0  0  0  0  0  0  0  0  0
   -2.0998   -1.0982   -2.2661 C   0  0  0  0  0  0  0  0  0  0  0  0
   -2.0035   -1.8345   -1.4789 H   0  0  0  0  0  0  0  0  0  0  0  0
   -2.6277   -1.4730   -3.5170 C   0  0  0  0  0  0  0  0  0  0  0  0
   -2.9288   -2.4949   -3.6894 H   0  0  0  0  0  0  0  0  0  0  0  0
   -2.7628   -0.5103   -4.5409 C   0  0  0  0  0  0  0  0  0  0  0  0
   -3.2735   -0.8611   -5.7497 O   0  0  0  0  0  0  0  0  0  0  0  0
   -3.4206   -1.8053   -5.8193 H   0  0  0  0  0  0  0  0  0  0  0  0
   -2.3701    0.8241   -4.3083 C   0  0  0  0  0  0  0  0  0  0  0  0
   -2.4743    1.5501   -5.1005 H   0  0  0  0  0  0  0  0  0  0  0  0
   -1.8385    1.1947   -3.0585 C   0  0  0  0  0  0  0  0  0  0  0  0
   -1.5284    2.2180   -2.8836 H   0  0  0  0  0  0  0  0  0  0  0  0
   -0.8664    0.0378    1.7736 C   0  0  0  0  0  0  0  0  0  0  0  0
    0.2529   -0.0672    2.2760 O   0  0  0  0  0  0  0  0  0  0  0  0
   -1.8947    0.5991    2.4221 N   0  0  0  0  0  0  0  0  0  0  0  0
   -2.7942    0.5936    1.9635 H   0  0  0  0  0  0  0  0  0  0  0  0
   -1.8170    1.1453    3.7750 C   0  0  0  0  0  0  0  0  0  0  0  0
   -0.9697    1.8290    3.8506 H   0  0  0  0  0  0  0  0  0  0  0  0
   -2.7354    1.6828    4.0167 H   0  0  0  0  0  0  0  0  0  0  0  0
   -1.6754    0.3334    4.4914 H   0  0  0  0  0  0  0  0  0  0  0  0
  5  6  2  0  0  0  0
  5  7  1  0  0  0  0
  2  3  1  0  0  0  0
  2  4  1  0  0  0  0
  2  5  1  0  0  0  0
  1  2  1  0  0  0  0
 26 27  2  0  0  0  0
 26 28  1  0  0  0  0
 24 25  1  0  0  0  0
 22 23  1  0  0  0  0
 22 24  2  0  0  0  0
 20 21  1  0  0  0  0
 19 20  1  0  0  0  0
 19 22  1  0  0  0  0
 17 18  1  0  0  0  0
 17 19  2  0  0  0  0
 15 16  1  0  0  0  0
 15 17  1  0  0  0  0
 14 15  2  0  0  0  0
 14 24  1  0  0  0  0
 11 12  1  0  0  0  0
 11 13  1  0  0  0  0
 11 14  1  0  0  0  0
  9 10  1  0  0  0  0
  9 11  1  0  0  0  0
  9 26  1  0  0  0  0
  7  8  1  0  0  0  0
  7  9  1  0  0  0  0
 30 31  1  0  0  0  0
 30 32  1  0  0  0  0
 30 33  1  0  0  0  0
 28 29  1  0  0  0  0
 28 30  1  0  0  0  0
M  END
$$$$
default_name
  -OEChem-02102213163D

 33 33  0     1  0  0  0  0  0999 V2000
   -4.0702   -3.8485    1.4554 H   0  0  0  0  0  0  0  0  0  0  0  0
   -4.0012   -2.9605    0.8284 C   0  0  0  0  0  0  0  0  0  0  0  0
   -4.7652   -2.2435    1.1234 H   0  0  0  0  0  0  0  0  0  0  0  0
   -4.1352   -3.2385   -0.2156 H   0  0  0  0  0  0  0  0  0  0  0  0
   -2.6362   -2.3395    1.0094 C   0  0  0  0  0  0  0  0  0  0  0  0
   -1.8292   -2.8395    1.7814 O   0  0  0  0  0  0  0  0  0  0  0  0
   -2.3832   -1.2445    0.2964 N   0  0  0  0  0  0  0  0  0  0  0  0
   -3.1102   -0.8685   -0.2946 H   0  0  0  0  0  0  0  0  0  0  0  0
   -1.1292   -0.4875    0.3524 C   0  0  1  0  0  0  0  0  0  0  0  0
   -0.3087   -1.1556    0.0882 H   0  0  0  0  0  0  0  0  0  0  0  0
   -1.1749    0.6534   -0.6787 C   0  0  0  0  0  0  0  0  0  0  0  0
   -1.8149    1.4502   -0.2974 H   0  0  0  0  0  0  0  0  0  0  0  0
   -0.1715    1.0668   -0.7930 H   0  0  0  0  0  0  0  0  0  0  0  0
   -1.7033    0.2347   -2.0371 C   0  0  0  0  0  0  0  0  0  0  0  0
   -2.3873   -0.9882   -2.1882 C   0  0  0  0  0  0  0  0  0  0  0  0
   -2.5150   -1.6457   -1.3382 H   0  0  0  0  0  0  0  0  0  0  0  0
   -2.9115   -1.3539   -3.4433 C   0  0  0  0  0  0  0  0  0  0  0  0
   -3.4334   -2.2918   -3.5558 H   0  0  0  0  0  0  0  0  0  0  0  0
   -2.7539   -0.4915   -4.5501 C   0  0  0  0  0  0  0  0  0  0  0  0
   -3.2583   -0.8337   -5.7641 O   0  0  0  0  0  0  0  0  0  0  0  0
   -3.6187   -1.7214   -5.7681 H   0  0  0  0  0  0  0  0  0  0  0  0
   -2.0734    0.7341   -4.3960 C   0  0  0  0  0  0  0  0  0  0  0  0
   -1.9555    1.3829   -5.2507 H   0  0  0  0  0  0  0  0  0  0  0  0
   -1.5466    1.0946   -3.1412 C   0  0  0  0  0  0  0  0  0  0  0  0
   -1.0158    2.0321   -3.0256 H   0  0  0  0  0  0  0  0  0  0  0  0
   -0.8664    0.0378    1.7736 C   0  0  0  0  0  0  0  0  0  0  0  0
    0.2529   -0.0672    2.2760 O   0  0  0  0  0  0  0  0  0  0  0  0
   -1.8947    0.5991    2.4221 N   0  0  0  0  0  0  0  0  0  0  0  0
   -2.7942    0.5936    1.9635 H   0  0  0  0  0  0  0  0  0  0  0  0
   -1.8170    1.1453    3.7750 C   0  0  0  0  0  0  0  0  0  0  0  0
   -0.9697    1.8290    3.8506 H   0  0  0  0  0  0  0  0  0  0  0  0
   -2.7354    1.6828    4.0167 H   0  0  0  0  0  0  0  0  0  0  0  0
   -1.6754    0.3334    4.4914 H   0  0  0  0  0  0  0  0  0  0  0  0
  5  6  2  0  0  0  0
  5  7  1  0  0  0  0
  2  3  1  0  0  0  0
  2  4  1  0  0  0  0
  2  5  1  0  0  0  0
  1  2  1  0  0  0  0
 26 27  2  0  0  0  0
 26 28  1  0  0  0  0
 24 25  1  0  0  0  0
 22 23  1  0  0  0  0
 22 24  2  0  0  0  0
 20 21  1  0  0  0  0
 19 20  1  0  0  0  0
 19 22  1  0  0  0  0
 17 18  1  0  0  0  0
 17 19  2  0  0  0  0
 15 16  1  0  0  0  0
 15 17  1  0  0  0  0
 14 15  2  0  0  0  0
 14 24  1  0  0  0  0
 11 12  1  0  0  0  0
 11 13  1  0  0  0  0
 11 14  1  0  0  0  0
  9 10  1  0  0  0  0
  9 11  1  0  0  0  0
  9 26  1  0  0  0  0
  7  8  1  0  0  0  0
  7  9  1  0  0  0  0
 30 31  1  0  0  0  0
 30 32  1  0  0  0  0
 30 33  1  0  0  0  0
 28 29  1  0  0  0  0
 28 30  1  0  0  0  0
M  END
$$$$
default_name
  -OEChem-02102213163D

 33 33  0     1  0  0  0  0  0999 V2000
   -4.0702   -3.8485    1.4554 H   0  0  0  0  0  0  0  0  0  0  0  0
   -4.0012   -2.9605    0.8284 C   0  0  0  0  0  0  0  0  0  0  0  0
   -4.7652   -2.2435    1.1234 H   0  0  0  0  0  0  0  0  0  0  0  0
   -4.1352   -3.2385   -0.2156 H   0  0  0  0  0  0  0  0  0  0  0  0
   -2.6362   -2.3395    1.0094 C   0  0  0  0  0  0  0  0  0  0  0  0
   -1.8292   -2.8395    1.7814 O   0  0  0  0  0  0  0  0  0  0  0  0
   -2.3832   -1.2445    0.2964 N   0  0  0  0  0  0  0  0  0  0  0  0
   -3.1102   -0.8685   -0.2946 H   0  0  0  0  0  0  0  0  0  0  0  0
   -1.1292   -0.4875    0.3524 C   0  0  1  0  0  0  0  0  0  0  0  0
   -0.3087   -1.1556    0.0882 H   0  0  0  0  0  0  0  0  0  0  0  0
   -1.1749    0.6534   -0.6787 C   0  0  0  0  0  0  0  0  0  0  0  0
   -1.8149    1.4502   -0.2974 H   0  0  0  0  0  0  0  0  0  0  0  0
   -0.1715    1.0668   -0.7930 H   0  0  0  0  0  0  0  0  0  0  0  0
   -1.7033    0.2347   -2.0371 C   0  0  0  0  0  0  0  0  0  0  0  0
   -2.6452   -0.8083   -2.1434 C   0  0  0  0  0  0  0  0  0  0  0  0
   -2.9753   -1.3321   -1.2559 H   0  0  0  0  0  0  0  0  0  0  0  0
   -3.1632   -1.1664   -3.4032 C   0  0  0  0  0  0  0  0  0  0  0  0
   -3.8832   -1.9666   -3.4811 H   0  0  0  0  0  0  0  0  0  0  0  0
   -2.7403   -0.4763   -4.5601 C   0  0  0  0  0  0  0  0  0  0  0  0
   -3.2362   -0.8121   -5.7793 O   0  0  0  0  0  0  0  0  0  0  0  0
   -3.7943   -1.5899   -5.7404 H   0  0  0  0  0  0  0  0  0  0  0  0
   -1.8014    0.5704   -4.4513 C   0  0  0  0  0  0  0  0  0  0  0  0
   -1.4825    1.0876   -5.3437 H   0  0  0  0  0  0  0  0  0  0  0  0
   -1.2819    0.9229   -3.1912 C   0  0  0  0  0  0  0  0  0  0  0  0
   -0.5536    1.7210   -3.1095 H   0  0  0  0  0  0  0  0  0  0  0  0
   -0.8664    0.0378    1.7736 C   0  0  0  0  0  0  0  0  0  0  0  0
    0.2529   -0.0672    2.2760 O   0  0  0  0  0  0  0  0  0  0  0  0
   -1.8947    0.5991    2.4221 N   0  0  0  0  0  0  0  0  0  0  0  0
   -2.7942    0.5936    1.9635 H   0  0  0  0  0  0  0  0  0  0  0  0
   -1.8170    1.1453    3.7750 C   0  0  0  0  0  0  0  0  0  0  0  0
   -0.9697    1.8290    3.8506 H   0  0  0  0  0  0  0  0  0  0  0  0
   -2.7354    1.6828    4.0167 H   0  0  0  0  0  0  0  0  0  0  0  0
   -1.6754    0.3334    4.4914 H   0  0  0  0  0  0  0  0  0  0  0  0
  5  6  2  0  0  0  0
  5  7  1  0  0  0  0
  2  3  1  0  0  0  0
  2  4  1  0  0  0  0
  2  5  1  0  0  0  0
  1  2  1  0  0  0  0
 26 27  2  0  0  0  0
 26 28  1  0  0  0  0
 24 25  1  0  0  0  0
 22 23  1  0  0  0  0
 22 24  2  0  0  0  0
 20 21  1  0  0  0  0
 19 20  1  0  0  0  0
 19 22  1  0  0  0  0
 17 18  1  0  0  0  0
 17 19  2  0  0  0  0
 15 16  1  0  0  0  0
 15 17  1  0  0  0  0
 14 15  2  0  0  0  0
 14 24  1  0  0  0  0
 11 12  1  0  0  0  0
 11 13  1  0  0  0  0
 11 14  1  0  0  0  0
  9 10  1  0  0  0  0
  9 11  1  0  0  0  0
  9 26  1  0  0  0  0
  7  8  1  0  0  0  0
  7  9  1  0  0  0  0
 30 31  1  0  0  0  0
 30 32  1  0  0  0  0
 30 33  1  0  0  0  0
 28 29  1  0  0  0  0
 28 30  1  0  0  0  0
M  END
$$$$
default_name
  -OEChem-02102213163D

 33 33  0     1  0  0  0  0  0999 V2000
   -4.0702   -3.8485    1.4554 H   0  0  0  0  0  0  0  0  0  0  0  0
   -4.0012   -2.9605    0.8284 C   0  0  0  0  0  0  0  0  0  0  0  0
   -4.7652   -2.2435    1.1234 H   0  0  0  0  0  0  0  0  0  0  0  0
   -4.1352   -3.2385   -0.2156 H   0  0  0  0  0  0  0  0  0  0  0  0
   -2.6362   -2.3395    1.0094 C   0  0  0  0  0  0  0  0  0  0  0  0
   -1.8292   -2.8395    1.7814 O   0  0  0  0  0  0  0  0  0  0  0  0
   -2.3832   -1.2445    0.2964 N   0  0  0  0  0  0  0  0  0  0  0  0
   -3.1102   -0.8685   -0.2946 H   0  0  0  0  0  0  0  0  0  0  0  0
   -1.1292   -0.4875    0.3524 C   0  0  1  0  0  0  0  0  0  0  0  0
   -0.3087   -1.1556    0.0882 H   0  0  0  0  0  0  0  0  0  0  0  0
   -1.1749    0.6534   -0.6787 C   0  0  0  0  0  0  0  0  0  0  0  0
   -1.8149    1.4502   -0.2974 H   0  0  0  0  0  0  0  0  0  0  0  0
   -0.1715    1.0668   -0.7930 H   0  0  0  0  0  0  0  0  0  0  0  0
   -1.7033    0.2347   -2.0371 C   0  0  0  0  0  0  0  0  0  0  0  0
   -2.8557   -0.5706   -2.1348 C   0  0  0  0  0  0  0  0  0  0  0  0
   -3.3531   -0.9150   -1.2375 H   0  0  0  0  0  0  0  0  0  0  0  0
   -3.3658   -0.9233   -3.3994 C   0  0  0  0  0  0  0  0  0  0  0  0
   -4.2476   -1.5414   -3.4705 H   0  0  0  0  0  0  0  0  0  0  0  0
   -2.7229   -0.4656   -4.5702 C   0  0  0  0  0  0  0  0  0  0  0  0
   -3.2087   -0.7978   -5.7944 O   0  0  0  0  0  0  0  0  0  0  0  0
   -3.9353   -1.4197   -5.7380 H   0  0  0  0  0  0  0  0  0  0  0  0
   -1.5726    0.3442   -4.4705 C   0  0  0  0  0  0  0  0  0  0  0  0
   -1.0874    0.6843   -5.3730 H   0  0  0  0  0  0  0  0  0  0  0  0
   -1.0625    0.6912   -3.2051 C   0  0  0  0  0  0  0  0  0  0  0  0
   -0.1733    1.3057   -3.1293 H   0  0  0  0  0  0  0  0  0  0  0  0
   -0.8664    0.0378    1.7736 C   0  0  0  0  0  0  0  0  0  0  0  0
    0.2529   -0.0672    2.2760 O   0  0  0  0  0  0  0  0  0  0  0  0
   -1.8947    0.5991    2.4221 N   0  0  0  0  0  0  0  0  0  0  0  0
   -2.7942    0.5936    1.9635 H   0  0  0  0  0  0  0  0  0  0  0  0
   -1.8170    1.1453    3.7750 C   0  0  0  0  0  0  0  0  0  0  0  0
   -0.9697    1.8290    3.8506 H   0  0  0  0  0  0  0  0  0  0  0  0
   -2.7354    1.6828    4.0167 H   0  0  0  0  0  0  0  0  0  0  0  0
   -1.6754    0.3334    4.4914 H   0  0  0  0  0  0  0  0  0  0  0  0
  5  6  2  0  0  0  0
  5  7  1  0  0  0  0
  2  3  1  0  0  0  0
  2  4  1  0  0  0  0
  2  5  1  0  0  0  0
  1  2  1  0  0  0  0
 26 27  2  0  0  0  0
 26 28  1  0  0  0  0
 24 25  1  0  0  0  0
 22 23  1  0  0  0  0
 22 24  2  0  0  0  0
 20 21  1  0  0  0  0
 19 20  1  0  0  0  0
 19 22  1  0  0  0  0
 17 18  1  0  0  0  0
 17 19  2  0  0  0  0
 15 16  1  0  0  0  0
 15 17  1  0  0  0  0
 14 15  2  0  0  0  0
 14 24  1  0  0  0  0
 11 12  1  0  0  0  0
 11 13  1  0  0  0  0
 11 14  1  0  0  0  0
  9 10  1  0  0  0  0
  9 11  1  0  0  0  0
  9 26  1  0  0  0  0
  7  8  1  0  0  0  0
  7  9  1  0  0  0  0
 30 31  1  0  0  0  0
 30 32  1  0  0  0  0
 30 33  1  0  0  0  0
 28 29  1  0  0  0  0
 28 30  1  0  0  0  0
M  END
$$$$
default_name
  -OEChem-02102213163D

 33 33  0     1  0  0  0  0  0999 V2000
   -4.0702   -3.8485    1.4554 H   0  0  0  0  0  0  0  0  0  0  0  0
   -4.0012   -2.9605    0.8284 C   0  0  0  0  0  0  0  0  0  0  0  0
   -4.7652   -2.2435    1.1234 H   0  0  0  0  0  0  0  0  0  0  0  0
   -4.1352   -3.2385   -0.2156 H   0  0  0  0  0  0  0  0  0  0  0  0
   -2.6362   -2.3395    1.0094 C   0  0  0  0  0  0  0  0  0  0  0  0
   -1.8292   -2.8395    1.7814 O   0  0  0  0  0  0  0  0  0  0  0  0
   -2.3832   -1.2445    0.2964 N   0  0  0  0  0  0  0  0  0  0  0  0
   -3.1102   -0.8685   -0.2946 H   0  0  0  0  0  0  0  0  0  0  0  0
   -1.1292   -0.4875    0.3524 C   0  0  1  0  0  0  0  0  0  0  0  0
   -0.3087   -1.1556    0.0882 H   0  0  0  0  0  0  0  0  0  0  0  0
   -1.1749    0.6534   -0.6787 C   0  0  0  0  0  0  0  0  0  0  0  0
   -1.8149    1.4502   -0.2974 H   0  0  0  0  0  0  0  0  0  0  0  0
   -0.1715    1.0668   -0.7930 H   0  0  0  0  0  0  0  0  0  0  0  0
   -1.7033    0.2347   -2.0371 C   0  0  0  0  0  0  0  0  0  0  0  0
   -3.0046   -0.2915   -2.1629 C   0  0  0  0  0  0  0  0  0  0  0  0
   -3.6227   -0.4229   -1.2844 H   0  0  0  0  0  0  0  0  0  0  0  0
   -3.5054   -0.6412   -3.4321 C   0  0  0  0  0  0  0  0  0  0  0  0
   -4.5018   -1.0453   -3.5245 H   0  0  0  0  0  0  0  0  0  0  0  0
   -2.7029   -0.4603   -4.5796 C   0  0  0  0  0  0  0  0  0  0  0  0
   -3.1778   -0.7917   -5.8083 O   0  0  0  0  0  0  0  0  0  0  0  0
   -4.0323   -1.2224   -5.7611 H   0  0  0  0  0  0  0  0  0  0  0  0
   -1.4027    0.0709   -4.4524 C   0  0  0  0  0  0  0  0  0  0  0  0
   -0.7971    0.2004   -5.3367 H   0  0  0  0  0  0  0  0  0  0  0  0
   -0.9033    0.4152   -3.1819 C   0  0  0  0  0  0  0  0  0  0  0  0
    0.0991    0.8146   -3.0839 H   0  0  0  0  0  0  0  0  0  0  0  0
   -0.8664    0.0378    1.7736 C   0  0  0  0  0  0  0  0  0  0  0  0
    0.2529   -0.0672    2.2760 O   0  0  0  0  0  0  0  0  0  0  0  0
   -1.8947    0.5991    2.4221 N   0  0  0  0  0  0  0  0  0  0  0  0
   -2.7942    0.5936    1.9635 H   0  0  0  0  0  0  0  0  0  0  0  0
   -1.8170    1.1453    3.7750 C   0  0  0  0  0  0  0  0  0  0  0  0
   -0.9697    1.8290    3.8506 H   0  0  0  0  0  0  0  0  0  0  0  0
   -2.7354    1.6828    4.0167 H   0  0  0  0  0  0  0  0  0  0  0  0
   -1.6754    0.3334    4.4914 H   0  0  0  0  0  0  0  0  0  0  0  0
  5  6  2  0  0  0  0
  5  7  1  0  0  0  0
  2  3  1  0  0  0  0
  2  4  1  0  0  0  0
  2  5  1  0  0  0  0
  1  2  1  0  0  0  0
 26 27  2  0  0  0  0
 26 28  1  0  0  0  0
 24 25  1  0  0  0  0
 22 23  1  0  0  0  0
 22 24  2  0  0  0  0
 20 21  1  0  0  0  0
 19 20  1  0  0  0  0
 19 22  1  0  0  0  0
 17 18  1  0  0  0  0
 17 19  2  0  0  0  0
 15 16  1  0  0  0  0
 15 17  1  0  0  0  0
 14 15  2  0  0  0  0
 14 24  1  0  0  0  0
 11 12  1  0  0  0  0
 11 13  1  0  0  0  0
 11 14  1  0  0  0  0
  9 10  1  0  0  0  0
  9 11  1  0  0  0  0
  9 26  1  0  0  0  0
  7  8  1  0  0  0  0
  7  9  1  0  0  0  0
 30 31  1  0  0  0  0
 30 32  1  0  0  0  0
 30 33  1  0  0  0  0
 28 29  1  0  0  0  0
 28 30  1  0  0  0  0
M  END
$$$$
default_name
  -OEChem-02102213163D

 33 33  0     1  0  0  0  0  0999 V2000
   -4.0702   -3.8485    1.4554 H   0  0  0  0  0  0  0  0  0  0  0  0
   -4.0012   -2.9605    0.8284 C   0  0  0  0  0  0  0  0  0  0  0  0
   -4.7652   -2.2435    1.1234 H   0  0  0  0  0  0  0  0  0  0  0  0
   -4.1352   -3.2385   -0.2156 H   0  0  0  0  0  0  0  0  0  0  0  0
   -2.6362   -2.3395    1.0094 C   0  0  0  0  0  0  0  0  0  0  0  0
   -1.8292   -2.8395    1.7814 O   0  0  0  0  0  0  0  0  0  0  0  0
   -2.3832   -1.2445    0.2964 N   0  0  0  0  0  0  0  0  0  0  0  0
   -3.1102   -0.8685   -0.2946 H   0  0  0  0  0  0  0  0  0  0  0  0
   -1.1292   -0.4875    0.3524 C   0  0  1  0  0  0  0  0  0  0  0  0
   -0.3087   -1.1556    0.0882 H   0  0  0  0  0  0  0  0  0  0  0  0
   -1.1749    0.6534   -0.6787 C   0  0  0  0  0  0  0  0  0  0  0  0
   -1.8149    1.4502   -0.2974 H   0  0  0  0  0  0  0  0  0  0  0  0
   -0.1715    1.0668   -0.7930 H   0  0  0  0  0  0  0  0  0  0  0  0
   -1.7033    0.2347   -2.0371 C   0  0  0  0  0  0  0  0  0  0  0  0
   -3.0817    0.0101   -2.2259 C   0  0  0  0  0  0  0  0  0  0  0  0
   -3.7656    0.1107   -1.3933 H   0  0  0  0  0  0  0  0  0  0  0  0
   -3.5725   -0.3393   -3.4991 C   0  0  0  0  0  0  0  0  0  0  0  0
   -4.6285   -0.5120   -3.6397 H   0  0  0  0  0  0  0  0  0  0  0  0
   -2.6817   -0.4606   -4.5878 C   0  0  0  0  0  0  0  0  0  0  0  0
   -3.1455   -0.7942   -5.8201 O   0  0  0  0  0  0  0  0  0  0  0  0
   -4.0786   -1.0114   -5.8082 H   0  0  0  0  0  0  0  0  0  0  0  0
   -1.3033   -0.2307   -4.3980 C   0  0  0  0  0  0  0  0  0  0  0  0
   -0.6316   -0.3309   -5.2373 H   0  0  0  0  0  0  0  0  0  0  0  0
   -0.8152    0.1138   -3.1233 C   0  0  0  0  0  0  0  0  0  0  0  0
    0.2452    0.2812   -2.9763 H   0  0  0  0  0  0  0  0  0  0  0  0
   -0.8664    0.0378    1.7736 C   0  0  0  0  0  0  0  0  0  0  0  0
    0.2529   -0.0672    2.2760 O   0  0  0  0  0  0  0  0  0  0  0  0
   -1.8947    0.5991    2.4221 N   0  0  0  0  0  0  0  0  0  0  0  0
   -2.7942    0.5936    1.9635 H   0  0  0  0  0  0  0  0  0  0  0  0
   -1.8170    1.1453    3.7750 C   0  0  0  0  0  0  0  0  0  0  0  0
   -0.9697    1.8290    3.8506 H   0  0  0  0  0  0  0  0  0  0  0  0
   -2.7354    1.6828    4.0167 H   0  0  0  0  0  0  0  0  0  0  0  0
   -1.6754    0.3334    4.4914 H   0  0  0  0  0  0  0  0  0  0  0  0
  5  6  2  0  0  0  0
  5  7  1  0  0  0  0
  2  3  1  0  0  0  0
  2  4  1  0  0  0  0
  2  5  1  0  0  0  0
  1  2  1  0  0  0  0
 26 27  2  0  0  0  0
 26 28  1  0  0  0  0
 24 25  1  0  0  0  0
 22 23  1  0  0  0  0
 22 24  2  0  0  0  0
 20 21  1  0  0  0  0
 19 20  1  0  0  0  0
 19 22  1  0  0  0  0
 17 18  1  0  0  0  0
 17 19  2  0  0  0  0
 15 16  1  0  0  0  0
 15 17  1  0  0  0  0
 14 15  2  0  0  0  0
 14 24  1  0  0  0  0
 11 12  1  0  0  0  0
 11 13  1  0  0  0  0
 11 14  1  0  0  0  0
  9 10  1  0  0  0  0
  9 11  1  0  0  0  0
  9 26  1  0  0  0  0
  7  8  1  0  0  0  0
  7  9  1  0  0  0  0
 30 31  1  0  0  0  0
 30 32  1  0  0  0  0
 30 33  1  0  0  0  0
 28 29  1  0  0  0  0
 28 30  1  0  0  0  0
M  END
$$$$
default_name
  -OEChem-02102213163D

 33 33  0     1  0  0  0  0  0999 V2000
   -4.0702   -3.8485    1.4554 H   0  0  0  0  0  0  0  0  0  0  0  0
   -4.0012   -2.9605    0.8284 C   0  0  0  0  0  0  0  0  0  0  0  0
   -4.7652   -2.2435    1.1234 H   0  0  0  0  0  0  0  0  0  0  0  0
   -4.1352   -3.2385   -0.2156 H   0  0  0  0  0  0  0  0  0  0  0  0
   -2.6362   -2.3395    1.0094 C   0  0  0  0  0  0  0  0  0  0  0  0
   -1.8292   -2.8395    1.7814 O   0  0  0  0  0  0  0  0  0  0  0  0
   -2.3832   -1.2445    0.2964 N   0  0  0  0  0  0  0  0  0  0  0  0
   -3.1102   -0.8685   -0.2946 H   0  0  0  0  0  0  0  0  0  0  0  0
   -1.1292   -0.4875    0.3524 C   0  0  1  0  0  0  0  0  0  0  0  0
   -0.3087   -1.1556    0.0882 H   0  0  0  0  0  0  0  0  0  0  0  0
   -1.1749    0.6534   -0.6787 C   0  0  0  0  0  0  0  0  0  0  0  0
   -1.8149    1.4502   -0.2974 H   0  0  0  0  0  0  0  0  0  0  0  0
   -0.1715    1.0668   -0.7930 H   0  0  0  0  0  0  0  0  0  0  0  0
   -1.7033    0.2347   -2.0371 C   0  0  0  0  0  0  0  0  0  0  0  0
   -3.0818    0.3136   -2.3195 C   0  0  0  0  0  0  0  0  0  0  0  0
   -3.7722    0.6495   -1.5568 H   0  0  0  0  0  0  0  0  0  0  0  0
   -3.5626   -0.0381   -3.5958 C   0  0  0  0  0  0  0  0  0  0  0  0
   -4.6189    0.0221   -3.8080 H   0  0  0  0  0  0  0  0  0  0  0  0
   -2.6607   -0.4666   -4.5941 C   0  0  0  0  0  0  0  0  0  0  0  0
   -3.1140   -0.8051   -5.8290 O   0  0  0  0  0  0  0  0  0  0  0  0
   -4.0710   -0.8010   -5.8760 H   0  0  0  0  0  0  0  0  0  0  0  0
   -1.2810   -0.5403   -4.3113 C   0  0  0  0  0  0  0  0  0  0  0  0
   -0.6019   -0.8736   -5.0815 H   0  0  0  0  0  0  0  0  0  0  0  0
   -0.8041   -0.1925   -3.0332 C   0  0  0  0  0  0  0  0  0  0  0  0
    0.2550   -0.2582   -2.8138 H   0  0  0  0  0  0  0  0  0  0  0  0
   -0.8664    0.0378    1.7736 C   0  0  0  0  0  0  0  0  0  0  0  0
    0.2529   -0.0672    2.2760 O   0  0  0  0  0  0  0  0  0  0  0  0
   -1.8947    0.5991    2.4221 N   0  0  0  0  0  0  0  0  0  0  0  0
   -2.7942    0.5936    1.9635 H   0  0  0  0  0  0  0  0  0  0  0  0
   -1.8170    1.1453    3.7750 C   0  0  0  0  0  0  0  0  0  0  0  0
   -0.9697    1.8290    3.8506 H   0  0  0  0  0  0  0  0  0  0  0  0
   -2.7354    1.6828    4.0167 H   0  0  0  0  0  0  0  0  0  0  0  0
   -1.6754    0.3334    4.4914 H   0  0  0  0  0  0  0  0  0  0  0  0
  5  6  2  0  0  0  0
  5  7  1  0  0  0  0
  2  3  1  0  0  0  0
  2  4  1  0  0  0  0
  2  5  1  0  0  0  0
  1  2  1  0  0  0  0
 26 27  2  0  0  0  0
 26 28  1  0  0  0  0
 24 25  1  0  0  0  0
 22 23  1  0  0  0  0
 22 24  2  0  0  0  0
 20 21  1  0  0  0  0
 19 20  1  0  0  0  0
 19 22  1  0  0  0  0
 17 18  1  0  0  0  0
 17 19  2  0  0  0  0
 15 16  1  0  0  0  0
 15 17  1  0  0  0  0
 14 15  2  0  0  0  0
 14 24  1  0  0  0  0
 11 12  1  0  0  0  0
 11 13  1  0  0  0  0
 11 14  1  0  0  0  0
  9 10  1  0  0  0  0
  9 11  1  0  0  0  0
  9 26  1  0  0  0  0
  7  8  1  0  0  0  0
  7  9  1  0  0  0  0
 30 31  1  0  0  0  0
 30 32  1  0  0  0  0
 30 33  1  0  0  0  0
 28 29  1  0  0  0  0
 28 30  1  0  0  0  0
M  END
$$$$
default_name
  -OEChem-02102213163D

 33 33  0     1  0  0  0  0  0999 V2000
   -4.0702   -3.8485    1.4554 H   0  0  0  0  0  0  0  0  0  0  0  0
   -4.0012   -2.9605    0.8284 C   0  0  0  0  0  0  0  0  0  0  0  0
   -4.7652   -2.2435    1.1234 H   0  0  0  0  0  0  0  0  0  0  0  0
   -4.1352   -3.2385   -0.2156 H   0  0  0  0  0  0  0  0  0  0  0  0
   -2.6362   -2.3395    1.0094 C   0  0  0  0  0  0  0  0  0  0  0  0
   -1.8292   -2.8395    1.7814 O   0  0  0  0  0  0  0  0  0  0  0  0
   -2.3832   -1.2445    0.2964 N   0  0  0  0  0  0  0  0  0  0  0  0
   -3.1102   -0.8685   -0.2946 H   0  0  0  0  0  0  0  0  0  0  0  0
   -1.1292   -0.4875    0.3524 C   0  0  1  0  0  0  0  0  0  0  0  0
   -0.3087   -1.1556    0.0882 H   0  0  0  0  0  0  0  0  0  0  0  0
   -1.1749    0.6534   -0.6787 C   0  0  0  0  0  0  0  0  0  0  0  0
   -1.8149    1.4502   -0.2974 H   0  0  0  0  0  0  0  0  0  0  0  0
   -0.1715    1.0668   -0.7930 H   0  0  0  0  0  0  0  0  0  0  0  0
   -1.7033    0.2347   -2.0371 C   0  0  0  0  0  0  0  0  0  0  0  0
   -3.0048    0.5983   -2.4372 C   0  0  0  0  0  0  0  0  0  0  0  0
   -3.6419    1.1566   -1.7639 H   0  0  0  0  0  0  0  0  0  0  0  0
   -3.4762    0.2418   -3.7157 C   0  0  0  0  0  0  0  0  0  0  0  0
   -4.4739    0.5205   -4.0181 H   0  0  0  0  0  0  0  0  0  0  0  0
   -2.6413   -0.4778   -4.5982 C   0  0  0  0  0  0  0  0  0  0  0  0
   -3.0856   -0.8238   -5.8343 O   0  0  0  0  0  0  0  0  0  0  0  0
   -4.0100   -0.6058   -5.9599 H   0  0  0  0  0  0  0  0  0  0  0  0
   -1.3375   -0.8366   -4.1979 C   0  0  0  0  0  0  0  0  0  0  0  0
   -0.7102   -1.3906   -4.8800 H   0  0  0  0  0  0  0  0  0  0  0  0
   -0.8708   -0.4828   -2.9177 C   0  0  0  0  0  0  0  0  0  0  0  0
    0.1277   -0.7668   -2.6075 H   0  0  0  0  0  0  0  0  0  0  0  0
   -0.8664    0.0378    1.7736 C   0  0  0  0  0  0  0  0  0  0  0  0
    0.2529   -0.0672    2.2760 O   0  0  0  0  0  0  0  0  0  0  0  0
   -1.8947    0.5991    2.4221 N   0  0  0  0  0  0  0  0  0  0  0  0
   -2.7942    0.5936    1.9635 H   0  0  0  0  0  0  0  0  0  0  0  0
   -1.8170    1.1453    3.7750 C   0  0  0  0  0  0  0  0  0  0  0  0
   -0.9697    1.8290    3.8506 H   0  0  0  0  0  0  0  0  0  0  0  0
   -2.7354    1.6828    4.0167 H   0  0  0  0  0  0  0  0  0  0  0  0
   -1.6754    0.3334    4.4914 H   0  0  0  0  0  0  0  0  0  0  0  0
  5  6  2  0  0  0  0
  5  7  1  0  0  0  0
  2  3  1  0  0  0  0
  2  4  1  0  0  0  0
  2  5  1  0  0  0  0
  1  2  1  0  0  0  0
 26 27  2  0  0  0  0
 26 28  1  0  0  0  0
 24 25  1  0  0  0  0
 22 23  1  0  0  0  0
 22 24  2  0  0  0  0
 20 21  1  0  0  0  0
 19 20  1  0  0  0  0
 19 22  1  0  0  0  0
 17 18  1  0  0  0  0
 17 19  2  0  0  0  0
 15 16  1  0  0  0  0
 15 17  1  0  0  0  0
 14 15  2  0  0  0  0
 14 24  1  0  0  0  0
 11 12  1  0  0  0  0
 11 13  1  0  0  0  0
 11 14  1  0  0  0  0
  9 10  1  0  0  0  0
  9 11  1  0  0  0  0
  9 26  1  0  0  0  0
  7  8  1  0  0  0  0
  7  9  1  0  0  0  0
 30 31  1  0  0  0  0
 30 32  1  0  0  0  0
 30 33  1  0  0  0  0
 28 29  1  0  0  0  0
 28 30  1  0  0  0  0
M  END
$$$$
default_name
  -OEChem-02102213163D

 33 33  0     1  0  0  0  0  0999 V2000
   -4.0702   -3.8485    1.4554 H   0  0  0  0  0  0  0  0  0  0  0  0
   -4.0012   -2.9605    0.8284 C   0  0  0  0  0  0  0  0  0  0  0  0
   -4.7652   -2.2435    1.1234 H   0  0  0  0  0  0  0  0  0  0  0  0
   -4.1352   -3.2385   -0.2156 H   0  0  0  0  0  0  0  0  0  0  0  0
   -2.6362   -2.3395    1.0094 C   0  0  0  0  0  0  0  0  0  0  0  0
   -1.8292   -2.8395    1.7814 O   0  0  0  0  0  0  0  0  0  0  0  0
   -2.3832   -1.2445    0.2964 N   0  0  0  0  0  0  0  0  0  0  0  0
   -3.1102   -0.8685   -0.2946 H   0  0  0  0  0  0  0  0  0  0  0  0
   -1.1292   -0.4875    0.3524 C   0  0  1  0  0  0  0  0  0  0  0  0
   -0.3087   -1.1556    0.0882 H   0  0  0  0  0  0  0  0  0  0  0  0
   -1.1749    0.6534   -0.6787 C   0  0  0  0  0  0  0  0  0  0  0  0
   -1.8149    1.4502   -0.2974 H   0  0  0  0  0  0  0  0  0  0  0  0
   -0.1715    1.0668   -0.7930 H   0  0  0  0  0  0  0  0  0  0  0  0
   -1.7033    0.2347   -2.0371 C   0  0  0  0  0  0  0  0  0  0  0  0
   -2.8559    0.8449   -2.5711 C   0  0  0  0  0  0  0  0  0  0  0  0
   -3.3837    1.5977   -2.0002 H   0  0  0  0  0  0  0  0  0  0  0  0
   -3.3193    0.4813   -3.8505 C   0  0  0  0  0  0  0  0  0  0  0  0
   -4.2032    0.9495   -4.2557 H   0  0  0  0  0  0  0  0  0  0  0  0
   -2.6249   -0.4935   -4.5997 C   0  0  0  0  0  0  0  0  0  0  0  0
   -3.0620   -0.8490   -5.8357 O   0  0  0  0  0  0  0  0  0  0  0  0
   -3.8999   -0.4388   -6.0542 H   0  0  0  0  0  0  0  0  0  0  0  0
   -1.4688   -1.0995   -4.0658 C   0  0  0  0  0  0  0  0  0  0  0  0
   -0.9491   -1.8467   -4.6465 H   0  0  0  0  0  0  0  0  0  0  0  0
   -1.0108   -0.7373   -2.7848 C   0  0  0  0  0  0  0  0  0  0  0  0
   -0.1279   -1.2100   -2.3714 H   0  0  0  0  0  0  0  0  0  0  0  0
   -0.8664    0.0378    1.7736 C   0  0  0  0  0  0  0  0  0  0  0  0
    0.2529   -0.0672    2.2760 O   0  0  0  0  0  0  0  0  0  0  0  0
   -1.8947    0.5991    2.4221 N   0  0  0  0  0  0  0  0  0  0  0  0
   -2.7942    0.5936    1.9635 H   0  0  0  0  0  0  0  0  0  0  0  0
   -1.8170    1.1453    3.7750 C   0  0  0  0  0  0  0  0  0  0  0  0
   -0.9697    1.8290    3.8506 H   0  0  0  0  0  0  0  0  0  0  0  0
   -2.7354    1.6828    4.0167 H   0  0  0  0  0  0  0  0  0  0  0  0
   -1.6754    0.3334    4.4914 H   0  0  0  0  0  0  0  0  0  0  0  0
  5  6  2  0  0  0  0
  5  7  1  0  0  0  0
  2  3  1  0  0  0  0
  2  4  1  0  0  0  0
  2  5  1  0  0  0  0
  1  2  1  0  0  0  0
 26 27  2  0  0  0  0
 26 28  1  0  0  0  0
 24 25  1  0  0  0  0
 22 23  1  0  0  0  0
 22 24  2  0  0  0  0
 20 21  1  0  0  0  0
 19 20  1  0  0  0  0
 19 22  1  0  0  0  0
 17 18  1  0  0  0  0
 17 19  2  0  0  0  0
 15 16  1  0  0  0  0
 15 17  1  0  0  0  0
 14 15  2  0  0  0  0
 14 24  1  0  0  0  0
 11 12  1  0  0  0  0
 11 13  1  0  0  0  0
 11 14  1  0  0  0  0
  9 10  1  0  0  0  0
  9 11  1  0  0  0  0
  9 26  1  0  0  0  0
  7  8  1  0  0  0  0
  7  9  1  0  0  0  0
 30 31  1  0  0  0  0
 30 32  1  0  0  0  0
 30 33  1  0  0  0  0
 28 29  1  0  0  0  0
 28 30  1  0  0  0  0
M  END
$$$$
default_name
  -OEChem-02102213163D

 33 33  0     1  0  0  0  0  0999 V2000
   -4.0702   -3.8485    1.4554 H   0  0  0  0  0  0  0  0  0  0  0  0
   -4.0012   -2.9605    0.8284 C   0  0  0  0  0  0  0  0  0  0  0  0
   -4.7652   -2.2435    1.1234 H   0  0  0  0  0  0  0  0  0  0  0  0
   -4.1352   -3.2385   -0.2156 H   0  0  0  0  0  0  0  0  0  0  0  0
   -2.6362   -2.3395    1.0094 C   0  0  0  0  0  0  0  0  0  0  0  0
   -1.8292   -2.8395    1.7814 O   0  0  0  0  0  0  0  0  0  0  0  0
   -2.3832   -1.2445    0.2964 N   0  0  0  0  0  0  0  0  0  0  0  0
   -3.1102   -0.8685   -0.2946 H   0  0  0  0  0  0  0  0  0  0  0  0
   -1.1292   -0.4875    0.3524 C   0  0  1  0  0  0  0  0  0  0  0  0
   -0.3087   -1.1556    0.0882 H   0  0  0  0  0  0  0  0  0  0  0  0
   -1.1749    0.6534   -0.6787 C   0  0  0  0  0  0  0  0  0  0  0  0
   -1.8149    1.4502   -0.2974 H   0  0  0  0  0  0  0  0  0  0  0  0
   -0.1715    1.0668   -0.7930 H   0  0  0  0  0  0  0  0  0  0  0  0
   -1.7033    0.2347   -2.0371 C   0  0  0  0  0  0  0  0  0  0  0  0
   -2.6455    1.0365   -2.7120 C   0  0  0  0  0  0  0  0  0  0  0  0
   -3.0152    1.9425   -2.2499 H   0  0  0  0  0  0  0  0  0  0  0  0
   -3.1026    0.6641   -3.9911 C   0  0  0  0  0  0  0  0  0  0  0  0
   -3.8253    1.2796   -4.5044 H   0  0  0  0  0  0  0  0  0  0  0  0
   -2.6126   -0.5126   -4.5986 C   0  0  0  0  0  0  0  0  0  0  0  0
   -3.0450   -0.8788   -5.8331 O   0  0  0  0  0  0  0  0  0  0  0  0
   -3.7481   -0.3116   -6.1524 H   0  0  0  0  0  0  0  0  0  0  0  0
   -1.6661   -1.3112   -3.9238 C   0  0  0  0  0  0  0  0  0  0  0  0
   -1.3023   -2.2108   -4.3969 H   0  0  0  0  0  0  0  0  0  0  0  0
   -1.2146   -0.9387   -2.6435 C   0  0  0  0  0  0  0  0  0  0  0  0
   -0.4944   -1.5576   -2.1217 H   0  0  0  0  0  0  0  0  0  0  0  0
   -0.8664    0.0378    1.7736 C   0  0  0  0  0  0  0  0  0  0  0  0
    0.2529   -0.0672    2.2760 O   0  0  0  0  0  0  0  0  0  0  0  0
   -1.8947    0.5991    2.4221 N   0  0  0  0  0  0  0  0  0  0  0  0
   -2.7942    0.5936    1.9635 H   0  0  0  0  0  0  0  0  0  0  0  0
   -1.8170    1.1453    3.7750 C   0  0  0  0  0  0  0  0  0  0  0  0
   -0.9697    1.8290    3.8506 H   0  0  0  0  0  0  0  0  0  0  0  0
   -2.7354    1.6828    4.0167 H   0  0  0  0  0  0  0  0  0  0  0  0
   -1.6754    0.3334    4.4914 H   0  0  0  0  0  0  0  0  0  0  0  0
  5  6  2  0  0  0  0
  5  7  1  0  0  0  0
  2  3  1  0  0  0  0
  2  4  1  0  0  0  0
  2  5  1  0  0  0  0
  1  2  1  0  0  0  0
 26 27  2  0  0  0  0
 26 28  1  0  0  0  0
 24 25  1  0  0  0  0
 22 23  1  0  0  0  0
 22 24  2  0  0  0  0
 20 21  1  0  0  0  0
 19 20  1  0  0  0  0
 19 22  1  0  0  0  0
 17 18  1  0  0  0  0
 17 19  2  0  0  0  0
 15 16  1  0  0  0  0
 15 17  1  0  0  0  0
 14 15  2  0  0  0  0
 14 24  1  0  0  0  0
 11 12  1  0  0  0  0
 11 13  1  0  0  0  0
 11 14  1  0  0  0  0
  9 10  1  0  0  0  0
  9 11  1  0  0  0  0
  9 26  1  0  0  0  0
  7  8  1  0  0  0  0
  7  9  1  0  0  0  0
 30 31  1  0  0  0  0
 30 32  1  0  0  0  0
 30 33  1  0  0  0  0
 28 29  1  0  0  0  0
 28 30  1  0  0  0  0
M  END
$$$$
default_name
  -OEChem-02102213163D

 33 33  0     1  0  0  0  0  0999 V2000
   -4.0702   -3.8485    1.4554 H   0  0  0  0  0  0  0  0  0  0  0  0
   -4.0012   -2.9605    0.8284 C   0  0  0  0  0  0  0  0  0  0  0  0
   -4.7652   -2.2435    1.1234 H   0  0  0  0  0  0  0  0  0  0  0  0
   -4.1352   -3.2385   -0.2156 H   0  0  0  0  0  0  0  0  0  0  0  0
   -2.6362   -2.3395    1.0094 C   0  0  0  0  0  0  0  0  0  0  0  0
   -1.8292   -2.8395    1.7814 O   0  0  0  0  0  0  0  0  0  0  0  0
   -2.3832   -1.2445    0.2964 N   0  0  0  0  0  0  0  0  0  0  0  0
   -3.1102   -0.8685   -0.2946 H   0  0  0  0  0  0  0  0  0  0  0  0
   -1.1292   -0.4875    0.3524 C   0  0  1  0  0  0  0  0  0  0  0  0
   -0.3087   -1.1556    0.0882 H   0  0  0  0  0  0  0  0  0  0  0  0
   -1.1749    0.6534   -0.6787 C   0  0  0  0  0  0  0  0  0  0  0  0
   -1.8149    1.4502   -0.2974 H   0  0  0  0  0  0  0  0  0  0  0  0
   -0.1715    1.0668   -0.7930 H   0  0  0  0  0  0  0  0  0  0  0  0
   -1.7033    0.2347   -2.0371 C   0  0  0  0  0  0  0  0  0  0  0  0
   -2.3877    1.1601   -2.8504 C   0  0  0  0  0  0  0  0  0  0  0  0
   -2.5614    2.1676   -2.4957 H   0  0  0  0  0  0  0  0  0  0  0  0
   -2.8409    0.7777   -4.1280 C   0  0  0  0  0  0  0  0  0  0  0  0
   -3.3660    1.4885   -4.7474 H   0  0  0  0  0  0  0  0  0  0  0  0
   -2.6052   -0.5338   -4.5950 C   0  0  0  0  0  0  0  0  0  0  0  0
   -3.0357   -0.9114   -5.8267 O   0  0  0  0  0  0  0  0  0  0  0  0
   -3.5649   -0.2328   -6.2480 H   0  0  0  0  0  0  0  0  0  0  0  0
   -1.9159   -1.4570   -3.7817 C   0  0  0  0  0  0  0  0  0  0  0  0
   -1.7457   -2.4582   -4.1482 H   0  0  0  0  0  0  0  0  0  0  0  0
   -1.4682   -1.0732   -2.5034 C   0  0  0  0  0  0  0  0  0  0  0  0
   -0.9468   -1.7858   -1.8754 H   0  0  0  0  0  0  0  0  0  0  0  0
   -0.8664    0.0378    1.7736 C   0  0  0  0  0  0  0  0  0  0  0  0
    0.2529   -0.0672    2.2760 O   0  0  0  0  0  0  0  0  0  0  0  0
   -1.8947    0.5991    2.4221 N   0  0  0  0  0  0  0  0  0  0  0  0
   -2.7942    0.5936    1.9635 H   0  0  0  0  0  0  0  0  0  0  0  0
   -1.8170    1.1453    3.7750 C   0  0  0  0  0  0  0  0  0  0  0  0
   -0.9697    1.8290    3.8506 H   0  0  0  0  0  0  0  0  0  0  0  0
   -2.7354    1.6828    4.0167 H   0  0  0  0  0  0  0  0  0  0  0  0
   -1.6754    0.3334    4.4914 H   0  0  0  0  0  0  0  0  0  0  0  0
  5  6  2  0  0  0  0
  5  7  1  0  0  0  0
  2  3  1  0  0  0  0
  2  4  1  0  0  0  0
  2  5  1  0  0  0  0
  1  2  1  0  0  0  0
 26 27  2  0  0  0  0
 26 28  1  0  0  0  0
 24 25  1  0  0  0  0
 22 23  1  0  0  0  0
 22 24  2  0  0  0  0
 20 21  1  0  0  0  0
 19 20  1  0  0  0  0
 19 22  1  0  0  0  0
 17 18  1  0  0  0  0
 17 19  2  0  0  0  0
 15 16  1  0  0  0  0
 15 17  1  0  0  0  0
 14 15  2  0  0  0  0
 14 24  1  0  0  0  0
 11 12  1  0  0  0  0
 11 13  1  0  0  0  0
 11 14  1  0  0  0  0
  9 10  1  0  0  0  0
  9 11  1  0  0  0  0
  9 26  1  0  0  0  0
  7  8  1  0  0  0  0
  7  9  1  0  0  0  0
 30 31  1  0  0  0  0
 30 32  1  0  0  0  0
 30 33  1  0  0  0  0
 28 29  1  0  0  0  0
 28 30  1  0  0  0  0
M  END
$$$$
default_name
  -OEChem-02102213163D

 33 33  0     1  0  0  0  0  0999 V2000
   -4.0702   -3.8485    1.4554 H   0  0  0  0  0  0  0  0  0  0  0  0
   -4.0012   -2.9605    0.8284 C   0  0  0  0  0  0  0  0  0  0  0  0
   -4.7652   -2.2435    1.1234 H   0  0  0  0  0  0  0  0  0  0  0  0
   -4.1352   -3.2385   -0.2156 H   0  0  0  0  0  0  0  0  0  0  0  0
   -2.6362   -2.3395    1.0094 C   0  0  0  0  0  0  0  0  0  0  0  0
   -1.8292   -2.8395    1.7814 O   0  0  0  0  0  0  0  0  0  0  0  0
   -2.3832   -1.2445    0.2964 N   0  0  0  0  0  0  0  0  0  0  0  0
   -3.1102   -0.8685   -0.2946 H   0  0  0  0  0  0  0  0  0  0  0  0
   -1.1292   -0.4875    0.3524 C   0  0  1  0  0  0  0  0  0  0  0  0
   -0.3087   -1.1556    0.0882 H   0  0  0  0  0  0  0  0  0  0  0  0
   -1.1749    0.6534   -0.6787 C   0  0  0  0  0  0  0  0  0  0  0  0
   -1.8149    1.4502   -0.2974 H   0  0  0  0  0  0  0  0  0  0  0  0
   -0.1715    1.0668   -0.7930 H   0  0  0  0  0  0  0  0  0  0  0  0
   -1.7033    0.2347   -2.0371 C   0  0  0  0  0  0  0  0  0  0  0  0
   -2.1001    1.2072   -2.9767 C   0  0  0  0  0  0  0  0  0  0  0  0
   -2.0534    2.2577   -2.7211 H   0  0  0  0  0  0  0  0  0  0  0  0
   -2.5519    0.8145   -4.2517 C   0  0  0  0  0  0  0  0  0  0  0  0
   -2.8565    1.5618   -4.9682 H   0  0  0  0  0  0  0  0  0  0  0  0
   -2.6033   -0.5556   -4.5890 C   0  0  0  0  0  0  0  0  0  0  0  0
   -3.0347   -0.9444   -5.8169 O   0  0  0  0  0  0  0  0  0  0  0  0
   -3.3629   -0.2078   -6.3343 H   0  0  0  0  0  0  0  0  0  0  0  0
   -2.2011   -1.5272   -3.6492 C   0  0  0  0  0  0  0  0  0  0  0  0
   -2.2491   -2.5718   -3.9173 H   0  0  0  0  0  0  0  0  0  0  0  0
   -1.7544   -1.1317   -2.3740 C   0  0  0  0  0  0  0  0  0  0  0  0
   -1.4543   -1.8792   -1.6493 H   0  0  0  0  0  0  0  0  0  0  0  0
   -0.8664    0.0378    1.7736 C   0  0  0  0  0  0  0  0  0  0  0  0
    0.2529   -0.0672    2.2760 O   0  0  0  0  0  0  0  0  0  0  0  0
   -1.8947    0.5991    2.4221 N   0  0  0  0  0  0  0  0  0  0  0  0
   -2.7942    0.5936    1.9635 H   0  0  0  0  0  0  0  0  0  0  0  0
   -1.8170    1.1453    3.7750 C   0  0  0  0  0  0  0  0  0  0  0  0
   -0.9697    1.8290    3.8506 H   0  0  0  0  0  0  0  0  0  0  0  0
   -2.7354    1.6828    4.0167 H   0  0  0  0  0  0  0  0  0  0  0  0
   -1.6754    0.3334    4.4914 H   0  0  0  0  0  0  0  0  0  0  0  0
  5  6  2  0  0  0  0
  5  7  1  0  0  0  0
  2  3  1  0  0  0  0
  2  4  1  0  0  0  0
  2  5  1  0  0  0  0
  1  2  1  0  0  0  0
 26 27  2  0  0  0  0
 26 28  1  0  0  0  0
 24 25  1  0  0  0  0
 22 23  1  0  0  0  0
 22 24  2  0  0  0  0
 20 21  1  0  0  0  0
 19 20  1  0  0  0  0
 19 22  1  0  0  0  0
 17 18  1  0  0  0  0
 17 19  2  0  0  0  0
 15 16  1  0  0  0  0
 15 17  1  0  0  0  0
 14 15  2  0  0  0  0
 14 24  1  0  0  0  0
 11 12  1  0  0  0  0
 11 13  1  0  0  0  0
 11 14  1  0  0  0  0
  9 10  1  0  0  0  0
  9 11  1  0  0  0  0
  9 26  1  0  0  0  0
  7  8  1  0  0  0  0
  7  9  1  0  0  0  0
 30 31  1  0  0  0  0
 30 32  1  0  0  0  0
 30 33  1  0  0  0  0
 28 29  1  0  0  0  0
 28 30  1  0  0  0  0
M  END
$$$$
default_name
  -OEChem-02102213163D

 33 33  0     1  0  0  0  0  0999 V2000
   -4.0702   -3.8485    1.4554 H   0  0  0  0  0  0  0  0  0  0  0  0
   -4.0012   -2.9605    0.8284 C   0  0  0  0  0  0  0  0  0  0  0  0
   -4.7652   -2.2435    1.1234 H   0  0  0  0  0  0  0  0  0  0  0  0
   -4.1352   -3.2385   -0.2156 H   0  0  0  0  0  0  0  0  0  0  0  0
   -2.6362   -2.3395    1.0094 C   0  0  0  0  0  0  0  0  0  0  0  0
   -1.8292   -2.8395    1.7814 O   0  0  0  0  0  0  0  0  0  0  0  0
   -2.3832   -1.2445    0.2964 N   0  0  0  0  0  0  0  0  0  0  0  0
   -3.1102   -0.8685   -0.2946 H   0  0  0  0  0  0  0  0  0  0  0  0
   -1.1292   -0.4875    0.3524 C   0  0  1  0  0  0  0  0  0  0  0  0
   -0.3087   -1.1556    0.0882 H   0  0  0  0  0  0  0  0  0  0  0  0
   -1.1749    0.6534   -0.6787 C   0  0  0  0  0  0  0  0  0  0  0  0
   -1.5821    1.5460   -0.2018 H   0  0  0  0  0  0  0  0  0  0  0  0
   -0.1563    0.8867   -0.9930 H   0  0  0  0  0  0  0  0  0  0  0  0
   -2.0192    0.3457   -1.9002 C   0  0  0  0  0  0  0  0  0  0  0  0
   -2.1540    1.2982   -2.9302 C   0  0  0  0  0  0  0  0  0  0  0  0
   -1.6754    2.2645   -2.8399 H   0  0  0  0  0  0  0  0  0  0  0  0
   -2.9061    0.9923   -4.0811 C   0  0  0  0  0  0  0  0  0  0  0  0
   -3.0085    1.7246   -4.8672 H   0  0  0  0  0  0  0  0  0  0  0  0
   -3.5222   -0.2722   -4.2037 C   0  0  0  0  0  0  0  0  0  0  0  0
   -4.2472   -0.5780   -5.3110 O   0  0  0  0  0  0  0  0  0  0  0  0
   -4.3454    0.1735   -5.8971 H   0  0  0  0  0  0  0  0  0  0  0  0
   -3.3822   -1.2259   -3.1742 C   0  0  0  0  0  0  0  0  0  0  0  0
   -3.8617   -2.1877   -3.2776 H   0  0  0  0  0  0  0  0  0  0  0  0
   -2.6337   -0.9155   -2.0230 C   0  0  0  0  0  0  0  0  0  0  0  0
   -2.5343   -1.6454   -1.2284 H   0  0  0  0  0  0  0  0  0  0  0  0
   -0.8664    0.0378    1.7736 C   0  0  0  0  0  0  0  0  0  0  0  0
    0.2529   -0.0672    2.2760 O   0  0  0  0  0  0  0  0  0  0  0  0
   -1.8947    0.5991    2.4221 N   0  0  0  0  0  0  0  0  0  0  0  0
   -2.7942    0.5936    1.9635 H   0  0  0  0  0  0  0  0  0  0  0  0
   -1.8170    1.1453    3.7750 C   0  0  0  0  0  0  0  0  0  0  0  0
   -0.9697    1.8290    3.8506 H   0  0  0  0  0  0  0  0  0  0  0  0
   -2.7354    1.6828    4.0167 H   0  0  0  0  0  0  0  0  0  0  0  0
   -1.6754    0.3334    4.4914 H   0  0  0  0  0  0  0  0  0  0  0  0
  5  6  2  0  0  0  0
  5  7  1  0  0  0  0
  2  3  1  0  0  0  0
  2  4  1  0  0  0  0
  2  5  1  0  0  0  0
  1  2  1  0  0  0  0
 26 27  2  0  0  0  0
 26 28  1  0  0  0  0
 24 25  1  0  0  0  0
 22 23  1  0  0  0  0
 22 24  2  0  0  0  0
 20 21  1  0  0  0  0
 19 20  1  0  0  0  0
 19 22  1  0  0  0  0
 17 18  1  0  0  0  0
 17 19  2  0  0  0  0
 15 16  1  0  0  0  0
 15 17  1  0  0  0  0
 14 15  2  0  0  0  0
 14 24  1  0  0  0  0
 11 12  1  0  0  0  0
 11 13  1  0  0  0  0
 11 14  1  0  0  0  0
  9 10  1  0  0  0  0
  9 11  1  0  0  0  0
  9 26  1  0  0  0  0
  7  8  1  0  0  0  0
  7  9  1  0  0  0  0
 30 31  1  0  0  0  0
 30 32  1  0  0  0  0
 30 33  1  0  0  0  0
 28 29  1  0  0  0  0
 28 30  1  0  0  0  0
M  END
$$$$
default_name
  -OEChem-02102213163D

 33 33  0     1  0  0  0  0  0999 V2000
   -4.0702   -3.8485    1.4554 H   0  0  0  0  0  0  0  0  0  0  0  0
   -4.0012   -2.9605    0.8284 C   0  0  0  0  0  0  0  0  0  0  0  0
   -4.7652   -2.2435    1.1234 H   0  0  0  0  0  0  0  0  0  0  0  0
   -4.1352   -3.2385   -0.2156 H   0  0  0  0  0  0  0  0  0  0  0  0
   -2.6362   -2.3395    1.0094 C   0  0  0  0  0  0  0  0  0  0  0  0
   -1.8292   -2.8395    1.7814 O   0  0  0  0  0  0  0  0  0  0  0  0
   -2.3832   -1.2445    0.2964 N   0  0  0  0  0  0  0  0  0  0  0  0
   -3.1102   -0.8685   -0.2946 H   0  0  0  0  0  0  0  0  0  0  0  0
   -1.1292   -0.4875    0.3524 C   0  0  1  0  0  0  0  0  0  0  0  0
   -0.3087   -1.1556    0.0882 H   0  0  0  0  0  0  0  0  0  0  0  0
   -1.1749    0.6534   -0.6787 C   0  0  0  0  0  0  0  0  0  0  0  0
   -1.5821    1.5460   -0.2018 H   0  0  0  0  0  0  0  0  0  0  0  0
   -0.1563    0.8867   -0.9930 H   0  0  0  0  0  0  0  0  0  0  0  0
   -2.0192    0.3457   -1.9002 C   0  0  0  0  0  0  0  0  0  0  0  0
   -1.9103    1.1405   -3.0589 C   0  0  0  0  0  0  0  0  0  0  0  0
   -1.2410    1.9908   -3.0711 H   0  0  0  0  0  0  0  0  0  0  0  0
   -2.6667    0.8262   -4.2047 C   0  0  0  0  0  0  0  0  0  0  0  0
   -2.5819    1.4379   -5.0897 H   0  0  0  0  0  0  0  0  0  0  0  0
   -3.5323   -0.2892   -4.1924 C   0  0  0  0  0  0  0  0  0  0  0  0
   -4.2639   -0.6024   -5.2933 O   0  0  0  0  0  0  0  0  0  0  0  0
   -4.1784    0.0569   -5.9832 H   0  0  0  0  0  0  0  0  0  0  0  0
   -3.6364   -1.0864   -3.0337 C   0  0  0  0  0  0  0  0  0  0  0  0
   -4.3050   -1.9340   -3.0351 H   0  0  0  0  0  0  0  0  0  0  0  0
   -2.8825   -0.7669   -1.8885 C   0  0  0  0  0  0  0  0  0  0  0  0
   -2.9699   -1.3744   -0.9955 H   0  0  0  0  0  0  0  0  0  0  0  0
   -0.8664    0.0378    1.7736 C   0  0  0  0  0  0  0  0  0  0  0  0
    0.2529   -0.0672    2.2760 O   0  0  0  0  0  0  0  0  0  0  0  0
   -1.8947    0.5991    2.4221 N   0  0  0  0  0  0  0  0  0  0  0  0
   -2.7942    0.5936    1.9635 H   0  0  0  0  0  0  0  0  0  0  0  0
   -1.8170    1.1453    3.7750 C   0  0  0  0  0  0  0  0  0  0  0  0
   -0.9697    1.8290    3.8506 H   0  0  0  0  0  0  0  0  0  0  0  0
   -2.7354    1.6828    4.0167 H   0  0  0  0  0  0  0  0  0  0  0  0
   -1.6754    0.3334    4.4914 H   0  0  0  0  0  0  0  0  0  0  0  0
  5  6  2  0  0  0  0
  5  7  1  0  0  0  0
  2  3  1  0  0  0  0
  2  4  1  0  0  0  0
  2  5  1  0  0  0  0
  1  2  1  0  0  0  0
 26 27  2  0  0  0  0
 26 28  1  0  0  0  0
 24 25  1  0  0  0  0
 22 23  1  0  0  0  0
 22 24  2  0  0  0  0
 20 21  1  0  0  0  0
 19 20  1  0  0  0  0
 19 22  1  0  0  0  0
 17 18  1  0  0  0  0
 17 19  2  0  0  0  0
 15 16  1  0  0  0  0
 15 17  1  0  0  0  0
 14 15  2  0  0  0  0
 14 24  1  0  0  0  0
 11 12  1  0  0  0  0
 11 13  1  0  0  0  0
 11 14  1  0  0  0  0
  9 10  1  0  0  0  0
  9 11  1  0  0  0  0
  9 26  1  0  0  0  0
  7  8  1  0  0  0  0
  7  9  1  0  0  0  0
 30 31  1  0  0  0  0
 30 32  1  0  0  0  0
 30 33  1  0  0  0  0
 28 29  1  0  0  0  0
 28 30  1  0  0  0  0
M  END
$$$$
default_name
  -OEChem-02102213163D

 33 33  0     1  0  0  0  0  0999 V2000
   -4.0702   -3.8485    1.4554 H   0  0  0  0  0  0  0  0  0  0  0  0
   -4.0012   -2.9605    0.8284 C   0  0  0  0  0  0  0  0  0  0  0  0
   -4.7652   -2.2435    1.1234 H   0  0  0  0  0  0  0  0  0  0  0  0
   -4.1352   -3.2385   -0.2156 H   0  0  0  0  0  0  0  0  0  0  0  0
   -2.6362   -2.3395    1.0094 C   0  0  0  0  0  0  0  0  0  0  0  0
   -1.8292   -2.8395    1.7814 O   0  0  0  0  0  0  0  0  0  0  0  0
   -2.3832   -1.2445    0.2964 N   0  0  0  0  0  0  0  0  0  0  0  0
   -3.1102   -0.8685   -0.2946 H   0  0  0  0  0  0  0  0  0  0  0  0
   -1.1292   -0.4875    0.3524 C   0  0  1  0  0  0  0  0  0  0  0  0
   -0.3087   -1.1556    0.0882 H   0  0  0  0  0  0  0  0  0  0  0  0
   -1.1749    0.6534   -0.6787 C   0  0  0  0  0  0  0  0  0  0  0  0
   -1.5821    1.5460   -0.2018 H   0  0  0  0  0  0  0  0  0  0  0  0
   -0.1563    0.8867   -0.9930 H   0  0  0  0  0  0  0  0  0  0  0  0
   -2.0192    0.3457   -1.9002 C   0  0  0  0  0  0  0  0  0  0  0  0
   -1.7009    0.9188   -3.1478 C   0  0  0  0  0  0  0  0  0  0  0  0
   -0.8664    1.6025   -3.2322 H   0  0  0  0  0  0  0  0  0  0  0  0
   -2.4636    0.5981   -4.2876 C   0  0  0  0  0  0  0  0  0  0  0  0
   -2.2180    1.0400   -5.2410 H   0  0  0  0  0  0  0  0  0  0  0  0
   -3.5462   -0.3019   -4.1797 C   0  0  0  0  0  0  0  0  0  0  0  0
   -4.2860   -0.6199   -5.2736 O   0  0  0  0  0  0  0  0  0  0  0  0
   -4.0369   -0.1029   -6.0407 H   0  0  0  0  0  0  0  0  0  0  0  0
   -3.8603   -0.8783   -2.9314 C   0  0  0  0  0  0  0  0  0  0  0  0
   -4.6930   -1.5617   -2.8608 H   0  0  0  0  0  0  0  0  0  0  0  0
   -3.0988   -0.5522   -1.7931 C   0  0  0  0  0  0  0  0  0  0  0  0
   -3.3465   -0.9882   -0.8326 H   0  0  0  0  0  0  0  0  0  0  0  0
   -0.8664    0.0378    1.7736 C   0  0  0  0  0  0  0  0  0  0  0  0
    0.2529   -0.0672    2.2760 O   0  0  0  0  0  0  0  0  0  0  0  0
   -1.8947    0.5991    2.4221 N   0  0  0  0  0  0  0  0  0  0  0  0
   -2.7942    0.5936    1.9635 H   0  0  0  0  0  0  0  0  0  0  0  0
   -1.8170    1.1453    3.7750 C   0  0  0  0  0  0  0  0  0  0  0  0
   -0.9697    1.8290    3.8506 H   0  0  0  0  0  0  0  0  0  0  0  0
   -2.7354    1.6828    4.0167 H   0  0  0  0  0  0  0  0  0  0  0  0
   -1.6754    0.3334    4.4914 H   0  0  0  0  0  0  0  0  0  0  0  0
  5  6  2  0  0  0  0
  5  7  1  0  0  0  0
  2  3  1  0  0  0  0
  2  4  1  0  0  0  0
  2  5  1  0  0  0  0
  1  2  1  0  0  0  0
 26 27  2  0  0  0  0
 26 28  1  0  0  0  0
 24 25  1  0  0  0  0
 22 23  1  0  0  0  0
 22 24  2  0  0  0  0
 20 21  1  0  0  0  0
 19 20  1  0  0  0  0
 19 22  1  0  0  0  0
 17 18  1  0  0  0  0
 17 19  2  0  0  0  0
 15 16  1  0  0  0  0
 15 17  1  0  0  0  0
 14 15  2  0  0  0  0
 14 24  1  0  0  0  0
 11 12  1  0  0  0  0
 11 13  1  0  0  0  0
 11 14  1  0  0  0  0
  9 10  1  0  0  0  0
  9 11  1  0  0  0  0
  9 26  1  0  0  0  0
  7  8  1  0  0  0  0
  7  9  1  0  0  0  0
 30 31  1  0  0  0  0
 30 32  1  0  0  0  0
 30 33  1  0  0  0  0
 28 29  1  0  0  0  0
 28 30  1  0  0  0  0
M  END
$$$$
default_name
  -OEChem-02102213163D

 33 33  0     1  0  0  0  0  0999 V2000
   -4.0702   -3.8485    1.4554 H   0  0  0  0  0  0  0  0  0  0  0  0
   -4.0012   -2.9605    0.8284 C   0  0  0  0  0  0  0  0  0  0  0  0
   -4.7652   -2.2435    1.1234 H   0  0  0  0  0  0  0  0  0  0  0  0
   -4.1352   -3.2385   -0.2156 H   0  0  0  0  0  0  0  0  0  0  0  0
   -2.6362   -2.3395    1.0094 C   0  0  0  0  0  0  0  0  0  0  0  0
   -1.8292   -2.8395    1.7814 O   0  0  0  0  0  0  0  0  0  0  0  0
   -2.3832   -1.2445    0.2964 N   0  0  0  0  0  0  0  0  0  0  0  0
   -3.1102   -0.8685   -0.2946 H   0  0  0  0  0  0  0  0  0  0  0  0
   -1.1292   -0.4875    0.3524 C   0  0  1  0  0  0  0  0  0  0  0  0
   -0.3087   -1.1556    0.0882 H   0  0  0  0  0  0  0  0  0  0  0  0
   -1.1749    0.6534   -0.6787 C   0  0  0  0  0  0  0  0  0  0  0  0
   -1.5821    1.5460   -0.2018 H   0  0  0  0  0  0  0  0  0  0  0  0
   -0.1563    0.8867   -0.9930 H   0  0  0  0  0  0  0  0  0  0  0  0
   -2.0192    0.3457   -1.9002 C   0  0  0  0  0  0  0  0  0  0  0  0
   -1.5402    0.6482   -3.1907 C   0  0  0  0  0  0  0  0  0  0  0  0
   -0.5770    1.1262   -3.3122 H   0  0  0  0  0  0  0  0  0  0  0  0
   -2.3107    0.3235   -4.3242 C   0  0  0  0  0  0  0  0  0  0  0  0
   -1.9415    0.5580   -5.3107 H   0  0  0  0  0  0  0  0  0  0  0  0
   -3.5629   -0.3095   -4.1662 C   0  0  0  0  0  0  0  0  0  0  0  0
   -4.3121   -0.6294   -5.2531 O   0  0  0  0  0  0  0  0  0  0  0  0
   -3.9305   -0.2950   -6.0659 H   0  0  0  0  0  0  0  0  0  0  0  0
   -4.0384   -0.6159   -2.8744 C   0  0  0  0  0  0  0  0  0  0  0  0
   -4.9994   -1.0960   -2.7664 H   0  0  0  0  0  0  0  0  0  0  0  0
   -3.2681   -0.2859   -1.7432 C   0  0  0  0  0  0  0  0  0  0  0  0
   -3.6383   -0.5133   -0.7505 H   0  0  0  0  0  0  0  0  0  0  0  0
   -0.8664    0.0378    1.7736 C   0  0  0  0  0  0  0  0  0  0  0  0
    0.2529   -0.0672    2.2760 O   0  0  0  0  0  0  0  0  0  0  0  0
   -1.8947    0.5991    2.4221 N   0  0  0  0  0  0  0  0  0  0  0  0
   -2.7942    0.5936    1.9635 H   0  0  0  0  0  0  0  0  0  0  0  0
   -1.8170    1.1453    3.7750 C   0  0  0  0  0  0  0  0  0  0  0  0
   -0.9697    1.8290    3.8506 H   0  0  0  0  0  0  0  0  0  0  0  0
   -2.7354    1.6828    4.0167 H   0  0  0  0  0  0  0  0  0  0  0  0
   -1.6754    0.3334    4.4914 H   0  0  0  0  0  0  0  0  0  0  0  0
  5  6  2  0  0  0  0
  5  7  1  0  0  0  0
  2  3  1  0  0  0  0
  2  4  1  0  0  0  0
  2  5  1  0  0  0  0
  1  2  1  0  0  0  0
 26 27  2  0  0  0  0
 26 28  1  0  0  0  0
 24 25  1  0  0  0  0
 22 23  1  0  0  0  0
 22 24  2  0  0  0  0
 20 21  1  0  0  0  0
 19 20  1  0  0  0  0
 19 22  1  0  0  0  0
 17 18  1  0  0  0  0
 17 19  2  0  0  0  0
 15 16  1  0  0  0  0
 15 17  1  0  0  0  0
 14 15  2  0  0  0  0
 14 24  1  0  0  0  0
 11 12  1  0  0  0  0
 11 13  1  0  0  0  0
 11 14  1  0  0  0  0
  9 10  1  0  0  0  0
  9 11  1  0  0  0  0
  9 26  1  0  0  0  0
  7  8  1  0  0  0  0
  7  9  1  0  0  0  0
 30 31  1  0  0  0  0
 30 32  1  0  0  0  0
 30 33  1  0  0  0  0
 28 29  1  0  0  0  0
 28 30  1  0  0  0  0
M  END
$$$$
default_name
  -OEChem-02102213163D

 33 33  0     1  0  0  0  0  0999 V2000
   -4.0702   -3.8485    1.4554 H   0  0  0  0  0  0  0  0  0  0  0  0
   -4.0012   -2.9605    0.8284 C   0  0  0  0  0  0  0  0  0  0  0  0
   -4.7652   -2.2435    1.1234 H   0  0  0  0  0  0  0  0  0  0  0  0
   -4.1352   -3.2385   -0.2156 H   0  0  0  0  0  0  0  0  0  0  0  0
   -2.6362   -2.3395    1.0094 C   0  0  0  0  0  0  0  0  0  0  0  0
   -1.8292   -2.8395    1.7814 O   0  0  0  0  0  0  0  0  0  0  0  0
   -2.3832   -1.2445    0.2964 N   0  0  0  0  0  0  0  0  0  0  0  0
   -3.1102   -0.8685   -0.2946 H   0  0  0  0  0  0  0  0  0  0  0  0
   -1.1292   -0.4875    0.3524 C   0  0  1  0  0  0  0  0  0  0  0  0
   -0.3087   -1.1556    0.0882 H   0  0  0  0  0  0  0  0  0  0  0  0
   -1.1749    0.6534   -0.6787 C   0  0  0  0  0  0  0  0  0  0  0  0
   -1.5821    1.5460   -0.2018 H   0  0  0  0  0  0  0  0  0  0  0  0
   -0.1563    0.8867   -0.9930 H   0  0  0  0  0  0  0  0  0  0  0  0
   -2.0192    0.3457   -1.9002 C   0  0  0  0  0  0  0  0  0  0  0  0
   -1.4392    0.3472   -3.1847 C   0  0  0  0  0  0  0  0  0  0  0  0
   -0.3926    0.5943   -3.3057 H   0  0  0  0  0  0  0  0  0  0  0  0
   -2.2183    0.0210   -4.3119 C   0  0  0  0  0  0  0  0  0  0  0  0
   -1.7712    0.0247   -5.2941 H   0  0  0  0  0  0  0  0  0  0  0  0
   -3.5813   -0.3113   -4.1530 C   0  0  0  0  0  0  0  0  0  0  0  0
   -4.3404   -0.6302   -5.2334 O   0  0  0  0  0  0  0  0  0  0  0  0
   -3.8664   -0.5065   -6.0569 H   0  0  0  0  0  0  0  0  0  0  0  0
   -4.1589   -0.3171   -2.8664 C   0  0  0  0  0  0  0  0  0  0  0  0
   -5.2032   -0.5687   -2.7584 H   0  0  0  0  0  0  0  0  0  0  0  0
   -3.3787    0.0138   -1.7422 C   0  0  0  0  0  0  0  0  0  0  0  0
   -3.8254    0.0182   -0.7551 H   0  0  0  0  0  0  0  0  0  0  0  0
   -0.8664    0.0378    1.7736 C   0  0  0  0  0  0  0  0  0  0  0  0
    0.2529   -0.0672    2.2760 O   0  0  0  0  0  0  0  0  0  0  0  0
   -1.8947    0.5991    2.4221 N   0  0  0  0  0  0  0  0  0  0  0  0
   -2.7942    0.5936    1.9635 H   0  0  0  0  0  0  0  0  0  0  0  0
   -1.8170    1.1453    3.7750 C   0  0  0  0  0  0  0  0  0  0  0  0
   -0.9697    1.8290    3.8506 H   0  0  0  0  0  0  0  0  0  0  0  0
   -2.7354    1.6828    4.0167 H   0  0  0  0  0  0  0  0  0  0  0  0
   -1.6754    0.3334    4.4914 H   0  0  0  0  0  0  0  0  0  0  0  0
  5  6  2  0  0  0  0
  5  7  1  0  0  0  0
  2  3  1  0  0  0  0
  2  4  1  0  0  0  0
  2  5  1  0  0  0  0
  1  2  1  0  0  0  0
 26 27  2  0  0  0  0
 26 28  1  0  0  0  0
 24 25  1  0  0  0  0
 22 23  1  0  0  0  0
 22 24  2  0  0  0  0
 20 21  1  0  0  0  0
 19 20  1  0  0  0  0
 19 22  1  0  0  0  0
 17 18  1  0  0  0  0
 17 19  2  0  0  0  0
 15 16  1  0  0  0  0
 15 17  1  0  0  0  0
 14 15  2  0  0  0  0
 14 24  1  0  0  0  0
 11 12  1  0  0  0  0
 11 13  1  0  0  0  0
 11 14  1  0  0  0  0
  9 10  1  0  0  0  0
  9 11  1  0  0  0  0
  9 26  1  0  0  0  0
  7  8  1  0  0  0  0
  7  9  1  0  0  0  0
 30 31  1  0  0  0  0
 30 32  1  0  0  0  0
 30 33  1  0  0  0  0
 28 29  1  0  0  0  0
 28 30  1  0  0  0  0
M  END
$$$$
default_name
  -OEChem-02102213163D

 33 33  0     1  0  0  0  0  0999 V2000
   -4.0702   -3.8485    1.4554 H   0  0  0  0  0  0  0  0  0  0  0  0
   -4.0012   -2.9605    0.8284 C   0  0  0  0  0  0  0  0  0  0  0  0
   -4.7652   -2.2435    1.1234 H   0  0  0  0  0  0  0  0  0  0  0  0
   -4.1352   -3.2385   -0.2156 H   0  0  0  0  0  0  0  0  0  0  0  0
   -2.6362   -2.3395    1.0094 C   0  0  0  0  0  0  0  0  0  0  0  0
   -1.8292   -2.8395    1.7814 O   0  0  0  0  0  0  0  0  0  0  0  0
   -2.3832   -1.2445    0.2964 N   0  0  0  0  0  0  0  0  0  0  0  0
   -3.1102   -0.8685   -0.2946 H   0  0  0  0  0  0  0  0  0  0  0  0
   -1.1292   -0.4875    0.3524 C   0  0  1  0  0  0  0  0  0  0  0  0
   -0.3087   -1.1556    0.0882 H   0  0  0  0  0  0  0  0  0  0  0  0
   -1.1749    0.6534   -0.6787 C   0  0  0  0  0  0  0  0  0  0  0  0
   -1.5821    1.5460   -0.2018 H   0  0  0  0  0  0  0  0  0  0  0  0
   -0.1563    0.8867   -0.9930 H   0  0  0  0  0  0  0  0  0  0  0  0
   -2.0192    0.3457   -1.9002 C   0  0  0  0  0  0  0  0  0  0  0  0
   -1.4047    0.0362   -3.1302 C   0  0  0  0  0  0  0  0  0  0  0  0
   -0.3257    0.0429   -3.2130 H   0  0  0  0  0  0  0  0  0  0  0  0
   -2.1927   -0.2886   -4.2515 C   0  0  0  0  0  0  0  0  0  0  0  0
   -1.7188   -0.5235   -5.1922 H   0  0  0  0  0  0  0  0  0  0  0  0
   -3.6002   -0.3074   -4.1410 C   0  0  0  0  0  0  0  0  0  0  0  0
   -4.3688   -0.6222   -5.2157 O   0  0  0  0  0  0  0  0  0  0  0  0
   -3.8491   -0.7227   -6.0143 H   0  0  0  0  0  0  0  0  0  0  0  0
   -4.2133   -0.0022   -2.9081 C   0  0  0  0  0  0  0  0  0  0  0  0
   -5.2905   -0.0157   -2.8373 H   0  0  0  0  0  0  0  0  0  0  0  0
   -3.4231    0.3265   -1.7903 C   0  0  0  0  0  0  0  0  0  0  0  0
   -3.8951    0.5699   -0.8459 H   0  0  0  0  0  0  0  0  0  0  0  0
   -0.8664    0.0378    1.7736 C   0  0  0  0  0  0  0  0  0  0  0  0
    0.2529   -0.0672    2.2760 O   0  0  0  0  0  0  0  0  0  0  0  0
   -1.8947    0.5991    2.4221 N   0  0  0  0  0  0  0  0  0  0  0  0
   -2.7942    0.5936    1.9635 H   0  0  0  0  0  0  0  0  0  0  0  0
   -1.8170    1.1453    3.7750 C   0  0  0  0  0  0  0  0  0  0  0  0
   -0.9697    1.8290    3.8506 H   0  0  0  0  0  0  0  0  0  0  0  0
   -2.7354    1.6828    4.0167 H   0  0  0  0  0  0  0  0  0  0  0  0
   -1.6754    0.3334    4.4914 H   0  0  0  0  0  0  0  0  0  0  0  0
  5  6  2  0  0  0  0
  5  7  1  0  0  0  0
  2  3  1  0  0  0  0
  2  4  1  0  0  0  0
  2  5  1  0  0  0  0
  1  2  1  0  0  0  0
 26 27  2  0  0  0  0
 26 28  1  0  0  0  0
 24 25  1  0  0  0  0
 22 23  1  0  0  0  0
 22 24  2  0  0  0  0
 20 21  1  0  0  0  0
 19 20  1  0  0  0  0
 19 22  1  0  0  0  0
 17 18  1  0  0  0  0
 17 19  2  0  0  0  0
 15 16  1  0  0  0  0
 15 17  1  0  0  0  0
 14 15  2  0  0  0  0
 14 24  1  0  0  0  0
 11 12  1  0  0  0  0
 11 13  1  0  0  0  0
 11 14  1  0  0  0  0
  9 10  1  0  0  0  0
  9 11  1  0  0  0  0
  9 26  1  0  0  0  0
  7  8  1  0  0  0  0
  7  9  1  0  0  0  0
 30 31  1  0  0  0  0
 30 32  1  0  0  0  0
 30 33  1  0  0  0  0
 28 29  1  0  0  0  0
 28 30  1  0  0  0  0
M  END
$$$$
default_name
  -OEChem-02102213163D

 33 33  0     1  0  0  0  0  0999 V2000
   -4.0702   -3.8485    1.4554 H   0  0  0  0  0  0  0  0  0  0  0  0
   -4.0012   -2.9605    0.8284 C   0  0  0  0  0  0  0  0  0  0  0  0
   -4.7652   -2.2435    1.1234 H   0  0  0  0  0  0  0  0  0  0  0  0
   -4.1352   -3.2385   -0.2156 H   0  0  0  0  0  0  0  0  0  0  0  0
   -2.6362   -2.3395    1.0094 C   0  0  0  0  0  0  0  0  0  0  0  0
   -1.8292   -2.8395    1.7814 O   0  0  0  0  0  0  0  0  0  0  0  0
   -2.3832   -1.2445    0.2964 N   0  0  0  0  0  0  0  0  0  0  0  0
   -3.1102   -0.8685   -0.2946 H   0  0  0  0  0  0  0  0  0  0  0  0
   -1.1292   -0.4875    0.3524 C   0  0  1  0  0  0  0  0  0  0  0  0
   -0.3087   -1.1556    0.0882 H   0  0  0  0  0  0  0  0  0  0  0  0
   -1.1749    0.6534   -0.6787 C   0  0  0  0  0  0  0  0  0  0  0  0
   -1.5821    1.5460   -0.2018 H   0  0  0  0  0  0  0  0  0  0  0  0
   -0.1563    0.8867   -0.9930 H   0  0  0  0  0  0  0  0  0  0  0  0
   -2.0192    0.3457   -1.9002 C   0  0  0  0  0  0  0  0  0  0  0  0
   -1.4390   -0.2635   -3.0309 C   0  0  0  0  0  0  0  0  0  0  0  0
   -0.3809   -0.4902   -3.0405 H   0  0  0  0  0  0  0  0  0  0  0  0
   -2.2357   -0.5843   -4.1473 C   0  0  0  0  0  0  0  0  0  0  0  0
   -1.7878   -1.0493   -5.0120 H   0  0  0  0  0  0  0  0  0  0  0  0
   -3.6182   -0.2979   -4.1309 C   0  0  0  0  0  0  0  0  0  0  0  0
   -4.3956   -0.6060   -5.2013 O   0  0  0  0  0  0  0  0  0  0  0  0
   -3.8797   -0.9291   -5.9412 H   0  0  0  0  0  0  0  0  0  0  0  0
   -4.1980    0.3073   -2.9967 C   0  0  0  0  0  0  0  0  0  0  0  0
   -5.2554    0.5252   -2.9979 H   0  0  0  0  0  0  0  0  0  0  0  0
   -3.3982    0.6308   -1.8842 C   0  0  0  0  0  0  0  0  0  0  0  0
   -3.8427    1.1042   -1.0168 H   0  0  0  0  0  0  0  0  0  0  0  0
   -0.8664    0.0378    1.7736 C   0  0  0  0  0  0  0  0  0  0  0  0
    0.2529   -0.0672    2.2760 O   0  0  0  0  0  0  0  0  0  0  0  0
   -1.8947    0.5991    2.4221 N   0  0  0  0  0  0  0  0  0  0  0  0
   -2.7942    0.5936    1.9635 H   0  0  0  0  0  0  0  0  0  0  0  0
   -1.8170    1.1453    3.7750 C   0  0  0  0  0  0  0  0  0  0  0  0
   -0.9697    1.8290    3.8506 H   0  0  0  0  0  0  0  0  0  0  0  0
   -2.7354    1.6828    4.0167 H   0  0  0  0  0  0  0  0  0  0  0  0
   -1.6754    0.3334    4.4914 H   0  0  0  0  0  0  0  0  0  0  0  0
  5  6  2  0  0  0  0
  5  7  1  0  0  0  0
  2  3  1  0  0  0  0
  2  4  1  0  0  0  0
  2  5  1  0  0  0  0
  1  2  1  0  0  0  0
 26 27  2  0  0  0  0
 26 28  1  0  0  0  0
 24 25  1  0  0  0  0
 22 23  1  0  0  0  0
 22 24  2  0  0  0  0
 20 21  1  0  0  0  0
 19 20  1  0  0  0  0
 19 22  1  0  0  0  0
 17 18  1  0  0  0  0
 17 19  2  0  0  0  0
 15 16  1  0  0  0  0
 15 17  1  0  0  0  0
 14 15  2  0  0  0  0
 14 24  1  0  0  0  0
 11 12  1  0  0  0  0
 11 13  1  0  0  0  0
 11 14  1  0  0  0  0
  9 10  1  0  0  0  0
  9 11  1  0  0  0  0
  9 26  1  0  0  0  0
  7  8  1  0  0  0  0
  7  9  1  0  0  0  0
 30 31  1  0  0  0  0
 30 32  1  0  0  0  0
 30 33  1  0  0  0  0
 28 29  1  0  0  0  0
 28 30  1  0  0  0  0
M  END
$$$$
default_name
  -OEChem-02102213163D

 33 33  0     1  0  0  0  0  0999 V2000
   -4.0702   -3.8485    1.4554 H   0  0  0  0  0  0  0  0  0  0  0  0
   -4.0012   -2.9605    0.8284 C   0  0  0  0  0  0  0  0  0  0  0  0
   -4.7652   -2.2435    1.1234 H   0  0  0  0  0  0  0  0  0  0  0  0
   -4.1352   -3.2385   -0.2156 H   0  0  0  0  0  0  0  0  0  0  0  0
   -2.6362   -2.3395    1.0094 C   0  0  0  0  0  0  0  0  0  0  0  0
   -1.8292   -2.8395    1.7814 O   0  0  0  0  0  0  0  0  0  0  0  0
   -2.3832   -1.2445    0.2964 N   0  0  0  0  0  0  0  0  0  0  0  0
   -3.1102   -0.8685   -0.2946 H   0  0  0  0  0  0  0  0  0  0  0  0
   -1.1292   -0.4875    0.3524 C   0  0  1  0  0  0  0  0  0  0  0  0
   -0.3087   -1.1556    0.0882 H   0  0  0  0  0  0  0  0  0  0  0  0
   -1.1749    0.6534   -0.6787 C   0  0  0  0  0  0  0  0  0  0  0  0
   -1.5821    1.5460   -0.2018 H   0  0  0  0  0  0  0  0  0  0  0  0
   -0.1563    0.8867   -0.9930 H   0  0  0  0  0  0  0  0  0  0  0  0
   -2.0192    0.3457   -1.9002 C   0  0  0  0  0  0  0  0  0  0  0  0
   -1.5399   -0.5316   -2.8936 C   0  0  0  0  0  0  0  0  0  0  0  0
   -0.5545   -0.9688   -2.8000 H   0  0  0  0  0  0  0  0  0  0  0  0
   -2.3444   -0.8459   -4.0063 C   0  0  0  0  0  0  0  0  0  0  0  0
   -1.9735   -1.5168   -4.7658 H   0  0  0  0  0  0  0  0  0  0  0  0
   -3.6342   -0.2836   -4.1235 C   0  0  0  0  0  0  0  0  0  0  0  0
   -4.4189   -0.5827   -5.1911 O   0  0  0  0  0  0  0  0  0  0  0  0
   -3.9562   -1.1116   -5.8424 H   0  0  0  0  0  0  0  0  0  0  0  0
   -4.1141    0.5903   -3.1260 C   0  0  0  0  0  0  0  0  0  0  0  0
   -5.1003    1.0173   -3.2290 H   0  0  0  0  0  0  0  0  0  0  0  0
   -3.3059    0.9061   -2.0174 C   0  0  0  0  0  0  0  0  0  0  0  0
   -3.6717    1.5848   -1.2561 H   0  0  0  0  0  0  0  0  0  0  0  0
   -0.8664    0.0378    1.7736 C   0  0  0  0  0  0  0  0  0  0  0  0
    0.2529   -0.0672    2.2760 O   0  0  0  0  0  0  0  0  0  0  0  0
   -1.8947    0.5991    2.4221 N   0  0  0  0  0  0  0  0  0  0  0  0
   -2.7942    0.5936    1.9635 H   0  0  0  0  0  0  0  0  0  0  0  0
   -1.8170    1.1453    3.7750 C   0  0  0  0  0  0  0  0  0  0  0  0
   -0.9697    1.8290    3.8506 H   0  0  0  0  0  0  0  0  0  0  0  0
   -2.7354    1.6828    4.0167 H   0  0  0  0  0  0  0  0  0  0  0  0
   -1.6754    0.3334    4.4914 H   0  0  0  0  0  0  0  0  0  0  0  0
  5  6  2  0  0  0  0
  5  7  1  0  0  0  0
  2  3  1  0  0  0  0
  2  4  1  0  0  0  0
  2  5  1  0  0  0  0
  1  2  1  0  0  0  0
 26 27  2  0  0  0  0
 26 28  1  0  0  0  0
 24 25  1  0  0  0  0
 22 23  1  0  0  0  0
 22 24  2  0  0  0  0
 20 21  1  0  0  0  0
 19 20  1  0  0  0  0
 19 22  1  0  0  0  0
 17 18  1  0  0  0  0
 17 19  2  0  0  0  0
 15 16  1  0  0  0  0
 15 17  1  0  0  0  0
 14 15  2  0  0  0  0
 14 24  1  0  0  0  0
 11 12  1  0  0  0  0
 11 13  1  0  0  0  0
 11 14  1  0  0  0  0
  9 10  1  0  0  0  0
  9 11  1  0  0  0  0
  9 26  1  0  0  0  0
  7  8  1  0  0  0  0
  7  9  1  0  0  0  0
 30 31  1  0  0  0  0
 30 32  1  0  0  0  0
 30 33  1  0  0  0  0
 28 29  1  0  0  0  0
 28 30  1  0  0  0  0
M  END
$$$$
default_name
  -OEChem-02102213163D

 33 33  0     1  0  0  0  0  0999 V2000
   -4.0702   -3.8485    1.4554 H   0  0  0  0  0  0  0  0  0  0  0  0
   -4.0012   -2.9605    0.8284 C   0  0  0  0  0  0  0  0  0  0  0  0
   -4.7652   -2.2435    1.1234 H   0  0  0  0  0  0  0  0  0  0  0  0
   -4.1352   -3.2385   -0.2156 H   0  0  0  0  0  0  0  0  0  0  0  0
   -2.6362   -2.3395    1.0094 C   0  0  0  0  0  0  0  0  0  0  0  0
   -1.8292   -2.8395    1.7814 O   0  0  0  0  0  0  0  0  0  0  0  0
   -2.3832   -1.2445    0.2964 N   0  0  0  0  0  0  0  0  0  0  0  0
   -3.1102   -0.8685   -0.2946 H   0  0  0  0  0  0  0  0  0  0  0  0
   -1.1292   -0.4875    0.3524 C   0  0  1  0  0  0  0  0  0  0  0  0
   -0.3087   -1.1556    0.0882 H   0  0  0  0  0  0  0  0  0  0  0  0
   -1.1749    0.6534   -0.6787 C   0  0  0  0  0  0  0  0  0  0  0  0
   -1.5821    1.5460   -0.2018 H   0  0  0  0  0  0  0  0  0  0  0  0
   -0.1563    0.8867   -0.9930 H   0  0  0  0  0  0  0  0  0  0  0  0
   -2.0192    0.3457   -1.9002 C   0  0  0  0  0  0  0  0  0  0  0  0
   -1.7005   -0.7497   -2.7277 C   0  0  0  0  0  0  0  0  0  0  0  0
   -0.8345   -1.3603   -2.5078 H   0  0  0  0  0  0  0  0  0  0  0  0
   -2.5113   -1.0556   -3.8380 C   0  0  0  0  0  0  0  0  0  0  0  0
   -2.2633   -1.8942   -4.4704 H   0  0  0  0  0  0  0  0  0  0  0  0
   -3.6470   -0.2653   -4.1192 C   0  0  0  0  0  0  0  0  0  0  0  0
   -4.4370   -0.5539   -5.1859 O   0  0  0  0  0  0  0  0  0  0  0  0
   -4.0732   -1.2576   -5.7247 H   0  0  0  0  0  0  0  0  0  0  0  0
   -3.9673    0.8275   -3.2872 C   0  0  0  0  0  0  0  0  0  0  0  0
   -4.8358    1.4270   -3.5151 H   0  0  0  0  0  0  0  0  0  0  0  0
   -3.1523    1.1335   -2.1808 C   0  0  0  0  0  0  0  0  0  0  0  0
   -3.3937    1.9788   -1.5475 H   0  0  0  0  0  0  0  0  0  0  0  0
   -0.8664    0.0378    1.7736 C   0  0  0  0  0  0  0  0  0  0  0  0
    0.2529   -0.0672    2.2760 O   0  0  0  0  0  0  0  0  0  0  0  0
   -1.8947    0.5991    2.4221 N   0  0  0  0  0  0  0  0  0  0  0  0
   -2.7942    0.5936    1.9635 H   0  0  0  0  0  0  0  0  0  0  0  0
   -1.8170    1.1453    3.7750 C   0  0  0  0  0  0  0  0  0  0  0  0
   -0.9697    1.8290    3.8506 H   0  0  0  0  0  0  0  0  0  0  0  0
   -2.7354    1.6828    4.0167 H   0  0  0  0  0  0  0  0  0  0  0  0
   -1.6754    0.3334    4.4914 H   0  0  0  0  0  0  0  0  0  0  0  0
  5  6  2  0  0  0  0
  5  7  1  0  0  0  0
  2  3  1  0  0  0  0
  2  4  1  0  0  0  0
  2  5  1  0  0  0  0
  1  2  1  0  0  0  0
 26 27  2  0  0  0  0
 26 28  1  0  0  0  0
 24 25  1  0  0  0  0
 22 23  1  0  0  0  0
 22 24  2  0  0  0  0
 20 21  1  0  0  0  0
 19 20  1  0  0  0  0
 19 22  1  0  0  0  0
 17 18  1  0  0  0  0
 17 19  2  0  0  0  0
 15 16  1  0  0  0  0
 15 17  1  0  0  0  0
 14 15  2  0  0  0  0
 14 24  1  0  0  0  0
 11 12  1  0  0  0  0
 11 13  1  0  0  0  0
 11 14  1  0  0  0  0
  9 10  1  0  0  0  0
  9 11  1  0  0  0  0
  9 26  1  0  0  0  0
  7  8  1  0  0  0  0
  7  9  1  0  0  0  0
 30 31  1  0  0  0  0
 30 32  1  0  0  0  0
 30 33  1  0  0  0  0
 28 29  1  0  0  0  0
 28 30  1  0  0  0  0
M  END
$$$$
default_name
  -OEChem-02102213163D

 33 33  0     1  0  0  0  0  0999 V2000
   -4.0702   -3.8485    1.4554 H   0  0  0  0  0  0  0  0  0  0  0  0
   -4.0012   -2.9605    0.8284 C   0  0  0  0  0  0  0  0  0  0  0  0
   -4.7652   -2.2435    1.1234 H   0  0  0  0  0  0  0  0  0  0  0  0
   -4.1352   -3.2385   -0.2156 H   0  0  0  0  0  0  0  0  0  0  0  0
   -2.6362   -2.3395    1.0094 C   0  0  0  0  0  0  0  0  0  0  0  0
   -1.8292   -2.8395    1.7814 O   0  0  0  0  0  0  0  0  0  0  0  0
   -2.3832   -1.2445    0.2964 N   0  0  0  0  0  0  0  0  0  0  0  0
   -3.1102   -0.8685   -0.2946 H   0  0  0  0  0  0  0  0  0  0  0  0
   -1.1292   -0.4875    0.3524 C   0  0  1  0  0  0  0  0  0  0  0  0
   -0.3087   -1.1556    0.0882 H   0  0  0  0  0  0  0  0  0  0  0  0
   -1.1749    0.6534   -0.6787 C   0  0  0  0  0  0  0  0  0  0  0  0
   -1.5821    1.5460   -0.2018 H   0  0  0  0  0  0  0  0  0  0  0  0
   -0.1563    0.8867   -0.9930 H   0  0  0  0  0  0  0  0  0  0  0  0
   -2.0192    0.3457   -1.9002 C   0  0  0  0  0  0  0  0  0  0  0  0
   -1.9097   -0.9030   -2.5445 C   0  0  0  0  0  0  0  0  0  0  0  0
   -1.2020   -1.6379   -2.1839 H   0  0  0  0  0  0  0  0  0  0  0  0
   -2.7251   -1.1992   -3.6541 C   0  0  0  0  0  0  0  0  0  0  0  0
   -2.6375   -2.1558   -4.1460 H   0  0  0  0  0  0  0  0  0  0  0  0
   -3.6558   -0.2443   -4.1184 C   0  0  0  0  0  0  0  0  0  0  0  0
   -4.4488   -0.5215   -5.1859 O   0  0  0  0  0  0  0  0  0  0  0  0
   -4.2229   -1.3573   -5.5961 H   0  0  0  0  0  0  0  0  0  0  0  0
   -3.7675    1.0028   -3.4695 C   0  0  0  0  0  0  0  0  0  0  0  0
   -4.4798    1.7263   -3.8365 H   0  0  0  0  0  0  0  0  0  0  0  0
   -2.9479    1.2976   -2.3634 C   0  0  0  0  0  0  0  0  0  0  0  0
   -3.0278    2.2595   -1.8711 H   0  0  0  0  0  0  0  0  0  0  0  0
   -0.8664    0.0378    1.7736 C   0  0  0  0  0  0  0  0  0  0  0  0
    0.2529   -0.0672    2.2760 O   0  0  0  0  0  0  0  0  0  0  0  0
   -1.8947    0.5991    2.4221 N   0  0  0  0  0  0  0  0  0  0  0  0
   -2.7942    0.5936    1.9635 H   0  0  0  0  0  0  0  0  0  0  0  0
   -1.8170    1.1453    3.7750 C   0  0  0  0  0  0  0  0  0  0  0  0
   -0.9697    1.8290    3.8506 H   0  0  0  0  0  0  0  0  0  0  0  0
   -2.7354    1.6828    4.0167 H   0  0  0  0  0  0  0  0  0  0  0  0
   -1.6754    0.3334    4.4914 H   0  0  0  0  0  0  0  0  0  0  0  0
  5  6  2  0  0  0  0
  5  7  1  0  0  0  0
  2  3  1  0  0  0  0
  2  4  1  0  0  0  0
  2  5  1  0  0  0  0
  1  2  1  0  0  0  0
 26 27  2  0  0  0  0
 26 28  1  0  0  0  0
 24 25  1  0  0  0  0
 22 23  1  0  0  0  0
 22 24  2  0  0  0  0
 20 21  1  0  0  0  0
 19 20  1  0  0  0  0
 19 22  1  0  0  0  0
 17 18  1  0  0  0  0
 17 19  2  0  0  0  0
 15 16  1  0  0  0  0
 15 17  1  0  0  0  0
 14 15  2  0  0  0  0
 14 24  1  0  0  0  0
 11 12  1  0  0  0  0
 11 13  1  0  0  0  0
 11 14  1  0  0  0  0
  9 10  1  0  0  0  0
  9 11  1  0  0  0  0
  9 26  1  0  0  0  0
  7  8  1  0  0  0  0
  7  9  1  0  0  0  0
 30 31  1  0  0  0  0
 30 32  1  0  0  0  0
 30 33  1  0  0  0  0
 28 29  1  0  0  0  0
 28 30  1  0  0  0  0
M  END
$$$$
default_name
  -OEChem-02102213163D

 33 33  0     1  0  0  0  0  0999 V2000
   -4.0702   -3.8485    1.4554 H   0  0  0  0  0  0  0  0  0  0  0  0
   -4.0012   -2.9605    0.8284 C   0  0  0  0  0  0  0  0  0  0  0  0
   -4.7652   -2.2435    1.1234 H   0  0  0  0  0  0  0  0  0  0  0  0
   -4.1352   -3.2385   -0.2156 H   0  0  0  0  0  0  0  0  0  0  0  0
   -2.6362   -2.3395    1.0094 C   0  0  0  0  0  0  0  0  0  0  0  0
   -1.8292   -2.8395    1.7814 O   0  0  0  0  0  0  0  0  0  0  0  0
   -2.3832   -1.2445    0.2964 N   0  0  0  0  0  0  0  0  0  0  0  0
   -3.1102   -0.8685   -0.2946 H   0  0  0  0  0  0  0  0  0  0  0  0
   -1.1292   -0.4875    0.3524 C   0  0  1  0  0  0  0  0  0  0  0  0
   -0.3087   -1.1556    0.0882 H   0  0  0  0  0  0  0  0  0  0  0  0
   -1.1749    0.6534   -0.6787 C   0  0  0  0  0  0  0  0  0  0  0  0
   -1.5821    1.5460   -0.2018 H   0  0  0  0  0  0  0  0  0  0  0  0
   -0.1563    0.8867   -0.9930 H   0  0  0  0  0  0  0  0  0  0  0  0
   -2.0192    0.3457   -1.9002 C   0  0  0  0  0  0  0  0  0  0  0  0
   -2.1534   -0.9810   -2.3564 C   0  0  0  0  0  0  0  0  0  0  0  0
   -1.6318   -1.7828   -1.8503 H   0  0  0  0  0  0  0  0  0  0  0  0
   -2.9712   -1.2668   -3.4670 C   0  0  0  0  0  0  0  0  0  0  0  0
   -3.0704   -2.2836   -3.8145 H   0  0  0  0  0  0  0  0  0  0  0  0
   -3.6600   -0.2221   -4.1211 C   0  0  0  0  0  0  0  0  0  0  0  0
   -4.4534   -0.4877   -5.1912 O   0  0  0  0  0  0  0  0  0  0  0  0
   -4.3950   -1.4039   -5.4654 H   0  0  0  0  0  0  0  0  0  0  0  0
   -3.5284    1.1042   -3.6603 C   0  0  0  0  0  0  0  0  0  0  0  0
   -4.0567    1.8949   -4.1715 H   0  0  0  0  0  0  0  0  0  0  0  0
   -2.7067    1.3872   -2.5527 C   0  0  0  0  0  0  0  0  0  0  0  0
   -2.5988    2.4077   -2.2050 H   0  0  0  0  0  0  0  0  0  0  0  0
   -0.8664    0.0378    1.7736 C   0  0  0  0  0  0  0  0  0  0  0  0
    0.2529   -0.0672    2.2760 O   0  0  0  0  0  0  0  0  0  0  0  0
   -1.8947    0.5991    2.4221 N   0  0  0  0  0  0  0  0  0  0  0  0
   -2.7942    0.5936    1.9635 H   0  0  0  0  0  0  0  0  0  0  0  0
   -1.8170    1.1453    3.7750 C   0  0  0  0  0  0  0  0  0  0  0  0
   -0.9697    1.8290    3.8506 H   0  0  0  0  0  0  0  0  0  0  0  0
   -2.7354    1.6828    4.0167 H   0  0  0  0  0  0  0  0  0  0  0  0
   -1.6754    0.3334    4.4914 H   0  0  0  0  0  0  0  0  0  0  0  0
  5  6  2  0  0  0  0
  5  7  1  0  0  0  0
  2  3  1  0  0  0  0
  2  4  1  0  0  0  0
  2  5  1  0  0  0  0
  1  2  1  0  0  0  0
 26 27  2  0  0  0  0
 26 28  1  0  0  0  0
 24 25  1  0  0  0  0
 22 23  1  0  0  0  0
 22 24  2  0  0  0  0
 20 21  1  0  0  0  0
 19 20  1  0  0  0  0
 19 22  1  0  0  0  0
 17 18  1  0  0  0  0
 17 19  2  0  0  0  0
 15 16  1  0  0  0  0
 15 17  1  0  0  0  0
 14 15  2  0  0  0  0
 14 24  1  0  0  0  0
 11 12  1  0  0  0  0
 11 13  1  0  0  0  0
 11 14  1  0  0  0  0
  9 10  1  0  0  0  0
  9 11  1  0  0  0  0
  9 26  1  0  0  0  0
  7  8  1  0  0  0  0
  7  9  1  0  0  0  0
 30 31  1  0  0  0  0
 30 32  1  0  0  0  0
 30 33  1  0  0  0  0
 28 29  1  0  0  0  0
 28 30  1  0  0  0  0
M  END
$$$$
default_name
  -OEChem-02102213163D

 33 33  0     1  0  0  0  0  0999 V2000
   -4.0702   -3.8485    1.4554 H   0  0  0  0  0  0  0  0  0  0  0  0
   -4.0012   -2.9605    0.8284 C   0  0  0  0  0  0  0  0  0  0  0  0
   -4.7652   -2.2435    1.1234 H   0  0  0  0  0  0  0  0  0  0  0  0
   -4.1352   -3.2385   -0.2156 H   0  0  0  0  0  0  0  0  0  0  0  0
   -2.6362   -2.3395    1.0094 C   0  0  0  0  0  0  0  0  0  0  0  0
   -1.8292   -2.8395    1.7814 O   0  0  0  0  0  0  0  0  0  0  0  0
   -2.3832   -1.2445    0.2964 N   0  0  0  0  0  0  0  0  0  0  0  0
   -3.1102   -0.8685   -0.2946 H   0  0  0  0  0  0  0  0  0  0  0  0
   -1.1292   -0.4875    0.3524 C   0  0  1  0  0  0  0  0  0  0  0  0
   -0.3087   -1.1556    0.0882 H   0  0  0  0  0  0  0  0  0  0  0  0
   -1.1749    0.6534   -0.6787 C   0  0  0  0  0  0  0  0  0  0  0  0
   -1.5821    1.5460   -0.2018 H   0  0  0  0  0  0  0  0  0  0  0  0
   -0.1563    0.8867   -0.9930 H   0  0  0  0  0  0  0  0  0  0  0  0
   -2.0192    0.3457   -1.9002 C   0  0  0  0  0  0  0  0  0  0  0  0
   -2.4150   -0.9785   -2.1762 C   0  0  0  0  0  0  0  0  0  0  0  0
   -2.0947   -1.7851   -1.5298 H   0  0  0  0  0  0  0  0  0  0  0  0
   -3.2328   -1.2538   -3.2894 C   0  0  0  0  0  0  0  0  0  0  0  0
   -3.5327   -2.2691   -3.4986 H   0  0  0  0  0  0  0  0  0  0  0  0
   -3.6593   -0.2002   -4.1271 C   0  0  0  0  0  0  0  0  0  0  0  0
   -4.4506   -0.4550   -5.2014 O   0  0  0  0  0  0  0  0  0  0  0  0
   -4.5779   -1.3942   -5.3415 H   0  0  0  0  0  0  0  0  0  0  0  0
   -3.2663    1.1248   -3.8466 C   0  0  0  0  0  0  0  0  0  0  0  0
   -3.5952    1.9213   -4.4971 H   0  0  0  0  0  0  0  0  0  0  0  0
   -2.4451    1.3962   -2.7358 C   0  0  0  0  0  0  0  0  0  0  0  0
   -2.1359    2.4133   -2.5263 H   0  0  0  0  0  0  0  0  0  0  0  0
   -0.8664    0.0378    1.7736 C   0  0  0  0  0  0  0  0  0  0  0  0
    0.2529   -0.0672    2.2760 O   0  0  0  0  0  0  0  0  0  0  0  0
   -1.8947    0.5991    2.4221 N   0  0  0  0  0  0  0  0  0  0  0  0
   -2.7942    0.5936    1.9635 H   0  0  0  0  0  0  0  0  0  0  0  0
   -1.8170    1.1453    3.7750 C   0  0  0  0  0  0  0  0  0  0  0  0
   -0.9697    1.8290    3.8506 H   0  0  0  0  0  0  0  0  0  0  0  0
   -2.7354    1.6828    4.0167 H   0  0  0  0  0  0  0  0  0  0  0  0
   -1.6754    0.3334    4.4914 H   0  0  0  0  0  0  0  0  0  0  0  0
  5  6  2  0  0  0  0
  5  7  1  0  0  0  0
  2  3  1  0  0  0  0
  2  4  1  0  0  0  0
  2  5  1  0  0  0  0
  1  2  1  0  0  0  0
 26 27  2  0  0  0  0
 26 28  1  0  0  0  0
 24 25  1  0  0  0  0
 22 23  1  0  0  0  0
 22 24  2  0  0  0  0
 20 21  1  0  0  0  0
 19 20  1  0  0  0  0
 19 22  1  0  0  0  0
 17 18  1  0  0  0  0
 17 19  2  0  0  0  0
 15 16  1  0  0  0  0
 15 17  1  0  0  0  0
 14 15  2  0  0  0  0
 14 24  1  0  0  0  0
 11 12  1  0  0  0  0
 11 13  1  0  0  0  0
 11 14  1  0  0  0  0
  9 10  1  0  0  0  0
  9 11  1  0  0  0  0
  9 26  1  0  0  0  0
  7  8  1  0  0  0  0
  7  9  1  0  0  0  0
 30 31  1  0  0  0  0
 30 32  1  0  0  0  0
 30 33  1  0  0  0  0
 28 29  1  0  0  0  0
 28 30  1  0  0  0  0
M  END
$$$$
default_name
  -OEChem-02102213163D

 33 33  0     1  0  0  0  0  0999 V2000
   -4.0702   -3.8485    1.4554 H   0  0  0  0  0  0  0  0  0  0  0  0
   -4.0012   -2.9605    0.8284 C   0  0  0  0  0  0  0  0  0  0  0  0
   -4.7652   -2.2435    1.1234 H   0  0  0  0  0  0  0  0  0  0  0  0
   -4.1352   -3.2385   -0.2156 H   0  0  0  0  0  0  0  0  0  0  0  0
   -2.6362   -2.3395    1.0094 C   0  0  0  0  0  0  0  0  0  0  0  0
   -1.8292   -2.8395    1.7814 O   0  0  0  0  0  0  0  0  0  0  0  0
   -2.3832   -1.2445    0.2964 N   0  0  0  0  0  0  0  0  0  0  0  0
   -3.1102   -0.8685   -0.2946 H   0  0  0  0  0  0  0  0  0  0  0  0
   -1.1292   -0.4875    0.3524 C   0  0  1  0  0  0  0  0  0  0  0  0
   -0.3087   -1.1556    0.0882 H   0  0  0  0  0  0  0  0  0  0  0  0
   -1.1749    0.6534   -0.6787 C   0  0  0  0  0  0  0  0  0  0  0  0
   -1.5821    1.5460   -0.2018 H   0  0  0  0  0  0  0  0  0  0  0  0
   -0.1563    0.8867   -0.9930 H   0  0  0  0  0  0  0  0  0  0  0  0
   -2.0192    0.3457   -1.9002 C   0  0  0  0  0  0  0  0  0  0  0  0
   -2.6766   -0.8956   -2.0163 C   0  0  0  0  0  0  0  0  0  0  0  0
   -2.5592   -1.6446   -1.2441 H   0  0  0  0  0  0  0  0  0  0  0  0
   -3.4922   -1.1611   -3.1335 C   0  0  0  0  0  0  0  0  0  0  0  0
   -3.9928   -2.1132   -3.2199 H   0  0  0  0  0  0  0  0  0  0  0  0
   -3.6537   -0.1801   -4.1361 C   0  0  0  0  0  0  0  0  0  0  0  0
   -4.4404   -0.4254   -5.2159 O   0  0  0  0  0  0  0  0  0  0  0  0
   -4.7590   -1.3288   -5.2328 H   0  0  0  0  0  0  0  0  0  0  0  0
   -2.9991    1.0633   -4.0158 C   0  0  0  0  0  0  0  0  0  0  0  0
   -3.1269    1.8036   -4.7911 H   0  0  0  0  0  0  0  0  0  0  0  0
   -2.1809    1.3240   -2.9002 C   0  0  0  0  0  0  0  0  0  0  0  0
   -1.6709    2.2760   -2.8131 H   0  0  0  0  0  0  0  0  0  0  0  0
   -0.8664    0.0378    1.7736 C   0  0  0  0  0  0  0  0  0  0  0  0
    0.2529   -0.0672    2.2760 O   0  0  0  0  0  0  0  0  0  0  0  0
   -1.8947    0.5991    2.4221 N   0  0  0  0  0  0  0  0  0  0  0  0
   -2.7942    0.5936    1.9635 H   0  0  0  0  0  0  0  0  0  0  0  0
   -1.8170    1.1453    3.7750 C   0  0  0  0  0  0  0  0  0  0  0  0
   -0.9697    1.8290    3.8506 H   0  0  0  0  0  0  0  0  0  0  0  0
   -2.7354    1.6828    4.0167 H   0  0  0  0  0  0  0  0  0  0  0  0
   -1.6754    0.3334    4.4914 H   0  0  0  0  0  0  0  0  0  0  0  0
  5  6  2  0  0  0  0
  5  7  1  0  0  0  0
  2  3  1  0  0  0  0
  2  4  1  0  0  0  0
  2  5  1  0  0  0  0
  1  2  1  0  0  0  0
 26 27  2  0  0  0  0
 26 28  1  0  0  0  0
 24 25  1  0  0  0  0
 22 23  1  0  0  0  0
 22 24  2  0  0  0  0
 20 21  1  0  0  0  0
 19 20  1  0  0  0  0
 19 22  1  0  0  0  0
 17 18  1  0  0  0  0
 17 19  2  0  0  0  0
 15 16  1  0  0  0  0
 15 17  1  0  0  0  0
 14 15  2  0  0  0  0
 14 24  1  0  0  0  0
 11 12  1  0  0  0  0
 11 13  1  0  0  0  0
 11 14  1  0  0  0  0
  9 10  1  0  0  0  0
  9 11  1  0  0  0  0
  9 26  1  0  0  0  0
  7  8  1  0  0  0  0
  7  9  1  0  0  0  0
 30 31  1  0  0  0  0
 30 32  1  0  0  0  0
 30 33  1  0  0  0  0
 28 29  1  0  0  0  0
 28 30  1  0  0  0  0
M  END
$$$$
default_name
  -OEChem-02102213163D

 33 33  0     1  0  0  0  0  0999 V2000
   -4.0702   -3.8485    1.4554 H   0  0  0  0  0  0  0  0  0  0  0  0
   -4.0012   -2.9605    0.8284 C   0  0  0  0  0  0  0  0  0  0  0  0
   -4.7652   -2.2435    1.1234 H   0  0  0  0  0  0  0  0  0  0  0  0
   -4.1352   -3.2385   -0.2156 H   0  0  0  0  0  0  0  0  0  0  0  0
   -2.6362   -2.3395    1.0094 C   0  0  0  0  0  0  0  0  0  0  0  0
   -1.8292   -2.8395    1.7814 O   0  0  0  0  0  0  0  0  0  0  0  0
   -2.3832   -1.2445    0.2964 N   0  0  0  0  0  0  0  0  0  0  0  0
   -3.1102   -0.8685   -0.2946 H   0  0  0  0  0  0  0  0  0  0  0  0
   -1.1292   -0.4875    0.3524 C   0  0  1  0  0  0  0  0  0  0  0  0
   -0.3087   -1.1556    0.0882 H   0  0  0  0  0  0  0  0  0  0  0  0
   -1.1749    0.6534   -0.6787 C   0  0  0  0  0  0  0  0  0  0  0  0
   -1.5821    1.5460   -0.2018 H   0  0  0  0  0  0  0  0  0  0  0  0
   -0.1563    0.8867   -0.9930 H   0  0  0  0  0  0  0  0  0  0  0  0
   -2.0192    0.3457   -1.9002 C   0  0  0  0  0  0  0  0  0  0  0  0
   -2.9204   -0.7379   -1.8876 C   0  0  0  0  0  0  0  0  0  0  0  0
   -2.9935   -1.3709   -1.0129 H   0  0  0  0  0  0  0  0  0  0  0  0
   -3.7316   -0.9951   -3.0099 C   0  0  0  0  0  0  0  0  0  0  0  0
   -4.4193   -1.8266   -2.9973 H   0  0  0  0  0  0  0  0  0  0  0  0
   -3.6436   -0.1631   -4.1473 C   0  0  0  0  0  0  0  0  0  0  0  0
   -4.4237   -0.4010   -5.2335 O   0  0  0  0  0  0  0  0  0  0  0  0
   -4.9260   -1.2122   -5.1467 H   0  0  0  0  0  0  0  0  0  0  0  0
   -2.7449    0.9237   -4.1563 C   0  0  0  0  0  0  0  0  0  0  0  0
   -2.6836    1.5500   -5.0336 H   0  0  0  0  0  0  0  0  0  0  0  0
   -1.9321    1.1754   -3.0347 C   0  0  0  0  0  0  0  0  0  0  0  0
   -1.2352    2.0050   -3.0460 H   0  0  0  0  0  0  0  0  0  0  0  0
   -0.8664    0.0378    1.7736 C   0  0  0  0  0  0  0  0  0  0  0  0
    0.2529   -0.0672    2.2760 O   0  0  0  0  0  0  0  0  0  0  0  0
   -1.8947    0.5991    2.4221 N   0  0  0  0  0  0  0  0  0  0  0  0
   -2.7942    0.5936    1.9635 H   0  0  0  0  0  0  0  0  0  0  0  0
   -1.8170    1.1453    3.7750 C   0  0  0  0  0  0  0  0  0  0  0  0
   -0.9697    1.8290    3.8506 H   0  0  0  0  0  0  0  0  0  0  0  0
   -2.7354    1.6828    4.0167 H   0  0  0  0  0  0  0  0  0  0  0  0
   -1.6754    0.3334    4.4914 H   0  0  0  0  0  0  0  0  0  0  0  0
  5  6  2  0  0  0  0
  5  7  1  0  0  0  0
  2  3  1  0  0  0  0
  2  4  1  0  0  0  0
  2  5  1  0  0  0  0
  1  2  1  0  0  0  0
 26 27  2  0  0  0  0
 26 28  1  0  0  0  0
 24 25  1  0  0  0  0
 22 23  1  0  0  0  0
 22 24  2  0  0  0  0
 20 21  1  0  0  0  0
 19 20  1  0  0  0  0
 19 22  1  0  0  0  0
 17 18  1  0  0  0  0
 17 19  2  0  0  0  0
 15 16  1  0  0  0  0
 15 17  1  0  0  0  0
 14 15  2  0  0  0  0
 14 24  1  0  0  0  0
 11 12  1  0  0  0  0
 11 13  1  0  0  0  0
 11 14  1  0  0  0  0
  9 10  1  0  0  0  0
  9 11  1  0  0  0  0
  9 26  1  0  0  0  0
  7  8  1  0  0  0  0
  7  9  1  0  0  0  0
 30 31  1  0  0  0  0
 30 32  1  0  0  0  0
 30 33  1  0  0  0  0
 28 29  1  0  0  0  0
 28 30  1  0  0  0  0
M  END
$$$$
default_name
  -OEChem-02102213163D

 33 33  0     1  0  0  0  0  0999 V2000
   -4.0702   -3.8485    1.4554 H   0  0  0  0  0  0  0  0  0  0  0  0
   -4.0012   -2.9605    0.8284 C   0  0  0  0  0  0  0  0  0  0  0  0
   -4.7652   -2.2435    1.1234 H   0  0  0  0  0  0  0  0  0  0  0  0
   -4.1352   -3.2385   -0.2156 H   0  0  0  0  0  0  0  0  0  0  0  0
   -2.6362   -2.3395    1.0094 C   0  0  0  0  0  0  0  0  0  0  0  0
   -1.8292   -2.8395    1.7814 O   0  0  0  0  0  0  0  0  0  0  0  0
   -2.3832   -1.2445    0.2964 N   0  0  0  0  0  0  0  0  0  0  0  0
   -3.1102   -0.8685   -0.2946 H   0  0  0  0  0  0  0  0  0  0  0  0
   -1.1292   -0.4875    0.3524 C   0  0  1  0  0  0  0  0  0  0  0  0
   -0.3087   -1.1556    0.0882 H   0  0  0  0  0  0  0  0  0  0  0  0
   -1.1749    0.6534   -0.6787 C   0  0  0  0  0  0  0  0  0  0  0  0
   -1.5821    1.5460   -0.2018 H   0  0  0  0  0  0  0  0  0  0  0  0
   -0.1563    0.8867   -0.9930 H   0  0  0  0  0  0  0  0  0  0  0  0
   -2.0192    0.3457   -1.9002 C   0  0  0  0  0  0  0  0  0  0  0  0
   -3.1297   -0.5162   -1.7987 C   0  0  0  0  0  0  0  0  0  0  0  0
   -3.3681   -0.9826   -0.8518 H   0  0  0  0  0  0  0  0  0  0  0  0
   -3.9347   -0.7669   -2.9270 C   0  0  0  0  0  0  0  0  0  0  0  0
   -4.7833   -1.4287   -2.8460 H   0  0  0  0  0  0  0  0  0  0  0  0
   -3.6298   -0.1504   -4.1601 C   0  0  0  0  0  0  0  0  0  0  0  0
   -4.4016   -0.3834   -5.2533 O   0  0  0  0  0  0  0  0  0  0  0  0
   -5.0675   -1.0524   -5.0892 H   0  0  0  0  0  0  0  0  0  0  0  0
   -2.5211    0.7156   -4.2586 C   0  0  0  0  0  0  0  0  0  0  0  0
   -2.2956    1.1776   -5.2080 H   0  0  0  0  0  0  0  0  0  0  0  0
   -1.7157    0.9607   -3.1302 C   0  0  0  0  0  0  0  0  0  0  0  0
   -0.8586    1.6188   -3.2090 H   0  0  0  0  0  0  0  0  0  0  0  0
   -0.8664    0.0378    1.7736 C   0  0  0  0  0  0  0  0  0  0  0  0
    0.2529   -0.0672    2.2760 O   0  0  0  0  0  0  0  0  0  0  0  0
   -1.8947    0.5991    2.4221 N   0  0  0  0  0  0  0  0  0  0  0  0
   -2.7942    0.5936    1.9635 H   0  0  0  0  0  0  0  0  0  0  0  0
   -1.8170    1.1453    3.7750 C   0  0  0  0  0  0  0  0  0  0  0  0
   -0.9697    1.8290    3.8506 H   0  0  0  0  0  0  0  0  0  0  0  0
   -2.7354    1.6828    4.0167 H   0  0  0  0  0  0  0  0  0  0  0  0
   -1.6754    0.3334    4.4914 H   0  0  0  0  0  0  0  0  0  0  0  0
  5  6  2  0  0  0  0
  5  7  1  0  0  0  0
  2  3  1  0  0  0  0
  2  4  1  0  0  0  0
  2  5  1  0  0  0  0
  1  2  1  0  0  0  0
 26 27  2  0  0  0  0
 26 28  1  0  0  0  0
 24 25  1  0  0  0  0
 22 23  1  0  0  0  0
 22 24  2  0  0  0  0
 20 21  1  0  0  0  0
 19 20  1  0  0  0  0
 19 22  1  0  0  0  0
 17 18  1  0  0  0  0
 17 19  2  0  0  0  0
 15 16  1  0  0  0  0
 15 17  1  0  0  0  0
 14 15  2  0  0  0  0
 14 24  1  0  0  0  0
 11 12  1  0  0  0  0
 11 13  1  0  0  0  0
 11 14  1  0  0  0  0
  9 10  1  0  0  0  0
  9 11  1  0  0  0  0
  9 26  1  0  0  0  0
  7  8  1  0  0  0  0
  7  9  1  0  0  0  0
 30 31  1  0  0  0  0
 30 32  1  0  0  0  0
 30 33  1  0  0  0  0
 28 29  1  0  0  0  0
 28 30  1  0  0  0  0
M  END
$$$$
default_name
  -OEChem-02102213163D

 33 33  0     1  0  0  0  0  0999 V2000
   -4.0702   -3.8485    1.4554 H   0  0  0  0  0  0  0  0  0  0  0  0
   -4.0012   -2.9605    0.8284 C   0  0  0  0  0  0  0  0  0  0  0  0
   -4.7652   -2.2435    1.1234 H   0  0  0  0  0  0  0  0  0  0  0  0
   -4.1352   -3.2385   -0.2156 H   0  0  0  0  0  0  0  0  0  0  0  0
   -2.6362   -2.3395    1.0094 C   0  0  0  0  0  0  0  0  0  0  0  0
   -1.8292   -2.8395    1.7814 O   0  0  0  0  0  0  0  0  0  0  0  0
   -2.3832   -1.2445    0.2964 N   0  0  0  0  0  0  0  0  0  0  0  0
   -3.1102   -0.8685   -0.2946 H   0  0  0  0  0  0  0  0  0  0  0  0
   -1.1292   -0.4875    0.3524 C   0  0  1  0  0  0  0  0  0  0  0  0
   -0.3087   -1.1556    0.0882 H   0  0  0  0  0  0  0  0  0  0  0  0
   -1.1749    0.6534   -0.6787 C   0  0  0  0  0  0  0  0  0  0  0  0
   -1.5821    1.5460   -0.2018 H   0  0  0  0  0  0  0  0  0  0  0  0
   -0.1563    0.8867   -0.9930 H   0  0  0  0  0  0  0  0  0  0  0  0
   -2.0192    0.3457   -1.9002 C   0  0  0  0  0  0  0  0  0  0  0  0
   -3.2904   -0.2456   -1.7558 C   0  0  0  0  0  0  0  0  0  0  0  0
   -3.6575   -0.5063   -0.7718 H   0  0  0  0  0  0  0  0  0  0  0  0
   -4.0876   -0.4923   -2.8905 C   0  0  0  0  0  0  0  0  0  0  0  0
   -5.0598   -0.9466   -2.7763 H   0  0  0  0  0  0  0  0  0  0  0  0
   -3.6131   -0.1428   -4.1735 C   0  0  0  0  0  0  0  0  0  0  0  0
   -4.3755   -0.3739   -5.2737 O   0  0  0  0  0  0  0  0  0  0  0  0
   -5.1739   -0.8603   -5.0640 H   0  0  0  0  0  0  0  0  0  0  0  0
   -2.3429    0.4533   -4.3157 C   0  0  0  0  0  0  0  0  0  0  0  0
   -1.9892    0.7119   -5.3024 H   0  0  0  0  0  0  0  0  0  0  0  0
   -1.5465    0.6944   -3.1801 C   0  0  0  0  0  0  0  0  0  0  0  0
   -0.5668    1.1439   -3.2910 H   0  0  0  0  0  0  0  0  0  0  0  0
   -0.8664    0.0378    1.7736 C   0  0  0  0  0  0  0  0  0  0  0  0
    0.2529   -0.0672    2.2760 O   0  0  0  0  0  0  0  0  0  0  0  0
   -1.8947    0.5991    2.4221 N   0  0  0  0  0  0  0  0  0  0  0  0
   -2.7942    0.5936    1.9635 H   0  0  0  0  0  0  0  0  0  0  0  0
   -1.8170    1.1453    3.7750 C   0  0  0  0  0  0  0  0  0  0  0  0
   -0.9697    1.8290    3.8506 H   0  0  0  0  0  0  0  0  0  0  0  0
   -2.7354    1.6828    4.0167 H   0  0  0  0  0  0  0  0  0  0  0  0
   -1.6754    0.3334    4.4914 H   0  0  0  0  0  0  0  0  0  0  0  0
  5  6  2  0  0  0  0
  5  7  1  0  0  0  0
  2  3  1  0  0  0  0
  2  4  1  0  0  0  0
  2  5  1  0  0  0  0
  1  2  1  0  0  0  0
 26 27  2  0  0  0  0
 26 28  1  0  0  0  0
 24 25  1  0  0  0  0
 22 23  1  0  0  0  0
 22 24  2  0  0  0  0
 20 21  1  0  0  0  0
 19 20  1  0  0  0  0
 19 22  1  0  0  0  0
 17 18  1  0  0  0  0
 17 19  2  0  0  0  0
 15 16  1  0  0  0  0
 15 17  1  0  0  0  0
 14 15  2  0  0  0  0
 14 24  1  0  0  0  0
 11 12  1  0  0  0  0
 11 13  1  0  0  0  0
 11 14  1  0  0  0  0
  9 10  1  0  0  0  0
  9 11  1  0  0  0  0
  9 26  1  0  0  0  0
  7  8  1  0  0  0  0
  7  9  1  0  0  0  0
 30 31  1  0  0  0  0
 30 32  1  0  0  0  0
 30 33  1  0  0  0  0
 28 29  1  0  0  0  0
 28 30  1  0  0  0  0
M  END
$$$$
default_name
  -OEChem-02102213163D

 33 33  0     1  0  0  0  0  0999 V2000
   -4.0702   -3.8485    1.4554 H   0  0  0  0  0  0  0  0  0  0  0  0
   -4.0012   -2.9605    0.8284 C   0  0  0  0  0  0  0  0  0  0  0  0
   -4.7652   -2.2435    1.1234 H   0  0  0  0  0  0  0  0  0  0  0  0
   -4.1352   -3.2385   -0.2156 H   0  0  0  0  0  0  0  0  0  0  0  0
   -2.6362   -2.3395    1.0094 C   0  0  0  0  0  0  0  0  0  0  0  0
   -1.8292   -2.8395    1.7814 O   0  0  0  0  0  0  0  0  0  0  0  0
   -2.3832   -1.2445    0.2964 N   0  0  0  0  0  0  0  0  0  0  0  0
   -3.1102   -0.8685   -0.2946 H   0  0  0  0  0  0  0  0  0  0  0  0
   -1.1292   -0.4875    0.3524 C   0  0  1  0  0  0  0  0  0  0  0  0
   -0.3087   -1.1556    0.0882 H   0  0  0  0  0  0  0  0  0  0  0  0
   -1.1749    0.6534   -0.6787 C   0  0  0  0  0  0  0  0  0  0  0  0
   -1.5821    1.5460   -0.2018 H   0  0  0  0  0  0  0  0  0  0  0  0
   -0.1563    0.8867   -0.9930 H   0  0  0  0  0  0  0  0  0  0  0  0
   -2.0192    0.3457   -1.9002 C   0  0  0  0  0  0  0  0  0  0  0  0
   -3.3914    0.0554   -1.7618 C   0  0  0  0  0  0  0  0  0  0  0  0
   -3.8419    0.0256   -0.7784 H   0  0  0  0  0  0  0  0  0  0  0  0
   -4.1800   -0.1899   -2.9028 C   0  0  0  0  0  0  0  0  0  0  0  0
   -5.2301   -0.4134   -2.7930 H   0  0  0  0  0  0  0  0  0  0  0  0
   -3.5946   -0.1410   -4.1867 C   0  0  0  0  0  0  0  0  0  0  0  0
   -4.3472   -0.3732   -5.2934 O   0  0  0  0  0  0  0  0  0  0  0  0
   -5.2380   -0.6488   -5.0730 H   0  0  0  0  0  0  0  0  0  0  0  0
   -2.2224    0.1544   -4.3236 C   0  0  0  0  0  0  0  0  0  0  0  0
   -1.7855    0.1846   -5.3104 H   0  0  0  0  0  0  0  0  0  0  0  0
   -1.4359    0.3947   -3.1810 C   0  0  0  0  0  0  0  0  0  0  0  0
   -0.3797    0.6124   -3.2864 H   0  0  0  0  0  0  0  0  0  0  0  0
   -0.8664    0.0378    1.7736 C   0  0  0  0  0  0  0  0  0  0  0  0
    0.2529   -0.0672    2.2760 O   0  0  0  0  0  0  0  0  0  0  0  0
   -1.8947    0.5991    2.4221 N   0  0  0  0  0  0  0  0  0  0  0  0
   -2.7942    0.5936    1.9635 H   0  0  0  0  0  0  0  0  0  0  0  0
   -1.8170    1.1453    3.7750 C   0  0  0  0  0  0  0  0  0  0  0  0
   -0.9697    1.8290    3.8506 H   0  0  0  0  0  0  0  0  0  0  0  0
   -2.7354    1.6828    4.0167 H   0  0  0  0  0  0  0  0  0  0  0  0
   -1.6754    0.3334    4.4914 H   0  0  0  0  0  0  0  0  0  0  0  0
  5  6  2  0  0  0  0
  5  7  1  0  0  0  0
  2  3  1  0  0  0  0
  2  4  1  0  0  0  0
  2  5  1  0  0  0  0
  1  2  1  0  0  0  0
 26 27  2  0  0  0  0
 26 28  1  0  0  0  0
 24 25  1  0  0  0  0
 22 23  1  0  0  0  0
 22 24  2  0  0  0  0
 20 21  1  0  0  0  0
 19 20  1  0  0  0  0
 19 22  1  0  0  0  0
 17 18  1  0  0  0  0
 17 19  2  0  0  0  0
 15 16  1  0  0  0  0
 15 17  1  0  0  0  0
 14 15  2  0  0  0  0
 14 24  1  0  0  0  0
 11 12  1  0  0  0  0
 11 13  1  0  0  0  0
 11 14  1  0  0  0  0
  9 10  1  0  0  0  0
  9 11  1  0  0  0  0
  9 26  1  0  0  0  0
  7  8  1  0  0  0  0
  7  9  1  0  0  0  0
 30 31  1  0  0  0  0
 30 32  1  0  0  0  0
 30 33  1  0  0  0  0
 28 29  1  0  0  0  0
 28 30  1  0  0  0  0
M  END
$$$$
default_name
  -OEChem-02102213163D

 33 33  0     1  0  0  0  0  0999 V2000
   -4.0702   -3.8485    1.4554 H   0  0  0  0  0  0  0  0  0  0  0  0
   -4.0012   -2.9605    0.8284 C   0  0  0  0  0  0  0  0  0  0  0  0
   -4.7652   -2.2435    1.1234 H   0  0  0  0  0  0  0  0  0  0  0  0
   -4.1352   -3.2385   -0.2156 H   0  0  0  0  0  0  0  0  0  0  0  0
   -2.6362   -2.3395    1.0094 C   0  0  0  0  0  0  0  0  0  0  0  0
   -1.8292   -2.8395    1.7814 O   0  0  0  0  0  0  0  0  0  0  0  0
   -2.3832   -1.2445    0.2964 N   0  0  0  0  0  0  0  0  0  0  0  0
   -3.1102   -0.8685   -0.2946 H   0  0  0  0  0  0  0  0  0  0  0  0
   -1.1292   -0.4875    0.3524 C   0  0  1  0  0  0  0  0  0  0  0  0
   -0.3087   -1.1556    0.0882 H   0  0  0  0  0  0  0  0  0  0  0  0
   -1.1749    0.6534   -0.6787 C   0  0  0  0  0  0  0  0  0  0  0  0
   -1.5821    1.5460   -0.2018 H   0  0  0  0  0  0  0  0  0  0  0  0
   -0.1563    0.8867   -0.9930 H   0  0  0  0  0  0  0  0  0  0  0  0
   -2.0192    0.3457   -1.9002 C   0  0  0  0  0  0  0  0  0  0  0  0
   -3.4259    0.3664   -1.8163 C   0  0  0  0  0  0  0  0  0  0  0  0
   -3.9088    0.5770   -0.8710 H   0  0  0  0  0  0  0  0  0  0  0  0
   -4.2056    0.1197   -2.9631 C   0  0  0  0  0  0  0  0  0  0  0  0
   -5.2825    0.1349   -2.8949 H   0  0  0  0  0  0  0  0  0  0  0  0
   -3.5758   -0.1449   -4.1988 C   0  0  0  0  0  0  0  0  0  0  0  0
   -4.3188   -0.3812   -5.3111 O   0  0  0  0  0  0  0  0  0  0  0  0
   -5.2553   -0.4326   -5.1156 H   0  0  0  0  0  0  0  0  0  0  0  0
   -2.1680   -0.1604   -4.2819 C   0  0  0  0  0  0  0  0  0  0  0  0
   -1.6981   -0.3683   -5.2314 H   0  0  0  0  0  0  0  0  0  0  0  0
   -1.3915    0.0820   -3.1329 C   0  0  0  0  0  0  0  0  0  0  0  0
   -0.3100    0.0608   -3.1956 H   0  0  0  0  0  0  0  0  0  0  0  0
   -0.8664    0.0378    1.7736 C   0  0  0  0  0  0  0  0  0  0  0  0
    0.2529   -0.0672    2.2760 O   0  0  0  0  0  0  0  0  0  0  0  0
   -1.8947    0.5991    2.4221 N   0  0  0  0  0  0  0  0  0  0  0  0
   -2.7942    0.5936    1.9635 H   0  0  0  0  0  0  0  0  0  0  0  0
   -1.8170    1.1453    3.7750 C   0  0  0  0  0  0  0  0  0  0  0  0
   -0.9697    1.8290    3.8506 H   0  0  0  0  0  0  0  0  0  0  0  0
   -2.7354    1.6828    4.0167 H   0  0  0  0  0  0  0  0  0  0  0  0
   -1.6754    0.3334    4.4914 H   0  0  0  0  0  0  0  0  0  0  0  0
  5  6  2  0  0  0  0
  5  7  1  0  0  0  0
  2  3  1  0  0  0  0
  2  4  1  0  0  0  0
  2  5  1  0  0  0  0
  1  2  1  0  0  0  0
 26 27  2  0  0  0  0
 26 28  1  0  0  0  0
 24 25  1  0  0  0  0
 22 23  1  0  0  0  0
 22 24  2  0  0  0  0
 20 21  1  0  0  0  0
 19 20  1  0  0  0  0
 19 22  1  0  0  0  0
 17 18  1  0  0  0  0
 17 19  2  0  0  0  0
 15 16  1  0  0  0  0
 15 17  1  0  0  0  0
 14 15  2  0  0  0  0
 14 24  1  0  0  0  0
 11 12  1  0  0  0  0
 11 13  1  0  0  0  0
 11 14  1  0  0  0  0
  9 10  1  0  0  0  0
  9 11  1  0  0  0  0
  9 26  1  0  0  0  0
  7  8  1  0  0  0  0
  7  9  1  0  0  0  0
 30 31  1  0  0  0  0
 30 32  1  0  0  0  0
 30 33  1  0  0  0  0
 28 29  1  0  0  0  0
 28 30  1  0  0  0  0
M  END
$$$$
default_name
  -OEChem-02102213163D

 33 33  0     1  0  0  0  0  0999 V2000
   -4.0702   -3.8485    1.4554 H   0  0  0  0  0  0  0  0  0  0  0  0
   -4.0012   -2.9605    0.8284 C   0  0  0  0  0  0  0  0  0  0  0  0
   -4.7652   -2.2435    1.1234 H   0  0  0  0  0  0  0  0  0  0  0  0
   -4.1352   -3.2385   -0.2156 H   0  0  0  0  0  0  0  0  0  0  0  0
   -2.6362   -2.3395    1.0094 C   0  0  0  0  0  0  0  0  0  0  0  0
   -1.8292   -2.8395    1.7814 O   0  0  0  0  0  0  0  0  0  0  0  0
   -2.3832   -1.2445    0.2964 N   0  0  0  0  0  0  0  0  0  0  0  0
   -3.1102   -0.8685   -0.2946 H   0  0  0  0  0  0  0  0  0  0  0  0
   -1.1292   -0.4875    0.3524 C   0  0  1  0  0  0  0  0  0  0  0  0
   -0.3087   -1.1556    0.0882 H   0  0  0  0  0  0  0  0  0  0  0  0
   -1.1749    0.6534   -0.6787 C   0  0  0  0  0  0  0  0  0  0  0  0
   -1.5821    1.5460   -0.2018 H   0  0  0  0  0  0  0  0  0  0  0  0
   -0.1563    0.8867   -0.9930 H   0  0  0  0  0  0  0  0  0  0  0  0
   -2.0192    0.3457   -1.9002 C   0  0  0  0  0  0  0  0  0  0  0  0
   -3.3916    0.6662   -1.9156 C   0  0  0  0  0  0  0  0  0  0  0  0
   -3.8536    1.1101   -1.0435 H   0  0  0  0  0  0  0  0  0  0  0  0
   -4.1626    0.4154   -3.0673 C   0  0  0  0  0  0  0  0  0  0  0  0
   -5.2135    0.6606   -3.0751 H   0  0  0  0  0  0  0  0  0  0  0  0
   -3.5577   -0.1544   -4.2089 C   0  0  0  0  0  0  0  0  0  0  0  0
   -4.2920   -0.3973   -5.3255 O   0  0  0  0  0  0  0  0  0  0  0  0
   -5.2247   -0.2262   -5.1887 H   0  0  0  0  0  0  0  0  0  0  0  0
   -2.1833   -0.4699   -4.1934 C   0  0  0  0  0  0  0  0  0  0  0  0
   -1.7332   -0.9093   -5.0709 H   0  0  0  0  0  0  0  0  0  0  0  0
   -1.4163   -0.2223   -3.0391 C   0  0  0  0  0  0  0  0  0  0  0  0
   -0.3624   -0.4736   -3.0247 H   0  0  0  0  0  0  0  0  0  0  0  0
   -0.8664    0.0378    1.7736 C   0  0  0  0  0  0  0  0  0  0  0  0
    0.2529   -0.0672    2.2760 O   0  0  0  0  0  0  0  0  0  0  0  0
   -1.8947    0.5991    2.4221 N   0  0  0  0  0  0  0  0  0  0  0  0
   -2.7942    0.5936    1.9635 H   0  0  0  0  0  0  0  0  0  0  0  0
   -1.8170    1.1453    3.7750 C   0  0  0  0  0  0  0  0  0  0  0  0
   -0.9697    1.8290    3.8506 H   0  0  0  0  0  0  0  0  0  0  0  0
   -2.7354    1.6828    4.0167 H   0  0  0  0  0  0  0  0  0  0  0  0
   -1.6754    0.3334    4.4914 H   0  0  0  0  0  0  0  0  0  0  0  0
  5  6  2  0  0  0  0
  5  7  1  0  0  0  0
  2  3  1  0  0  0  0
  2  4  1  0  0  0  0
  2  5  1  0  0  0  0
  1  2  1  0  0  0  0
 26 27  2  0  0  0  0
 26 28  1  0  0  0  0
 24 25  1  0  0  0  0
 22 23  1  0  0  0  0
 22 24  2  0  0  0  0
 20 21  1  0  0  0  0
 19 20  1  0  0  0  0
 19 22  1  0  0  0  0
 17 18  1  0  0  0  0
 17 19  2  0  0  0  0
 15 16  1  0  0  0  0
 15 17  1  0  0  0  0
 14 15  2  0  0  0  0
 14 24  1  0  0  0  0
 11 12  1  0  0  0  0
 11 13  1  0  0  0  0
 11 14  1  0  0  0  0
  9 10  1  0  0  0  0
  9 11  1  0  0  0  0
  9 26  1  0  0  0  0
  7  8  1  0  0  0  0
  7  9  1  0  0  0  0
 30 31  1  0  0  0  0
 30 32  1  0  0  0  0
 30 33  1  0  0  0  0
 28 29  1  0  0  0  0
 28 30  1  0  0  0  0
M  END
$$$$
default_name
  -OEChem-02102213163D

 33 33  0     1  0  0  0  0  0999 V2000
   -4.0702   -3.8485    1.4554 H   0  0  0  0  0  0  0  0  0  0  0  0
   -4.0012   -2.9605    0.8284 C   0  0  0  0  0  0  0  0  0  0  0  0
   -4.7652   -2.2435    1.1234 H   0  0  0  0  0  0  0  0  0  0  0  0
   -4.1352   -3.2385   -0.2156 H   0  0  0  0  0  0  0  0  0  0  0  0
   -2.6362   -2.3395    1.0094 C   0  0  0  0  0  0  0  0  0  0  0  0
   -1.8292   -2.8395    1.7814 O   0  0  0  0  0  0  0  0  0  0  0  0
   -2.3832   -1.2445    0.2964 N   0  0  0  0  0  0  0  0  0  0  0  0
   -3.1102   -0.8685   -0.2946 H   0  0  0  0  0  0  0  0  0  0  0  0
   -1.1292   -0.4875    0.3524 C   0  0  1  0  0  0  0  0  0  0  0  0
   -0.3087   -1.1556    0.0882 H   0  0  0  0  0  0  0  0  0  0  0  0
   -1.1749    0.6534   -0.6787 C   0  0  0  0  0  0  0  0  0  0  0  0
   -1.5821    1.5460   -0.2018 H   0  0  0  0  0  0  0  0  0  0  0  0
   -0.1563    0.8867   -0.9930 H   0  0  0  0  0  0  0  0  0  0  0  0
   -2.0192    0.3457   -1.9002 C   0  0  0  0  0  0  0  0  0  0  0  0
   -3.2907    0.9342   -2.0529 C   0  0  0  0  0  0  0  0  0  0  0  0
   -3.6800    1.5887   -1.2840 H   0  0  0  0  0  0  0  0  0  0  0  0
   -4.0539    0.6771   -3.2084 C   0  0  0  0  0  0  0  0  0  0  0  0
   -5.0278    1.1282   -3.3212 H   0  0  0  0  0  0  0  0  0  0  0  0
   -3.5417   -0.1688   -4.2163 C   0  0  0  0  0  0  0  0  0  0  0  0
   -4.2687   -0.4207   -5.3357 O   0  0  0  0  0  0  0  0  0  0  0  0
   -5.1483   -0.0437   -5.2875 H   0  0  0  0  0  0  0  0  0  0  0  0
   -2.2672   -0.7529   -4.0641 C   0  0  0  0  0  0  0  0  0  0  0  0
   -1.8883   -1.4014   -4.8397 H   0  0  0  0  0  0  0  0  0  0  0  0
   -1.5087   -0.4976   -2.9059 C   0  0  0  0  0  0  0  0  0  0  0  0
   -0.5334   -0.9542   -2.7854 H   0  0  0  0  0  0  0  0  0  0  0  0
   -0.8664    0.0378    1.7736 C   0  0  0  0  0  0  0  0  0  0  0  0
    0.2529   -0.0672    2.2760 O   0  0  0  0  0  0  0  0  0  0  0  0
   -1.8947    0.5991    2.4221 N   0  0  0  0  0  0  0  0  0  0  0  0
   -2.7942    0.5936    1.9635 H   0  0  0  0  0  0  0  0  0  0  0  0
   -1.8170    1.1453    3.7750 C   0  0  0  0  0  0  0  0  0  0  0  0
   -0.9697    1.8290    3.8506 H   0  0  0  0  0  0  0  0  0  0  0  0
   -2.7354    1.6828    4.0167 H   0  0  0  0  0  0  0  0  0  0  0  0
   -1.6754    0.3334    4.4914 H   0  0  0  0  0  0  0  0  0  0  0  0
  5  6  2  0  0  0  0
  5  7  1  0  0  0  0
  2  3  1  0  0  0  0
  2  4  1  0  0  0  0
  2  5  1  0  0  0  0
  1  2  1  0  0  0  0
 26 27  2  0  0  0  0
 26 28  1  0  0  0  0
 24 25  1  0  0  0  0
 22 23  1  0  0  0  0
 22 24  2  0  0  0  0
 20 21  1  0  0  0  0
 19 20  1  0  0  0  0
 19 22  1  0  0  0  0
 17 18  1  0  0  0  0
 17 19  2  0  0  0  0
 15 16  1  0  0  0  0
 15 17  1  0  0  0  0
 14 15  2  0  0  0  0
 14 24  1  0  0  0  0
 11 12  1  0  0  0  0
 11 13  1  0  0  0  0
 11 14  1  0  0  0  0
  9 10  1  0  0  0  0
  9 11  1  0  0  0  0
  9 26  1  0  0  0  0
  7  8  1  0  0  0  0
  7  9  1  0  0  0  0
 30 31  1  0  0  0  0
 30 32  1  0  0  0  0
 30 33  1  0  0  0  0
 28 29  1  0  0  0  0
 28 30  1  0  0  0  0
M  END
$$$$
default_name
  -OEChem-02102213163D

 33 33  0     1  0  0  0  0  0999 V2000
   -4.0702   -3.8485    1.4554 H   0  0  0  0  0  0  0  0  0  0  0  0
   -4.0012   -2.9605    0.8284 C   0  0  0  0  0  0  0  0  0  0  0  0
   -4.7652   -2.2435    1.1234 H   0  0  0  0  0  0  0  0  0  0  0  0
   -4.1352   -3.2385   -0.2156 H   0  0  0  0  0  0  0  0  0  0  0  0
   -2.6362   -2.3395    1.0094 C   0  0  0  0  0  0  0  0  0  0  0  0
   -1.8292   -2.8395    1.7814 O   0  0  0  0  0  0  0  0  0  0  0  0
   -2.3832   -1.2445    0.2964 N   0  0  0  0  0  0  0  0  0  0  0  0
   -3.1102   -0.8685   -0.2946 H   0  0  0  0  0  0  0  0  0  0  0  0
   -1.1292   -0.4875    0.3524 C   0  0  1  0  0  0  0  0  0  0  0  0
   -0.3087   -1.1556    0.0882 H   0  0  0  0  0  0  0  0  0  0  0  0
   -1.1749    0.6534   -0.6787 C   0  0  0  0  0  0  0  0  0  0  0  0
   -1.5821    1.5460   -0.2018 H   0  0  0  0  0  0  0  0  0  0  0  0
   -0.1563    0.8867   -0.9930 H   0  0  0  0  0  0  0  0  0  0  0  0
   -2.0192    0.3457   -1.9002 C   0  0  0  0  0  0  0  0  0  0  0  0
   -3.1302    1.1523   -2.2188 C   0  0  0  0  0  0  0  0  0  0  0  0
   -3.4000    1.9802   -1.5762 H   0  0  0  0  0  0  0  0  0  0  0  0
   -3.8870    0.8868   -3.3766 C   0  0  0  0  0  0  0  0  0  0  0  0
   -4.7380    1.5056   -3.6166 H   0  0  0  0  0  0  0  0  0  0  0  0
   -3.5289   -0.1870   -4.2205 C   0  0  0  0  0  0  0  0  0  0  0  0
   -4.2506   -0.4495   -5.3410 O   0  0  0  0  0  0  0  0  0  0  0  0
   -5.0312    0.1023   -5.4052 H   0  0  0  0  0  0  0  0  0  0  0  0
   -2.4140   -0.9901   -3.9028 C   0  0  0  0  0  0  0  0  0  0  0  0
   -2.1529   -1.8110   -4.5536 H   0  0  0  0  0  0  0  0  0  0  0  0
   -1.6623   -0.7251   -2.7424 C   0  0  0  0  0  0  0  0  0  0  0  0
   -0.8114   -1.3482   -2.4940 H   0  0  0  0  0  0  0  0  0  0  0  0
   -0.8664    0.0378    1.7736 C   0  0  0  0  0  0  0  0  0  0  0  0
    0.2529   -0.0672    2.2760 O   0  0  0  0  0  0  0  0  0  0  0  0
   -1.8947    0.5991    2.4221 N   0  0  0  0  0  0  0  0  0  0  0  0
   -2.7942    0.5936    1.9635 H   0  0  0  0  0  0  0  0  0  0  0  0
   -1.8170    1.1453    3.7750 C   0  0  0  0  0  0  0  0  0  0  0  0
   -0.9697    1.8290    3.8506 H   0  0  0  0  0  0  0  0  0  0  0  0
   -2.7354    1.6828    4.0167 H   0  0  0  0  0  0  0  0  0  0  0  0
   -1.6754    0.3334    4.4914 H   0  0  0  0  0  0  0  0  0  0  0  0
  5  6  2  0  0  0  0
  5  7  1  0  0  0  0
  2  3  1  0  0  0  0
  2  4  1  0  0  0  0
  2  5  1  0  0  0  0
  1  2  1  0  0  0  0
 26 27  2  0  0  0  0
 26 28  1  0  0  0  0
 24 25  1  0  0  0  0
 22 23  1  0  0  0  0
 22 24  2  0  0  0  0
 20 21  1  0  0  0  0
 19 20  1  0  0  0  0
 19 22  1  0  0  0  0
 17 18  1  0  0  0  0
 17 19  2  0  0  0  0
 15 16  1  0  0  0  0
 15 17  1  0  0  0  0
 14 15  2  0  0  0  0
 14 24  1  0  0  0  0
 11 12  1  0  0  0  0
 11 13  1  0  0  0  0
 11 14  1  0  0  0  0
  9 10  1  0  0  0  0
  9 11  1  0  0  0  0
  9 26  1  0  0  0  0
  7  8  1  0  0  0  0
  7  9  1  0  0  0  0
 30 31  1  0  0  0  0
 30 32  1  0  0  0  0
 30 33  1  0  0  0  0
 28 29  1  0  0  0  0
 28 30  1  0  0  0  0
M  END
$$$$
default_name
  -OEChem-02102213163D

 33 33  0     1  0  0  0  0  0999 V2000
   -4.0702   -3.8485    1.4554 H   0  0  0  0  0  0  0  0  0  0  0  0
   -4.0012   -2.9605    0.8284 C   0  0  0  0  0  0  0  0  0  0  0  0
   -4.7652   -2.2435    1.1234 H   0  0  0  0  0  0  0  0  0  0  0  0
   -4.1352   -3.2385   -0.2156 H   0  0  0  0  0  0  0  0  0  0  0  0
   -2.6362   -2.3395    1.0094 C   0  0  0  0  0  0  0  0  0  0  0  0
   -1.8292   -2.8395    1.7814 O   0  0  0  0  0  0  0  0  0  0  0  0
   -2.3832   -1.2445    0.2964 N   0  0  0  0  0  0  0  0  0  0  0  0
   -3.1102   -0.8685   -0.2946 H   0  0  0  0  0  0  0  0  0  0  0  0
   -1.1292   -0.4875    0.3524 C   0  0  1  0  0  0  0  0  0  0  0  0
   -0.3087   -1.1556    0.0882 H   0  0  0  0  0  0  0  0  0  0  0  0
   -1.1749    0.6534   -0.6787 C   0  0  0  0  0  0  0  0  0  0  0  0
   -1.5821    1.5460   -0.2018 H   0  0  0  0  0  0  0  0  0  0  0  0
   -0.1563    0.8867   -0.9930 H   0  0  0  0  0  0  0  0  0  0  0  0
   -2.0192    0.3457   -1.9002 C   0  0  0  0  0  0  0  0  0  0  0  0
   -2.9209    1.3056   -2.4020 C   0  0  0  0  0  0  0  0  0  0  0  0
   -3.0326    2.2578   -1.9001 H   0  0  0  0  0  0  0  0  0  0  0  0
   -3.6732    1.0304   -3.5605 C   0  0  0  0  0  0  0  0  0  0  0  0
   -4.3638    1.7671   -3.9411 H   0  0  0  0  0  0  0  0  0  0  0  0
   -3.5201   -0.2080   -4.2214 C   0  0  0  0  0  0  0  0  0  0  0  0
   -4.2388   -0.4819   -5.3410 O   0  0  0  0  0  0  0  0  0  0  0  0
   -4.8815    0.2020   -5.5338 H   0  0  0  0  0  0  0  0  0  0  0  0
   -2.6138   -1.1655   -3.7206 C   0  0  0  0  0  0  0  0  0  0  0  0
   -2.5088   -2.1103   -4.2322 H   0  0  0  0  0  0  0  0  0  0  0  0
   -1.8667   -0.8892   -2.5598 C   0  0  0  0  0  0  0  0  0  0  0  0
   -1.1774   -1.6289   -2.1704 H   0  0  0  0  0  0  0  0  0  0  0  0
   -0.8664    0.0378    1.7736 C   0  0  0  0  0  0  0  0  0  0  0  0
    0.2529   -0.0672    2.2760 O   0  0  0  0  0  0  0  0  0  0  0  0
   -1.8947    0.5991    2.4221 N   0  0  0  0  0  0  0  0  0  0  0  0
   -2.7942    0.5936    1.9635 H   0  0  0  0  0  0  0  0  0  0  0  0
   -1.8170    1.1453    3.7750 C   0  0  0  0  0  0  0  0  0  0  0  0
   -0.9697    1.8290    3.8506 H   0  0  0  0  0  0  0  0  0  0  0  0
   -2.7354    1.6828    4.0167 H   0  0  0  0  0  0  0  0  0  0  0  0
   -1.6754    0.3334    4.4914 H   0  0  0  0  0  0  0  0  0  0  0  0
  5  6  2  0  0  0  0
  5  7  1  0  0  0  0
  2  3  1  0  0  0  0
  2  4  1  0  0  0  0
  2  5  1  0  0  0  0
  1  2  1  0  0  0  0
 26 27  2  0  0  0  0
 26 28  1  0  0  0  0
 24 25  1  0  0  0  0
 22 23  1  0  0  0  0
 22 24  2  0  0  0  0
 20 21  1  0  0  0  0
 19 20  1  0  0  0  0
 19 22  1  0  0  0  0
 17 18  1  0  0  0  0
 17 19  2  0  0  0  0
 15 16  1  0  0  0  0
 15 17  1  0  0  0  0
 14 15  2  0  0  0  0
 14 24  1  0  0  0  0
 11 12  1  0  0  0  0
 11 13  1  0  0  0  0
 11 14  1  0  0  0  0
  9 10  1  0  0  0  0
  9 11  1  0  0  0  0
  9 26  1  0  0  0  0
  7  8  1  0  0  0  0
  7  9  1  0  0  0  0
 30 31  1  0  0  0  0
 30 32  1  0  0  0  0
 30 33  1  0  0  0  0
 28 29  1  0  0  0  0
 28 30  1  0  0  0  0
M  END
$$$$
default_name
  -OEChem-02102213163D

 33 33  0     1  0  0  0  0  0999 V2000
   -4.0702   -3.8485    1.4554 H   0  0  0  0  0  0  0  0  0  0  0  0
   -4.0012   -2.9605    0.8284 C   0  0  0  0  0  0  0  0  0  0  0  0
   -4.7652   -2.2435    1.1234 H   0  0  0  0  0  0  0  0  0  0  0  0
   -4.1352   -3.2385   -0.2156 H   0  0  0  0  0  0  0  0  0  0  0  0
   -2.6362   -2.3395    1.0094 C   0  0  0  0  0  0  0  0  0  0  0  0
   -1.8292   -2.8395    1.7814 O   0  0  0  0  0  0  0  0  0  0  0  0
   -2.3832   -1.2445    0.2964 N   0  0  0  0  0  0  0  0  0  0  0  0
   -3.1102   -0.8685   -0.2946 H   0  0  0  0  0  0  0  0  0  0  0  0
   -1.1292   -0.4875    0.3524 C   0  0  1  0  0  0  0  0  0  0  0  0
   -0.3087   -1.1556    0.0882 H   0  0  0  0  0  0  0  0  0  0  0  0
   -1.1749    0.6534   -0.6787 C   0  0  0  0  0  0  0  0  0  0  0  0
   -1.5821    1.5460   -0.2018 H   0  0  0  0  0  0  0  0  0  0  0  0
   -0.1563    0.8867   -0.9930 H   0  0  0  0  0  0  0  0  0  0  0  0
   -2.0192    0.3457   -1.9002 C   0  0  0  0  0  0  0  0  0  0  0  0
   -2.6772    1.3836   -2.5901 C   0  0  0  0  0  0  0  0  0  0  0  0
   -2.6027    2.4027   -2.2337 H   0  0  0  0  0  0  0  0  0  0  0  0
   -3.4271    1.0979   -3.7477 C   0  0  0  0  0  0  0  0  0  0  0  0
   -3.9309    1.8950   -4.2726 H   0  0  0  0  0  0  0  0  0  0  0  0
   -3.5159   -0.2302   -4.2187 C   0  0  0  0  0  0  0  0  0  0  0  0
   -4.2342   -0.5156   -5.3357 O   0  0  0  0  0  0  0  0  0  0  0  0
   -4.7094    0.2486   -5.6645 H   0  0  0  0  0  0  0  0  0  0  0  0
   -2.8529   -1.2669   -3.5298 C   0  0  0  0  0  0  0  0  0  0  0  0
   -2.9320   -2.2789   -3.8973 H   0  0  0  0  0  0  0  0  0  0  0  0
   -2.1079   -0.9788   -2.3705 C   0  0  0  0  0  0  0  0  0  0  0  0
   -1.6064   -1.7771   -1.8365 H   0  0  0  0  0  0  0  0  0  0  0  0
   -0.8664    0.0378    1.7736 C   0  0  0  0  0  0  0  0  0  0  0  0
    0.2529   -0.0672    2.2760 O   0  0  0  0  0  0  0  0  0  0  0  0
   -1.8947    0.5991    2.4221 N   0  0  0  0  0  0  0  0  0  0  0  0
   -2.7942    0.5936    1.9635 H   0  0  0  0  0  0  0  0  0  0  0  0
   -1.8170    1.1453    3.7750 C   0  0  0  0  0  0  0  0  0  0  0  0
   -0.9697    1.8290    3.8506 H   0  0  0  0  0  0  0  0  0  0  0  0
   -2.7354    1.6828    4.0167 H   0  0  0  0  0  0  0  0  0  0  0  0
   -1.6754    0.3334    4.4914 H   0  0  0  0  0  0  0  0  0  0  0  0
  5  6  2  0  0  0  0
  5  7  1  0  0  0  0
  2  3  1  0  0  0  0
  2  4  1  0  0  0  0
  2  5  1  0  0  0  0
  1  2  1  0  0  0  0
 26 27  2  0  0  0  0
 26 28  1  0  0  0  0
 24 25  1  0  0  0  0
 22 23  1  0  0  0  0
 22 24  2  0  0  0  0
 20 21  1  0  0  0  0
 19 20  1  0  0  0  0
 19 22  1  0  0  0  0
 17 18  1  0  0  0  0
 17 19  2  0  0  0  0
 15 16  1  0  0  0  0
 15 17  1  0  0  0  0
 14 15  2  0  0  0  0
 14 24  1  0  0  0  0
 11 12  1  0  0  0  0
 11 13  1  0  0  0  0
 11 14  1  0  0  0  0
  9 10  1  0  0  0  0
  9 11  1  0  0  0  0
  9 26  1  0  0  0  0
  7  8  1  0  0  0  0
  7  9  1  0  0  0  0
 30 31  1  0  0  0  0
 30 32  1  0  0  0  0
 30 33  1  0  0  0  0
 28 29  1  0  0  0  0
 28 30  1  0  0  0  0
M  END
$$$$
default_name
  -OEChem-02102213163D

 33 33  0     1  0  0  0  0  0999 V2000
   -4.0702   -3.8485    1.4554 H   0  0  0  0  0  0  0  0  0  0  0  0
   -4.0012   -2.9605    0.8284 C   0  0  0  0  0  0  0  0  0  0  0  0
   -4.7652   -2.2435    1.1234 H   0  0  0  0  0  0  0  0  0  0  0  0
   -4.1352   -3.2385   -0.2156 H   0  0  0  0  0  0  0  0  0  0  0  0
   -2.6362   -2.3395    1.0094 C   0  0  0  0  0  0  0  0  0  0  0  0
   -1.8292   -2.8395    1.7814 O   0  0  0  0  0  0  0  0  0  0  0  0
   -2.3832   -1.2445    0.2964 N   0  0  0  0  0  0  0  0  0  0  0  0
   -3.1102   -0.8685   -0.2946 H   0  0  0  0  0  0  0  0  0  0  0  0
   -1.1292   -0.4875    0.3524 C   0  0  1  0  0  0  0  0  0  0  0  0
   -0.3087   -1.1556    0.0882 H   0  0  0  0  0  0  0  0  0  0  0  0
   -1.1749    0.6534   -0.6787 C   0  0  0  0  0  0  0  0  0  0  0  0
   -1.5821    1.5460   -0.2018 H   0  0  0  0  0  0  0  0  0  0  0  0
   -0.1563    0.8867   -0.9930 H   0  0  0  0  0  0  0  0  0  0  0  0
   -2.0192    0.3457   -1.9002 C   0  0  0  0  0  0  0  0  0  0  0  0
   -2.4156    1.3811   -2.7703 C   0  0  0  0  0  0  0  0  0  0  0  0
   -2.1398    2.4050   -2.5543 H   0  0  0  0  0  0  0  0  0  0  0  0
   -3.1654    1.0850   -3.9252 C   0  0  0  0  0  0  0  0  0  0  0  0
   -3.4686    1.8805   -4.5884 H   0  0  0  0  0  0  0  0  0  0  0  0
   -3.5167   -0.2521   -4.2126 C   0  0  0  0  0  0  0  0  0  0  0  0
   -4.2370   -0.5484   -5.3254 O   0  0  0  0  0  0  0  0  0  0  0  0
   -4.5265    0.2389   -5.7884 H   0  0  0  0  0  0  0  0  0  0  0  0
   -3.1150   -1.2875   -3.3434 C   0  0  0  0  0  0  0  0  0  0  0  0
   -3.3934   -2.3053   -3.5717 H   0  0  0  0  0  0  0  0  0  0  0  0
   -2.3695   -0.9877   -2.1874 C   0  0  0  0  0  0  0  0  0  0  0  0
   -2.0692   -1.7827   -1.5152 H   0  0  0  0  0  0  0  0  0  0  0  0
   -0.8664    0.0378    1.7736 C   0  0  0  0  0  0  0  0  0  0  0  0
    0.2529   -0.0672    2.2760 O   0  0  0  0  0  0  0  0  0  0  0  0
   -1.8947    0.5991    2.4221 N   0  0  0  0  0  0  0  0  0  0  0  0
   -2.7942    0.5936    1.9635 H   0  0  0  0  0  0  0  0  0  0  0  0
   -1.8170    1.1453    3.7750 C   0  0  0  0  0  0  0  0  0  0  0  0
   -0.9697    1.8290    3.8506 H   0  0  0  0  0  0  0  0  0  0  0  0
   -2.7354    1.6828    4.0167 H   0  0  0  0  0  0  0  0  0  0  0  0
   -1.6754    0.3334    4.4914 H   0  0  0  0  0  0  0  0  0  0  0  0
  5  6  2  0  0  0  0
  5  7  1  0  0  0  0
  2  3  1  0  0  0  0
  2  4  1  0  0  0  0
  2  5  1  0  0  0  0
  1  2  1  0  0  0  0
 26 27  2  0  0  0  0
 26 28  1  0  0  0  0
 24 25  1  0  0  0  0
 22 23  1  0  0  0  0
 22 24  2  0  0  0  0
 20 21  1  0  0  0  0
 19 20  1  0  0  0  0
 19 22  1  0  0  0  0
 17 18  1  0  0  0  0
 17 19  2  0  0  0  0
 15 16  1  0  0  0  0
 15 17  1  0  0  0  0
 14 15  2  0  0  0  0
 14 24  1  0  0  0  0
 11 12  1  0  0  0  0
 11 13  1  0  0  0  0
 11 14  1  0  0  0  0
  9 10  1  0  0  0  0
  9 11  1  0  0  0  0
  9 26  1  0  0  0  0
  7  8  1  0  0  0  0
  7  9  1  0  0  0  0
 30 31  1  0  0  0  0
 30 32  1  0  0  0  0
 30 33  1  0  0  0  0
 28 29  1  0  0  0  0
 28 30  1  0  0  0  0
M  END
$$$$
default_name
  -OEChem-02102213163D

 33 33  0     1  0  0  0  0  0999 V2000
   -4.0702   -3.8485    1.4554 H   0  0  0  0  0  0  0  0  0  0  0  0
   -4.0012   -2.9605    0.8284 C   0  0  0  0  0  0  0  0  0  0  0  0
   -4.7652   -2.2435    1.1234 H   0  0  0  0  0  0  0  0  0  0  0  0
   -4.1352   -3.2385   -0.2156 H   0  0  0  0  0  0  0  0  0  0  0  0
   -2.6362   -2.3395    1.0094 C   0  0  0  0  0  0  0  0  0  0  0  0
   -1.8292   -2.8395    1.7814 O   0  0  0  0  0  0  0  0  0  0  0  0
   -2.3832   -1.2445    0.2964 N   0  0  0  0  0  0  0  0  0  0  0  0
   -3.1102   -0.8685   -0.2946 H   0  0  0  0  0  0  0  0  0  0  0  0
   -1.1292   -0.4875    0.3524 C   0  0  1  0  0  0  0  0  0  0  0  0
   -0.3087   -1.1556    0.0882 H   0  0  0  0  0  0  0  0  0  0  0  0
   -1.1749    0.6534   -0.6787 C   0  0  0  0  0  0  0  0  0  0  0  0
   -1.3222    1.5988   -0.1548 H   0  0  0  0  0  0  0  0  0  0  0  0
   -0.2112    0.7086   -1.1877 H   0  0  0  0  0  0  0  0  0  0  0  0
   -2.2790    0.5088   -1.7082 C   0  0  0  0  0  0  0  0  0  0  0  0
   -2.4430    1.4797   -2.7165 C   0  0  0  0  0  0  0  0  0  0  0  0
   -1.7964    2.3469   -2.7433 H   0  0  0  0  0  0  0  0  0  0  0  0
   -3.4440    1.3201   -3.6945 C   0  0  0  0  0  0  0  0  0  0  0  0
   -3.5679    2.0663   -4.4642 H   0  0  0  0  0  0  0  0  0  0  0  0
   -4.2812    0.1835   -3.6658 C   0  0  0  0  0  0  0  0  0  0  0  0
   -5.2475    0.0189   -4.6061 O   0  0  0  0  0  0  0  0  0  0  0  0
   -5.3256    0.7814   -5.1810 H   0  0  0  0  0  0  0  0  0  0  0  0
   -4.1124   -0.7895   -2.6590 C   0  0  0  0  0  0  0  0  0  0  0  0
   -4.7615   -1.6520   -2.6450 H   0  0  0  0  0  0  0  0  0  0  0  0
   -3.1139   -0.6249   -1.6802 C   0  0  0  0  0  0  0  0  0  0  0  0
   -2.9909   -1.3682   -0.9015 H   0  0  0  0  0  0  0  0  0  0  0  0
   -0.8664    0.0378    1.7736 C   0  0  0  0  0  0  0  0  0  0  0  0
    0.2529   -0.0672    2.2760 O   0  0  0  0  0  0  0  0  0  0  0  0
   -1.8947    0.5991    2.4221 N   0  0  0  0  0  0  0  0  0  0  0  0
   -2.7942    0.5936    1.9635 H   0  0  0  0  0  0  0  0  0  0  0  0
   -1.8170    1.1453    3.7750 C   0  0  0  0  0  0  0  0  0  0  0  0
   -0.9697    1.8290    3.8506 H   0  0  0  0  0  0  0  0  0  0  0  0
   -2.7354    1.6828    4.0167 H   0  0  0  0  0  0  0  0  0  0  0  0
   -1.6754    0.3334    4.4914 H   0  0  0  0  0  0  0  0  0  0  0  0
  5  6  2  0  0  0  0
  5  7  1  0  0  0  0
  2  3  1  0  0  0  0
  2  4  1  0  0  0  0
  2  5  1  0  0  0  0
  1  2  1  0  0  0  0
 26 27  2  0  0  0  0
 26 28  1  0  0  0  0
 24 25  1  0  0  0  0
 22 23  1  0  0  0  0
 22 24  2  0  0  0  0
 20 21  1  0  0  0  0
 19 20  1  0  0  0  0
 19 22  1  0  0  0  0
 17 18  1  0  0  0  0
 17 19  2  0  0  0  0
 15 16  1  0  0  0  0
 15 17  1  0  0  0  0
 14 15  2  0  0  0  0
 14 24  1  0  0  0  0
 11 12  1  0  0  0  0
 11 13  1  0  0  0  0
 11 14  1  0  0  0  0
  9 10  1  0  0  0  0
  9 11  1  0  0  0  0
  9 26  1  0  0  0  0
  7  8  1  0  0  0  0
  7  9  1  0  0  0  0
 30 31  1  0  0  0  0
 30 32  1  0  0  0  0
 30 33  1  0  0  0  0
 28 29  1  0  0  0  0
 28 30  1  0  0  0  0
M  END
$$$$
default_name
  -OEChem-02102213163D

 33 33  0     1  0  0  0  0  0999 V2000
   -4.0702   -3.8485    1.4554 H   0  0  0  0  0  0  0  0  0  0  0  0
   -4.0012   -2.9605    0.8284 C   0  0  0  0  0  0  0  0  0  0  0  0
   -4.7652   -2.2435    1.1234 H   0  0  0  0  0  0  0  0  0  0  0  0
   -4.1352   -3.2385   -0.2156 H   0  0  0  0  0  0  0  0  0  0  0  0
   -2.6362   -2.3395    1.0094 C   0  0  0  0  0  0  0  0  0  0  0  0
   -1.8292   -2.8395    1.7814 O   0  0  0  0  0  0  0  0  0  0  0  0
   -2.3832   -1.2445    0.2964 N   0  0  0  0  0  0  0  0  0  0  0  0
   -3.1102   -0.8685   -0.2946 H   0  0  0  0  0  0  0  0  0  0  0  0
   -1.1292   -0.4875    0.3524 C   0  0  1  0  0  0  0  0  0  0  0  0
   -0.3087   -1.1556    0.0882 H   0  0  0  0  0  0  0  0  0  0  0  0
   -1.1749    0.6534   -0.6787 C   0  0  0  0  0  0  0  0  0  0  0  0
   -1.3222    1.5988   -0.1548 H   0  0  0  0  0  0  0  0  0  0  0  0
   -0.2112    0.7086   -1.1877 H   0  0  0  0  0  0  0  0  0  0  0  0
   -2.2790    0.5088   -1.7082 C   0  0  0  0  0  0  0  0  0  0  0  0
   -2.2596    1.2831   -2.8856 C   0  0  0  0  0  0  0  0  0  0  0  0
   -1.4686    2.0039   -3.0465 H   0  0  0  0  0  0  0  0  0  0  0  0
   -3.2653    1.1160   -3.8575 C   0  0  0  0  0  0  0  0  0  0  0  0
   -3.2482    1.7118   -4.7572 H   0  0  0  0  0  0  0  0  0  0  0  0
   -4.2917    0.1684   -3.6524 C   0  0  0  0  0  0  0  0  0  0  0  0
   -5.2645   -0.0023   -4.5850 O   0  0  0  0  0  0  0  0  0  0  0  0
   -5.2010    0.6384   -5.2945 H   0  0  0  0  0  0  0  0  0  0  0  0
   -4.3067   -0.6091   -2.4759 C   0  0  0  0  0  0  0  0  0  0  0  0
   -5.0992   -1.3273   -2.3285 H   0  0  0  0  0  0  0  0  0  0  0  0
   -3.3027   -0.4365   -1.5042 C   0  0  0  0  0  0  0  0  0  0  0  0
   -3.3201   -1.0276   -0.5963 H   0  0  0  0  0  0  0  0  0  0  0  0
   -0.8664    0.0378    1.7736 C   0  0  0  0  0  0  0  0  0  0  0  0
    0.2529   -0.0672    2.2760 O   0  0  0  0  0  0  0  0  0  0  0  0
   -1.8947    0.5991    2.4221 N   0  0  0  0  0  0  0  0  0  0  0  0
   -2.7942    0.5936    1.9635 H   0  0  0  0  0  0  0  0  0  0  0  0
   -1.8170    1.1453    3.7750 C   0  0  0  0  0  0  0  0  0  0  0  0
   -0.9697    1.8290    3.8506 H   0  0  0  0  0  0  0  0  0  0  0  0
   -2.7354    1.6828    4.0167 H   0  0  0  0  0  0  0  0  0  0  0  0
   -1.6754    0.3334    4.4914 H   0  0  0  0  0  0  0  0  0  0  0  0
  5  6  2  0  0  0  0
  5  7  1  0  0  0  0
  2  3  1  0  0  0  0
  2  4  1  0  0  0  0
  2  5  1  0  0  0  0
  1  2  1  0  0  0  0
 26 27  2  0  0  0  0
 26 28  1  0  0  0  0
 24 25  1  0  0  0  0
 22 23  1  0  0  0  0
 22 24  2  0  0  0  0
 20 21  1  0  0  0  0
 19 20  1  0  0  0  0
 19 22  1  0  0  0  0
 17 18  1  0  0  0  0
 17 19  2  0  0  0  0
 15 16  1  0  0  0  0
 15 17  1  0  0  0  0
 14 15  2  0  0  0  0
 14 24  1  0  0  0  0
 11 12  1  0  0  0  0
 11 13  1  0  0  0  0
 11 14  1  0  0  0  0
  9 10  1  0  0  0  0
  9 11  1  0  0  0  0
  9 26  1  0  0  0  0
  7  8  1  0  0  0  0
  7  9  1  0  0  0  0
 30 31  1  0  0  0  0
 30 32  1  0  0  0  0
 30 33  1  0  0  0  0
 28 29  1  0  0  0  0
 28 30  1  0  0  0  0
M  END
$$$$
default_name
  -OEChem-02102213163D

 33 33  0     1  0  0  0  0  0999 V2000
   -4.0702   -3.8485    1.4554 H   0  0  0  0  0  0  0  0  0  0  0  0
   -4.0012   -2.9605    0.8284 C   0  0  0  0  0  0  0  0  0  0  0  0
   -4.7652   -2.2435    1.1234 H   0  0  0  0  0  0  0  0  0  0  0  0
   -4.1352   -3.2385   -0.2156 H   0  0  0  0  0  0  0  0  0  0  0  0
   -2.6362   -2.3395    1.0094 C   0  0  0  0  0  0  0  0  0  0  0  0
   -1.8292   -2.8395    1.7814 O   0  0  0  0  0  0  0  0  0  0  0  0
   -2.3832   -1.2445    0.2964 N   0  0  0  0  0  0  0  0  0  0  0  0
   -3.1102   -0.8685   -0.2946 H   0  0  0  0  0  0  0  0  0  0  0  0
   -1.1292   -0.4875    0.3524 C   0  0  1  0  0  0  0  0  0  0  0  0
   -0.3087   -1.1556    0.0882 H   0  0  0  0  0  0  0  0  0  0  0  0
   -1.1749    0.6534   -0.6787 C   0  0  0  0  0  0  0  0  0  0  0  0
   -1.3222    1.5988   -0.1548 H   0  0  0  0  0  0  0  0  0  0  0  0
   -0.2112    0.7086   -1.1877 H   0  0  0  0  0  0  0  0  0  0  0  0
   -2.2790    0.5088   -1.7082 C   0  0  0  0  0  0  0  0  0  0  0  0
   -2.1128    1.0292   -3.0074 C   0  0  0  0  0  0  0  0  0  0  0  0
   -1.2048    1.5579   -3.2667 H   0  0  0  0  0  0  0  0  0  0  0  0
   -3.1245    0.8568   -3.9721 C   0  0  0  0  0  0  0  0  0  0  0  0
   -2.9945    1.2580   -4.9654 H   0  0  0  0  0  0  0  0  0  0  0  0
   -4.3048    0.1582   -3.6369 C   0  0  0  0  0  0  0  0  0  0  0  0
   -5.2851   -0.0159   -4.5609 O   0  0  0  0  0  0  0  0  0  0  0  0
   -5.1029    0.4569   -5.3741 H   0  0  0  0  0  0  0  0  0  0  0  0
   -4.4673   -0.3662   -2.3378 C   0  0  0  0  0  0  0  0  0  0  0  0
   -5.3762   -0.8946   -2.0924 H   0  0  0  0  0  0  0  0  0  0  0  0
   -3.4562   -0.1882   -1.3745 C   0  0  0  0  0  0  0  0  0  0  0  0
   -3.5858   -0.5833   -0.3739 H   0  0  0  0  0  0  0  0  0  0  0  0
   -0.8664    0.0378    1.7736 C   0  0  0  0  0  0  0  0  0  0  0  0
    0.2529   -0.0672    2.2760 O   0  0  0  0  0  0  0  0  0  0  0  0
   -1.8947    0.5991    2.4221 N   0  0  0  0  0  0  0  0  0  0  0  0
   -2.7942    0.5936    1.9635 H   0  0  0  0  0  0  0  0  0  0  0  0
   -1.8170    1.1453    3.7750 C   0  0  0  0  0  0  0  0  0  0  0  0
   -0.9697    1.8290    3.8506 H   0  0  0  0  0  0  0  0  0  0  0  0
   -2.7354    1.6828    4.0167 H   0  0  0  0  0  0  0  0  0  0  0  0
   -1.6754    0.3334    4.4914 H   0  0  0  0  0  0  0  0  0  0  0  0
  5  6  2  0  0  0  0
  5  7  1  0  0  0  0
  2  3  1  0  0  0  0
  2  4  1  0  0  0  0
  2  5  1  0  0  0  0
  1  2  1  0  0  0  0
 26 27  2  0  0  0  0
 26 28  1  0  0  0  0
 24 25  1  0  0  0  0
 22 23  1  0  0  0  0
 22 24  2  0  0  0  0
 20 21  1  0  0  0  0
 19 20  1  0  0  0  0
 19 22  1  0  0  0  0
 17 18  1  0  0  0  0
 17 19  2  0  0  0  0
 15 16  1  0  0  0  0
 15 17  1  0  0  0  0
 14 15  2  0  0  0  0
 14 24  1  0  0  0  0
 11 12  1  0  0  0  0
 11 13  1  0  0  0  0
 11 14  1  0  0  0  0
  9 10  1  0  0  0  0
  9 11  1  0  0  0  0
  9 26  1  0  0  0  0
  7  8  1  0  0  0  0
  7  9  1  0  0  0  0
 30 31  1  0  0  0  0
 30 32  1  0  0  0  0
 30 33  1  0  0  0  0
 28 29  1  0  0  0  0
 28 30  1  0  0  0  0
M  END
$$$$
default_name
  -OEChem-02102213163D

 33 33  0     1  0  0  0  0  0999 V2000
   -4.0702   -3.8485    1.4554 H   0  0  0  0  0  0  0  0  0  0  0  0
   -4.0012   -2.9605    0.8284 C   0  0  0  0  0  0  0  0  0  0  0  0
   -4.7652   -2.2435    1.1234 H   0  0  0  0  0  0  0  0  0  0  0  0
   -4.1352   -3.2385   -0.2156 H   0  0  0  0  0  0  0  0  0  0  0  0
   -2.6362   -2.3395    1.0094 C   0  0  0  0  0  0  0  0  0  0  0  0
   -1.8292   -2.8395    1.7814 O   0  0  0  0  0  0  0  0  0  0  0  0
   -2.3832   -1.2445    0.2964 N   0  0  0  0  0  0  0  0  0  0  0  0
   -3.1102   -0.8685   -0.2946 H   0  0  0  0  0  0  0  0  0  0  0  0
   -1.1292   -0.4875    0.3524 C   0  0  1  0  0  0  0  0  0  0  0  0
   -0.3087   -1.1556    0.0882 H   0  0  0  0  0  0  0  0  0  0  0  0
   -1.1749    0.6534   -0.6787 C   0  0  0  0  0  0  0  0  0  0  0  0
   -1.3222    1.5988   -0.1548 H   0  0  0  0  0  0  0  0  0  0  0  0
   -0.2112    0.7086   -1.1877 H   0  0  0  0  0  0  0  0  0  0  0  0
   -2.2790    0.5088   -1.7082 C   0  0  0  0  0  0  0  0  0  0  0  0
   -2.0126    0.7352   -3.0735 C   0  0  0  0  0  0  0  0  0  0  0  0
   -1.0230    1.0392   -3.3888 H   0  0  0  0  0  0  0  0  0  0  0  0
   -3.0312    0.5601   -4.0304 C   0  0  0  0  0  0  0  0  0  0  0  0
   -2.8241    0.7358   -5.0748 H   0  0  0  0  0  0  0  0  0  0  0  0
   -4.3197    0.1535   -3.6203 C   0  0  0  0  0  0  0  0  0  0  0  0
   -5.3080   -0.0209   -4.5357 O   0  0  0  0  0  0  0  0  0  0  0  0
   -5.0382    0.2494   -5.4144 H   0  0  0  0  0  0  0  0  0  0  0  0
   -4.5831   -0.0773   -2.2542 C   0  0  0  0  0  0  0  0  0  0  0  0
   -5.5735   -0.3836   -1.9526 H   0  0  0  0  0  0  0  0  0  0  0  0
   -3.5641    0.1030   -1.2997 C   0  0  0  0  0  0  0  0  0  0  0  0
   -3.7698   -0.0656   -0.2493 H   0  0  0  0  0  0  0  0  0  0  0  0
   -0.8664    0.0378    1.7736 C   0  0  0  0  0  0  0  0  0  0  0  0
    0.2529   -0.0672    2.2760 O   0  0  0  0  0  0  0  0  0  0  0  0
   -1.8947    0.5991    2.4221 N   0  0  0  0  0  0  0  0  0  0  0  0
   -2.7942    0.5936    1.9635 H   0  0  0  0  0  0  0  0  0  0  0  0
   -1.8170    1.1453    3.7750 C   0  0  0  0  0  0  0  0  0  0  0  0
   -0.9697    1.8290    3.8506 H   0  0  0  0  0  0  0  0  0  0  0  0
   -2.7354    1.6828    4.0167 H   0  0  0  0  0  0  0  0  0  0  0  0
   -1.6754    0.3334    4.4914 H   0  0  0  0  0  0  0  0  0  0  0  0
  5  6  2  0  0  0  0
  5  7  1  0  0  0  0
  2  3  1  0  0  0  0
  2  4  1  0  0  0  0
  2  5  1  0  0  0  0
  1  2  1  0  0  0  0
 26 27  2  0  0  0  0
 26 28  1  0  0  0  0
 24 25  1  0  0  0  0
 22 23  1  0  0  0  0
 22 24  2  0  0  0  0
 20 21  1  0  0  0  0
 19 20  1  0  0  0  0
 19 22  1  0  0  0  0
 17 18  1  0  0  0  0
 17 19  2  0  0  0  0
 15 16  1  0  0  0  0
 15 17  1  0  0  0  0
 14 15  2  0  0  0  0
 14 24  1  0  0  0  0
 11 12  1  0  0  0  0
 11 13  1  0  0  0  0
 11 14  1  0  0  0  0
  9 10  1  0  0  0  0
  9 11  1  0  0  0  0
  9 26  1  0  0  0  0
  7  8  1  0  0  0  0
  7  9  1  0  0  0  0
 30 31  1  0  0  0  0
 30 32  1  0  0  0  0
 30 33  1  0  0  0  0
 28 29  1  0  0  0  0
 28 30  1  0  0  0  0
M  END
$$$$
default_name
  -OEChem-02102213163D

 33 33  0     1  0  0  0  0  0999 V2000
   -4.0702   -3.8485    1.4554 H   0  0  0  0  0  0  0  0  0  0  0  0
   -4.0012   -2.9605    0.8284 C   0  0  0  0  0  0  0  0  0  0  0  0
   -4.7652   -2.2435    1.1234 H   0  0  0  0  0  0  0  0  0  0  0  0
   -4.1352   -3.2385   -0.2156 H   0  0  0  0  0  0  0  0  0  0  0  0
   -2.6362   -2.3395    1.0094 C   0  0  0  0  0  0  0  0  0  0  0  0
   -1.8292   -2.8395    1.7814 O   0  0  0  0  0  0  0  0  0  0  0  0
   -2.3832   -1.2445    0.2964 N   0  0  0  0  0  0  0  0  0  0  0  0
   -3.1102   -0.8685   -0.2946 H   0  0  0  0  0  0  0  0  0  0  0  0
   -1.1292   -0.4875    0.3524 C   0  0  1  0  0  0  0  0  0  0  0  0
   -0.3087   -1.1556    0.0882 H   0  0  0  0  0  0  0  0  0  0  0  0
   -1.1749    0.6534   -0.6787 C   0  0  0  0  0  0  0  0  0  0  0  0
   -1.3222    1.5988   -0.1548 H   0  0  0  0  0  0  0  0  0  0  0  0
   -0.2112    0.7086   -1.1877 H   0  0  0  0  0  0  0  0  0  0  0  0
   -2.2790    0.5088   -1.7082 C   0  0  0  0  0  0  0  0  0  0  0  0
   -1.9658    0.4211   -3.0795 C   0  0  0  0  0  0  0  0  0  0  0  0
   -0.9355    0.4832   -3.4045 H   0  0  0  0  0  0  0  0  0  0  0  0
   -2.9918    0.2461   -4.0285 C   0  0  0  0  0  0  0  0  0  0  0  0
   -2.7485    0.1809   -5.0779 H   0  0  0  0  0  0  0  0  0  0  0  0
   -4.3352    0.1548   -3.6038 C   0  0  0  0  0  0  0  0  0  0  0  0
   -5.3316   -0.0169   -4.5109 O   0  0  0  0  0  0  0  0  0  0  0  0
   -5.0111    0.0299   -5.4126 H   0  0  0  0  0  0  0  0  0  0  0  0
   -4.6463    0.2378   -2.2308 C   0  0  0  0  0  0  0  0  0  0  0  0
   -5.6777    0.1710   -1.9188 H   0  0  0  0  0  0  0  0  0  0  0  0
   -3.6190    0.4173   -1.2850 C   0  0  0  0  0  0  0  0  0  0  0  0
   -3.8596    0.4904   -0.2311 H   0  0  0  0  0  0  0  0  0  0  0  0
   -0.8664    0.0378    1.7736 C   0  0  0  0  0  0  0  0  0  0  0  0
    0.2529   -0.0672    2.2760 O   0  0  0  0  0  0  0  0  0  0  0  0
   -1.8947    0.5991    2.4221 N   0  0  0  0  0  0  0  0  0  0  0  0
   -2.7942    0.5936    1.9635 H   0  0  0  0  0  0  0  0  0  0  0  0
   -1.8170    1.1453    3.7750 C   0  0  0  0  0  0  0  0  0  0  0  0
   -0.9697    1.8290    3.8506 H   0  0  0  0  0  0  0  0  0  0  0  0
   -2.7354    1.6828    4.0167 H   0  0  0  0  0  0  0  0  0  0  0  0
   -1.6754    0.3334    4.4914 H   0  0  0  0  0  0  0  0  0  0  0  0
  5  6  2  0  0  0  0
  5  7  1  0  0  0  0
  2  3  1  0  0  0  0
  2  4  1  0  0  0  0
  2  5  1  0  0  0  0
  1  2  1  0  0  0  0
 26 27  2  0  0  0  0
 26 28  1  0  0  0  0
 24 25  1  0  0  0  0
 22 23  1  0  0  0  0
 22 24  2  0  0  0  0
 20 21  1  0  0  0  0
 19 20  1  0  0  0  0
 19 22  1  0  0  0  0
 17 18  1  0  0  0  0
 17 19  2  0  0  0  0
 15 16  1  0  0  0  0
 15 17  1  0  0  0  0
 14 15  2  0  0  0  0
 14 24  1  0  0  0  0
 11 12  1  0  0  0  0
 11 13  1  0  0  0  0
 11 14  1  0  0  0  0
  9 10  1  0  0  0  0
  9 11  1  0  0  0  0
  9 26  1  0  0  0  0
  7  8  1  0  0  0  0
  7  9  1  0  0  0  0
 30 31  1  0  0  0  0
 30 32  1  0  0  0  0
 30 33  1  0  0  0  0
 28 29  1  0  0  0  0
 28 30  1  0  0  0  0
M  END
$$$$
default_name
  -OEChem-02102213163D

 33 33  0     1  0  0  0  0  0999 V2000
   -4.0702   -3.8485    1.4554 H   0  0  0  0  0  0  0  0  0  0  0  0
   -4.0012   -2.9605    0.8284 C   0  0  0  0  0  0  0  0  0  0  0  0
   -4.7652   -2.2435    1.1234 H   0  0  0  0  0  0  0  0  0  0  0  0
   -4.1352   -3.2385   -0.2156 H   0  0  0  0  0  0  0  0  0  0  0  0
   -2.6362   -2.3395    1.0094 C   0  0  0  0  0  0  0  0  0  0  0  0
   -1.8292   -2.8395    1.7814 O   0  0  0  0  0  0  0  0  0  0  0  0
   -2.3832   -1.2445    0.2964 N   0  0  0  0  0  0  0  0  0  0  0  0
   -3.1102   -0.8685   -0.2946 H   0  0  0  0  0  0  0  0  0  0  0  0
   -1.1292   -0.4875    0.3524 C   0  0  1  0  0  0  0  0  0  0  0  0
   -0.3087   -1.1556    0.0882 H   0  0  0  0  0  0  0  0  0  0  0  0
   -1.1749    0.6534   -0.6787 C   0  0  0  0  0  0  0  0  0  0  0  0
   -1.3222    1.5988   -0.1548 H   0  0  0  0  0  0  0  0  0  0  0  0
   -0.2112    0.7086   -1.1877 H   0  0  0  0  0  0  0  0  0  0  0  0
   -2.2790    0.5088   -1.7082 C   0  0  0  0  0  0  0  0  0  0  0  0
   -1.9757    0.1083   -3.0250 C   0  0  0  0  0  0  0  0  0  0  0  0
   -0.9482   -0.0722   -3.3128 H   0  0  0  0  0  0  0  0  0  0  0  0
   -3.0089   -0.0638   -3.9666 C   0  0  0  0  0  0  0  0  0  0  0  0
   -2.7729   -0.3690   -4.9745 H   0  0  0  0  0  0  0  0  0  0  0  0
   -4.3505    0.1618   -3.5885 C   0  0  0  0  0  0  0  0  0  0  0  0
   -5.3543   -0.0043   -4.4883 O   0  0  0  0  0  0  0  0  0  0  0  0
   -5.0235   -0.1864   -5.3688 H   0  0  0  0  0  0  0  0  0  0  0  0
   -4.6525    0.5577   -2.2690 C   0  0  0  0  0  0  0  0  0  0  0  0
   -5.6818    0.7315   -1.9932 H   0  0  0  0  0  0  0  0  0  0  0  0
   -3.6171    0.7334   -1.3314 C   0  0  0  0  0  0  0  0  0  0  0  0
   -3.8492    1.0466   -0.3204 H   0  0  0  0  0  0  0  0  0  0  0  0
   -0.8664    0.0378    1.7736 C   0  0  0  0  0  0  0  0  0  0  0  0
    0.2529   -0.0672    2.2760 O   0  0  0  0  0  0  0  0  0  0  0  0
   -1.8947    0.5991    2.4221 N   0  0  0  0  0  0  0  0  0  0  0  0
   -2.7942    0.5936    1.9635 H   0  0  0  0  0  0  0  0  0  0  0  0
   -1.8170    1.1453    3.7750 C   0  0  0  0  0  0  0  0  0  0  0  0
   -0.9697    1.8290    3.8506 H   0  0  0  0  0  0  0  0  0  0  0  0
   -2.7354    1.6828    4.0167 H   0  0  0  0  0  0  0  0  0  0  0  0
   -1.6754    0.3334    4.4914 H   0  0  0  0  0  0  0  0  0  0  0  0
  5  6  2  0  0  0  0
  5  7  1  0  0  0  0
  2  3  1  0  0  0  0
  2  4  1  0  0  0  0
  2  5  1  0  0  0  0
  1  2  1  0  0  0  0
 26 27  2  0  0  0  0
 26 28  1  0  0  0  0
 24 25  1  0  0  0  0
 22 23  1  0  0  0  0
 22 24  2  0  0  0  0
 20 21  1  0  0  0  0
 19 20  1  0  0  0  0
 19 22  1  0  0  0  0
 17 18  1  0  0  0  0
 17 19  2  0  0  0  0
 15 16  1  0  0  0  0
 15 17  1  0  0  0  0
 14 15  2  0  0  0  0
 14 24  1  0  0  0  0
 11 12  1  0  0  0  0
 11 13  1  0  0  0  0
 11 14  1  0  0  0  0
  9 10  1  0  0  0  0
  9 11  1  0  0  0  0
  9 26  1  0  0  0  0
  7  8  1  0  0  0  0
  7  9  1  0  0  0  0
 30 31  1  0  0  0  0
 30 32  1  0  0  0  0
 30 33  1  0  0  0  0
 28 29  1  0  0  0  0
 28 30  1  0  0  0  0
M  END
$$$$
default_name
  -OEChem-02102213163D

 33 33  0     1  0  0  0  0  0999 V2000
   -4.0702   -3.8485    1.4554 H   0  0  0  0  0  0  0  0  0  0  0  0
   -4.0012   -2.9605    0.8284 C   0  0  0  0  0  0  0  0  0  0  0  0
   -4.7652   -2.2435    1.1234 H   0  0  0  0  0  0  0  0  0  0  0  0
   -4.1352   -3.2385   -0.2156 H   0  0  0  0  0  0  0  0  0  0  0  0
   -2.6362   -2.3395    1.0094 C   0  0  0  0  0  0  0  0  0  0  0  0
   -1.8292   -2.8395    1.7814 O   0  0  0  0  0  0  0  0  0  0  0  0
   -2.3832   -1.2445    0.2964 N   0  0  0  0  0  0  0  0  0  0  0  0
   -3.1102   -0.8685   -0.2946 H   0  0  0  0  0  0  0  0  0  0  0  0
   -1.1292   -0.4875    0.3524 C   0  0  1  0  0  0  0  0  0  0  0  0
   -0.3087   -1.1556    0.0882 H   0  0  0  0  0  0  0  0  0  0  0  0
   -1.1749    0.6534   -0.6787 C   0  0  0  0  0  0  0  0  0  0  0  0
   -1.3222    1.5988   -0.1548 H   0  0  0  0  0  0  0  0  0  0  0  0
   -0.2112    0.7086   -1.1877 H   0  0  0  0  0  0  0  0  0  0  0  0
   -2.2790    0.5088   -1.7082 C   0  0  0  0  0  0  0  0  0  0  0  0
   -2.0415   -0.1817   -2.9137 C   0  0  0  0  0  0  0  0  0  0  0  0
   -1.0604   -0.5892   -3.1199 H   0  0  0  0  0  0  0  0  0  0  0  0
   -3.0815   -0.3484   -3.8488 C   0  0  0  0  0  0  0  0  0  0  0  0
   -2.8957   -0.8764   -4.7715 H   0  0  0  0  0  0  0  0  0  0  0  0
   -4.3643    0.1742   -3.5754 C   0  0  0  0  0  0  0  0  0  0  0  0
   -5.3746    0.0162   -4.4694 O   0  0  0  0  0  0  0  0  0  0  0  0
   -5.0746   -0.3850   -5.2861 H   0  0  0  0  0  0  0  0  0  0  0  0
   -4.6014    0.8606   -2.3664 C   0  0  0  0  0  0  0  0  0  0  0  0
   -5.5854    1.2595   -2.1707 H   0  0  0  0  0  0  0  0  0  0  0  0
   -3.5587    1.0296   -1.4358 C   0  0  0  0  0  0  0  0  0  0  0  0
   -3.7392    1.5652   -0.5113 H   0  0  0  0  0  0  0  0  0  0  0  0
   -0.8664    0.0378    1.7736 C   0  0  0  0  0  0  0  0  0  0  0  0
    0.2529   -0.0672    2.2760 O   0  0  0  0  0  0  0  0  0  0  0  0
   -1.8947    0.5991    2.4221 N   0  0  0  0  0  0  0  0  0  0  0  0
   -2.7942    0.5936    1.9635 H   0  0  0  0  0  0  0  0  0  0  0  0
   -1.8170    1.1453    3.7750 C   0  0  0  0  0  0  0  0  0  0  0  0
   -0.9697    1.8290    3.8506 H   0  0  0  0  0  0  0  0  0  0  0  0
   -2.7354    1.6828    4.0167 H   0  0  0  0  0  0  0  0  0  0  0  0
   -1.6754    0.3334    4.4914 H   0  0  0  0  0  0  0  0  0  0  0  0
  5  6  2  0  0  0  0
  5  7  1  0  0  0  0
  2  3  1  0  0  0  0
  2  4  1  0  0  0  0
  2  5  1  0  0  0  0
  1  2  1  0  0  0  0
 26 27  2  0  0  0  0
 26 28  1  0  0  0  0
 24 25  1  0  0  0  0
 22 23  1  0  0  0  0
 22 24  2  0  0  0  0
 20 21  1  0  0  0  0
 19 20  1  0  0  0  0
 19 22  1  0  0  0  0
 17 18  1  0  0  0  0
 17 19  2  0  0  0  0
 15 16  1  0  0  0  0
 15 17  1  0  0  0  0
 14 15  2  0  0  0  0
 14 24  1  0  0  0  0
 11 12  1  0  0  0  0
 11 13  1  0  0  0  0
 11 14  1  0  0  0  0
  9 10  1  0  0  0  0
  9 11  1  0  0  0  0
  9 26  1  0  0  0  0
  7  8  1  0  0  0  0
  7  9  1  0  0  0  0
 30 31  1  0  0  0  0
 30 32  1  0  0  0  0
 30 33  1  0  0  0  0
 28 29  1  0  0  0  0
 28 30  1  0  0  0  0
M  END
$$$$
default_name
  -OEChem-02102213163D

 33 33  0     1  0  0  0  0  0999 V2000
   -4.0702   -3.8485    1.4554 H   0  0  0  0  0  0  0  0  0  0  0  0
   -4.0012   -2.9605    0.8284 C   0  0  0  0  0  0  0  0  0  0  0  0
   -4.7652   -2.2435    1.1234 H   0  0  0  0  0  0  0  0  0  0  0  0
   -4.1352   -3.2385   -0.2156 H   0  0  0  0  0  0  0  0  0  0  0  0
   -2.6362   -2.3395    1.0094 C   0  0  0  0  0  0  0  0  0  0  0  0
   -1.8292   -2.8395    1.7814 O   0  0  0  0  0  0  0  0  0  0  0  0
   -2.3832   -1.2445    0.2964 N   0  0  0  0  0  0  0  0  0  0  0  0
   -3.1102   -0.8685   -0.2946 H   0  0  0  0  0  0  0  0  0  0  0  0
   -1.1292   -0.4875    0.3524 C   0  0  1  0  0  0  0  0  0  0  0  0
   -0.3087   -1.1556    0.0882 H   0  0  0  0  0  0  0  0  0  0  0  0
   -1.1749    0.6534   -0.6787 C   0  0  0  0  0  0  0  0  0  0  0  0
   -1.3222    1.5988   -0.1548 H   0  0  0  0  0  0  0  0  0  0  0  0
   -0.2112    0.7086   -1.1877 H   0  0  0  0  0  0  0  0  0  0  0  0
   -2.2790    0.5088   -1.7082 C   0  0  0  0  0  0  0  0  0  0  0  0
   -2.1588   -0.4294   -2.7531 C   0  0  0  0  0  0  0  0  0  0  0  0
   -1.2644   -1.0324   -2.8389 H   0  0  0  0  0  0  0  0  0  0  0  0
   -3.2045   -0.5884   -3.6832 C   0  0  0  0  0  0  0  0  0  0  0  0
   -3.1084   -1.3066   -4.4829 H   0  0  0  0  0  0  0  0  0  0  0  0
   -4.3758    0.1911   -3.5654 C   0  0  0  0  0  0  0  0  0  0  0  0
   -5.3911    0.0431   -4.4556 O   0  0  0  0  0  0  0  0  0  0  0  0
   -5.1609   -0.5522   -5.1701 H   0  0  0  0  0  0  0  0  0  0  0  0
   -4.4964    1.1259   -2.5163 C   0  0  0  0  0  0  0  0  0  0  0  0
   -5.3951    1.7192   -2.4394 H   0  0  0  0  0  0  0  0  0  0  0  0
   -3.4476    1.2858   -1.5909 C   0  0  0  0  0  0  0  0  0  0  0  0
   -3.5371    2.0108   -0.7906 H   0  0  0  0  0  0  0  0  0  0  0  0
   -0.8664    0.0378    1.7736 C   0  0  0  0  0  0  0  0  0  0  0  0
    0.2529   -0.0672    2.2760 O   0  0  0  0  0  0  0  0  0  0  0  0
   -1.8947    0.5991    2.4221 N   0  0  0  0  0  0  0  0  0  0  0  0
   -2.7942    0.5936    1.9635 H   0  0  0  0  0  0  0  0  0  0  0  0
   -1.8170    1.1453    3.7750 C   0  0  0  0  0  0  0  0  0  0  0  0
   -0.9697    1.8290    3.8506 H   0  0  0  0  0  0  0  0  0  0  0  0
   -2.7354    1.6828    4.0167 H   0  0  0  0  0  0  0  0  0  0  0  0
   -1.6754    0.3334    4.4914 H   0  0  0  0  0  0  0  0  0  0  0  0
  5  6  2  0  0  0  0
  5  7  1  0  0  0  0
  2  3  1  0  0  0  0
  2  4  1  0  0  0  0
  2  5  1  0  0  0  0
  1  2  1  0  0  0  0
 26 27  2  0  0  0  0
 26 28  1  0  0  0  0
 24 25  1  0  0  0  0
 22 23  1  0  0  0  0
 22 24  2  0  0  0  0
 20 21  1  0  0  0  0
 19 20  1  0  0  0  0
 19 22  1  0  0  0  0
 17 18  1  0  0  0  0
 17 19  2  0  0  0  0
 15 16  1  0  0  0  0
 15 17  1  0  0  0  0
 14 15  2  0  0  0  0
 14 24  1  0  0  0  0
 11 12  1  0  0  0  0
 11 13  1  0  0  0  0
 11 14  1  0  0  0  0
  9 10  1  0  0  0  0
  9 11  1  0  0  0  0
  9 26  1  0  0  0  0
  7  8  1  0  0  0  0
  7  9  1  0  0  0  0
 30 31  1  0  0  0  0
 30 32  1  0  0  0  0
 30 33  1  0  0  0  0
 28 29  1  0  0  0  0
 28 30  1  0  0  0  0
M  END
$$$$
default_name
  -OEChem-02102213163D

 33 33  0     1  0  0  0  0  0999 V2000
   -4.0702   -3.8485    1.4554 H   0  0  0  0  0  0  0  0  0  0  0  0
   -4.0012   -2.9605    0.8284 C   0  0  0  0  0  0  0  0  0  0  0  0
   -4.7652   -2.2435    1.1234 H   0  0  0  0  0  0  0  0  0  0  0  0
   -4.1352   -3.2385   -0.2156 H   0  0  0  0  0  0  0  0  0  0  0  0
   -2.6362   -2.3395    1.0094 C   0  0  0  0  0  0  0  0  0  0  0  0
   -1.8292   -2.8395    1.7814 O   0  0  0  0  0  0  0  0  0  0  0  0
   -2.3832   -1.2445    0.2964 N   0  0  0  0  0  0  0  0  0  0  0  0
   -3.1102   -0.8685   -0.2946 H   0  0  0  0  0  0  0  0  0  0  0  0
   -1.1292   -0.4875    0.3524 C   0  0  1  0  0  0  0  0  0  0  0  0
   -0.3087   -1.1556    0.0882 H   0  0  0  0  0  0  0  0  0  0  0  0
   -1.1749    0.6534   -0.6787 C   0  0  0  0  0  0  0  0  0  0  0  0
   -1.3222    1.5988   -0.1548 H   0  0  0  0  0  0  0  0  0  0  0  0
   -0.2112    0.7086   -1.1877 H   0  0  0  0  0  0  0  0  0  0  0  0
   -2.2790    0.5088   -1.7082 C   0  0  0  0  0  0  0  0  0  0  0  0
   -2.3196   -0.6177   -2.5542 C   0  0  0  0  0  0  0  0  0  0  0  0
   -1.5462   -1.3718   -2.4890 H   0  0  0  0  0  0  0  0  0  0  0  0
   -3.3695   -0.7674   -3.4811 C   0  0  0  0  0  0  0  0  0  0  0  0
   -3.3966   -1.6305   -4.1284 H   0  0  0  0  0  0  0  0  0  0  0  0
   -4.3842    0.2113   -3.5592 C   0  0  0  0  0  0  0  0  0  0  0  0
   -5.4026    0.0746   -4.4476 O   0  0  0  0  0  0  0  0  0  0  0  0
   -5.2766   -0.6767   -5.0286 H   0  0  0  0  0  0  0  0  0  0  0  0
   -4.3446    1.3354   -2.7085 C   0  0  0  0  0  0  0  0  0  0  0  0
   -5.1239    2.0791   -2.7807 H   0  0  0  0  0  0  0  0  0  0  0  0
   -3.2914    1.4845   -1.7863 C   0  0  0  0  0  0  0  0  0  0  0  0
   -3.2566    2.3531   -1.1394 H   0  0  0  0  0  0  0  0  0  0  0  0
   -0.8664    0.0378    1.7736 C   0  0  0  0  0  0  0  0  0  0  0  0
    0.2529   -0.0672    2.2760 O   0  0  0  0  0  0  0  0  0  0  0  0
   -1.8947    0.5991    2.4221 N   0  0  0  0  0  0  0  0  0  0  0  0
   -2.7942    0.5936    1.9635 H   0  0  0  0  0  0  0  0  0  0  0  0
   -1.8170    1.1453    3.7750 C   0  0  0  0  0  0  0  0  0  0  0  0
   -0.9697    1.8290    3.8506 H   0  0  0  0  0  0  0  0  0  0  0  0
   -2.7354    1.6828    4.0167 H   0  0  0  0  0  0  0  0  0  0  0  0
   -1.6754    0.3334    4.4914 H   0  0  0  0  0  0  0  0  0  0  0  0
  5  6  2  0  0  0  0
  5  7  1  0  0  0  0
  2  3  1  0  0  0  0
  2  4  1  0  0  0  0
  2  5  1  0  0  0  0
  1  2  1  0  0  0  0
 26 27  2  0  0  0  0
 26 28  1  0  0  0  0
 24 25  1  0  0  0  0
 22 23  1  0  0  0  0
 22 24  2  0  0  0  0
 20 21  1  0  0  0  0
 19 20  1  0  0  0  0
 19 22  1  0  0  0  0
 17 18  1  0  0  0  0
 17 19  2  0  0  0  0
 15 16  1  0  0  0  0
 15 17  1  0  0  0  0
 14 15  2  0  0  0  0
 14 24  1  0  0  0  0
 11 12  1  0  0  0  0
 11 13  1  0  0  0  0
 11 14  1  0  0  0  0
  9 10  1  0  0  0  0
  9 11  1  0  0  0  0
  9 26  1  0  0  0  0
  7  8  1  0  0  0  0
  7  9  1  0  0  0  0
 30 31  1  0  0  0  0
 30 32  1  0  0  0  0
 30 33  1  0  0  0  0
 28 29  1  0  0  0  0
 28 30  1  0  0  0  0
M  END
$$$$
default_name
  -OEChem-02102213163D

 33 33  0     1  0  0  0  0  0999 V2000
   -4.0702   -3.8485    1.4554 H   0  0  0  0  0  0  0  0  0  0  0  0
   -4.0012   -2.9605    0.8284 C   0  0  0  0  0  0  0  0  0  0  0  0
   -4.7652   -2.2435    1.1234 H   0  0  0  0  0  0  0  0  0  0  0  0
   -4.1352   -3.2385   -0.2156 H   0  0  0  0  0  0  0  0  0  0  0  0
   -2.6362   -2.3395    1.0094 C   0  0  0  0  0  0  0  0  0  0  0  0
   -1.8292   -2.8395    1.7814 O   0  0  0  0  0  0  0  0  0  0  0  0
   -2.3832   -1.2445    0.2964 N   0  0  0  0  0  0  0  0  0  0  0  0
   -3.1102   -0.8685   -0.2946 H   0  0  0  0  0  0  0  0  0  0  0  0
   -1.1292   -0.4875    0.3524 C   0  0  1  0  0  0  0  0  0  0  0  0
   -0.3087   -1.1556    0.0882 H   0  0  0  0  0  0  0  0  0  0  0  0
   -1.1749    0.6534   -0.6787 C   0  0  0  0  0  0  0  0  0  0  0  0
   -1.3222    1.5988   -0.1548 H   0  0  0  0  0  0  0  0  0  0  0  0
   -0.2112    0.7086   -1.1877 H   0  0  0  0  0  0  0  0  0  0  0  0
   -2.2790    0.5088   -1.7082 C   0  0  0  0  0  0  0  0  0  0  0  0
   -2.5129   -0.7339   -2.3306 C   0  0  0  0  0  0  0  0  0  0  0  0
   -1.8867   -1.5842   -2.0940 H   0  0  0  0  0  0  0  0  0  0  0  0
   -3.5654   -0.8732   -3.2561 C   0  0  0  0  0  0  0  0  0  0  0  0
   -3.7407   -1.8258   -3.7320 H   0  0  0  0  0  0  0  0  0  0  0  0
   -4.3890    0.2334   -3.5572 C   0  0  0  0  0  0  0  0  0  0  0  0
   -5.4084    0.1085   -4.4462 O   0  0  0  0  0  0  0  0  0  0  0  0
   -5.4136   -0.7500   -4.8714 H   0  0  0  0  0  0  0  0  0  0  0  0
   -4.1565    1.4749   -2.9298 C   0  0  0  0  0  0  0  0  0  0  0  0
   -4.7903    2.3148   -3.1716 H   0  0  0  0  0  0  0  0  0  0  0  0
   -3.1008    1.6122   -2.0086 C   0  0  0  0  0  0  0  0  0  0  0  0
   -2.9170    2.5687   -1.5339 H   0  0  0  0  0  0  0  0  0  0  0  0
   -0.8664    0.0378    1.7736 C   0  0  0  0  0  0  0  0  0  0  0  0
    0.2529   -0.0672    2.2760 O   0  0  0  0  0  0  0  0  0  0  0  0
   -1.8947    0.5991    2.4221 N   0  0  0  0  0  0  0  0  0  0  0  0
   -2.7942    0.5936    1.9635 H   0  0  0  0  0  0  0  0  0  0  0  0
   -1.8170    1.1453    3.7750 C   0  0  0  0  0  0  0  0  0  0  0  0
   -0.9697    1.8290    3.8506 H   0  0  0  0  0  0  0  0  0  0  0  0
   -2.7354    1.6828    4.0167 H   0  0  0  0  0  0  0  0  0  0  0  0
   -1.6754    0.3334    4.4914 H   0  0  0  0  0  0  0  0  0  0  0  0
  5  6  2  0  0  0  0
  5  7  1  0  0  0  0
  2  3  1  0  0  0  0
  2  4  1  0  0  0  0
  2  5  1  0  0  0  0
  1  2  1  0  0  0  0
 26 27  2  0  0  0  0
 26 28  1  0  0  0  0
 24 25  1  0  0  0  0
 22 23  1  0  0  0  0
 22 24  2  0  0  0  0
 20 21  1  0  0  0  0
 19 20  1  0  0  0  0
 19 22  1  0  0  0  0
 17 18  1  0  0  0  0
 17 19  2  0  0  0  0
 15 16  1  0  0  0  0
 15 17  1  0  0  0  0
 14 15  2  0  0  0  0
 14 24  1  0  0  0  0
 11 12  1  0  0  0  0
 11 13  1  0  0  0  0
 11 14  1  0  0  0  0
  9 10  1  0  0  0  0
  9 11  1  0  0  0  0
  9 26  1  0  0  0  0
  7  8  1  0  0  0  0
  7  9  1  0  0  0  0
 30 31  1  0  0  0  0
 30 32  1  0  0  0  0
 30 33  1  0  0  0  0
 28 29  1  0  0  0  0
 28 30  1  0  0  0  0
M  END
$$$$
default_name
  -OEChem-02102213163D

 33 33  0     1  0  0  0  0  0999 V2000
   -4.0702   -3.8485    1.4554 H   0  0  0  0  0  0  0  0  0  0  0  0
   -4.0012   -2.9605    0.8284 C   0  0  0  0  0  0  0  0  0  0  0  0
   -4.7652   -2.2435    1.1234 H   0  0  0  0  0  0  0  0  0  0  0  0
   -4.1352   -3.2385   -0.2156 H   0  0  0  0  0  0  0  0  0  0  0  0
   -2.6362   -2.3395    1.0094 C   0  0  0  0  0  0  0  0  0  0  0  0
   -1.8292   -2.8395    1.7814 O   0  0  0  0  0  0  0  0  0  0  0  0
   -2.3832   -1.2445    0.2964 N   0  0  0  0  0  0  0  0  0  0  0  0
   -3.1102   -0.8685   -0.2946 H   0  0  0  0  0  0  0  0  0  0  0  0
   -1.1292   -0.4875    0.3524 C   0  0  1  0  0  0  0  0  0  0  0  0
   -0.3087   -1.1556    0.0882 H   0  0  0  0  0  0  0  0  0  0  0  0
   -1.1749    0.6534   -0.6787 C   0  0  0  0  0  0  0  0  0  0  0  0
   -1.3222    1.5988   -0.1548 H   0  0  0  0  0  0  0  0  0  0  0  0
   -0.2112    0.7086   -1.1877 H   0  0  0  0  0  0  0  0  0  0  0  0
   -2.2790    0.5088   -1.7082 C   0  0  0  0  0  0  0  0  0  0  0  0
   -2.7256   -0.7700   -2.0975 C   0  0  0  0  0  0  0  0  0  0  0  0
   -2.2627   -1.6550   -1.6809 H   0  0  0  0  0  0  0  0  0  0  0  0
   -3.7788   -0.8986   -3.0238 C   0  0  0  0  0  0  0  0  0  0  0  0
   -4.1172   -1.8794   -3.3208 H   0  0  0  0  0  0  0  0  0  0  0  0
   -4.3897    0.2560   -3.5596 C   0  0  0  0  0  0  0  0  0  0  0  0
   -5.4081    0.1426   -4.4513 O   0  0  0  0  0  0  0  0  0  0  0  0
   -5.5627   -0.7671   -4.7090 H   0  0  0  0  0  0  0  0  0  0  0  0
   -3.9448    1.5349   -3.1653 C   0  0  0  0  0  0  0  0  0  0  0  0
   -4.4169    2.4102   -3.5853 H   0  0  0  0  0  0  0  0  0  0  0  0
   -2.8888    1.6601   -2.2427 C   0  0  0  0  0  0  0  0  0  0  0  0
   -2.5413    2.6430   -1.9472 H   0  0  0  0  0  0  0  0  0  0  0  0
   -0.8664    0.0378    1.7736 C   0  0  0  0  0  0  0  0  0  0  0  0
    0.2529   -0.0672    2.2760 O   0  0  0  0  0  0  0  0  0  0  0  0
   -1.8947    0.5991    2.4221 N   0  0  0  0  0  0  0  0  0  0  0  0
   -2.7942    0.5936    1.9635 H   0  0  0  0  0  0  0  0  0  0  0  0
   -1.8170    1.1453    3.7750 C   0  0  0  0  0  0  0  0  0  0  0  0
   -0.9697    1.8290    3.8506 H   0  0  0  0  0  0  0  0  0  0  0  0
   -2.7354    1.6828    4.0167 H   0  0  0  0  0  0  0  0  0  0  0  0
   -1.6754    0.3334    4.4914 H   0  0  0  0  0  0  0  0  0  0  0  0
  5  6  2  0  0  0  0
  5  7  1  0  0  0  0
  2  3  1  0  0  0  0
  2  4  1  0  0  0  0
  2  5  1  0  0  0  0
  1  2  1  0  0  0  0
 26 27  2  0  0  0  0
 26 28  1  0  0  0  0
 24 25  1  0  0  0  0
 22 23  1  0  0  0  0
 22 24  2  0  0  0  0
 20 21  1  0  0  0  0
 19 20  1  0  0  0  0
 19 22  1  0  0  0  0
 17 18  1  0  0  0  0
 17 19  2  0  0  0  0
 15 16  1  0  0  0  0
 15 17  1  0  0  0  0
 14 15  2  0  0  0  0
 14 24  1  0  0  0  0
 11 12  1  0  0  0  0
 11 13  1  0  0  0  0
 11 14  1  0  0  0  0
  9 10  1  0  0  0  0
  9 11  1  0  0  0  0
  9 26  1  0  0  0  0
  7  8  1  0  0  0  0
  7  9  1  0  0  0  0
 30 31  1  0  0  0  0
 30 32  1  0  0  0  0
 30 33  1  0  0  0  0
 28 29  1  0  0  0  0
 28 30  1  0  0  0  0
M  END
$$$$
default_name
  -OEChem-02102213163D

 33 33  0     1  0  0  0  0  0999 V2000
   -4.0702   -3.8485    1.4554 H   0  0  0  0  0  0  0  0  0  0  0  0
   -4.0012   -2.9605    0.8284 C   0  0  0  0  0  0  0  0  0  0  0  0
   -4.7652   -2.2435    1.1234 H   0  0  0  0  0  0  0  0  0  0  0  0
   -4.1352   -3.2385   -0.2156 H   0  0  0  0  0  0  0  0  0  0  0  0
   -2.6362   -2.3395    1.0094 C   0  0  0  0  0  0  0  0  0  0  0  0
   -1.8292   -2.8395    1.7814 O   0  0  0  0  0  0  0  0  0  0  0  0
   -2.3832   -1.2445    0.2964 N   0  0  0  0  0  0  0  0  0  0  0  0
   -3.1102   -0.8685   -0.2946 H   0  0  0  0  0  0  0  0  0  0  0  0
   -1.1292   -0.4875    0.3524 C   0  0  1  0  0  0  0  0  0  0  0  0
   -0.3087   -1.1556    0.0882 H   0  0  0  0  0  0  0  0  0  0  0  0
   -1.1749    0.6534   -0.6787 C   0  0  0  0  0  0  0  0  0  0  0  0
   -1.3222    1.5988   -0.1548 H   0  0  0  0  0  0  0  0  0  0  0  0
   -0.2112    0.7086   -1.1877 H   0  0  0  0  0  0  0  0  0  0  0  0
   -2.2790    0.5088   -1.7082 C   0  0  0  0  0  0  0  0  0  0  0  0
   -2.9431   -0.7236   -1.8707 C   0  0  0  0  0  0  0  0  0  0  0  0
   -2.6485   -1.5796   -1.2778 H   0  0  0  0  0  0  0  0  0  0  0  0
   -3.9951   -0.8419   -2.7998 C   0  0  0  0  0  0  0  0  0  0  0  0
   -4.5004   -1.7875   -2.9228 H   0  0  0  0  0  0  0  0  0  0  0  0
   -4.3864    0.2775   -3.5662 C   0  0  0  0  0  0  0  0  0  0  0  0
   -5.4016    0.1745   -4.4627 O   0  0  0  0  0  0  0  0  0  0  0  0
   -5.7138   -0.7268   -4.5527 H   0  0  0  0  0  0  0  0  0  0  0  0
   -3.7239    1.5112   -3.3988 C   0  0  0  0  0  0  0  0  0  0  0  0
   -4.0294    2.3588   -3.9937 H   0  0  0  0  0  0  0  0  0  0  0  0
   -2.6698    1.6251   -2.4726 C   0  0  0  0  0  0  0  0  0  0  0  0
   -2.1552    2.5709   -2.3511 H   0  0  0  0  0  0  0  0  0  0  0  0
   -0.8664    0.0378    1.7736 C   0  0  0  0  0  0  0  0  0  0  0  0
    0.2529   -0.0672    2.2760 O   0  0  0  0  0  0  0  0  0  0  0  0
   -1.8947    0.5991    2.4221 N   0  0  0  0  0  0  0  0  0  0  0  0
   -2.7942    0.5936    1.9635 H   0  0  0  0  0  0  0  0  0  0  0  0
   -1.8170    1.1453    3.7750 C   0  0  0  0  0  0  0  0  0  0  0  0
   -0.9697    1.8290    3.8506 H   0  0  0  0  0  0  0  0  0  0  0  0
   -2.7354    1.6828    4.0167 H   0  0  0  0  0  0  0  0  0  0  0  0
   -1.6754    0.3334    4.4914 H   0  0  0  0  0  0  0  0  0  0  0  0
  5  6  2  0  0  0  0
  5  7  1  0  0  0  0
  2  3  1  0  0  0  0
  2  4  1  0  0  0  0
  2  5  1  0  0  0  0
  1  2  1  0  0  0  0
 26 27  2  0  0  0  0
 26 28  1  0  0  0  0
 24 25  1  0  0  0  0
 22 23  1  0  0  0  0
 22 24  2  0  0  0  0
 20 21  1  0  0  0  0
 19 20  1  0  0  0  0
 19 22  1  0  0  0  0
 17 18  1  0  0  0  0
 17 19  2  0  0  0  0
 15 16  1  0  0  0  0
 15 17  1  0  0  0  0
 14 15  2  0  0  0  0
 14 24  1  0  0  0  0
 11 12  1  0  0  0  0
 11 13  1  0  0  0  0
 11 14  1  0  0  0  0
  9 10  1  0  0  0  0
  9 11  1  0  0  0  0
  9 26  1  0  0  0  0
  7  8  1  0  0  0  0
  7  9  1  0  0  0  0
 30 31  1  0  0  0  0
 30 32  1  0  0  0  0
 30 33  1  0  0  0  0
 28 29  1  0  0  0  0
 28 30  1  0  0  0  0
M  END
$$$$
default_name
  -OEChem-02102213163D

 33 33  0     1  0  0  0  0  0999 V2000
   -4.0702   -3.8485    1.4554 H   0  0  0  0  0  0  0  0  0  0  0  0
   -4.0012   -2.9605    0.8284 C   0  0  0  0  0  0  0  0  0  0  0  0
   -4.7652   -2.2435    1.1234 H   0  0  0  0  0  0  0  0  0  0  0  0
   -4.1352   -3.2385   -0.2156 H   0  0  0  0  0  0  0  0  0  0  0  0
   -2.6362   -2.3395    1.0094 C   0  0  0  0  0  0  0  0  0  0  0  0
   -1.8292   -2.8395    1.7814 O   0  0  0  0  0  0  0  0  0  0  0  0
   -2.3832   -1.2445    0.2964 N   0  0  0  0  0  0  0  0  0  0  0  0
   -3.1102   -0.8685   -0.2946 H   0  0  0  0  0  0  0  0  0  0  0  0
   -1.1292   -0.4875    0.3524 C   0  0  1  0  0  0  0  0  0  0  0  0
   -0.3087   -1.1556    0.0882 H   0  0  0  0  0  0  0  0  0  0  0  0
   -1.1749    0.6534   -0.6787 C   0  0  0  0  0  0  0  0  0  0  0  0
   -1.3222    1.5988   -0.1548 H   0  0  0  0  0  0  0  0  0  0  0  0
   -0.2112    0.7086   -1.1877 H   0  0  0  0  0  0  0  0  0  0  0  0
   -2.2790    0.5088   -1.7082 C   0  0  0  0  0  0  0  0  0  0  0  0
   -3.1506   -0.5978   -1.6659 C   0  0  0  0  0  0  0  0  0  0  0  0
   -3.0178   -1.3630   -0.9122 H   0  0  0  0  0  0  0  0  0  0  0  0
   -4.1995   -0.7069   -2.5995 C   0  0  0  0  0  0  0  0  0  0  0  0
   -4.8642   -1.5564   -2.5651 H   0  0  0  0  0  0  0  0  0  0  0  0
   -4.3792    0.2965   -3.5765 C   0  0  0  0  0  0  0  0  0  0  0  0
   -5.3895    0.2020   -4.4796 O   0  0  0  0  0  0  0  0  0  0  0  0
   -5.8565   -0.6319   -4.4130 H   0  0  0  0  0  0  0  0  0  0  0  0
   -3.5090    1.4056   -3.6144 C   0  0  0  0  0  0  0  0  0  0  0  0
   -3.6539    2.1641   -4.3689 H   0  0  0  0  0  0  0  0  0  0  0  0
   -2.4587    1.5095   -2.6826 C   0  0  0  0  0  0  0  0  0  0  0  0
   -1.7849    2.3572   -2.7182 H   0  0  0  0  0  0  0  0  0  0  0  0
   -0.8664    0.0378    1.7736 C   0  0  0  0  0  0  0  0  0  0  0  0
    0.2529   -0.0672    2.2760 O   0  0  0  0  0  0  0  0  0  0  0  0
   -1.8947    0.5991    2.4221 N   0  0  0  0  0  0  0  0  0  0  0  0
   -2.7942    0.5936    1.9635 H   0  0  0  0  0  0  0  0  0  0  0  0
   -1.8170    1.1453    3.7750 C   0  0  0  0  0  0  0  0  0  0  0  0
   -0.9697    1.8290    3.8506 H   0  0  0  0  0  0  0  0  0  0  0  0
   -2.7354    1.6828    4.0167 H   0  0  0  0  0  0  0  0  0  0  0  0
   -1.6754    0.3334    4.4914 H   0  0  0  0  0  0  0  0  0  0  0  0
  5  6  2  0  0  0  0
  5  7  1  0  0  0  0
  2  3  1  0  0  0  0
  2  4  1  0  0  0  0
  2  5  1  0  0  0  0
  1  2  1  0  0  0  0
 26 27  2  0  0  0  0
 26 28  1  0  0  0  0
 24 25  1  0  0  0  0
 22 23  1  0  0  0  0
 22 24  2  0  0  0  0
 20 21  1  0  0  0  0
 19 20  1  0  0  0  0
 19 22  1  0  0  0  0
 17 18  1  0  0  0  0
 17 19  2  0  0  0  0
 15 16  1  0  0  0  0
 15 17  1  0  0  0  0
 14 15  2  0  0  0  0
 14 24  1  0  0  0  0
 11 12  1  0  0  0  0
 11 13  1  0  0  0  0
 11 14  1  0  0  0  0
  9 10  1  0  0  0  0
  9 11  1  0  0  0  0
  9 26  1  0  0  0  0
  7  8  1  0  0  0  0
  7  9  1  0  0  0  0
 30 31  1  0  0  0  0
 30 32  1  0  0  0  0
 30 33  1  0  0  0  0
 28 29  1  0  0  0  0
 28 30  1  0  0  0  0
M  END
$$$$
default_name
  -OEChem-02102213163D

 33 33  0     1  0  0  0  0  0999 V2000
   -4.0702   -3.8485    1.4554 H   0  0  0  0  0  0  0  0  0  0  0  0
   -4.0012   -2.9605    0.8284 C   0  0  0  0  0  0  0  0  0  0  0  0
   -4.7652   -2.2435    1.1234 H   0  0  0  0  0  0  0  0  0  0  0  0
   -4.1352   -3.2385   -0.2156 H   0  0  0  0  0  0  0  0  0  0  0  0
   -2.6362   -2.3395    1.0094 C   0  0  0  0  0  0  0  0  0  0  0  0
   -1.8292   -2.8395    1.7814 O   0  0  0  0  0  0  0  0  0  0  0  0
   -2.3832   -1.2445    0.2964 N   0  0  0  0  0  0  0  0  0  0  0  0
   -3.1102   -0.8685   -0.2946 H   0  0  0  0  0  0  0  0  0  0  0  0
   -1.1292   -0.4875    0.3524 C   0  0  1  0  0  0  0  0  0  0  0  0
   -0.3087   -1.1556    0.0882 H   0  0  0  0  0  0  0  0  0  0  0  0
   -1.1749    0.6534   -0.6787 C   0  0  0  0  0  0  0  0  0  0  0  0
   -1.3222    1.5988   -0.1548 H   0  0  0  0  0  0  0  0  0  0  0  0
   -0.2112    0.7086   -1.1877 H   0  0  0  0  0  0  0  0  0  0  0  0
   -2.2790    0.5088   -1.7082 C   0  0  0  0  0  0  0  0  0  0  0  0
   -3.3341   -0.4013   -1.4968 C   0  0  0  0  0  0  0  0  0  0  0  0
   -3.3456   -1.0199   -0.6090 H   0  0  0  0  0  0  0  0  0  0  0  0
   -4.3783   -0.5028   -2.4366 C   0  0  0  0  0  0  0  0  0  0  0  0
   -5.1838   -1.2019   -2.2722 H   0  0  0  0  0  0  0  0  0  0  0  0
   -4.3687    0.3116   -3.5899 C   0  0  0  0  0  0  0  0  0  0  0  0
   -5.3726    0.2233   -4.5007 O   0  0  0  0  0  0  0  0  0  0  0  0
   -5.9811   -0.4888   -4.2995 H   0  0  0  0  0  0  0  0  0  0  0  0
   -3.3146    1.2252   -3.7975 C   0  0  0  0  0  0  0  0  0  0  0  0
   -3.3163    1.8393   -4.6854 H   0  0  0  0  0  0  0  0  0  0  0  0
   -2.2700    1.3211   -2.8586 C   0  0  0  0  0  0  0  0  0  0  0  0
   -1.4557    2.0166   -3.0233 H   0  0  0  0  0  0  0  0  0  0  0  0
   -0.8664    0.0378    1.7736 C   0  0  0  0  0  0  0  0  0  0  0  0
    0.2529   -0.0672    2.2760 O   0  0  0  0  0  0  0  0  0  0  0  0
   -1.8947    0.5991    2.4221 N   0  0  0  0  0  0  0  0  0  0  0  0
   -2.7942    0.5936    1.9635 H   0  0  0  0  0  0  0  0  0  0  0  0
   -1.8170    1.1453    3.7750 C   0  0  0  0  0  0  0  0  0  0  0  0
   -0.9697    1.8290    3.8506 H   0  0  0  0  0  0  0  0  0  0  0  0
   -2.7354    1.6828    4.0167 H   0  0  0  0  0  0  0  0  0  0  0  0
   -1.6754    0.3334    4.4914 H   0  0  0  0  0  0  0  0  0  0  0  0
  5  6  2  0  0  0  0
  5  7  1  0  0  0  0
  2  3  1  0  0  0  0
  2  4  1  0  0  0  0
  2  5  1  0  0  0  0
  1  2  1  0  0  0  0
 26 27  2  0  0  0  0
 26 28  1  0  0  0  0
 24 25  1  0  0  0  0
 22 23  1  0  0  0  0
 22 24  2  0  0  0  0
 20 21  1  0  0  0  0
 19 20  1  0  0  0  0
 19 22  1  0  0  0  0
 17 18  1  0  0  0  0
 17 19  2  0  0  0  0
 15 16  1  0  0  0  0
 15 17  1  0  0  0  0
 14 15  2  0  0  0  0
 14 24  1  0  0  0  0
 11 12  1  0  0  0  0
 11 13  1  0  0  0  0
 11 14  1  0  0  0  0
  9 10  1  0  0  0  0
  9 11  1  0  0  0  0
  9 26  1  0  0  0  0
  7  8  1  0  0  0  0
  7  9  1  0  0  0  0
 30 31  1  0  0  0  0
 30 32  1  0  0  0  0
 30 33  1  0  0  0  0
 28 29  1  0  0  0  0
 28 30  1  0  0  0  0
M  END
$$$$
default_name
  -OEChem-02102213163D

 33 33  0     1  0  0  0  0  0999 V2000
   -4.0702   -3.8485    1.4554 H   0  0  0  0  0  0  0  0  0  0  0  0
   -4.0012   -2.9605    0.8284 C   0  0  0  0  0  0  0  0  0  0  0  0
   -4.7652   -2.2435    1.1234 H   0  0  0  0  0  0  0  0  0  0  0  0
   -4.1352   -3.2385   -0.2156 H   0  0  0  0  0  0  0  0  0  0  0  0
   -2.6362   -2.3395    1.0094 C   0  0  0  0  0  0  0  0  0  0  0  0
   -1.8292   -2.8395    1.7814 O   0  0  0  0  0  0  0  0  0  0  0  0
   -2.3832   -1.2445    0.2964 N   0  0  0  0  0  0  0  0  0  0  0  0
   -3.1102   -0.8685   -0.2946 H   0  0  0  0  0  0  0  0  0  0  0  0
   -1.1292   -0.4875    0.3524 C   0  0  1  0  0  0  0  0  0  0  0  0
   -0.3087   -1.1556    0.0882 H   0  0  0  0  0  0  0  0  0  0  0  0
   -1.1749    0.6534   -0.6787 C   0  0  0  0  0  0  0  0  0  0  0  0
   -1.3222    1.5988   -0.1548 H   0  0  0  0  0  0  0  0  0  0  0  0
   -0.2112    0.7086   -1.1877 H   0  0  0  0  0  0  0  0  0  0  0  0
   -2.2790    0.5088   -1.7082 C   0  0  0  0  0  0  0  0  0  0  0  0
   -3.4809   -0.1474   -1.3750 C   0  0  0  0  0  0  0  0  0  0  0  0
   -3.6094   -0.5739   -0.3888 H   0  0  0  0  0  0  0  0  0  0  0  0
   -4.5191   -0.2436   -2.3220 C   0  0  0  0  0  0  0  0  0  0  0  0
   -5.4375   -0.7481   -2.0639 H   0  0  0  0  0  0  0  0  0  0  0  0
   -4.3556    0.3218   -3.6054 C   0  0  0  0  0  0  0  0  0  0  0  0
   -5.3520    0.2369   -4.5248 O   0  0  0  0  0  0  0  0  0  0  0  0
   -6.0792   -0.3074   -4.2199 H   0  0  0  0  0  0  0  0  0  0  0  0
   -3.1540    0.9823   -3.9355 C   0  0  0  0  0  0  0  0  0  0  0  0
   -3.0393    1.4067   -4.9215 H   0  0  0  0  0  0  0  0  0  0  0  0
   -2.1165    1.0728   -2.9883 C   0  0  0  0  0  0  0  0  0  0  0  0
   -1.1900    1.5723   -3.2457 H   0  0  0  0  0  0  0  0  0  0  0  0
   -0.8664    0.0378    1.7736 C   0  0  0  0  0  0  0  0  0  0  0  0
    0.2529   -0.0672    2.2760 O   0  0  0  0  0  0  0  0  0  0  0  0
   -1.8947    0.5991    2.4221 N   0  0  0  0  0  0  0  0  0  0  0  0
   -2.7942    0.5936    1.9635 H   0  0  0  0  0  0  0  0  0  0  0  0
   -1.8170    1.1453    3.7750 C   0  0  0  0  0  0  0  0  0  0  0  0
   -0.9697    1.8290    3.8506 H   0  0  0  0  0  0  0  0  0  0  0  0
   -2.7354    1.6828    4.0167 H   0  0  0  0  0  0  0  0  0  0  0  0
   -1.6754    0.3334    4.4914 H   0  0  0  0  0  0  0  0  0  0  0  0
  5  6  2  0  0  0  0
  5  7  1  0  0  0  0
  2  3  1  0  0  0  0
  2  4  1  0  0  0  0
  2  5  1  0  0  0  0
  1  2  1  0  0  0  0
 26 27  2  0  0  0  0
 26 28  1  0  0  0  0
 24 25  1  0  0  0  0
 22 23  1  0  0  0  0
 22 24  2  0  0  0  0
 20 21  1  0  0  0  0
 19 20  1  0  0  0  0
 19 22  1  0  0  0  0
 17 18  1  0  0  0  0
 17 19  2  0  0  0  0
 15 16  1  0  0  0  0
 15 17  1  0  0  0  0
 14 15  2  0  0  0  0
 14 24  1  0  0  0  0
 11 12  1  0  0  0  0
 11 13  1  0  0  0  0
 11 14  1  0  0  0  0
  9 10  1  0  0  0  0
  9 11  1  0  0  0  0
  9 26  1  0  0  0  0
  7  8  1  0  0  0  0
  7  9  1  0  0  0  0
 30 31  1  0  0  0  0
 30 32  1  0  0  0  0
 30 33  1  0  0  0  0
 28 29  1  0  0  0  0
 28 30  1  0  0  0  0
M  END
$$$$
default_name
  -OEChem-02102213163D

 33 33  0     1  0  0  0  0  0999 V2000
   -4.0702   -3.8485    1.4554 H   0  0  0  0  0  0  0  0  0  0  0  0
   -4.0012   -2.9605    0.8284 C   0  0  0  0  0  0  0  0  0  0  0  0
   -4.7652   -2.2435    1.1234 H   0  0  0  0  0  0  0  0  0  0  0  0
   -4.1352   -3.2385   -0.2156 H   0  0  0  0  0  0  0  0  0  0  0  0
   -2.6362   -2.3395    1.0094 C   0  0  0  0  0  0  0  0  0  0  0  0
   -1.8292   -2.8395    1.7814 O   0  0  0  0  0  0  0  0  0  0  0  0
   -2.3832   -1.2445    0.2964 N   0  0  0  0  0  0  0  0  0  0  0  0
   -3.1102   -0.8685   -0.2946 H   0  0  0  0  0  0  0  0  0  0  0  0
   -1.1292   -0.4875    0.3524 C   0  0  1  0  0  0  0  0  0  0  0  0
   -0.3087   -1.1556    0.0882 H   0  0  0  0  0  0  0  0  0  0  0  0
   -1.1749    0.6534   -0.6787 C   0  0  0  0  0  0  0  0  0  0  0  0
   -1.3222    1.5988   -0.1548 H   0  0  0  0  0  0  0  0  0  0  0  0
   -0.2112    0.7086   -1.1877 H   0  0  0  0  0  0  0  0  0  0  0  0
   -2.2790    0.5088   -1.7082 C   0  0  0  0  0  0  0  0  0  0  0  0
   -3.5811    0.1467   -1.3089 C   0  0  0  0  0  0  0  0  0  0  0  0
   -3.7912   -0.0552   -0.2667 H   0  0  0  0  0  0  0  0  0  0  0  0
   -4.6124    0.0531   -2.2637 C   0  0  0  0  0  0  0  0  0  0  0  0
   -5.6080   -0.2259   -1.9545 H   0  0  0  0  0  0  0  0  0  0  0  0
   -4.3407    0.3264   -3.6220 C   0  0  0  0  0  0  0  0  0  0  0  0
   -5.3290    0.2419   -4.5500 O   0  0  0  0  0  0  0  0  0  0  0  0
   -6.1439   -0.0998   -4.1796 H   0  0  0  0  0  0  0  0  0  0  0  0
   -3.0382    0.6934   -4.0191 C   0  0  0  0  0  0  0  0  0  0  0  0
   -2.8420    0.8956   -5.0613 H   0  0  0  0  0  0  0  0  0  0  0  0
   -2.0086    0.7816   -3.0631 C   0  0  0  0  0  0  0  0  0  0  0  0
   -1.0060    1.0546   -3.3703 H   0  0  0  0  0  0  0  0  0  0  0  0
   -0.8664    0.0378    1.7736 C   0  0  0  0  0  0  0  0  0  0  0  0
    0.2529   -0.0672    2.2760 O   0  0  0  0  0  0  0  0  0  0  0  0
   -1.8947    0.5991    2.4221 N   0  0  0  0  0  0  0  0  0  0  0  0
   -2.7942    0.5936    1.9635 H   0  0  0  0  0  0  0  0  0  0  0  0
   -1.8170    1.1453    3.7750 C   0  0  0  0  0  0  0  0  0  0  0  0
   -0.9697    1.8290    3.8506 H   0  0  0  0  0  0  0  0  0  0  0  0
   -2.7354    1.6828    4.0167 H   0  0  0  0  0  0  0  0  0  0  0  0
   -1.6754    0.3334    4.4914 H   0  0  0  0  0  0  0  0  0  0  0  0
  5  6  2  0  0  0  0
  5  7  1  0  0  0  0
  2  3  1  0  0  0  0
  2  4  1  0  0  0  0
  2  5  1  0  0  0  0
  1  2  1  0  0  0  0
 26 27  2  0  0  0  0
 26 28  1  0  0  0  0
 24 25  1  0  0  0  0
 22 23  1  0  0  0  0
 22 24  2  0  0  0  0
 20 21  1  0  0  0  0
 19 20  1  0  0  0  0
 19 22  1  0  0  0  0
 17 18  1  0  0  0  0
 17 19  2  0  0  0  0
 15 16  1  0  0  0  0
 15 17  1  0  0  0  0
 14 15  2  0  0  0  0
 14 24  1  0  0  0  0
 11 12  1  0  0  0  0
 11 13  1  0  0  0  0
 11 14  1  0  0  0  0
  9 10  1  0  0  0  0
  9 11  1  0  0  0  0
  9 26  1  0  0  0  0
  7  8  1  0  0  0  0
  7  9  1  0  0  0  0
 30 31  1  0  0  0  0
 30 32  1  0  0  0  0
 30 33  1  0  0  0  0
 28 29  1  0  0  0  0
 28 30  1  0  0  0  0
M  END
$$$$
default_name
  -OEChem-02102213163D

 33 33  0     1  0  0  0  0  0999 V2000
   -4.0702   -3.8485    1.4554 H   0  0  0  0  0  0  0  0  0  0  0  0
   -4.0012   -2.9605    0.8284 C   0  0  0  0  0  0  0  0  0  0  0  0
   -4.7652   -2.2435    1.1234 H   0  0  0  0  0  0  0  0  0  0  0  0
   -4.1352   -3.2385   -0.2156 H   0  0  0  0  0  0  0  0  0  0  0  0
   -2.6362   -2.3395    1.0094 C   0  0  0  0  0  0  0  0  0  0  0  0
   -1.8292   -2.8395    1.7814 O   0  0  0  0  0  0  0  0  0  0  0  0
   -2.3832   -1.2445    0.2964 N   0  0  0  0  0  0  0  0  0  0  0  0
   -3.1102   -0.8685   -0.2946 H   0  0  0  0  0  0  0  0  0  0  0  0
   -1.1292   -0.4875    0.3524 C   0  0  1  0  0  0  0  0  0  0  0  0
   -0.3087   -1.1556    0.0882 H   0  0  0  0  0  0  0  0  0  0  0  0
   -1.1749    0.6534   -0.6787 C   0  0  0  0  0  0  0  0  0  0  0  0
   -1.3222    1.5988   -0.1548 H   0  0  0  0  0  0  0  0  0  0  0  0
   -0.2112    0.7086   -1.1877 H   0  0  0  0  0  0  0  0  0  0  0  0
   -2.2790    0.5088   -1.7082 C   0  0  0  0  0  0  0  0  0  0  0  0
   -3.6279    0.4608   -1.3029 C   0  0  0  0  0  0  0  0  0  0  0  0
   -3.8787    0.5008   -0.2509 H   0  0  0  0  0  0  0  0  0  0  0  0
   -4.6518    0.3671   -2.2655 C   0  0  0  0  0  0  0  0  0  0  0  0
   -5.6835    0.3290   -1.9515 H   0  0  0  0  0  0  0  0  0  0  0  0
   -4.3252    0.3252   -3.6385 C   0  0  0  0  0  0  0  0  0  0  0  0
   -5.3054    0.2379   -4.5748 O   0  0  0  0  0  0  0  0  0  0  0  0
   -6.1710    0.1196   -4.1814 H   0  0  0  0  0  0  0  0  0  0  0  0
   -2.9750    0.3783   -4.0426 C   0  0  0  0  0  0  0  0  0  0  0  0
   -2.7378    0.3410   -5.0951 H   0  0  0  0  0  0  0  0  0  0  0  0
   -1.9537    0.4672   -3.0778 C   0  0  0  0  0  0  0  0  0  0  0  0
   -0.9162    0.4986   -3.3886 H   0  0  0  0  0  0  0  0  0  0  0  0
   -0.8664    0.0378    1.7736 C   0  0  0  0  0  0  0  0  0  0  0  0
    0.2529   -0.0672    2.2760 O   0  0  0  0  0  0  0  0  0  0  0  0
   -1.8947    0.5991    2.4221 N   0  0  0  0  0  0  0  0  0  0  0  0
   -2.7942    0.5936    1.9635 H   0  0  0  0  0  0  0  0  0  0  0  0
   -1.8170    1.1453    3.7750 C   0  0  0  0  0  0  0  0  0  0  0  0
   -0.9697    1.8290    3.8506 H   0  0  0  0  0  0  0  0  0  0  0  0
   -2.7354    1.6828    4.0167 H   0  0  0  0  0  0  0  0  0  0  0  0
   -1.6754    0.3334    4.4914 H   0  0  0  0  0  0  0  0  0  0  0  0
  5  6  2  0  0  0  0
  5  7  1  0  0  0  0
  2  3  1  0  0  0  0
  2  4  1  0  0  0  0
  2  5  1  0  0  0  0
  1  2  1  0  0  0  0
 26 27  2  0  0  0  0
 26 28  1  0  0  0  0
 24 25  1  0  0  0  0
 22 23  1  0  0  0  0
 22 24  2  0  0  0  0
 20 21  1  0  0  0  0
 19 20  1  0  0  0  0
 19 22  1  0  0  0  0
 17 18  1  0  0  0  0
 17 19  2  0  0  0  0
 15 16  1  0  0  0  0
 15 17  1  0  0  0  0
 14 15  2  0  0  0  0
 14 24  1  0  0  0  0
 11 12  1  0  0  0  0
 11 13  1  0  0  0  0
 11 14  1  0  0  0  0
  9 10  1  0  0  0  0
  9 11  1  0  0  0  0
  9 26  1  0  0  0  0
  7  8  1  0  0  0  0
  7  9  1  0  0  0  0
 30 31  1  0  0  0  0
 30 32  1  0  0  0  0
 30 33  1  0  0  0  0
 28 29  1  0  0  0  0
 28 30  1  0  0  0  0
M  END
$$$$
default_name
  -OEChem-02102213163D

 33 33  0     1  0  0  0  0  0999 V2000
   -4.0702   -3.8485    1.4554 H   0  0  0  0  0  0  0  0  0  0  0  0
   -4.0012   -2.9605    0.8284 C   0  0  0  0  0  0  0  0  0  0  0  0
   -4.7652   -2.2435    1.1234 H   0  0  0  0  0  0  0  0  0  0  0  0
   -4.1352   -3.2385   -0.2156 H   0  0  0  0  0  0  0  0  0  0  0  0
   -2.6362   -2.3395    1.0094 C   0  0  0  0  0  0  0  0  0  0  0  0
   -1.8292   -2.8395    1.7814 O   0  0  0  0  0  0  0  0  0  0  0  0
   -2.3832   -1.2445    0.2964 N   0  0  0  0  0  0  0  0  0  0  0  0
   -3.1102   -0.8685   -0.2946 H   0  0  0  0  0  0  0  0  0  0  0  0
   -1.1292   -0.4875    0.3524 C   0  0  1  0  0  0  0  0  0  0  0  0
   -0.3087   -1.1556    0.0882 H   0  0  0  0  0  0  0  0  0  0  0  0
   -1.1749    0.6534   -0.6787 C   0  0  0  0  0  0  0  0  0  0  0  0
   -1.3222    1.5988   -0.1548 H   0  0  0  0  0  0  0  0  0  0  0  0
   -0.2112    0.7086   -1.1877 H   0  0  0  0  0  0  0  0  0  0  0  0
   -2.2790    0.5088   -1.7082 C   0  0  0  0  0  0  0  0  0  0  0  0
   -3.6180    0.7735   -1.3574 C   0  0  0  0  0  0  0  0  0  0  0  0
   -3.8660    1.0562   -0.3427 H   0  0  0  0  0  0  0  0  0  0  0  0
   -4.6346    0.6770   -2.3274 C   0  0  0  0  0  0  0  0  0  0  0  0
   -5.6591    0.8789   -2.0549 H   0  0  0  0  0  0  0  0  0  0  0  0
   -4.3099    0.3181   -3.6539 C   0  0  0  0  0  0  0  0  0  0  0  0
   -5.2827    0.2252   -4.5974 O   0  0  0  0  0  0  0  0  0  0  0  0
   -6.1586    0.3360   -4.2251 H   0  0  0  0  0  0  0  0  0  0  0  0
   -2.9688    0.0584   -4.0043 C   0  0  0  0  0  0  0  0  0  0  0  0
   -2.7337   -0.2194   -5.0207 H   0  0  0  0  0  0  0  0  0  0  0  0
   -1.9555    0.1512   -3.0314 C   0  0  0  0  0  0  0  0  0  0  0  0
   -0.9266   -0.0576   -3.2992 H   0  0  0  0  0  0  0  0  0  0  0  0
   -0.8664    0.0378    1.7736 C   0  0  0  0  0  0  0  0  0  0  0  0
    0.2529   -0.0672    2.2760 O   0  0  0  0  0  0  0  0  0  0  0  0
   -1.8947    0.5991    2.4221 N   0  0  0  0  0  0  0  0  0  0  0  0
   -2.7942    0.5936    1.9635 H   0  0  0  0  0  0  0  0  0  0  0  0
   -1.8170    1.1453    3.7750 C   0  0  0  0  0  0  0  0  0  0  0  0
   -0.9697    1.8290    3.8506 H   0  0  0  0  0  0  0  0  0  0  0  0
   -2.7354    1.6828    4.0167 H   0  0  0  0  0  0  0  0  0  0  0  0
   -1.6754    0.3334    4.4914 H   0  0  0  0  0  0  0  0  0  0  0  0
  5  6  2  0  0  0  0
  5  7  1  0  0  0  0
  2  3  1  0  0  0  0
  2  4  1  0  0  0  0
  2  5  1  0  0  0  0
  1  2  1  0  0  0  0
 26 27  2  0  0  0  0
 26 28  1  0  0  0  0
 24 25  1  0  0  0  0
 22 23  1  0  0  0  0
 22 24  2  0  0  0  0
 20 21  1  0  0  0  0
 19 20  1  0  0  0  0
 19 22  1  0  0  0  0
 17 18  1  0  0  0  0
 17 19  2  0  0  0  0
 15 16  1  0  0  0  0
 15 17  1  0  0  0  0
 14 15  2  0  0  0  0
 14 24  1  0  0  0  0
 11 12  1  0  0  0  0
 11 13  1  0  0  0  0
 11 14  1  0  0  0  0
  9 10  1  0  0  0  0
  9 11  1  0  0  0  0
  9 26  1  0  0  0  0
  7  8  1  0  0  0  0
  7  9  1  0  0  0  0
 30 31  1  0  0  0  0
 30 32  1  0  0  0  0
 30 33  1  0  0  0  0
 28 29  1  0  0  0  0
 28 30  1  0  0  0  0
M  END
$$$$
default_name
  -OEChem-02102213163D

 33 33  0     1  0  0  0  0  0999 V2000
   -4.0702   -3.8485    1.4554 H   0  0  0  0  0  0  0  0  0  0  0  0
   -4.0012   -2.9605    0.8284 C   0  0  0  0  0  0  0  0  0  0  0  0
   -4.7652   -2.2435    1.1234 H   0  0  0  0  0  0  0  0  0  0  0  0
   -4.1352   -3.2385   -0.2156 H   0  0  0  0  0  0  0  0  0  0  0  0
   -2.6362   -2.3395    1.0094 C   0  0  0  0  0  0  0  0  0  0  0  0
   -1.8292   -2.8395    1.7814 O   0  0  0  0  0  0  0  0  0  0  0  0
   -2.3832   -1.2445    0.2964 N   0  0  0  0  0  0  0  0  0  0  0  0
   -3.1102   -0.8685   -0.2946 H   0  0  0  0  0  0  0  0  0  0  0  0
   -1.1292   -0.4875    0.3524 C   0  0  1  0  0  0  0  0  0  0  0  0
   -0.3087   -1.1556    0.0882 H   0  0  0  0  0  0  0  0  0  0  0  0
   -1.1749    0.6534   -0.6787 C   0  0  0  0  0  0  0  0  0  0  0  0
   -1.3222    1.5988   -0.1548 H   0  0  0  0  0  0  0  0  0  0  0  0
   -0.2112    0.7086   -1.1877 H   0  0  0  0  0  0  0  0  0  0  0  0
   -2.2790    0.5088   -1.7082 C   0  0  0  0  0  0  0  0  0  0  0  0
   -3.5522    1.0636   -1.4687 C   0  0  0  0  0  0  0  0  0  0  0  0
   -3.7538    1.5731   -0.5356 H   0  0  0  0  0  0  0  0  0  0  0  0
   -4.5621    0.9616   -2.4452 C   0  0  0  0  0  0  0  0  0  0  0  0
   -5.5364    1.3863   -2.2578 H   0  0  0  0  0  0  0  0  0  0  0  0
   -4.2961    0.3057   -3.6670 C   0  0  0  0  0  0  0  0  0  0  0  0
   -5.2624    0.2047   -4.6163 O   0  0  0  0  0  0  0  0  0  0  0  0
   -6.1074    0.5345   -4.3079 H   0  0  0  0  0  0  0  0  0  0  0  0
   -3.0200   -0.2445   -3.9069 C   0  0  0  0  0  0  0  0  0  0  0  0
   -2.8301   -0.7475   -4.8432 H   0  0  0  0  0  0  0  0  0  0  0  0
   -2.0140   -0.1450   -2.9270 C   0  0  0  0  0  0  0  0  0  0  0  0
   -1.0366   -0.5762   -3.1083 H   0  0  0  0  0  0  0  0  0  0  0  0
   -0.8664    0.0378    1.7736 C   0  0  0  0  0  0  0  0  0  0  0  0
    0.2529   -0.0672    2.2760 O   0  0  0  0  0  0  0  0  0  0  0  0
   -1.8947    0.5991    2.4221 N   0  0  0  0  0  0  0  0  0  0  0  0
   -2.7942    0.5936    1.9635 H   0  0  0  0  0  0  0  0  0  0  0  0
   -1.8170    1.1453    3.7750 C   0  0  0  0  0  0  0  0  0  0  0  0
   -0.9697    1.8290    3.8506 H   0  0  0  0  0  0  0  0  0  0  0  0
   -2.7354    1.6828    4.0167 H   0  0  0  0  0  0  0  0  0  0  0  0
   -1.6754    0.3334    4.4914 H   0  0  0  0  0  0  0  0  0  0  0  0
  5  6  2  0  0  0  0
  5  7  1  0  0  0  0
  2  3  1  0  0  0  0
  2  4  1  0  0  0  0
  2  5  1  0  0  0  0
  1  2  1  0  0  0  0
 26 27  2  0  0  0  0
 26 28  1  0  0  0  0
 24 25  1  0  0  0  0
 22 23  1  0  0  0  0
 22 24  2  0  0  0  0
 20 21  1  0  0  0  0
 19 20  1  0  0  0  0
 19 22  1  0  0  0  0
 17 18  1  0  0  0  0
 17 19  2  0  0  0  0
 15 16  1  0  0  0  0
 15 17  1  0  0  0  0
 14 15  2  0  0  0  0
 14 24  1  0  0  0  0
 11 12  1  0  0  0  0
 11 13  1  0  0  0  0
 11 14  1  0  0  0  0
  9 10  1  0  0  0  0
  9 11  1  0  0  0  0
  9 26  1  0  0  0  0
  7  8  1  0  0  0  0
  7  9  1  0  0  0  0
 30 31  1  0  0  0  0
 30 32  1  0  0  0  0
 30 33  1  0  0  0  0
 28 29  1  0  0  0  0
 28 30  1  0  0  0  0
M  END
$$$$
default_name
  -OEChem-02102213163D

 33 33  0     1  0  0  0  0  0999 V2000
   -4.0702   -3.8485    1.4554 H   0  0  0  0  0  0  0  0  0  0  0  0
   -4.0012   -2.9605    0.8284 C   0  0  0  0  0  0  0  0  0  0  0  0
   -4.7652   -2.2435    1.1234 H   0  0  0  0  0  0  0  0  0  0  0  0
   -4.1352   -3.2385   -0.2156 H   0  0  0  0  0  0  0  0  0  0  0  0
   -2.6362   -2.3395    1.0094 C   0  0  0  0  0  0  0  0  0  0  0  0
   -1.8292   -2.8395    1.7814 O   0  0  0  0  0  0  0  0  0  0  0  0
   -2.3832   -1.2445    0.2964 N   0  0  0  0  0  0  0  0  0  0  0  0
   -3.1102   -0.8685   -0.2946 H   0  0  0  0  0  0  0  0  0  0  0  0
   -1.1292   -0.4875    0.3524 C   0  0  1  0  0  0  0  0  0  0  0  0
   -0.3087   -1.1556    0.0882 H   0  0  0  0  0  0  0  0  0  0  0  0
   -1.1749    0.6534   -0.6787 C   0  0  0  0  0  0  0  0  0  0  0  0
   -1.3222    1.5988   -0.1548 H   0  0  0  0  0  0  0  0  0  0  0  0
   -0.2112    0.7086   -1.1877 H   0  0  0  0  0  0  0  0  0  0  0  0
   -2.2790    0.5088   -1.7082 C   0  0  0  0  0  0  0  0  0  0  0  0
   -3.4349    1.3112   -1.6293 C   0  0  0  0  0  0  0  0  0  0  0  0
   -3.5498    2.0164   -0.8166 H   0  0  0  0  0  0  0  0  0  0  0  0
   -4.4391    1.2016   -2.6108 C   0  0  0  0  0  0  0  0  0  0  0  0
   -5.3236    1.8165   -2.5464 H   0  0  0  0  0  0  0  0  0  0  0  0
   -4.2846    0.2889   -3.6770 C   0  0  0  0  0  0  0  0  0  0  0  0
   -5.2459    0.1778   -4.6301 O   0  0  0  0  0  0  0  0  0  0  0  0
   -6.0211    0.7018   -4.4239 H   0  0  0  0  0  0  0  0  0  0  0  0
   -3.1250   -0.5098   -3.7570 C   0  0  0  0  0  0  0  0  0  0  0  0
   -3.0204   -1.2071   -4.5746 H   0  0  0  0  0  0  0  0  0  0  0  0
   -2.1251   -0.4012   -2.7719 C   0  0  0  0  0  0  0  0  0  0  0  0
   -1.2387   -1.0218   -2.8290 H   0  0  0  0  0  0  0  0  0  0  0  0
   -0.8664    0.0378    1.7736 C   0  0  0  0  0  0  0  0  0  0  0  0
    0.2529   -0.0672    2.2760 O   0  0  0  0  0  0  0  0  0  0  0  0
   -1.8947    0.5991    2.4221 N   0  0  0  0  0  0  0  0  0  0  0  0
   -2.7942    0.5936    1.9635 H   0  0  0  0  0  0  0  0  0  0  0  0
   -1.8170    1.1453    3.7750 C   0  0  0  0  0  0  0  0  0  0  0  0
   -0.9697    1.8290    3.8506 H   0  0  0  0  0  0  0  0  0  0  0  0
   -2.7354    1.6828    4.0167 H   0  0  0  0  0  0  0  0  0  0  0  0
   -1.6754    0.3334    4.4914 H   0  0  0  0  0  0  0  0  0  0  0  0
  5  6  2  0  0  0  0
  5  7  1  0  0  0  0
  2  3  1  0  0  0  0
  2  4  1  0  0  0  0
  2  5  1  0  0  0  0
  1  2  1  0  0  0  0
 26 27  2  0  0  0  0
 26 28  1  0  0  0  0
 24 25  1  0  0  0  0
 22 23  1  0  0  0  0
 22 24  2  0  0  0  0
 20 21  1  0  0  0  0
 19 20  1  0  0  0  0
 19 22  1  0  0  0  0
 17 18  1  0  0  0  0
 17 19  2  0  0  0  0
 15 16  1  0  0  0  0
 15 17  1  0  0  0  0
 14 15  2  0  0  0  0
 14 24  1  0  0  0  0
 11 12  1  0  0  0  0
 11 13  1  0  0  0  0
 11 14  1  0  0  0  0
  9 10  1  0  0  0  0
  9 11  1  0  0  0  0
  9 26  1  0  0  0  0
  7  8  1  0  0  0  0
  7  9  1  0  0  0  0
 30 31  1  0  0  0  0
 30 32  1  0  0  0  0
 30 33  1  0  0  0  0
 28 29  1  0  0  0  0
 28 30  1  0  0  0  0
M  END
$$$$
default_name
  -OEChem-02102213163D

 33 33  0     1  0  0  0  0  0999 V2000
   -4.0702   -3.8485    1.4554 H   0  0  0  0  0  0  0  0  0  0  0  0
   -4.0012   -2.9605    0.8284 C   0  0  0  0  0  0  0  0  0  0  0  0
   -4.7652   -2.2435    1.1234 H   0  0  0  0  0  0  0  0  0  0  0  0
   -4.1352   -3.2385   -0.2156 H   0  0  0  0  0  0  0  0  0  0  0  0
   -2.6362   -2.3395    1.0094 C   0  0  0  0  0  0  0  0  0  0  0  0
   -1.8292   -2.8395    1.7814 O   0  0  0  0  0  0  0  0  0  0  0  0
   -2.3832   -1.2445    0.2964 N   0  0  0  0  0  0  0  0  0  0  0  0
   -3.1102   -0.8685   -0.2946 H   0  0  0  0  0  0  0  0  0  0  0  0
   -1.1292   -0.4875    0.3524 C   0  0  1  0  0  0  0  0  0  0  0  0
   -0.3087   -1.1556    0.0882 H   0  0  0  0  0  0  0  0  0  0  0  0
   -1.1749    0.6534   -0.6787 C   0  0  0  0  0  0  0  0  0  0  0  0
   -1.3222    1.5988   -0.1548 H   0  0  0  0  0  0  0  0  0  0  0  0
   -0.2112    0.7086   -1.1877 H   0  0  0  0  0  0  0  0  0  0  0  0
   -2.2790    0.5088   -1.7082 C   0  0  0  0  0  0  0  0  0  0  0  0
   -3.2741    1.4995   -1.8282 C   0  0  0  0  0  0  0  0  0  0  0  0
   -3.2680    2.3558   -1.1665 H   0  0  0  0  0  0  0  0  0  0  0  0
   -4.2740    1.3806   -2.8130 C   0  0  0  0  0  0  0  0  0  0  0  0
   -5.0354    2.1404   -2.9010 H   0  0  0  0  0  0  0  0  0  0  0  0
   -4.2762    0.2687   -3.6831 C   0  0  0  0  0  0  0  0  0  0  0  0
   -5.2344    0.1463   -4.6381 O   0  0  0  0  0  0  0  0  0  0  0  0
   -5.9055    0.8263   -4.5654 H   0  0  0  0  0  0  0  0  0  0  0  0
   -3.2767   -0.7193   -3.5649 C   0  0  0  0  0  0  0  0  0  0  0  0
   -3.2916   -1.5670   -4.2332 H   0  0  0  0  0  0  0  0  0  0  0  0
   -2.2813   -0.5999   -2.5765 C   0  0  0  0  0  0  0  0  0  0  0  0
   -1.5192   -1.3641   -2.4802 H   0  0  0  0  0  0  0  0  0  0  0  0
   -0.8664    0.0378    1.7736 C   0  0  0  0  0  0  0  0  0  0  0  0
    0.2529   -0.0672    2.2760 O   0  0  0  0  0  0  0  0  0  0  0  0
   -1.8947    0.5991    2.4221 N   0  0  0  0  0  0  0  0  0  0  0  0
   -2.7942    0.5936    1.9635 H   0  0  0  0  0  0  0  0  0  0  0  0
   -1.8170    1.1453    3.7750 C   0  0  0  0  0  0  0  0  0  0  0  0
   -0.9697    1.8290    3.8506 H   0  0  0  0  0  0  0  0  0  0  0  0
   -2.7354    1.6828    4.0167 H   0  0  0  0  0  0  0  0  0  0  0  0
   -1.6754    0.3334    4.4914 H   0  0  0  0  0  0  0  0  0  0  0  0
  5  6  2  0  0  0  0
  5  7  1  0  0  0  0
  2  3  1  0  0  0  0
  2  4  1  0  0  0  0
  2  5  1  0  0  0  0
  1  2  1  0  0  0  0
 26 27  2  0  0  0  0
 26 28  1  0  0  0  0
 24 25  1  0  0  0  0
 22 23  1  0  0  0  0
 22 24  2  0  0  0  0
 20 21  1  0  0  0  0
 19 20  1  0  0  0  0
 19 22  1  0  0  0  0
 17 18  1  0  0  0  0
 17 19  2  0  0  0  0
 15 16  1  0  0  0  0
 15 17  1  0  0  0  0
 14 15  2  0  0  0  0
 14 24  1  0  0  0  0
 11 12  1  0  0  0  0
 11 13  1  0  0  0  0
 11 14  1  0  0  0  0
  9 10  1  0  0  0  0
  9 11  1  0  0  0  0
  9 26  1  0  0  0  0
  7  8  1  0  0  0  0
  7  9  1  0  0  0  0
 30 31  1  0  0  0  0
 30 32  1  0  0  0  0
 30 33  1  0  0  0  0
 28 29  1  0  0  0  0
 28 30  1  0  0  0  0
M  END
$$$$
default_name
  -OEChem-02102213163D

 33 33  0     1  0  0  0  0  0999 V2000
   -4.0702   -3.8485    1.4554 H   0  0  0  0  0  0  0  0  0  0  0  0
   -4.0012   -2.9605    0.8284 C   0  0  0  0  0  0  0  0  0  0  0  0
   -4.7652   -2.2435    1.1234 H   0  0  0  0  0  0  0  0  0  0  0  0
   -4.1352   -3.2385   -0.2156 H   0  0  0  0  0  0  0  0  0  0  0  0
   -2.6362   -2.3395    1.0094 C   0  0  0  0  0  0  0  0  0  0  0  0
   -1.8292   -2.8395    1.7814 O   0  0  0  0  0  0  0  0  0  0  0  0
   -2.3832   -1.2445    0.2964 N   0  0  0  0  0  0  0  0  0  0  0  0
   -3.1102   -0.8685   -0.2946 H   0  0  0  0  0  0  0  0  0  0  0  0
   -1.1292   -0.4875    0.3524 C   0  0  1  0  0  0  0  0  0  0  0  0
   -0.3087   -1.1556    0.0882 H   0  0  0  0  0  0  0  0  0  0  0  0
   -1.1749    0.6534   -0.6787 C   0  0  0  0  0  0  0  0  0  0  0  0
   -1.3222    1.5988   -0.1548 H   0  0  0  0  0  0  0  0  0  0  0  0
   -0.2112    0.7086   -1.1877 H   0  0  0  0  0  0  0  0  0  0  0  0
   -2.2790    0.5088   -1.7082 C   0  0  0  0  0  0  0  0  0  0  0  0
   -3.0808    1.6157   -2.0518 C   0  0  0  0  0  0  0  0  0  0  0  0
   -2.9275    2.5681   -1.5614 H   0  0  0  0  0  0  0  0  0  0  0  0
   -4.0781    1.4864   -3.0379 C   0  0  0  0  0  0  0  0  0  0  0  0
   -4.6913    2.3357   -3.2974 H   0  0  0  0  0  0  0  0  0  0  0  0
   -4.2714    0.2465   -3.6851 C   0  0  0  0  0  0  0  0  0  0  0  0
   -5.2286    0.1124   -4.6395 O   0  0  0  0  0  0  0  0  0  0  0  0
   -5.7685    0.8996   -4.7226 H   0  0  0  0  0  0  0  0  0  0  0  0
   -3.4649   -0.8588   -3.3435 C   0  0  0  0  0  0  0  0  0  0  0  0
   -3.6252   -1.8027   -3.8423 H   0  0  0  0  0  0  0  0  0  0  0  0
   -2.4719   -0.7276   -2.3542 C   0  0  0  0  0  0  0  0  0  0  0  0
   -1.8588   -1.5797   -2.0857 H   0  0  0  0  0  0  0  0  0  0  0  0
   -0.8664    0.0378    1.7736 C   0  0  0  0  0  0  0  0  0  0  0  0
    0.2529   -0.0672    2.2760 O   0  0  0  0  0  0  0  0  0  0  0  0
   -1.8947    0.5991    2.4221 N   0  0  0  0  0  0  0  0  0  0  0  0
   -2.7942    0.5936    1.9635 H   0  0  0  0  0  0  0  0  0  0  0  0
   -1.8170    1.1453    3.7750 C   0  0  0  0  0  0  0  0  0  0  0  0
   -0.9697    1.8290    3.8506 H   0  0  0  0  0  0  0  0  0  0  0  0
   -2.7354    1.6828    4.0167 H   0  0  0  0  0  0  0  0  0  0  0  0
   -1.6754    0.3334    4.4914 H   0  0  0  0  0  0  0  0  0  0  0  0
  5  6  2  0  0  0  0
  5  7  1  0  0  0  0
  2  3  1  0  0  0  0
  2  4  1  0  0  0  0
  2  5  1  0  0  0  0
  1  2  1  0  0  0  0
 26 27  2  0  0  0  0
 26 28  1  0  0  0  0
 24 25  1  0  0  0  0
 22 23  1  0  0  0  0
 22 24  2  0  0  0  0
 20 21  1  0  0  0  0
 19 20  1  0  0  0  0
 19 22  1  0  0  0  0
 17 18  1  0  0  0  0
 17 19  2  0  0  0  0
 15 16  1  0  0  0  0
 15 17  1  0  0  0  0
 14 15  2  0  0  0  0
 14 24  1  0  0  0  0
 11 12  1  0  0  0  0
 11 13  1  0  0  0  0
 11 14  1  0  0  0  0
  9 10  1  0  0  0  0
  9 11  1  0  0  0  0
  9 26  1  0  0  0  0
  7  8  1  0  0  0  0
  7  9  1  0  0  0  0
 30 31  1  0  0  0  0
 30 32  1  0  0  0  0
 30 33  1  0  0  0  0
 28 29  1  0  0  0  0
 28 30  1  0  0  0  0
M  END
$$$$
default_name
  -OEChem-02102213163D

 33 33  0     1  0  0  0  0  0999 V2000
   -4.0702   -3.8485    1.4554 H   0  0  0  0  0  0  0  0  0  0  0  0
   -4.0012   -2.9605    0.8284 C   0  0  0  0  0  0  0  0  0  0  0  0
   -4.7652   -2.2435    1.1234 H   0  0  0  0  0  0  0  0  0  0  0  0
   -4.1352   -3.2385   -0.2156 H   0  0  0  0  0  0  0  0  0  0  0  0
   -2.6362   -2.3395    1.0094 C   0  0  0  0  0  0  0  0  0  0  0  0
   -1.8292   -2.8395    1.7814 O   0  0  0  0  0  0  0  0  0  0  0  0
   -2.3832   -1.2445    0.2964 N   0  0  0  0  0  0  0  0  0  0  0  0
   -3.1102   -0.8685   -0.2946 H   0  0  0  0  0  0  0  0  0  0  0  0
   -1.1292   -0.4875    0.3524 C   0  0  1  0  0  0  0  0  0  0  0  0
   -0.3087   -1.1556    0.0882 H   0  0  0  0  0  0  0  0  0  0  0  0
   -1.1749    0.6534   -0.6787 C   0  0  0  0  0  0  0  0  0  0  0  0
   -1.3222    1.5988   -0.1548 H   0  0  0  0  0  0  0  0  0  0  0  0
   -0.2112    0.7086   -1.1877 H   0  0  0  0  0  0  0  0  0  0  0  0
   -2.2790    0.5088   -1.7082 C   0  0  0  0  0  0  0  0  0  0  0  0
   -2.8681    1.6518   -2.2849 C   0  0  0  0  0  0  0  0  0  0  0  0
   -2.5515    2.6390   -1.9745 H   0  0  0  0  0  0  0  0  0  0  0  0
   -3.8648    1.5118   -3.2703 C   0  0  0  0  0  0  0  0  0  0  0  0
   -4.3149    2.3893   -3.7086 H   0  0  0  0  0  0  0  0  0  0  0  0
   -4.2707    0.2239   -3.6827 C   0  0  0  0  0  0  0  0  0  0  0  0
   -5.2290    0.0783   -4.6344 O   0  0  0  0  0  0  0  0  0  0  0  0
   -5.6193    0.9167   -4.8850 H   0  0  0  0  0  0  0  0  0  0  0  0
   -3.6766   -0.9188   -3.1081 C   0  0  0  0  0  0  0  0  0  0  0  0
   -3.9985   -1.8981   -3.4286 H   0  0  0  0  0  0  0  0  0  0  0  0
   -2.6839   -0.7756   -2.1201 C   0  0  0  0  0  0  0  0  0  0  0  0
   -2.2345   -1.6540   -1.6724 H   0  0  0  0  0  0  0  0  0  0  0  0
   -0.8664    0.0378    1.7736 C   0  0  0  0  0  0  0  0  0  0  0  0
    0.2529   -0.0672    2.2760 O   0  0  0  0  0  0  0  0  0  0  0  0
   -1.8947    0.5991    2.4221 N   0  0  0  0  0  0  0  0  0  0  0  0
   -2.7942    0.5936    1.9635 H   0  0  0  0  0  0  0  0  0  0  0  0
   -1.8170    1.1453    3.7750 C   0  0  0  0  0  0  0  0  0  0  0  0
   -0.9697    1.8290    3.8506 H   0  0  0  0  0  0  0  0  0  0  0  0
   -2.7354    1.6828    4.0167 H   0  0  0  0  0  0  0  0  0  0  0  0
   -1.6754    0.3334    4.4914 H   0  0  0  0  0  0  0  0  0  0  0  0
  5  6  2  0  0  0  0
  5  7  1  0  0  0  0
  2  3  1  0  0  0  0
  2  4  1  0  0  0  0
  2  5  1  0  0  0  0
  1  2  1  0  0  0  0
 26 27  2  0  0  0  0
 26 28  1  0  0  0  0
 24 25  1  0  0  0  0
 22 23  1  0  0  0  0
 22 24  2  0  0  0  0
 20 21  1  0  0  0  0
 19 20  1  0  0  0  0
 19 22  1  0  0  0  0
 17 18  1  0  0  0  0
 17 19  2  0  0  0  0
 15 16  1  0  0  0  0
 15 17  1  0  0  0  0
 14 15  2  0  0  0  0
 14 24  1  0  0  0  0
 11 12  1  0  0  0  0
 11 13  1  0  0  0  0
 11 14  1  0  0  0  0
  9 10  1  0  0  0  0
  9 11  1  0  0  0  0
  9 26  1  0  0  0  0
  7  8  1  0  0  0  0
  7  9  1  0  0  0  0
 30 31  1  0  0  0  0
 30 32  1  0  0  0  0
 30 33  1  0  0  0  0
 28 29  1  0  0  0  0
 28 30  1  0  0  0  0
M  END
$$$$
default_name
  -OEChem-02102213163D

 33 33  0     1  0  0  0  0  0999 V2000
   -4.0702   -3.8485    1.4554 H   0  0  0  0  0  0  0  0  0  0  0  0
   -4.0012   -2.9605    0.8284 C   0  0  0  0  0  0  0  0  0  0  0  0
   -4.7652   -2.2435    1.1234 H   0  0  0  0  0  0  0  0  0  0  0  0
   -4.1352   -3.2385   -0.2156 H   0  0  0  0  0  0  0  0  0  0  0  0
   -2.6362   -2.3395    1.0094 C   0  0  0  0  0  0  0  0  0  0  0  0
   -1.8292   -2.8395    1.7814 O   0  0  0  0  0  0  0  0  0  0  0  0
   -2.3832   -1.2445    0.2964 N   0  0  0  0  0  0  0  0  0  0  0  0
   -3.1102   -0.8685   -0.2946 H   0  0  0  0  0  0  0  0  0  0  0  0
   -1.1292   -0.4875    0.3524 C   0  0  1  0  0  0  0  0  0  0  0  0
   -0.3087   -1.1556    0.0882 H   0  0  0  0  0  0  0  0  0  0  0  0
   -1.1749    0.6534   -0.6787 C   0  0  0  0  0  0  0  0  0  0  0  0
   -1.3222    1.5988   -0.1548 H   0  0  0  0  0  0  0  0  0  0  0  0
   -0.2112    0.7086   -1.1877 H   0  0  0  0  0  0  0  0  0  0  0  0
   -2.2790    0.5088   -1.7082 C   0  0  0  0  0  0  0  0  0  0  0  0
   -2.6506    1.6054   -2.5116 C   0  0  0  0  0  0  0  0  0  0  0  0
   -2.1657    2.5636   -2.3777 H   0  0  0  0  0  0  0  0  0  0  0  0
   -3.6485    1.4551   -3.4942 C   0  0  0  0  0  0  0  0  0  0  0  0
   -3.9317    2.2974   -4.1066 H   0  0  0  0  0  0  0  0  0  0  0  0
   -4.2740    0.2024   -3.6761 C   0  0  0  0  0  0  0  0  0  0  0  0
   -5.2354    0.0465   -4.6230 O   0  0  0  0  0  0  0  0  0  0  0  0
   -5.4683    0.8764   -5.0413 H   0  0  0  0  0  0  0  0  0  0  0  0
   -3.8974   -0.8951   -2.8746 C   0  0  0  0  0  0  0  0  0  0  0  0
   -4.3861   -1.8467   -3.0202 H   0  0  0  0  0  0  0  0  0  0  0  0
   -2.9029   -0.7405   -1.8902 C   0  0  0  0  0  0  0  0  0  0  0  0
   -2.6206   -1.5819   -1.2685 H   0  0  0  0  0  0  0  0  0  0  0  0
   -0.8664    0.0378    1.7736 C   0  0  0  0  0  0  0  0  0  0  0  0
    0.2529   -0.0672    2.2760 O   0  0  0  0  0  0  0  0  0  0  0  0
   -1.8947    0.5991    2.4221 N   0  0  0  0  0  0  0  0  0  0  0  0
   -2.7942    0.5936    1.9635 H   0  0  0  0  0  0  0  0  0  0  0  0
   -1.8170    1.1453    3.7750 C   0  0  0  0  0  0  0  0  0  0  0  0
   -0.9697    1.8290    3.8506 H   0  0  0  0  0  0  0  0  0  0  0  0
   -2.7354    1.6828    4.0167 H   0  0  0  0  0  0  0  0  0  0  0  0
   -1.6754    0.3334    4.4914 H   0  0  0  0  0  0  0  0  0  0  0  0
  5  6  2  0  0  0  0
  5  7  1  0  0  0  0
  2  3  1  0  0  0  0
  2  4  1  0  0  0  0
  2  5  1  0  0  0  0
  1  2  1  0  0  0  0
 26 27  2  0  0  0  0
 26 28  1  0  0  0  0
 24 25  1  0  0  0  0
 22 23  1  0  0  0  0
 22 24  2  0  0  0  0
 20 21  1  0  0  0  0
 19 20  1  0  0  0  0
 19 22  1  0  0  0  0
 17 18  1  0  0  0  0
 17 19  2  0  0  0  0
 15 16  1  0  0  0  0
 15 17  1  0  0  0  0
 14 15  2  0  0  0  0
 14 24  1  0  0  0  0
 11 12  1  0  0  0  0
 11 13  1  0  0  0  0
 11 14  1  0  0  0  0
  9 10  1  0  0  0  0
  9 11  1  0  0  0  0
  9 26  1  0  0  0  0
  7  8  1  0  0  0  0
  7  9  1  0  0  0  0
 30 31  1  0  0  0  0
 30 32  1  0  0  0  0
 30 33  1  0  0  0  0
 28 29  1  0  0  0  0
 28 30  1  0  0  0  0
M  END
$$$$
default_name
  -OEChem-02102213163D

 33 33  0     1  0  0  0  0  0999 V2000
   -4.0702   -3.8485    1.4554 H   0  0  0  0  0  0  0  0  0  0  0  0
   -4.0012   -2.9605    0.8284 C   0  0  0  0  0  0  0  0  0  0  0  0
   -4.7652   -2.2435    1.1234 H   0  0  0  0  0  0  0  0  0  0  0  0
   -4.1352   -3.2385   -0.2156 H   0  0  0  0  0  0  0  0  0  0  0  0
   -2.6362   -2.3395    1.0094 C   0  0  0  0  0  0  0  0  0  0  0  0
   -1.8292   -2.8395    1.7814 O   0  0  0  0  0  0  0  0  0  0  0  0
   -2.3832   -1.2445    0.2964 N   0  0  0  0  0  0  0  0  0  0  0  0
   -3.1102   -0.8685   -0.2946 H   0  0  0  0  0  0  0  0  0  0  0  0
   -1.1292   -0.4875    0.3524 C   0  0  1  0  0  0  0  0  0  0  0  0
   -0.3087   -1.1556    0.0882 H   0  0  0  0  0  0  0  0  0  0  0  0
   -1.1749    0.6534   -0.6787 C   0  0  0  0  0  0  0  0  0  0  0  0
   -1.0530    1.6051   -0.1598 H   0  0  0  0  0  0  0  0  0  0  0  0
   -0.3326    0.5445   -1.3638 H   0  0  0  0  0  0  0  0  0  0  0  0
   -2.4647    0.7128   -1.4742 C   0  0  0  0  0  0  0  0  0  0  0  0
   -2.6497    1.7068   -2.4561 C   0  0  0  0  0  0  0  0  0  0  0  0
   -1.8804    2.4483   -2.6274 H   0  0  0  0  0  0  0  0  0  0  0  0
   -3.8325    1.7331   -3.2203 C   0  0  0  0  0  0  0  0  0  0  0  0
   -3.9715    2.4965   -3.9703 H   0  0  0  0  0  0  0  0  0  0  0  0
   -4.8320    0.7594   -3.0041 C   0  0  0  0  0  0  0  0  0  0  0  0
   -5.9749    0.7745   -3.7379 O   0  0  0  0  0  0  0  0  0  0  0  0
   -6.0294    1.5442   -4.3058 H   0  0  0  0  0  0  0  0  0  0  0  0
   -4.6430   -0.2373   -2.0244 C   0  0  0  0  0  0  0  0  0  0  0  0
   -5.4164   -0.9737   -1.8654 H   0  0  0  0  0  0  0  0  0  0  0  0
   -3.4616   -0.2582   -1.2590 C   0  0  0  0  0  0  0  0  0  0  0  0
   -3.3212   -1.0188   -0.5002 H   0  0  0  0  0  0  0  0  0  0  0  0
   -0.8664    0.0378    1.7736 C   0  0  0  0  0  0  0  0  0  0  0  0
    0.2529   -0.0672    2.2760 O   0  0  0  0  0  0  0  0  0  0  0  0
   -1.8947    0.5991    2.4221 N   0  0  0  0  0  0  0  0  0  0  0  0
   -2.7942    0.5936    1.9635 H   0  0  0  0  0  0  0  0  0  0  0  0
   -1.8170    1.1453    3.7750 C   0  0  0  0  0  0  0  0  0  0  0  0
   -0.9697    1.8290    3.8506 H   0  0  0  0  0  0  0  0  0  0  0  0
   -2.7354    1.6828    4.0167 H   0  0  0  0  0  0  0  0  0  0  0  0
   -1.6754    0.3334    4.4914 H   0  0  0  0  0  0  0  0  0  0  0  0
  5  6  2  0  0  0  0
  5  7  1  0  0  0  0
  2  3  1  0  0  0  0
  2  4  1  0  0  0  0
  2  5  1  0  0  0  0
  1  2  1  0  0  0  0
 26 27  2  0  0  0  0
 26 28  1  0  0  0  0
 24 25  1  0  0  0  0
 22 23  1  0  0  0  0
 22 24  2  0  0  0  0
 20 21  1  0  0  0  0
 19 20  1  0  0  0  0
 19 22  1  0  0  0  0
 17 18  1  0  0  0  0
 17 19  2  0  0  0  0
 15 16  1  0  0  0  0
 15 17  1  0  0  0  0
 14 15  2  0  0  0  0
 14 24  1  0  0  0  0
 11 12  1  0  0  0  0
 11 13  1  0  0  0  0
 11 14  1  0  0  0  0
  9 10  1  0  0  0  0
  9 11  1  0  0  0  0
  9 26  1  0  0  0  0
  7  8  1  0  0  0  0
  7  9  1  0  0  0  0
 30 31  1  0  0  0  0
 30 32  1  0  0  0  0
 30 33  1  0  0  0  0
 28 29  1  0  0  0  0
 28 30  1  0  0  0  0
M  END
$$$$
default_name
  -OEChem-02102213163D

 33 33  0     1  0  0  0  0  0999 V2000
   -4.0702   -3.8485    1.4554 H   0  0  0  0  0  0  0  0  0  0  0  0
   -4.0012   -2.9605    0.8284 C   0  0  0  0  0  0  0  0  0  0  0  0
   -4.7652   -2.2435    1.1234 H   0  0  0  0  0  0  0  0  0  0  0  0
   -4.1352   -3.2385   -0.2156 H   0  0  0  0  0  0  0  0  0  0  0  0
   -2.6362   -2.3395    1.0094 C   0  0  0  0  0  0  0  0  0  0  0  0
   -1.8292   -2.8395    1.7814 O   0  0  0  0  0  0  0  0  0  0  0  0
   -2.3832   -1.2445    0.2964 N   0  0  0  0  0  0  0  0  0  0  0  0
   -3.1102   -0.8685   -0.2946 H   0  0  0  0  0  0  0  0  0  0  0  0
   -1.1292   -0.4875    0.3524 C   0  0  1  0  0  0  0  0  0  0  0  0
   -0.3087   -1.1556    0.0882 H   0  0  0  0  0  0  0  0  0  0  0  0
   -1.1749    0.6534   -0.6787 C   0  0  0  0  0  0  0  0  0  0  0  0
   -1.0530    1.6051   -0.1598 H   0  0  0  0  0  0  0  0  0  0  0  0
   -0.3326    0.5445   -1.3638 H   0  0  0  0  0  0  0  0  0  0  0  0
   -2.4647    0.7128   -1.4742 C   0  0  0  0  0  0  0  0  0  0  0  0
   -2.5390    1.4828   -2.6523 C   0  0  0  0  0  0  0  0  0  0  0  0
   -1.6815    2.0563   -2.9792 H   0  0  0  0  0  0  0  0  0  0  0  0
   -3.7265    1.5025   -3.4094 C   0  0  0  0  0  0  0  0  0  0  0  0
   -3.7804    2.0945   -4.3101 H   0  0  0  0  0  0  0  0  0  0  0  0
   -4.8421    0.7463   -2.9885 C   0  0  0  0  0  0  0  0  0  0  0  0
   -5.9909    0.7563   -3.7133 O   0  0  0  0  0  0  0  0  0  0  0  0
   -5.9556    1.3827   -4.4375 H   0  0  0  0  0  0  0  0  0  0  0  0
   -4.7643   -0.0275   -1.8121 C   0  0  0  0  0  0  0  0  0  0  0  0
   -5.6255   -0.5980   -1.4982 H   0  0  0  0  0  0  0  0  0  0  0  0
   -3.5775   -0.0415   -1.0550 C   0  0  0  0  0  0  0  0  0  0  0  0
   -3.5215   -0.6289   -0.1462 H   0  0  0  0  0  0  0  0  0  0  0  0
   -0.8664    0.0378    1.7736 C   0  0  0  0  0  0  0  0  0  0  0  0
    0.2529   -0.0672    2.2760 O   0  0  0  0  0  0  0  0  0  0  0  0
   -1.8947    0.5991    2.4221 N   0  0  0  0  0  0  0  0  0  0  0  0
   -2.7942    0.5936    1.9635 H   0  0  0  0  0  0  0  0  0  0  0  0
   -1.8170    1.1453    3.7750 C   0  0  0  0  0  0  0  0  0  0  0  0
   -0.9697    1.8290    3.8506 H   0  0  0  0  0  0  0  0  0  0  0  0
   -2.7354    1.6828    4.0167 H   0  0  0  0  0  0  0  0  0  0  0  0
   -1.6754    0.3334    4.4914 H   0  0  0  0  0  0  0  0  0  0  0  0
  5  6  2  0  0  0  0
  5  7  1  0  0  0  0
  2  3  1  0  0  0  0
  2  4  1  0  0  0  0
  2  5  1  0  0  0  0
  1  2  1  0  0  0  0
 26 27  2  0  0  0  0
 26 28  1  0  0  0  0
 24 25  1  0  0  0  0
 22 23  1  0  0  0  0
 22 24  2  0  0  0  0
 20 21  1  0  0  0  0
 19 20  1  0  0  0  0
 19 22  1  0  0  0  0
 17 18  1  0  0  0  0
 17 19  2  0  0  0  0
 15 16  1  0  0  0  0
 15 17  1  0  0  0  0
 14 15  2  0  0  0  0
 14 24  1  0  0  0  0
 11 12  1  0  0  0  0
 11 13  1  0  0  0  0
 11 14  1  0  0  0  0
  9 10  1  0  0  0  0
  9 11  1  0  0  0  0
  9 26  1  0  0  0  0
  7  8  1  0  0  0  0
  7  9  1  0  0  0  0
 30 31  1  0  0  0  0
 30 32  1  0  0  0  0
 30 33  1  0  0  0  0
 28 29  1  0  0  0  0
 28 30  1  0  0  0  0
M  END
$$$$
default_name
  -OEChem-02102213163D

 33 33  0     1  0  0  0  0  0999 V2000
   -4.0702   -3.8485    1.4554 H   0  0  0  0  0  0  0  0  0  0  0  0
   -4.0012   -2.9605    0.8284 C   0  0  0  0  0  0  0  0  0  0  0  0
   -4.7652   -2.2435    1.1234 H   0  0  0  0  0  0  0  0  0  0  0  0
   -4.1352   -3.2385   -0.2156 H   0  0  0  0  0  0  0  0  0  0  0  0
   -2.6362   -2.3395    1.0094 C   0  0  0  0  0  0  0  0  0  0  0  0
   -1.8292   -2.8395    1.7814 O   0  0  0  0  0  0  0  0  0  0  0  0
   -2.3832   -1.2445    0.2964 N   0  0  0  0  0  0  0  0  0  0  0  0
   -3.1102   -0.8685   -0.2946 H   0  0  0  0  0  0  0  0  0  0  0  0
   -1.1292   -0.4875    0.3524 C   0  0  1  0  0  0  0  0  0  0  0  0
   -0.3087   -1.1556    0.0882 H   0  0  0  0  0  0  0  0  0  0  0  0
   -1.1749    0.6534   -0.6787 C   0  0  0  0  0  0  0  0  0  0  0  0
   -1.0530    1.6051   -0.1598 H   0  0  0  0  0  0  0  0  0  0  0  0
   -0.3326    0.5445   -1.3638 H   0  0  0  0  0  0  0  0  0  0  0  0
   -2.4647    0.7128   -1.4742 C   0  0  0  0  0  0  0  0  0  0  0  0
   -2.4645    1.2083   -2.7936 C   0  0  0  0  0  0  0  0  0  0  0  0
   -1.5461    1.5731   -3.2347 H   0  0  0  0  0  0  0  0  0  0  0  0
   -3.6573    1.2238   -3.5424 C   0  0  0  0  0  0  0  0  0  0  0  0
   -3.6539    1.6053   -4.5518 H   0  0  0  0  0  0  0  0  0  0  0  0
   -4.8536    0.7384   -2.9706 C   0  0  0  0  0  0  0  0  0  0  0  0
   -6.0086    0.7462   -3.6855 O   0  0  0  0  0  0  0  0  0  0  0  0
   -5.9076    1.1876   -4.5299 H   0  0  0  0  0  0  0  0  0  0  0  0
   -4.8509    0.2384   -1.6519 C   0  0  0  0  0  0  0  0  0  0  0  0
   -5.7728   -0.1259   -1.2242 H   0  0  0  0  0  0  0  0  0  0  0  0
   -3.6579    0.2285   -0.9044 C   0  0  0  0  0  0  0  0  0  0  0  0
   -3.6586   -0.1472    0.1119 H   0  0  0  0  0  0  0  0  0  0  0  0
   -0.8664    0.0378    1.7736 C   0  0  0  0  0  0  0  0  0  0  0  0
    0.2529   -0.0672    2.2760 O   0  0  0  0  0  0  0  0  0  0  0  0
   -1.8947    0.5991    2.4221 N   0  0  0  0  0  0  0  0  0  0  0  0
   -2.7942    0.5936    1.9635 H   0  0  0  0  0  0  0  0  0  0  0  0
   -1.8170    1.1453    3.7750 C   0  0  0  0  0  0  0  0  0  0  0  0
   -0.9697    1.8290    3.8506 H   0  0  0  0  0  0  0  0  0  0  0  0
   -2.7354    1.6828    4.0167 H   0  0  0  0  0  0  0  0  0  0  0  0
   -1.6754    0.3334    4.4914 H   0  0  0  0  0  0  0  0  0  0  0  0
  5  6  2  0  0  0  0
  5  7  1  0  0  0  0
  2  3  1  0  0  0  0
  2  4  1  0  0  0  0
  2  5  1  0  0  0  0
  1  2  1  0  0  0  0
 26 27  2  0  0  0  0
 26 28  1  0  0  0  0
 24 25  1  0  0  0  0
 22 23  1  0  0  0  0
 22 24  2  0  0  0  0
 20 21  1  0  0  0  0
 19 20  1  0  0  0  0
 19 22  1  0  0  0  0
 17 18  1  0  0  0  0
 17 19  2  0  0  0  0
 15 16  1  0  0  0  0
 15 17  1  0  0  0  0
 14 15  2  0  0  0  0
 14 24  1  0  0  0  0
 11 12  1  0  0  0  0
 11 13  1  0  0  0  0
 11 14  1  0  0  0  0
  9 10  1  0  0  0  0
  9 11  1  0  0  0  0
  9 26  1  0  0  0  0
  7  8  1  0  0  0  0
  7  9  1  0  0  0  0
 30 31  1  0  0  0  0
 30 32  1  0  0  0  0
 30 33  1  0  0  0  0
 28 29  1  0  0  0  0
 28 30  1  0  0  0  0
M  END
$$$$
default_name
  -OEChem-02102213163D

 33 33  0     1  0  0  0  0  0999 V2000
   -4.0702   -3.8485    1.4554 H   0  0  0  0  0  0  0  0  0  0  0  0
   -4.0012   -2.9605    0.8284 C   0  0  0  0  0  0  0  0  0  0  0  0
   -4.7652   -2.2435    1.1234 H   0  0  0  0  0  0  0  0  0  0  0  0
   -4.1352   -3.2385   -0.2156 H   0  0  0  0  0  0  0  0  0  0  0  0
   -2.6362   -2.3395    1.0094 C   0  0  0  0  0  0  0  0  0  0  0  0
   -1.8292   -2.8395    1.7814 O   0  0  0  0  0  0  0  0  0  0  0  0
   -2.3832   -1.2445    0.2964 N   0  0  0  0  0  0  0  0  0  0  0  0
   -3.1102   -0.8685   -0.2946 H   0  0  0  0  0  0  0  0  0  0  0  0
   -1.1292   -0.4875    0.3524 C   0  0  1  0  0  0  0  0  0  0  0  0
   -0.3087   -1.1556    0.0882 H   0  0  0  0  0  0  0  0  0  0  0  0
   -1.1749    0.6534   -0.6787 C   0  0  0  0  0  0  0  0  0  0  0  0
   -1.0530    1.6051   -0.1598 H   0  0  0  0  0  0  0  0  0  0  0  0
   -0.3326    0.5445   -1.3638 H   0  0  0  0  0  0  0  0  0  0  0  0
   -2.4647    0.7128   -1.4742 C   0  0  0  0  0  0  0  0  0  0  0  0
   -2.4312    0.9020   -2.8704 C   0  0  0  0  0  0  0  0  0  0  0  0
   -1.4836    1.0318   -3.3765 H   0  0  0  0  0  0  0  0  0  0  0  0
   -3.6297    0.9159   -3.6102 C   0  0  0  0  0  0  0  0  0  0  0  0
   -3.6005    1.0625   -4.6789 H   0  0  0  0  0  0  0  0  0  0  0  0
   -4.8655    0.7362   -2.9514 C   0  0  0  0  0  0  0  0  0  0  0  0
   -6.0267    0.7451   -3.6562 O   0  0  0  0  0  0  0  0  0  0  0  0
   -5.8886    0.9724   -4.5767 H   0  0  0  0  0  0  0  0  0  0  0  0
   -4.8968    0.5422   -1.5548 C   0  0  0  0  0  0  0  0  0  0  0  0
   -5.8482    0.4104   -1.0619 H   0  0  0  0  0  0  0  0  0  0  0  0
   -3.6975    0.5334   -0.8176 C   0  0  0  0  0  0  0  0  0  0  0  0
   -3.7229    0.3935    0.2566 H   0  0  0  0  0  0  0  0  0  0  0  0
   -0.8664    0.0378    1.7736 C   0  0  0  0  0  0  0  0  0  0  0  0
    0.2529   -0.0672    2.2760 O   0  0  0  0  0  0  0  0  0  0  0  0
   -1.8947    0.5991    2.4221 N   0  0  0  0  0  0  0  0  0  0  0  0
   -2.7942    0.5936    1.9635 H   0  0  0  0  0  0  0  0  0  0  0  0
   -1.8170    1.1453    3.7750 C   0  0  0  0  0  0  0  0  0  0  0  0
   -0.9697    1.8290    3.8506 H   0  0  0  0  0  0  0  0  0  0  0  0
   -2.7354    1.6828    4.0167 H   0  0  0  0  0  0  0  0  0  0  0  0
   -1.6754    0.3334    4.4914 H   0  0  0  0  0  0  0  0  0  0  0  0
  5  6  2  0  0  0  0
  5  7  1  0  0  0  0
  2  3  1  0  0  0  0
  2  4  1  0  0  0  0
  2  5  1  0  0  0  0
  1  2  1  0  0  0  0
 26 27  2  0  0  0  0
 26 28  1  0  0  0  0
 24 25  1  0  0  0  0
 22 23  1  0  0  0  0
 22 24  2  0  0  0  0
 20 21  1  0  0  0  0
 19 20  1  0  0  0  0
 19 22  1  0  0  0  0
 17 18  1  0  0  0  0
 17 19  2  0  0  0  0
 15 16  1  0  0  0  0
 15 17  1  0  0  0  0
 14 15  2  0  0  0  0
 14 24  1  0  0  0  0
 11 12  1  0  0  0  0
 11 13  1  0  0  0  0
 11 14  1  0  0  0  0
  9 10  1  0  0  0  0
  9 11  1  0  0  0  0
  9 26  1  0  0  0  0
  7  8  1  0  0  0  0
  7  9  1  0  0  0  0
 30 31  1  0  0  0  0
 30 32  1  0  0  0  0
 30 33  1  0  0  0  0
 28 29  1  0  0  0  0
 28 30  1  0  0  0  0
M  END
$$$$
default_name
  -OEChem-02102213163D

 33 33  0     1  0  0  0  0  0999 V2000
   -4.0702   -3.8485    1.4554 H   0  0  0  0  0  0  0  0  0  0  0  0
   -4.0012   -2.9605    0.8284 C   0  0  0  0  0  0  0  0  0  0  0  0
   -4.7652   -2.2435    1.1234 H   0  0  0  0  0  0  0  0  0  0  0  0
   -4.1352   -3.2385   -0.2156 H   0  0  0  0  0  0  0  0  0  0  0  0
   -2.6362   -2.3395    1.0094 C   0  0  0  0  0  0  0  0  0  0  0  0
   -1.8292   -2.8395    1.7814 O   0  0  0  0  0  0  0  0  0  0  0  0
   -2.3832   -1.2445    0.2964 N   0  0  0  0  0  0  0  0  0  0  0  0
   -3.1102   -0.8685   -0.2946 H   0  0  0  0  0  0  0  0  0  0  0  0
   -1.1292   -0.4875    0.3524 C   0  0  1  0  0  0  0  0  0  0  0  0
   -0.3087   -1.1556    0.0882 H   0  0  0  0  0  0  0  0  0  0  0  0
   -1.1749    0.6534   -0.6787 C   0  0  0  0  0  0  0  0  0  0  0  0
   -1.0530    1.6051   -0.1598 H   0  0  0  0  0  0  0  0  0  0  0  0
   -0.3326    0.5445   -1.3638 H   0  0  0  0  0  0  0  0  0  0  0  0
   -2.4647    0.7128   -1.4742 C   0  0  0  0  0  0  0  0  0  0  0  0
   -2.4415    0.5846   -2.8775 C   0  0  0  0  0  0  0  0  0  0  0  0
   -1.4981    0.4693   -3.3950 H   0  0  0  0  0  0  0  0  0  0  0  0
   -3.6455    0.5998   -3.6082 C   0  0  0  0  0  0  0  0  0  0  0  0
   -3.6239    0.5029   -4.6827 H   0  0  0  0  0  0  0  0  0  0  0  0
   -4.8772    0.7400   -2.9322 C   0  0  0  0  0  0  0  0  0  0  0  0
   -6.0440    0.7529   -3.6275 O   0  0  0  0  0  0  0  0  0  0  0  0
   -5.9000    0.7516   -4.5747 H   0  0  0  0  0  0  0  0  0  0  0  0
   -4.8989    0.8633   -1.5275 C   0  0  0  0  0  0  0  0  0  0  0  0
   -5.8466    0.9743   -1.0224 H   0  0  0  0  0  0  0  0  0  0  0  0
   -3.6934    0.8523   -0.8004 C   0  0  0  0  0  0  0  0  0  0  0  0
   -3.7102    0.9564    0.2780 H   0  0  0  0  0  0  0  0  0  0  0  0
   -0.8664    0.0378    1.7736 C   0  0  0  0  0  0  0  0  0  0  0  0
    0.2529   -0.0672    2.2760 O   0  0  0  0  0  0  0  0  0  0  0  0
   -1.8947    0.5991    2.4221 N   0  0  0  0  0  0  0  0  0  0  0  0
   -2.7942    0.5936    1.9635 H   0  0  0  0  0  0  0  0  0  0  0  0
   -1.8170    1.1453    3.7750 C   0  0  0  0  0  0  0  0  0  0  0  0
   -0.9697    1.8290    3.8506 H   0  0  0  0  0  0  0  0  0  0  0  0
   -2.7354    1.6828    4.0167 H   0  0  0  0  0  0  0  0  0  0  0  0
   -1.6754    0.3334    4.4914 H   0  0  0  0  0  0  0  0  0  0  0  0
  5  6  2  0  0  0  0
  5  7  1  0  0  0  0
  2  3  1  0  0  0  0
  2  4  1  0  0  0  0
  2  5  1  0  0  0  0
  1  2  1  0  0  0  0
 26 27  2  0  0  0  0
 26 28  1  0  0  0  0
 24 25  1  0  0  0  0
 22 23  1  0  0  0  0
 22 24  2  0  0  0  0
 20 21  1  0  0  0  0
 19 20  1  0  0  0  0
 19 22  1  0  0  0  0
 17 18  1  0  0  0  0
 17 19  2  0  0  0  0
 15 16  1  0  0  0  0
 15 17  1  0  0  0  0
 14 15  2  0  0  0  0
 14 24  1  0  0  0  0
 11 12  1  0  0  0  0
 11 13  1  0  0  0  0
 11 14  1  0  0  0  0
  9 10  1  0  0  0  0
  9 11  1  0  0  0  0
  9 26  1  0  0  0  0
  7  8  1  0  0  0  0
  7  9  1  0  0  0  0
 30 31  1  0  0  0  0
 30 32  1  0  0  0  0
 30 33  1  0  0  0  0
 28 29  1  0  0  0  0
 28 30  1  0  0  0  0
M  END
$$$$
default_name
  -OEChem-02102213163D

 33 33  0     1  0  0  0  0  0999 V2000
   -4.0702   -3.8485    1.4554 H   0  0  0  0  0  0  0  0  0  0  0  0
   -4.0012   -2.9605    0.8284 C   0  0  0  0  0  0  0  0  0  0  0  0
   -4.7652   -2.2435    1.1234 H   0  0  0  0  0  0  0  0  0  0  0  0
   -4.1352   -3.2385   -0.2156 H   0  0  0  0  0  0  0  0  0  0  0  0
   -2.6362   -2.3395    1.0094 C   0  0  0  0  0  0  0  0  0  0  0  0
   -1.8292   -2.8395    1.7814 O   0  0  0  0  0  0  0  0  0  0  0  0
   -2.3832   -1.2445    0.2964 N   0  0  0  0  0  0  0  0  0  0  0  0
   -3.1102   -0.8685   -0.2946 H   0  0  0  0  0  0  0  0  0  0  0  0
   -1.1292   -0.4875    0.3524 C   0  0  1  0  0  0  0  0  0  0  0  0
   -0.3087   -1.1556    0.0882 H   0  0  0  0  0  0  0  0  0  0  0  0
   -1.1749    0.6534   -0.6787 C   0  0  0  0  0  0  0  0  0  0  0  0
   -1.0530    1.6051   -0.1598 H   0  0  0  0  0  0  0  0  0  0  0  0
   -0.3326    0.5445   -1.3638 H   0  0  0  0  0  0  0  0  0  0  0  0
   -2.4647    0.7128   -1.4742 C   0  0  0  0  0  0  0  0  0  0  0  0
   -2.4945    0.2779   -2.8144 C   0  0  0  0  0  0  0  0  0  0  0  0
   -1.5887   -0.0762   -3.2889 H   0  0  0  0  0  0  0  0  0  0  0  0
   -3.7037    0.2971   -3.5365 C   0  0  0  0  0  0  0  0  0  0  0  0
   -3.7225   -0.0352   -4.5630 H   0  0  0  0  0  0  0  0  0  0  0  0
   -4.8877    0.7495   -2.9144 C   0  0  0  0  0  0  0  0  0  0  0  0
   -6.0595    0.7691   -3.6013 O   0  0  0  0  0  0  0  0  0  0  0  0
   -5.9410    0.5403   -4.5241 H   0  0  0  0  0  0  0  0  0  0  0  0
   -4.8570    1.1797   -1.5717 C   0  0  0  0  0  0  0  0  0  0  0  0
   -5.7680    1.5276   -1.1085 H   0  0  0  0  0  0  0  0  0  0  0  0
   -3.6459    1.1637   -0.8541 C   0  0  0  0  0  0  0  0  0  0  0  0
   -3.6213    1.5031    0.1746 H   0  0  0  0  0  0  0  0  0  0  0  0
   -0.8664    0.0378    1.7736 C   0  0  0  0  0  0  0  0  0  0  0  0
    0.2529   -0.0672    2.2760 O   0  0  0  0  0  0  0  0  0  0  0  0
   -1.8947    0.5991    2.4221 N   0  0  0  0  0  0  0  0  0  0  0  0
   -2.7942    0.5936    1.9635 H   0  0  0  0  0  0  0  0  0  0  0  0
   -1.8170    1.1453    3.7750 C   0  0  0  0  0  0  0  0  0  0  0  0
   -0.9697    1.8290    3.8506 H   0  0  0  0  0  0  0  0  0  0  0  0
   -2.7354    1.6828    4.0167 H   0  0  0  0  0  0  0  0  0  0  0  0
   -1.6754    0.3334    4.4914 H   0  0  0  0  0  0  0  0  0  0  0  0
  5  6  2  0  0  0  0
  5  7  1  0  0  0  0
  2  3  1  0  0  0  0
  2  4  1  0  0  0  0
  2  5  1  0  0  0  0
  1  2  1  0  0  0  0
 26 27  2  0  0  0  0
 26 28  1  0  0  0  0
 24 25  1  0  0  0  0
 22 23  1  0  0  0  0
 22 24  2  0  0  0  0
 20 21  1  0  0  0  0
 19 20  1  0  0  0  0
 19 22  1  0  0  0  0
 17 18  1  0  0  0  0
 17 19  2  0  0  0  0
 15 16  1  0  0  0  0
 15 17  1  0  0  0  0
 14 15  2  0  0  0  0
 14 24  1  0  0  0  0
 11 12  1  0  0  0  0
 11 13  1  0  0  0  0
 11 14  1  0  0  0  0
  9 10  1  0  0  0  0
  9 11  1  0  0  0  0
  9 26  1  0  0  0  0
  7  8  1  0  0  0  0
  7  9  1  0  0  0  0
 30 31  1  0  0  0  0
 30 32  1  0  0  0  0
 30 33  1  0  0  0  0
 28 29  1  0  0  0  0
 28 30  1  0  0  0  0
M  END
$$$$
default_name
  -OEChem-02102213163D

 33 33  0     1  0  0  0  0  0999 V2000
   -4.0702   -3.8485    1.4554 H   0  0  0  0  0  0  0  0  0  0  0  0
   -4.0012   -2.9605    0.8284 C   0  0  0  0  0  0  0  0  0  0  0  0
   -4.7652   -2.2435    1.1234 H   0  0  0  0  0  0  0  0  0  0  0  0
   -4.1352   -3.2385   -0.2156 H   0  0  0  0  0  0  0  0  0  0  0  0
   -2.6362   -2.3395    1.0094 C   0  0  0  0  0  0  0  0  0  0  0  0
   -1.8292   -2.8395    1.7814 O   0  0  0  0  0  0  0  0  0  0  0  0
   -2.3832   -1.2445    0.2964 N   0  0  0  0  0  0  0  0  0  0  0  0
   -3.1102   -0.8685   -0.2946 H   0  0  0  0  0  0  0  0  0  0  0  0
   -1.1292   -0.4875    0.3524 C   0  0  1  0  0  0  0  0  0  0  0  0
   -0.3087   -1.1556    0.0882 H   0  0  0  0  0  0  0  0  0  0  0  0
   -1.1749    0.6534   -0.6787 C   0  0  0  0  0  0  0  0  0  0  0  0
   -1.0530    1.6051   -0.1598 H   0  0  0  0  0  0  0  0  0  0  0  0
   -0.3326    0.5445   -1.3638 H   0  0  0  0  0  0  0  0  0  0  0  0
   -2.4647    0.7128   -1.4742 C   0  0  0  0  0  0  0  0  0  0  0  0
   -2.5867    0.0027   -2.6854 C   0  0  0  0  0  0  0  0  0  0  0  0
   -1.7491   -0.5675   -3.0654 H   0  0  0  0  0  0  0  0  0  0  0  0
   -3.8002    0.0284   -3.4000 C   0  0  0  0  0  0  0  0  0  0  0  0
   -3.8897   -0.5153   -4.3279 H   0  0  0  0  0  0  0  0  0  0  0  0
   -4.8964    0.7640   -2.8992 C   0  0  0  0  0  0  0  0  0  0  0  0
   -6.0719    0.7926   -3.5794 O   0  0  0  0  0  0  0  0  0  0  0  0
   -6.0087    0.3529   -4.4282 H   0  0  0  0  0  0  0  0  0  0  0  0
   -4.7740    1.4700   -1.6845 C   0  0  0  0  0  0  0  0  0  0  0  0
   -5.6179    2.0323   -1.3141 H   0  0  0  0  0  0  0  0  0  0  0  0
   -3.5584    1.4461   -0.9749 C   0  0  0  0  0  0  0  0  0  0  0  0
   -3.4622    1.9963   -0.0465 H   0  0  0  0  0  0  0  0  0  0  0  0
   -0.8664    0.0378    1.7736 C   0  0  0  0  0  0  0  0  0  0  0  0
    0.2529   -0.0672    2.2760 O   0  0  0  0  0  0  0  0  0  0  0  0
   -1.8947    0.5991    2.4221 N   0  0  0  0  0  0  0  0  0  0  0  0
   -2.7942    0.5936    1.9635 H   0  0  0  0  0  0  0  0  0  0  0  0
   -1.8170    1.1453    3.7750 C   0  0  0  0  0  0  0  0  0  0  0  0
   -0.9697    1.8290    3.8506 H   0  0  0  0  0  0  0  0  0  0  0  0
   -2.7354    1.6828    4.0167 H   0  0  0  0  0  0  0  0  0  0  0  0
   -1.6754    0.3334    4.4914 H   0  0  0  0  0  0  0  0  0  0  0  0
  5  6  2  0  0  0  0
  5  7  1  0  0  0  0
  2  3  1  0  0  0  0
  2  4  1  0  0  0  0
  2  5  1  0  0  0  0
  1  2  1  0  0  0  0
 26 27  2  0  0  0  0
 26 28  1  0  0  0  0
 24 25  1  0  0  0  0
 22 23  1  0  0  0  0
 22 24  2  0  0  0  0
 20 21  1  0  0  0  0
 19 20  1  0  0  0  0
 19 22  1  0  0  0  0
 17 18  1  0  0  0  0
 17 19  2  0  0  0  0
 15 16  1  0  0  0  0
 15 17  1  0  0  0  0
 14 15  2  0  0  0  0
 14 24  1  0  0  0  0
 11 12  1  0  0  0  0
 11 13  1  0  0  0  0
 11 14  1  0  0  0  0
  9 10  1  0  0  0  0
  9 11  1  0  0  0  0
  9 26  1  0  0  0  0
  7  8  1  0  0  0  0
  7  9  1  0  0  0  0
 30 31  1  0  0  0  0
 30 32  1  0  0  0  0
 30 33  1  0  0  0  0
 28 29  1  0  0  0  0
 28 30  1  0  0  0  0
M  END
$$$$
default_name
  -OEChem-02102213163D

 33 33  0     1  0  0  0  0  0999 V2000
   -4.0702   -3.8485    1.4554 H   0  0  0  0  0  0  0  0  0  0  0  0
   -4.0012   -2.9605    0.8284 C   0  0  0  0  0  0  0  0  0  0  0  0
   -4.7652   -2.2435    1.1234 H   0  0  0  0  0  0  0  0  0  0  0  0
   -4.1352   -3.2385   -0.2156 H   0  0  0  0  0  0  0  0  0  0  0  0
   -2.6362   -2.3395    1.0094 C   0  0  0  0  0  0  0  0  0  0  0  0
   -1.8292   -2.8395    1.7814 O   0  0  0  0  0  0  0  0  0  0  0  0
   -2.3832   -1.2445    0.2964 N   0  0  0  0  0  0  0  0  0  0  0  0
   -3.1102   -0.8685   -0.2946 H   0  0  0  0  0  0  0  0  0  0  0  0
   -1.1292   -0.4875    0.3524 C   0  0  1  0  0  0  0  0  0  0  0  0
   -0.3087   -1.1556    0.0882 H   0  0  0  0  0  0  0  0  0  0  0  0
   -1.1749    0.6534   -0.6787 C   0  0  0  0  0  0  0  0  0  0  0  0
   -1.0530    1.6051   -0.1598 H   0  0  0  0  0  0  0  0  0  0  0  0
   -0.3326    0.5445   -1.3638 H   0  0  0  0  0  0  0  0  0  0  0  0
   -2.4647    0.7128   -1.4742 C   0  0  0  0  0  0  0  0  0  0  0  0
   -2.7119   -0.2222   -2.4993 C   0  0  0  0  0  0  0  0  0  0  0  0
   -1.9686   -0.9710   -2.7397 H   0  0  0  0  0  0  0  0  0  0  0  0
   -3.9286   -0.1880   -3.2081 C   0  0  0  0  0  0  0  0  0  0  0  0
   -4.1139   -0.9046   -3.9935 H   0  0  0  0  0  0  0  0  0  0  0  0
   -4.9027    0.7825   -2.8876 C   0  0  0  0  0  0  0  0  0  0  0  0
   -6.0805    0.8219   -3.5633 O   0  0  0  0  0  0  0  0  0  0  0  0
   -6.0986    0.2022   -4.2937 H   0  0  0  0  0  0  0  0  0  0  0  0
   -4.6557    1.7143   -1.8582 C   0  0  0  0  0  0  0  0  0  0  0  0
   -5.4065    2.4543   -1.6254 H   0  0  0  0  0  0  0  0  0  0  0  0
   -3.4367    1.6805   -1.1547 C   0  0  0  0  0  0  0  0  0  0  0  0
   -3.2438    2.4025   -0.3702 H   0  0  0  0  0  0  0  0  0  0  0  0
   -0.8664    0.0378    1.7736 C   0  0  0  0  0  0  0  0  0  0  0  0
    0.2529   -0.0672    2.2760 O   0  0  0  0  0  0  0  0  0  0  0  0
   -1.8947    0.5991    2.4221 N   0  0  0  0  0  0  0  0  0  0  0  0
   -2.7942    0.5936    1.9635 H   0  0  0  0  0  0  0  0  0  0  0  0
   -1.8170    1.1453    3.7750 C   0  0  0  0  0  0  0  0  0  0  0  0
   -0.9697    1.8290    3.8506 H   0  0  0  0  0  0  0  0  0  0  0  0
   -2.7354    1.6828    4.0167 H   0  0  0  0  0  0  0  0  0  0  0  0
   -1.6754    0.3334    4.4914 H   0  0  0  0  0  0  0  0  0  0  0  0
  5  6  2  0  0  0  0
  5  7  1  0  0  0  0
  2  3  1  0  0  0  0
  2  4  1  0  0  0  0
  2  5  1  0  0  0  0
  1  2  1  0  0  0  0
 26 27  2  0  0  0  0
 26 28  1  0  0  0  0
 24 25  1  0  0  0  0
 22 23  1  0  0  0  0
 22 24  2  0  0  0  0
 20 21  1  0  0  0  0
 19 20  1  0  0  0  0
 19 22  1  0  0  0  0
 17 18  1  0  0  0  0
 17 19  2  0  0  0  0
 15 16  1  0  0  0  0
 15 17  1  0  0  0  0
 14 15  2  0  0  0  0
 14 24  1  0  0  0  0
 11 12  1  0  0  0  0
 11 13  1  0  0  0  0
 11 14  1  0  0  0  0
  9 10  1  0  0  0  0
  9 11  1  0  0  0  0
  9 26  1  0  0  0  0
  7  8  1  0  0  0  0
  7  9  1  0  0  0  0
 30 31  1  0  0  0  0
 30 32  1  0  0  0  0
 30 33  1  0  0  0  0
 28 29  1  0  0  0  0
 28 30  1  0  0  0  0
M  END
$$$$
default_name
  -OEChem-02102213163D

 33 33  0     1  0  0  0  0  0999 V2000
   -4.0702   -3.8485    1.4554 H   0  0  0  0  0  0  0  0  0  0  0  0
   -4.0012   -2.9605    0.8284 C   0  0  0  0  0  0  0  0  0  0  0  0
   -4.7652   -2.2435    1.1234 H   0  0  0  0  0  0  0  0  0  0  0  0
   -4.1352   -3.2385   -0.2156 H   0  0  0  0  0  0  0  0  0  0  0  0
   -2.6362   -2.3395    1.0094 C   0  0  0  0  0  0  0  0  0  0  0  0
   -1.8292   -2.8395    1.7814 O   0  0  0  0  0  0  0  0  0  0  0  0
   -2.3832   -1.2445    0.2964 N   0  0  0  0  0  0  0  0  0  0  0  0
   -3.1102   -0.8685   -0.2946 H   0  0  0  0  0  0  0  0  0  0  0  0
   -1.1292   -0.4875    0.3524 C   0  0  1  0  0  0  0  0  0  0  0  0
   -0.3087   -1.1556    0.0882 H   0  0  0  0  0  0  0  0  0  0  0  0
   -1.1749    0.6534   -0.6787 C   0  0  0  0  0  0  0  0  0  0  0  0
   -1.0530    1.6051   -0.1598 H   0  0  0  0  0  0  0  0  0  0  0  0
   -0.3326    0.5445   -1.3638 H   0  0  0  0  0  0  0  0  0  0  0  0
   -2.4647    0.7128   -1.4742 C   0  0  0  0  0  0  0  0  0  0  0  0
   -2.8614   -0.3814   -2.2688 C   0  0  0  0  0  0  0  0  0  0  0  0
   -2.2320   -1.2593   -2.3341 H   0  0  0  0  0  0  0  0  0  0  0  0
   -4.0800   -0.3374   -2.9737 C   0  0  0  0  0  0  0  0  0  0  0  0
   -4.3799   -1.1765   -3.5825 H   0  0  0  0  0  0  0  0  0  0  0  0
   -4.9062    0.8038   -2.8804 C   0  0  0  0  0  0  0  0  0  0  0  0
   -6.0846    0.8548   -3.5540 O   0  0  0  0  0  0  0  0  0  0  0  0
   -6.2045    0.0984   -4.1297 H   0  0  0  0  0  0  0  0  0  0  0  0
   -4.5099    1.8959   -2.0809 C   0  0  0  0  0  0  0  0  0  0  0  0
   -5.1481    2.7646   -2.0211 H   0  0  0  0  0  0  0  0  0  0  0  0
   -3.2891    1.8507   -1.3812 C   0  0  0  0  0  0  0  0  0  0  0  0
   -2.9810    2.6939   -0.7745 H   0  0  0  0  0  0  0  0  0  0  0  0
   -0.8664    0.0378    1.7736 C   0  0  0  0  0  0  0  0  0  0  0  0
    0.2529   -0.0672    2.2760 O   0  0  0  0  0  0  0  0  0  0  0  0
   -1.8947    0.5991    2.4221 N   0  0  0  0  0  0  0  0  0  0  0  0
   -2.7942    0.5936    1.9635 H   0  0  0  0  0  0  0  0  0  0  0  0
   -1.8170    1.1453    3.7750 C   0  0  0  0  0  0  0  0  0  0  0  0
   -0.9697    1.8290    3.8506 H   0  0  0  0  0  0  0  0  0  0  0  0
   -2.7354    1.6828    4.0167 H   0  0  0  0  0  0  0  0  0  0  0  0
   -1.6754    0.3334    4.4914 H   0  0  0  0  0  0  0  0  0  0  0  0
  5  6  2  0  0  0  0
  5  7  1  0  0  0  0
  2  3  1  0  0  0  0
  2  4  1  0  0  0  0
  2  5  1  0  0  0  0
  1  2  1  0  0  0  0
 26 27  2  0  0  0  0
 26 28  1  0  0  0  0
 24 25  1  0  0  0  0
 22 23  1  0  0  0  0
 22 24  2  0  0  0  0
 20 21  1  0  0  0  0
 19 20  1  0  0  0  0
 19 22  1  0  0  0  0
 17 18  1  0  0  0  0
 17 19  2  0  0  0  0
 15 16  1  0  0  0  0
 15 17  1  0  0  0  0
 14 15  2  0  0  0  0
 14 24  1  0  0  0  0
 11 12  1  0  0  0  0
 11 13  1  0  0  0  0
 11 14  1  0  0  0  0
  9 10  1  0  0  0  0
  9 11  1  0  0  0  0
  9 26  1  0  0  0  0
  7  8  1  0  0  0  0
  7  9  1  0  0  0  0
 30 31  1  0  0  0  0
 30 32  1  0  0  0  0
 30 33  1  0  0  0  0
 28 29  1  0  0  0  0
 28 30  1  0  0  0  0
M  END
$$$$
default_name
  -OEChem-02102213163D

 33 33  0     1  0  0  0  0  0999 V2000
   -4.0702   -3.8485    1.4554 H   0  0  0  0  0  0  0  0  0  0  0  0
   -4.0012   -2.9605    0.8284 C   0  0  0  0  0  0  0  0  0  0  0  0
   -4.7652   -2.2435    1.1234 H   0  0  0  0  0  0  0  0  0  0  0  0
   -4.1352   -3.2385   -0.2156 H   0  0  0  0  0  0  0  0  0  0  0  0
   -2.6362   -2.3395    1.0094 C   0  0  0  0  0  0  0  0  0  0  0  0
   -1.8292   -2.8395    1.7814 O   0  0  0  0  0  0  0  0  0  0  0  0
   -2.3832   -1.2445    0.2964 N   0  0  0  0  0  0  0  0  0  0  0  0
   -3.1102   -0.8685   -0.2946 H   0  0  0  0  0  0  0  0  0  0  0  0
   -1.1292   -0.4875    0.3524 C   0  0  1  0  0  0  0  0  0  0  0  0
   -0.3087   -1.1556    0.0882 H   0  0  0  0  0  0  0  0  0  0  0  0
   -1.1749    0.6534   -0.6787 C   0  0  0  0  0  0  0  0  0  0  0  0
   -1.0530    1.6051   -0.1598 H   0  0  0  0  0  0  0  0  0  0  0  0
   -0.3326    0.5445   -1.3638 H   0  0  0  0  0  0  0  0  0  0  0  0
   -2.4647    0.7128   -1.4742 C   0  0  0  0  0  0  0  0  0  0  0  0
   -3.0252   -0.4642   -2.0095 C   0  0  0  0  0  0  0  0  0  0  0  0
   -2.5216   -1.4128   -1.8762 H   0  0  0  0  0  0  0  0  0  0  0  0
   -4.2442   -0.4095   -2.7130 C   0  0  0  0  0  0  0  0  0  0  0  0
   -4.6697   -1.3126   -3.1229 H   0  0  0  0  0  0  0  0  0  0  0  0
   -4.9066    0.8264   -2.8781 C   0  0  0  0  0  0  0  0  0  0  0  0
   -6.0841    0.8892   -3.5524 O   0  0  0  0  0  0  0  0  0  0  0  0
   -6.3193    0.0487   -3.9474 H   0  0  0  0  0  0  0  0  0  0  0  0
   -4.3467    2.0025   -2.3375 C   0  0  0  0  0  0  0  0  0  0  0  0
   -4.8604    2.9422   -2.4743 H   0  0  0  0  0  0  0  0  0  0  0  0
   -3.1258    1.9453   -1.6389 C   0  0  0  0  0  0  0  0  0  0  0  0
   -2.6916    2.8507   -1.2318 H   0  0  0  0  0  0  0  0  0  0  0  0
   -0.8664    0.0378    1.7736 C   0  0  0  0  0  0  0  0  0  0  0  0
    0.2529   -0.0672    2.2760 O   0  0  0  0  0  0  0  0  0  0  0  0
   -1.8947    0.5991    2.4221 N   0  0  0  0  0  0  0  0  0  0  0  0
   -2.7942    0.5936    1.9635 H   0  0  0  0  0  0  0  0  0  0  0  0
   -1.8170    1.1453    3.7750 C   0  0  0  0  0  0  0  0  0  0  0  0
   -0.9697    1.8290    3.8506 H   0  0  0  0  0  0  0  0  0  0  0  0
   -2.7354    1.6828    4.0167 H   0  0  0  0  0  0  0  0  0  0  0  0
   -1.6754    0.3334    4.4914 H   0  0  0  0  0  0  0  0  0  0  0  0
  5  6  2  0  0  0  0
  5  7  1  0  0  0  0
  2  3  1  0  0  0  0
  2  4  1  0  0  0  0
  2  5  1  0  0  0  0
  1  2  1  0  0  0  0
 26 27  2  0  0  0  0
 26 28  1  0  0  0  0
 24 25  1  0  0  0  0
 22 23  1  0  0  0  0
 22 24  2  0  0  0  0
 20 21  1  0  0  0  0
 19 20  1  0  0  0  0
 19 22  1  0  0  0  0
 17 18  1  0  0  0  0
 17 19  2  0  0  0  0
 15 16  1  0  0  0  0
 15 17  1  0  0  0  0
 14 15  2  0  0  0  0
 14 24  1  0  0  0  0
 11 12  1  0  0  0  0
 11 13  1  0  0  0  0
 11 14  1  0  0  0  0
  9 10  1  0  0  0  0
  9 11  1  0  0  0  0
  9 26  1  0  0  0  0
  7  8  1  0  0  0  0
  7  9  1  0  0  0  0
 30 31  1  0  0  0  0
 30 32  1  0  0  0  0
 30 33  1  0  0  0  0
 28 29  1  0  0  0  0
 28 30  1  0  0  0  0
M  END
$$$$
default_name
  -OEChem-02102213163D

 33 33  0     1  0  0  0  0  0999 V2000
   -4.0702   -3.8485    1.4554 H   0  0  0  0  0  0  0  0  0  0  0  0
   -4.0012   -2.9605    0.8284 C   0  0  0  0  0  0  0  0  0  0  0  0
   -4.7652   -2.2435    1.1234 H   0  0  0  0  0  0  0  0  0  0  0  0
   -4.1352   -3.2385   -0.2156 H   0  0  0  0  0  0  0  0  0  0  0  0
   -2.6362   -2.3395    1.0094 C   0  0  0  0  0  0  0  0  0  0  0  0
   -1.8292   -2.8395    1.7814 O   0  0  0  0  0  0  0  0  0  0  0  0
   -2.3832   -1.2445    0.2964 N   0  0  0  0  0  0  0  0  0  0  0  0
   -3.1102   -0.8685   -0.2946 H   0  0  0  0  0  0  0  0  0  0  0  0
   -1.1292   -0.4875    0.3524 C   0  0  1  0  0  0  0  0  0  0  0  0
   -0.3087   -1.1556    0.0882 H   0  0  0  0  0  0  0  0  0  0  0  0
   -1.1749    0.6534   -0.6787 C   0  0  0  0  0  0  0  0  0  0  0  0
   -1.0530    1.6051   -0.1598 H   0  0  0  0  0  0  0  0  0  0  0  0
   -0.3326    0.5445   -1.3638 H   0  0  0  0  0  0  0  0  0  0  0  0
   -2.4647    0.7128   -1.4742 C   0  0  0  0  0  0  0  0  0  0  0  0
   -3.1919   -0.4649   -1.7392 C   0  0  0  0  0  0  0  0  0  0  0  0
   -2.8174   -1.4209   -1.3972 H   0  0  0  0  0  0  0  0  0  0  0  0
   -4.4099   -0.3995   -2.4435 C   0  0  0  0  0  0  0  0  0  0  0  0
   -4.9634   -1.3036   -2.6461 H   0  0  0  0  0  0  0  0  0  0  0  0
   -4.9038    0.8488   -2.8809 C   0  0  0  0  0  0  0  0  0  0  0  0
   -6.0789    0.9228   -3.5583 O   0  0  0  0  0  0  0  0  0  0  0  0
   -6.4350    0.0563   -3.7592 H   0  0  0  0  0  0  0  0  0  0  0  0
   -4.1772    2.0269   -2.6105 C   0  0  0  0  0  0  0  0  0  0  0  0
   -4.5630    2.9749   -2.9540 H   0  0  0  0  0  0  0  0  0  0  0  0
   -2.9578    1.9577   -1.9103 C   0  0  0  0  0  0  0  0  0  0  0  0
   -2.3955    2.8622   -1.7111 H   0  0  0  0  0  0  0  0  0  0  0  0
   -0.8664    0.0378    1.7736 C   0  0  0  0  0  0  0  0  0  0  0  0
    0.2529   -0.0672    2.2760 O   0  0  0  0  0  0  0  0  0  0  0  0
   -1.8947    0.5991    2.4221 N   0  0  0  0  0  0  0  0  0  0  0  0
   -2.7942    0.5936    1.9635 H   0  0  0  0  0  0  0  0  0  0  0  0
   -1.8170    1.1453    3.7750 C   0  0  0  0  0  0  0  0  0  0  0  0
   -0.9697    1.8290    3.8506 H   0  0  0  0  0  0  0  0  0  0  0  0
   -2.7354    1.6828    4.0167 H   0  0  0  0  0  0  0  0  0  0  0  0
   -1.6754    0.3334    4.4914 H   0  0  0  0  0  0  0  0  0  0  0  0
  5  6  2  0  0  0  0
  5  7  1  0  0  0  0
  2  3  1  0  0  0  0
  2  4  1  0  0  0  0
  2  5  1  0  0  0  0
  1  2  1  0  0  0  0
 26 27  2  0  0  0  0
 26 28  1  0  0  0  0
 24 25  1  0  0  0  0
 22 23  1  0  0  0  0
 22 24  2  0  0  0  0
 20 21  1  0  0  0  0
 19 20  1  0  0  0  0
 19 22  1  0  0  0  0
 17 18  1  0  0  0  0
 17 19  2  0  0  0  0
 15 16  1  0  0  0  0
 15 17  1  0  0  0  0
 14 15  2  0  0  0  0
 14 24  1  0  0  0  0
 11 12  1  0  0  0  0
 11 13  1  0  0  0  0
 11 14  1  0  0  0  0
  9 10  1  0  0  0  0
  9 11  1  0  0  0  0
  9 26  1  0  0  0  0
  7  8  1  0  0  0  0
  7  9  1  0  0  0  0
 30 31  1  0  0  0  0
 30 32  1  0  0  0  0
 30 33  1  0  0  0  0
 28 29  1  0  0  0  0
 28 30  1  0  0  0  0
M  END
$$$$
default_name
  -OEChem-02102213163D

 33 33  0     1  0  0  0  0  0999 V2000
   -4.0702   -3.8485    1.4554 H   0  0  0  0  0  0  0  0  0  0  0  0
   -4.0012   -2.9605    0.8284 C   0  0  0  0  0  0  0  0  0  0  0  0
   -4.7652   -2.2435    1.1234 H   0  0  0  0  0  0  0  0  0  0  0  0
   -4.1352   -3.2385   -0.2156 H   0  0  0  0  0  0  0  0  0  0  0  0
   -2.6362   -2.3395    1.0094 C   0  0  0  0  0  0  0  0  0  0  0  0
   -1.8292   -2.8395    1.7814 O   0  0  0  0  0  0  0  0  0  0  0  0
   -2.3832   -1.2445    0.2964 N   0  0  0  0  0  0  0  0  0  0  0  0
   -3.1102   -0.8685   -0.2946 H   0  0  0  0  0  0  0  0  0  0  0  0
   -1.1292   -0.4875    0.3524 C   0  0  1  0  0  0  0  0  0  0  0  0
   -0.3087   -1.1556    0.0882 H   0  0  0  0  0  0  0  0  0  0  0  0
   -1.1749    0.6534   -0.6787 C   0  0  0  0  0  0  0  0  0  0  0  0
   -1.0530    1.6051   -0.1598 H   0  0  0  0  0  0  0  0  0  0  0  0
   -0.3326    0.5445   -1.3638 H   0  0  0  0  0  0  0  0  0  0  0  0
   -2.4647    0.7128   -1.4742 C   0  0  0  0  0  0  0  0  0  0  0  0
   -3.3503   -0.3834   -1.4763 C   0  0  0  0  0  0  0  0  0  0  0  0
   -3.0994   -1.2831   -0.9298 H   0  0  0  0  0  0  0  0  0  0  0  0
   -4.5659   -0.3081   -2.1838 C   0  0  0  0  0  0  0  0  0  0  0  0
   -5.2410   -1.1500   -2.1845 H   0  0  0  0  0  0  0  0  0  0  0  0
   -4.8982    0.8695   -2.8885 C   0  0  0  0  0  0  0  0  0  0  0  0
   -6.0693    0.9532   -3.5715 O   0  0  0  0  0  0  0  0  0  0  0  0
   -6.5439    0.1209   -3.5779 H   0  0  0  0  0  0  0  0  0  0  0  0
   -4.0129    1.9673   -2.8813 C   0  0  0  0  0  0  0  0  0  0  0  0
   -4.2762    2.8605   -3.4275 H   0  0  0  0  0  0  0  0  0  0  0  0
   -2.7966    1.8872   -2.1769 C   0  0  0  0  0  0  0  0  0  0  0  0
   -2.1128    2.7277   -2.1795 H   0  0  0  0  0  0  0  0  0  0  0  0
   -0.8664    0.0378    1.7736 C   0  0  0  0  0  0  0  0  0  0  0  0
    0.2529   -0.0672    2.2760 O   0  0  0  0  0  0  0  0  0  0  0  0
   -1.8947    0.5991    2.4221 N   0  0  0  0  0  0  0  0  0  0  0  0
   -2.7942    0.5936    1.9635 H   0  0  0  0  0  0  0  0  0  0  0  0
   -1.8170    1.1453    3.7750 C   0  0  0  0  0  0  0  0  0  0  0  0
   -0.9697    1.8290    3.8506 H   0  0  0  0  0  0  0  0  0  0  0  0
   -2.7354    1.6828    4.0167 H   0  0  0  0  0  0  0  0  0  0  0  0
   -1.6754    0.3334    4.4914 H   0  0  0  0  0  0  0  0  0  0  0  0
  5  6  2  0  0  0  0
  5  7  1  0  0  0  0
  2  3  1  0  0  0  0
  2  4  1  0  0  0  0
  2  5  1  0  0  0  0
  1  2  1  0  0  0  0
 26 27  2  0  0  0  0
 26 28  1  0  0  0  0
 24 25  1  0  0  0  0
 22 23  1  0  0  0  0
 22 24  2  0  0  0  0
 20 21  1  0  0  0  0
 19 20  1  0  0  0  0
 19 22  1  0  0  0  0
 17 18  1  0  0  0  0
 17 19  2  0  0  0  0
 15 16  1  0  0  0  0
 15 17  1  0  0  0  0
 14 15  2  0  0  0  0
 14 24  1  0  0  0  0
 11 12  1  0  0  0  0
 11 13  1  0  0  0  0
 11 14  1  0  0  0  0
  9 10  1  0  0  0  0
  9 11  1  0  0  0  0
  9 26  1  0  0  0  0
  7  8  1  0  0  0  0
  7  9  1  0  0  0  0
 30 31  1  0  0  0  0
 30 32  1  0  0  0  0
 30 33  1  0  0  0  0
 28 29  1  0  0  0  0
 28 30  1  0  0  0  0
M  END
$$$$
default_name
  -OEChem-02102213163D

 33 33  0     1  0  0  0  0  0999 V2000
   -4.0702   -3.8485    1.4554 H   0  0  0  0  0  0  0  0  0  0  0  0
   -4.0012   -2.9605    0.8284 C   0  0  0  0  0  0  0  0  0  0  0  0
   -4.7652   -2.2435    1.1234 H   0  0  0  0  0  0  0  0  0  0  0  0
   -4.1352   -3.2385   -0.2156 H   0  0  0  0  0  0  0  0  0  0  0  0
   -2.6362   -2.3395    1.0094 C   0  0  0  0  0  0  0  0  0  0  0  0
   -1.8292   -2.8395    1.7814 O   0  0  0  0  0  0  0  0  0  0  0  0
   -2.3832   -1.2445    0.2964 N   0  0  0  0  0  0  0  0  0  0  0  0
   -3.1102   -0.8685   -0.2946 H   0  0  0  0  0  0  0  0  0  0  0  0
   -1.1292   -0.4875    0.3524 C   0  0  1  0  0  0  0  0  0  0  0  0
   -0.3087   -1.1556    0.0882 H   0  0  0  0  0  0  0  0  0  0  0  0
   -1.1749    0.6534   -0.6787 C   0  0  0  0  0  0  0  0  0  0  0  0
   -1.0530    1.6051   -0.1598 H   0  0  0  0  0  0  0  0  0  0  0  0
   -0.3326    0.5445   -1.3638 H   0  0  0  0  0  0  0  0  0  0  0  0
   -2.4647    0.7128   -1.4742 C   0  0  0  0  0  0  0  0  0  0  0  0
   -3.4896   -0.2253   -1.2386 C   0  0  0  0  0  0  0  0  0  0  0  0
   -3.3483   -1.0088   -0.5057 H   0  0  0  0  0  0  0  0  0  0  0  0
   -4.7015   -0.1414   -1.9515 C   0  0  0  0  0  0  0  0  0  0  0  0
   -5.4836   -0.8624   -1.7697 H   0  0  0  0  0  0  0  0  0  0  0  0
   -4.8900    0.8870   -2.9005 C   0  0  0  0  0  0  0  0  0  0  0  0
   -6.0561    0.9783   -3.5910 O   0  0  0  0  0  0  0  0  0  0  0  0
   -6.6384    0.2379   -3.4159 H   0  0  0  0  0  0  0  0  0  0  0  0
   -3.8651    1.8278   -3.1314 C   0  0  0  0  0  0  0  0  0  0  0  0
   -4.0195    2.6069   -3.8627 H   0  0  0  0  0  0  0  0  0  0  0  0
   -2.6532    1.7385   -2.4206 C   0  0  0  0  0  0  0  0  0  0  0  0
   -1.8627    2.4562   -2.6052 H   0  0  0  0  0  0  0  0  0  0  0  0
   -0.8664    0.0378    1.7736 C   0  0  0  0  0  0  0  0  0  0  0  0
    0.2529   -0.0672    2.2760 O   0  0  0  0  0  0  0  0  0  0  0  0
   -1.8947    0.5991    2.4221 N   0  0  0  0  0  0  0  0  0  0  0  0
   -2.7942    0.5936    1.9635 H   0  0  0  0  0  0  0  0  0  0  0  0
   -1.8170    1.1453    3.7750 C   0  0  0  0  0  0  0  0  0  0  0  0
   -0.9697    1.8290    3.8506 H   0  0  0  0  0  0  0  0  0  0  0  0
   -2.7354    1.6828    4.0167 H   0  0  0  0  0  0  0  0  0  0  0  0
   -1.6754    0.3334    4.4914 H   0  0  0  0  0  0  0  0  0  0  0  0
  5  6  2  0  0  0  0
  5  7  1  0  0  0  0
  2  3  1  0  0  0  0
  2  4  1  0  0  0  0
  2  5  1  0  0  0  0
  1  2  1  0  0  0  0
 26 27  2  0  0  0  0
 26 28  1  0  0  0  0
 24 25  1  0  0  0  0
 22 23  1  0  0  0  0
 22 24  2  0  0  0  0
 20 21  1  0  0  0  0
 19 20  1  0  0  0  0
 19 22  1  0  0  0  0
 17 18  1  0  0  0  0
 17 19  2  0  0  0  0
 15 16  1  0  0  0  0
 15 17  1  0  0  0  0
 14 15  2  0  0  0  0
 14 24  1  0  0  0  0
 11 12  1  0  0  0  0
 11 13  1  0  0  0  0
 11 14  1  0  0  0  0
  9 10  1  0  0  0  0
  9 11  1  0  0  0  0
  9 26  1  0  0  0  0
  7  8  1  0  0  0  0
  7  9  1  0  0  0  0
 30 31  1  0  0  0  0
 30 32  1  0  0  0  0
 30 33  1  0  0  0  0
 28 29  1  0  0  0  0
 28 30  1  0  0  0  0
M  END
$$$$
default_name
  -OEChem-02102213163D

 33 33  0     1  0  0  0  0  0999 V2000
   -4.0702   -3.8485    1.4554 H   0  0  0  0  0  0  0  0  0  0  0  0
   -4.0012   -2.9605    0.8284 C   0  0  0  0  0  0  0  0  0  0  0  0
   -4.7652   -2.2435    1.1234 H   0  0  0  0  0  0  0  0  0  0  0  0
   -4.1352   -3.2385   -0.2156 H   0  0  0  0  0  0  0  0  0  0  0  0
   -2.6362   -2.3395    1.0094 C   0  0  0  0  0  0  0  0  0  0  0  0
   -1.8292   -2.8395    1.7814 O   0  0  0  0  0  0  0  0  0  0  0  0
   -2.3832   -1.2445    0.2964 N   0  0  0  0  0  0  0  0  0  0  0  0
   -3.1102   -0.8685   -0.2946 H   0  0  0  0  0  0  0  0  0  0  0  0
   -1.1292   -0.4875    0.3524 C   0  0  1  0  0  0  0  0  0  0  0  0
   -0.3087   -1.1556    0.0882 H   0  0  0  0  0  0  0  0  0  0  0  0
   -1.1749    0.6534   -0.6787 C   0  0  0  0  0  0  0  0  0  0  0  0
   -1.0530    1.6051   -0.1598 H   0  0  0  0  0  0  0  0  0  0  0  0
   -0.3326    0.5445   -1.3638 H   0  0  0  0  0  0  0  0  0  0  0  0
   -2.4647    0.7128   -1.4742 C   0  0  0  0  0  0  0  0  0  0  0  0
   -3.6003   -0.0014   -1.0425 C   0  0  0  0  0  0  0  0  0  0  0  0
   -3.5473   -0.6168   -0.1539 H   0  0  0  0  0  0  0  0  0  0  0  0
   -4.8075    0.0892   -1.7624 C   0  0  0  0  0  0  0  0  0  0  0  0
   -5.6747   -0.4603   -1.4299 H   0  0  0  0  0  0  0  0  0  0  0  0
   -4.8798    0.9001   -2.9160 C   0  0  0  0  0  0  0  0  0  0  0  0
   -6.0402    0.9965   -3.6156 O   0  0  0  0  0  0  0  0  0  0  0  0
   -6.7122    0.3994   -3.2842 H   0  0  0  0  0  0  0  0  0  0  0  0
   -3.7438    1.6180   -3.3438 C   0  0  0  0  0  0  0  0  0  0  0  0
   -3.8103    2.2312   -4.2298 H   0  0  0  0  0  0  0  0  0  0  0  0
   -2.5373    1.5218   -2.6246 C   0  0  0  0  0  0  0  0  0  0  0  0
   -1.6623    2.0663   -2.9592 H   0  0  0  0  0  0  0  0  0  0  0  0
   -0.8664    0.0378    1.7736 C   0  0  0  0  0  0  0  0  0  0  0  0
    0.2529   -0.0672    2.2760 O   0  0  0  0  0  0  0  0  0  0  0  0
   -1.8947    0.5991    2.4221 N   0  0  0  0  0  0  0  0  0  0  0  0
   -2.7942    0.5936    1.9635 H   0  0  0  0  0  0  0  0  0  0  0  0
   -1.8170    1.1453    3.7750 C   0  0  0  0  0  0  0  0  0  0  0  0
   -0.9697    1.8290    3.8506 H   0  0  0  0  0  0  0  0  0  0  0  0
   -2.7354    1.6828    4.0167 H   0  0  0  0  0  0  0  0  0  0  0  0
   -1.6754    0.3334    4.4914 H   0  0  0  0  0  0  0  0  0  0  0  0
  5  6  2  0  0  0  0
  5  7  1  0  0  0  0
  2  3  1  0  0  0  0
  2  4  1  0  0  0  0
  2  5  1  0  0  0  0
  1  2  1  0  0  0  0
 26 27  2  0  0  0  0
 26 28  1  0  0  0  0
 24 25  1  0  0  0  0
 22 23  1  0  0  0  0
 22 24  2  0  0  0  0
 20 21  1  0  0  0  0
 19 20  1  0  0  0  0
 19 22  1  0  0  0  0
 17 18  1  0  0  0  0
 17 19  2  0  0  0  0
 15 16  1  0  0  0  0
 15 17  1  0  0  0  0
 14 15  2  0  0  0  0
 14 24  1  0  0  0  0
 11 12  1  0  0  0  0
 11 13  1  0  0  0  0
 11 14  1  0  0  0  0
  9 10  1  0  0  0  0
  9 11  1  0  0  0  0
  9 26  1  0  0  0  0
  7  8  1  0  0  0  0
  7  9  1  0  0  0  0
 30 31  1  0  0  0  0
 30 32  1  0  0  0  0
 30 33  1  0  0  0  0
 28 29  1  0  0  0  0
 28 30  1  0  0  0  0
M  END
$$$$
default_name
  -OEChem-02102213163D

 33 33  0     1  0  0  0  0  0999 V2000
   -4.0702   -3.8485    1.4554 H   0  0  0  0  0  0  0  0  0  0  0  0
   -4.0012   -2.9605    0.8284 C   0  0  0  0  0  0  0  0  0  0  0  0
   -4.7652   -2.2435    1.1234 H   0  0  0  0  0  0  0  0  0  0  0  0
   -4.1352   -3.2385   -0.2156 H   0  0  0  0  0  0  0  0  0  0  0  0
   -2.6362   -2.3395    1.0094 C   0  0  0  0  0  0  0  0  0  0  0  0
   -1.8292   -2.8395    1.7814 O   0  0  0  0  0  0  0  0  0  0  0  0
   -2.3832   -1.2445    0.2964 N   0  0  0  0  0  0  0  0  0  0  0  0
   -3.1102   -0.8685   -0.2946 H   0  0  0  0  0  0  0  0  0  0  0  0
   -1.1292   -0.4875    0.3524 C   0  0  1  0  0  0  0  0  0  0  0  0
   -0.3087   -1.1556    0.0882 H   0  0  0  0  0  0  0  0  0  0  0  0
   -1.1749    0.6534   -0.6787 C   0  0  0  0  0  0  0  0  0  0  0  0
   -1.0530    1.6051   -0.1598 H   0  0  0  0  0  0  0  0  0  0  0  0
   -0.3326    0.5445   -1.3638 H   0  0  0  0  0  0  0  0  0  0  0  0
   -2.4647    0.7128   -1.4742 C   0  0  0  0  0  0  0  0  0  0  0  0
   -3.6748    0.2731   -0.9012 C   0  0  0  0  0  0  0  0  0  0  0  0
   -3.6826   -0.1336    0.1016 H   0  0  0  0  0  0  0  0  0  0  0  0
   -4.8767    0.3679   -1.6295 C   0  0  0  0  0  0  0  0  0  0  0  0
   -5.8013    0.0288   -1.1882 H   0  0  0  0  0  0  0  0  0  0  0  0
   -4.8683    0.9080   -2.9340 C   0  0  0  0  0  0  0  0  0  0  0  0
   -6.0225    1.0065   -3.6434 O   0  0  0  0  0  0  0  0  0  0  0  0
   -6.7602    0.5945   -3.1918 H   0  0  0  0  0  0  0  0  0  0  0  0
   -3.6572    1.3521   -3.5039 C   0  0  0  0  0  0  0  0  0  0  0  0
   -3.6630    1.7592   -4.5039 H   0  0  0  0  0  0  0  0  0  0  0  0
   -2.4568    1.2518   -2.7752 C   0  0  0  0  0  0  0  0  0  0  0  0
   -1.5253    1.5846   -3.2173 H   0  0  0  0  0  0  0  0  0  0  0  0
   -0.8664    0.0378    1.7736 C   0  0  0  0  0  0  0  0  0  0  0  0
    0.2529   -0.0672    2.2760 O   0  0  0  0  0  0  0  0  0  0  0  0
   -1.8947    0.5991    2.4221 N   0  0  0  0  0  0  0  0  0  0  0  0
   -2.7942    0.5936    1.9635 H   0  0  0  0  0  0  0  0  0  0  0  0
   -1.8170    1.1453    3.7750 C   0  0  0  0  0  0  0  0  0  0  0  0
   -0.9697    1.8290    3.8506 H   0  0  0  0  0  0  0  0  0  0  0  0
   -2.7354    1.6828    4.0167 H   0  0  0  0  0  0  0  0  0  0  0  0
   -1.6754    0.3334    4.4914 H   0  0  0  0  0  0  0  0  0  0  0  0
  5  6  2  0  0  0  0
  5  7  1  0  0  0  0
  2  3  1  0  0  0  0
  2  4  1  0  0  0  0
  2  5  1  0  0  0  0
  1  2  1  0  0  0  0
 26 27  2  0  0  0  0
 26 28  1  0  0  0  0
 24 25  1  0  0  0  0
 22 23  1  0  0  0  0
 22 24  2  0  0  0  0
 20 21  1  0  0  0  0
 19 20  1  0  0  0  0
 19 22  1  0  0  0  0
 17 18  1  0  0  0  0
 17 19  2  0  0  0  0
 15 16  1  0  0  0  0
 15 17  1  0  0  0  0
 14 15  2  0  0  0  0
 14 24  1  0  0  0  0
 11 12  1  0  0  0  0
 11 13  1  0  0  0  0
 11 14  1  0  0  0  0
  9 10  1  0  0  0  0
  9 11  1  0  0  0  0
  9 26  1  0  0  0  0
  7  8  1  0  0  0  0
  7  9  1  0  0  0  0
 30 31  1  0  0  0  0
 30 32  1  0  0  0  0
 30 33  1  0  0  0  0
 28 29  1  0  0  0  0
 28 30  1  0  0  0  0
M  END
$$$$
default_name
  -OEChem-02102213163D

 33 33  0     1  0  0  0  0  0999 V2000
   -4.0702   -3.8485    1.4554 H   0  0  0  0  0  0  0  0  0  0  0  0
   -4.0012   -2.9605    0.8284 C   0  0  0  0  0  0  0  0  0  0  0  0
   -4.7652   -2.2435    1.1234 H   0  0  0  0  0  0  0  0  0  0  0  0
   -4.1352   -3.2385   -0.2156 H   0  0  0  0  0  0  0  0  0  0  0  0
   -2.6362   -2.3395    1.0094 C   0  0  0  0  0  0  0  0  0  0  0  0
   -1.8292   -2.8395    1.7814 O   0  0  0  0  0  0  0  0  0  0  0  0
   -2.3832   -1.2445    0.2964 N   0  0  0  0  0  0  0  0  0  0  0  0
   -3.1102   -0.8685   -0.2946 H   0  0  0  0  0  0  0  0  0  0  0  0
   -1.1292   -0.4875    0.3524 C   0  0  1  0  0  0  0  0  0  0  0  0
   -0.3087   -1.1556    0.0882 H   0  0  0  0  0  0  0  0  0  0  0  0
   -1.1749    0.6534   -0.6787 C   0  0  0  0  0  0  0  0  0  0  0  0
   -1.0530    1.6051   -0.1598 H   0  0  0  0  0  0  0  0  0  0  0  0
   -0.3326    0.5445   -1.3638 H   0  0  0  0  0  0  0  0  0  0  0  0
   -2.4647    0.7128   -1.4742 C   0  0  0  0  0  0  0  0  0  0  0  0
   -3.7081    0.5794   -0.8244 C   0  0  0  0  0  0  0  0  0  0  0  0
   -3.7452    0.4076    0.2434 H   0  0  0  0  0  0  0  0  0  0  0  0
   -4.9043    0.6758   -1.5617 C   0  0  0  0  0  0  0  0  0  0  0  0
   -5.8547    0.5716   -1.0611 H   0  0  0  0  0  0  0  0  0  0  0  0
   -4.8564    0.9102   -2.9532 C   0  0  0  0  0  0  0  0  0  0  0  0
   -6.0044    1.0077   -3.6727 O   0  0  0  0  0  0  0  0  0  0  0  0
   -6.7792    0.8097   -3.1450 H   0  0  0  0  0  0  0  0  0  0  0  0
   -3.6113    1.0483   -3.6010 C   0  0  0  0  0  0  0  0  0  0  0  0
   -3.5876    1.2229   -4.6662 H   0  0  0  0  0  0  0  0  0  0  0  0
   -2.4173    0.9469   -2.8620 C   0  0  0  0  0  0  0  0  0  0  0  0
   -1.4609    1.0439   -3.3620 H   0  0  0  0  0  0  0  0  0  0  0  0
   -0.8664    0.0378    1.7736 C   0  0  0  0  0  0  0  0  0  0  0  0
    0.2529   -0.0672    2.2760 O   0  0  0  0  0  0  0  0  0  0  0  0
   -1.8947    0.5991    2.4221 N   0  0  0  0  0  0  0  0  0  0  0  0
   -2.7942    0.5936    1.9635 H   0  0  0  0  0  0  0  0  0  0  0  0
   -1.8170    1.1453    3.7750 C   0  0  0  0  0  0  0  0  0  0  0  0
   -0.9697    1.8290    3.8506 H   0  0  0  0  0  0  0  0  0  0  0  0
   -2.7354    1.6828    4.0167 H   0  0  0  0  0  0  0  0  0  0  0  0
   -1.6754    0.3334    4.4914 H   0  0  0  0  0  0  0  0  0  0  0  0
  5  6  2  0  0  0  0
  5  7  1  0  0  0  0
  2  3  1  0  0  0  0
  2  4  1  0  0  0  0
  2  5  1  0  0  0  0
  1  2  1  0  0  0  0
 26 27  2  0  0  0  0
 26 28  1  0  0  0  0
 24 25  1  0  0  0  0
 22 23  1  0  0  0  0
 22 24  2  0  0  0  0
 20 21  1  0  0  0  0
 19 20  1  0  0  0  0
 19 22  1  0  0  0  0
 17 18  1  0  0  0  0
 17 19  2  0  0  0  0
 15 16  1  0  0  0  0
 15 17  1  0  0  0  0
 14 15  2  0  0  0  0
 14 24  1  0  0  0  0
 11 12  1  0  0  0  0
 11 13  1  0  0  0  0
 11 14  1  0  0  0  0
  9 10  1  0  0  0  0
  9 11  1  0  0  0  0
  9 26  1  0  0  0  0
  7  8  1  0  0  0  0
  7  9  1  0  0  0  0
 30 31  1  0  0  0  0
 30 32  1  0  0  0  0
 30 33  1  0  0  0  0
 28 29  1  0  0  0  0
 28 30  1  0  0  0  0
M  END
$$$$
default_name
  -OEChem-02102213163D

 33 33  0     1  0  0  0  0  0999 V2000
   -4.0702   -3.8485    1.4554 H   0  0  0  0  0  0  0  0  0  0  0  0
   -4.0012   -2.9605    0.8284 C   0  0  0  0  0  0  0  0  0  0  0  0
   -4.7652   -2.2435    1.1234 H   0  0  0  0  0  0  0  0  0  0  0  0
   -4.1352   -3.2385   -0.2156 H   0  0  0  0  0  0  0  0  0  0  0  0
   -2.6362   -2.3395    1.0094 C   0  0  0  0  0  0  0  0  0  0  0  0
   -1.8292   -2.8395    1.7814 O   0  0  0  0  0  0  0  0  0  0  0  0
   -2.3832   -1.2445    0.2964 N   0  0  0  0  0  0  0  0  0  0  0  0
   -3.1102   -0.8685   -0.2946 H   0  0  0  0  0  0  0  0  0  0  0  0
   -1.1292   -0.4875    0.3524 C   0  0  1  0  0  0  0  0  0  0  0  0
   -0.3087   -1.1556    0.0882 H   0  0  0  0  0  0  0  0  0  0  0  0
   -1.1749    0.6534   -0.6787 C   0  0  0  0  0  0  0  0  0  0  0  0
   -1.0530    1.6051   -0.1598 H   0  0  0  0  0  0  0  0  0  0  0  0
   -0.3326    0.5445   -1.3638 H   0  0  0  0  0  0  0  0  0  0  0  0
   -2.4647    0.7128   -1.4742 C   0  0  0  0  0  0  0  0  0  0  0  0
   -3.6979    0.8968   -0.8173 C   0  0  0  0  0  0  0  0  0  0  0  0
   -3.7307    0.9702    0.2619 H   0  0  0  0  0  0  0  0  0  0  0  0
   -4.8885    0.9919   -1.5637 C   0  0  0  0  0  0  0  0  0  0  0  0
   -5.8313    1.1312   -1.0573 H   0  0  0  0  0  0  0  0  0  0  0  0
   -4.8447    0.9064   -2.9724 C   0  0  0  0  0  0  0  0  0  0  0  0
   -5.9870    0.9998   -3.7014 O   0  0  0  0  0  0  0  0  0  0  0  0
   -6.7678    1.0305   -3.1470 H   0  0  0  0  0  0  0  0  0  0  0  0
   -3.6092    0.7272   -3.6284 C   0  0  0  0  0  0  0  0  0  0  0  0
   -3.5892    0.6589   -4.7056 H   0  0  0  0  0  0  0  0  0  0  0  0
   -2.4214    0.6279   -2.8792 C   0  0  0  0  0  0  0  0  0  0  0  0
   -1.4737    0.4810   -3.3834 H   0  0  0  0  0  0  0  0  0  0  0  0
   -0.8664    0.0378    1.7736 C   0  0  0  0  0  0  0  0  0  0  0  0
    0.2529   -0.0672    2.2760 O   0  0  0  0  0  0  0  0  0  0  0  0
   -1.8947    0.5991    2.4221 N   0  0  0  0  0  0  0  0  0  0  0  0
   -2.7942    0.5936    1.9635 H   0  0  0  0  0  0  0  0  0  0  0  0
   -1.8170    1.1453    3.7750 C   0  0  0  0  0  0  0  0  0  0  0  0
   -0.9697    1.8290    3.8506 H   0  0  0  0  0  0  0  0  0  0  0  0
   -2.7354    1.6828    4.0167 H   0  0  0  0  0  0  0  0  0  0  0  0
   -1.6754    0.3334    4.4914 H   0  0  0  0  0  0  0  0  0  0  0  0
  5  6  2  0  0  0  0
  5  7  1  0  0  0  0
  2  3  1  0  0  0  0
  2  4  1  0  0  0  0
  2  5  1  0  0  0  0
  1  2  1  0  0  0  0
 26 27  2  0  0  0  0
 26 28  1  0  0  0  0
 24 25  1  0  0  0  0
 22 23  1  0  0  0  0
 22 24  2  0  0  0  0
 20 21  1  0  0  0  0
 19 20  1  0  0  0  0
 19 22  1  0  0  0  0
 17 18  1  0  0  0  0
 17 19  2  0  0  0  0
 15 16  1  0  0  0  0
 15 17  1  0  0  0  0
 14 15  2  0  0  0  0
 14 24  1  0  0  0  0
 11 12  1  0  0  0  0
 11 13  1  0  0  0  0
 11 14  1  0  0  0  0
  9 10  1  0  0  0  0
  9 11  1  0  0  0  0
  9 26  1  0  0  0  0
  7  8  1  0  0  0  0
  7  9  1  0  0  0  0
 30 31  1  0  0  0  0
 30 32  1  0  0  0  0
 30 33  1  0  0  0  0
 28 29  1  0  0  0  0
 28 30  1  0  0  0  0
M  END
$$$$
default_name
  -OEChem-02102213163D

 33 33  0     1  0  0  0  0  0999 V2000
   -4.0702   -3.8485    1.4554 H   0  0  0  0  0  0  0  0  0  0  0  0
   -4.0012   -2.9605    0.8284 C   0  0  0  0  0  0  0  0  0  0  0  0
   -4.7652   -2.2435    1.1234 H   0  0  0  0  0  0  0  0  0  0  0  0
   -4.1352   -3.2385   -0.2156 H   0  0  0  0  0  0  0  0  0  0  0  0
   -2.6362   -2.3395    1.0094 C   0  0  0  0  0  0  0  0  0  0  0  0
   -1.8292   -2.8395    1.7814 O   0  0  0  0  0  0  0  0  0  0  0  0
   -2.3832   -1.2445    0.2964 N   0  0  0  0  0  0  0  0  0  0  0  0
   -3.1102   -0.8685   -0.2946 H   0  0  0  0  0  0  0  0  0  0  0  0
   -1.1292   -0.4875    0.3524 C   0  0  1  0  0  0  0  0  0  0  0  0
   -0.3087   -1.1556    0.0882 H   0  0  0  0  0  0  0  0  0  0  0  0
   -1.1749    0.6534   -0.6787 C   0  0  0  0  0  0  0  0  0  0  0  0
   -1.0530    1.6051   -0.1598 H   0  0  0  0  0  0  0  0  0  0  0  0
   -0.3326    0.5445   -1.3638 H   0  0  0  0  0  0  0  0  0  0  0  0
   -2.4647    0.7128   -1.4742 C   0  0  0  0  0  0  0  0  0  0  0  0
   -3.6448    1.2035   -0.8803 C   0  0  0  0  0  0  0  0  0  0  0  0
   -3.6401    1.5157    0.1558 H   0  0  0  0  0  0  0  0  0  0  0  0
   -4.8304    1.2946   -1.6354 C   0  0  0  0  0  0  0  0  0  0  0  0
   -5.7326    1.6693   -1.1770 H   0  0  0  0  0  0  0  0  0  0  0  0
   -4.8342    0.8969   -2.9902 C   0  0  0  0  0  0  0  0  0  0  0  0
   -5.9716    0.9836   -3.7276 O   0  0  0  0  0  0  0  0  0  0  0  0
   -6.7268    1.2418   -3.1976 H   0  0  0  0  0  0  0  0  0  0  0  0
   -3.6511    0.4108   -3.5841 C   0  0  0  0  0  0  0  0  0  0  0  0
   -3.6678    0.1057   -4.6196 H   0  0  0  0  0  0  0  0  0  0  0  0
   -2.4689    0.3166   -2.8255 C   0  0  0  0  0  0  0  0  0  0  0  0
   -1.5626   -0.0657   -3.2800 H   0  0  0  0  0  0  0  0  0  0  0  0
   -0.8664    0.0378    1.7736 C   0  0  0  0  0  0  0  0  0  0  0  0
    0.2529   -0.0672    2.2760 O   0  0  0  0  0  0  0  0  0  0  0  0
   -1.8947    0.5991    2.4221 N   0  0  0  0  0  0  0  0  0  0  0  0
   -2.7942    0.5936    1.9635 H   0  0  0  0  0  0  0  0  0  0  0  0
   -1.8170    1.1453    3.7750 C   0  0  0  0  0  0  0  0  0  0  0  0
   -0.9697    1.8290    3.8506 H   0  0  0  0  0  0  0  0  0  0  0  0
   -2.7354    1.6828    4.0167 H   0  0  0  0  0  0  0  0  0  0  0  0
   -1.6754    0.3334    4.4914 H   0  0  0  0  0  0  0  0  0  0  0  0
  5  6  2  0  0  0  0
  5  7  1  0  0  0  0
  2  3  1  0  0  0  0
  2  4  1  0  0  0  0
  2  5  1  0  0  0  0
  1  2  1  0  0  0  0
 26 27  2  0  0  0  0
 26 28  1  0  0  0  0
 24 25  1  0  0  0  0
 22 23  1  0  0  0  0
 22 24  2  0  0  0  0
 20 21  1  0  0  0  0
 19 20  1  0  0  0  0
 19 22  1  0  0  0  0
 17 18  1  0  0  0  0
 17 19  2  0  0  0  0
 15 16  1  0  0  0  0
 15 17  1  0  0  0  0
 14 15  2  0  0  0  0
 14 24  1  0  0  0  0
 11 12  1  0  0  0  0
 11 13  1  0  0  0  0
 11 14  1  0  0  0  0
  9 10  1  0  0  0  0
  9 11  1  0  0  0  0
  9 26  1  0  0  0  0
  7  8  1  0  0  0  0
  7  9  1  0  0  0  0
 30 31  1  0  0  0  0
 30 32  1  0  0  0  0
 30 33  1  0  0  0  0
 28 29  1  0  0  0  0
 28 30  1  0  0  0  0
M  END
$$$$
default_name
  -OEChem-02102213163D

 33 33  0     1  0  0  0  0  0999 V2000
   -4.0702   -3.8485    1.4554 H   0  0  0  0  0  0  0  0  0  0  0  0
   -4.0012   -2.9605    0.8284 C   0  0  0  0  0  0  0  0  0  0  0  0
   -4.7652   -2.2435    1.1234 H   0  0  0  0  0  0  0  0  0  0  0  0
   -4.1352   -3.2385   -0.2156 H   0  0  0  0  0  0  0  0  0  0  0  0
   -2.6362   -2.3395    1.0094 C   0  0  0  0  0  0  0  0  0  0  0  0
   -1.8292   -2.8395    1.7814 O   0  0  0  0  0  0  0  0  0  0  0  0
   -2.3832   -1.2445    0.2964 N   0  0  0  0  0  0  0  0  0  0  0  0
   -3.1102   -0.8685   -0.2946 H   0  0  0  0  0  0  0  0  0  0  0  0
   -1.1292   -0.4875    0.3524 C   0  0  1  0  0  0  0  0  0  0  0  0
   -0.3087   -1.1556    0.0882 H   0  0  0  0  0  0  0  0  0  0  0  0
   -1.1749    0.6534   -0.6787 C   0  0  0  0  0  0  0  0  0  0  0  0
   -1.0530    1.6051   -0.1598 H   0  0  0  0  0  0  0  0  0  0  0  0
   -0.3326    0.5445   -1.3638 H   0  0  0  0  0  0  0  0  0  0  0  0
   -2.4647    0.7128   -1.4742 C   0  0  0  0  0  0  0  0  0  0  0  0
   -3.5526    1.4787   -1.0093 C   0  0  0  0  0  0  0  0  0  0  0  0
   -3.4796    2.0070   -0.0677 H   0  0  0  0  0  0  0  0  0  0  0  0
   -4.7338    1.5633   -1.7718 C   0  0  0  0  0  0  0  0  0  0  0  0
   -5.5655    2.1494   -1.4121 H   0  0  0  0  0  0  0  0  0  0  0  0
   -4.8255    0.8824   -3.0054 C   0  0  0  0  0  0  0  0  0  0  0  0
   -5.9592    0.9601   -3.7495 O   0  0  0  0  0  0  0  0  0  0  0  0
   -6.6591    1.4292   -3.2934 H   0  0  0  0  0  0  0  0  0  0  0  0
   -3.7340    0.1205   -3.4713 C   0  0  0  0  0  0  0  0  0  0  0  0
   -3.8179   -0.3991   -4.4139 H   0  0  0  0  0  0  0  0  0  0  0  0
   -2.5564    0.0342   -2.7047 C   0  0  0  0  0  0  0  0  0  0  0  0
   -1.7217   -0.5589   -3.0589 H   0  0  0  0  0  0  0  0  0  0  0  0
   -0.8664    0.0378    1.7736 C   0  0  0  0  0  0  0  0  0  0  0  0
    0.2529   -0.0672    2.2760 O   0  0  0  0  0  0  0  0  0  0  0  0
   -1.8947    0.5991    2.4221 N   0  0  0  0  0  0  0  0  0  0  0  0
   -2.7942    0.5936    1.9635 H   0  0  0  0  0  0  0  0  0  0  0  0
   -1.8170    1.1453    3.7750 C   0  0  0  0  0  0  0  0  0  0  0  0
   -0.9697    1.8290    3.8506 H   0  0  0  0  0  0  0  0  0  0  0  0
   -2.7354    1.6828    4.0167 H   0  0  0  0  0  0  0  0  0  0  0  0
   -1.6754    0.3334    4.4914 H   0  0  0  0  0  0  0  0  0  0  0  0
  5  6  2  0  0  0  0
  5  7  1  0  0  0  0
  2  3  1  0  0  0  0
  2  4  1  0  0  0  0
  2  5  1  0  0  0  0
  1  2  1  0  0  0  0
 26 27  2  0  0  0  0
 26 28  1  0  0  0  0
 24 25  1  0  0  0  0
 22 23  1  0  0  0  0
 22 24  2  0  0  0  0
 20 21  1  0  0  0  0
 19 20  1  0  0  0  0
 19 22  1  0  0  0  0
 17 18  1  0  0  0  0
 17 19  2  0  0  0  0
 15 16  1  0  0  0  0
 15 17  1  0  0  0  0
 14 15  2  0  0  0  0
 14 24  1  0  0  0  0
 11 12  1  0  0  0  0
 11 13  1  0  0  0  0
 11 14  1  0  0  0  0
  9 10  1  0  0  0  0
  9 11  1  0  0  0  0
  9 26  1  0  0  0  0
  7  8  1  0  0  0  0
  7  9  1  0  0  0  0
 30 31  1  0  0  0  0
 30 32  1  0  0  0  0
 30 33  1  0  0  0  0
 28 29  1  0  0  0  0
 28 30  1  0  0  0  0
M  END
$$$$
default_name
  -OEChem-02102213163D

 33 33  0     1  0  0  0  0  0999 V2000
   -4.0702   -3.8485    1.4554 H   0  0  0  0  0  0  0  0  0  0  0  0
   -4.0012   -2.9605    0.8284 C   0  0  0  0  0  0  0  0  0  0  0  0
   -4.7652   -2.2435    1.1234 H   0  0  0  0  0  0  0  0  0  0  0  0
   -4.1352   -3.2385   -0.2156 H   0  0  0  0  0  0  0  0  0  0  0  0
   -2.6362   -2.3395    1.0094 C   0  0  0  0  0  0  0  0  0  0  0  0
   -1.8292   -2.8395    1.7814 O   0  0  0  0  0  0  0  0  0  0  0  0
   -2.3832   -1.2445    0.2964 N   0  0  0  0  0  0  0  0  0  0  0  0
   -3.1102   -0.8685   -0.2946 H   0  0  0  0  0  0  0  0  0  0  0  0
   -1.1292   -0.4875    0.3524 C   0  0  1  0  0  0  0  0  0  0  0  0
   -0.3087   -1.1556    0.0882 H   0  0  0  0  0  0  0  0  0  0  0  0
   -1.1749    0.6534   -0.6787 C   0  0  0  0  0  0  0  0  0  0  0  0
   -1.0530    1.6051   -0.1598 H   0  0  0  0  0  0  0  0  0  0  0  0
   -0.3326    0.5445   -1.3638 H   0  0  0  0  0  0  0  0  0  0  0  0
   -2.4647    0.7128   -1.4742 C   0  0  0  0  0  0  0  0  0  0  0  0
   -3.4275    1.7036   -1.1954 C   0  0  0  0  0  0  0  0  0  0  0  0
   -3.2602    2.4105   -0.3933 H   0  0  0  0  0  0  0  0  0  0  0  0
   -4.6055    1.7797   -1.9638 C   0  0  0  0  0  0  0  0  0  0  0  0
   -5.3413    2.5387   -1.7465 H   0  0  0  0  0  0  0  0  0  0  0  0
   -4.8192    0.8639   -3.0170 C   0  0  0  0  0  0  0  0  0  0  0  0
   -5.9506    0.9309   -3.7656 O   0  0  0  0  0  0  0  0  0  0  0  0
   -6.5692    1.5799   -3.4279 H   0  0  0  0  0  0  0  0  0  0  0  0
   -3.8524   -0.1238   -3.2976 C   0  0  0  0  0  0  0  0  0  0  0  0
   -4.0293   -0.8210   -4.1027 H   0  0  0  0  0  0  0  0  0  0  0  0
   -2.6781   -0.2002   -2.5249 C   0  0  0  0  0  0  0  0  0  0  0  0
   -1.9401   -0.9651   -2.7352 H   0  0  0  0  0  0  0  0  0  0  0  0
   -0.8664    0.0378    1.7736 C   0  0  0  0  0  0  0  0  0  0  0  0
    0.2529   -0.0672    2.2760 O   0  0  0  0  0  0  0  0  0  0  0  0
   -1.8947    0.5991    2.4221 N   0  0  0  0  0  0  0  0  0  0  0  0
   -2.7942    0.5936    1.9635 H   0  0  0  0  0  0  0  0  0  0  0  0
   -1.8170    1.1453    3.7750 C   0  0  0  0  0  0  0  0  0  0  0  0
   -0.9697    1.8290    3.8506 H   0  0  0  0  0  0  0  0  0  0  0  0
   -2.7354    1.6828    4.0167 H   0  0  0  0  0  0  0  0  0  0  0  0
   -1.6754    0.3334    4.4914 H   0  0  0  0  0  0  0  0  0  0  0  0
  5  6  2  0  0  0  0
  5  7  1  0  0  0  0
  2  3  1  0  0  0  0
  2  4  1  0  0  0  0
  2  5  1  0  0  0  0
  1  2  1  0  0  0  0
 26 27  2  0  0  0  0
 26 28  1  0  0  0  0
 24 25  1  0  0  0  0
 22 23  1  0  0  0  0
 22 24  2  0  0  0  0
 20 21  1  0  0  0  0
 19 20  1  0  0  0  0
 19 22  1  0  0  0  0
 17 18  1  0  0  0  0
 17 19  2  0  0  0  0
 15 16  1  0  0  0  0
 15 17  1  0  0  0  0
 14 15  2  0  0  0  0
 14 24  1  0  0  0  0
 11 12  1  0  0  0  0
 11 13  1  0  0  0  0
 11 14  1  0  0  0  0
  9 10  1  0  0  0  0
  9 11  1  0  0  0  0
  9 26  1  0  0  0  0
  7  8  1  0  0  0  0
  7  9  1  0  0  0  0
 30 31  1  0  0  0  0
 30 32  1  0  0  0  0
 30 33  1  0  0  0  0
 28 29  1  0  0  0  0
 28 30  1  0  0  0  0
M  END
$$$$
default_name
  -OEChem-02102213163D

 33 33  0     1  0  0  0  0  0999 V2000
   -4.0702   -3.8485    1.4554 H   0  0  0  0  0  0  0  0  0  0  0  0
   -4.0012   -2.9605    0.8284 C   0  0  0  0  0  0  0  0  0  0  0  0
   -4.7652   -2.2435    1.1234 H   0  0  0  0  0  0  0  0  0  0  0  0
   -4.1352   -3.2385   -0.2156 H   0  0  0  0  0  0  0  0  0  0  0  0
   -2.6362   -2.3395    1.0094 C   0  0  0  0  0  0  0  0  0  0  0  0
   -1.8292   -2.8395    1.7814 O   0  0  0  0  0  0  0  0  0  0  0  0
   -2.3832   -1.2445    0.2964 N   0  0  0  0  0  0  0  0  0  0  0  0
   -3.1102   -0.8685   -0.2946 H   0  0  0  0  0  0  0  0  0  0  0  0
   -1.1292   -0.4875    0.3524 C   0  0  1  0  0  0  0  0  0  0  0  0
   -0.3087   -1.1556    0.0882 H   0  0  0  0  0  0  0  0  0  0  0  0
   -1.1749    0.6534   -0.6787 C   0  0  0  0  0  0  0  0  0  0  0  0
   -1.0530    1.6051   -0.1598 H   0  0  0  0  0  0  0  0  0  0  0  0
   -0.3326    0.5445   -1.3638 H   0  0  0  0  0  0  0  0  0  0  0  0
   -2.4647    0.7128   -1.4742 C   0  0  0  0  0  0  0  0  0  0  0  0
   -3.2779    1.8629   -1.4260 C   0  0  0  0  0  0  0  0  0  0  0  0
   -2.9967    2.6988   -0.7989 H   0  0  0  0  0  0  0  0  0  0  0  0
   -4.4540    1.9291   -2.1981 C   0  0  0  0  0  0  0  0  0  0  0  0
   -5.0752    2.8106   -2.1576 H   0  0  0  0  0  0  0  0  0  0  0  0
   -4.8157    0.8426   -3.0241 C   0  0  0  0  0  0  0  0  0  0  0  0
   -5.9464    0.8979   -3.7748 O   0  0  0  0  0  0  0  0  0  0  0  0
   -6.4633    1.6837   -3.5919 H   0  0  0  0  0  0  0  0  0  0  0  0
   -3.9982   -0.3054   -3.0749 C   0  0  0  0  0  0  0  0  0  0  0  0
   -4.2877   -1.1314   -3.7070 H   0  0  0  0  0  0  0  0  0  0  0  0
   -2.8256   -0.3704   -2.2984 C   0  0  0  0  0  0  0  0  0  0  0  0
   -2.2029   -1.2565   -2.3309 H   0  0  0  0  0  0  0  0  0  0  0  0
   -0.8664    0.0378    1.7736 C   0  0  0  0  0  0  0  0  0  0  0  0
    0.2529   -0.0672    2.2760 O   0  0  0  0  0  0  0  0  0  0  0  0
   -1.8947    0.5991    2.4221 N   0  0  0  0  0  0  0  0  0  0  0  0
   -2.7942    0.5936    1.9635 H   0  0  0  0  0  0  0  0  0  0  0  0
   -1.8170    1.1453    3.7750 C   0  0  0  0  0  0  0  0  0  0  0  0
   -0.9697    1.8290    3.8506 H   0  0  0  0  0  0  0  0  0  0  0  0
   -2.7354    1.6828    4.0167 H   0  0  0  0  0  0  0  0  0  0  0  0
   -1.6754    0.3334    4.4914 H   0  0  0  0  0  0  0  0  0  0  0  0
  5  6  2  0  0  0  0
  5  7  1  0  0  0  0
  2  3  1  0  0  0  0
  2  4  1  0  0  0  0
  2  5  1  0  0  0  0
  1  2  1  0  0  0  0
 26 27  2  0  0  0  0
 26 28  1  0  0  0  0
 24 25  1  0  0  0  0
 22 23  1  0  0  0  0
 22 24  2  0  0  0  0
 20 21  1  0  0  0  0
 19 20  1  0  0  0  0
 19 22  1  0  0  0  0
 17 18  1  0  0  0  0
 17 19  2  0  0  0  0
 15 16  1  0  0  0  0
 15 17  1  0  0  0  0
 14 15  2  0  0  0  0
 14 24  1  0  0  0  0
 11 12  1  0  0  0  0
 11 13  1  0  0  0  0
 11 14  1  0  0  0  0
  9 10  1  0  0  0  0
  9 11  1  0  0  0  0
  9 26  1  0  0  0  0
  7  8  1  0  0  0  0
  7  9  1  0  0  0  0
 30 31  1  0  0  0  0
 30 32  1  0  0  0  0
 30 33  1  0  0  0  0
 28 29  1  0  0  0  0
 28 30  1  0  0  0  0
M  END
$$$$
default_name
  -OEChem-02102213163D

 33 33  0     1  0  0  0  0  0999 V2000
   -4.0702   -3.8485    1.4554 H   0  0  0  0  0  0  0  0  0  0  0  0
   -4.0012   -2.9605    0.8284 C   0  0  0  0  0  0  0  0  0  0  0  0
   -4.7652   -2.2435    1.1234 H   0  0  0  0  0  0  0  0  0  0  0  0
   -4.1352   -3.2385   -0.2156 H   0  0  0  0  0  0  0  0  0  0  0  0
   -2.6362   -2.3395    1.0094 C   0  0  0  0  0  0  0  0  0  0  0  0
   -1.8292   -2.8395    1.7814 O   0  0  0  0  0  0  0  0  0  0  0  0
   -2.3832   -1.2445    0.2964 N   0  0  0  0  0  0  0  0  0  0  0  0
   -3.1102   -0.8685   -0.2946 H   0  0  0  0  0  0  0  0  0  0  0  0
   -1.1292   -0.4875    0.3524 C   0  0  1  0  0  0  0  0  0  0  0  0
   -0.3087   -1.1556    0.0882 H   0  0  0  0  0  0  0  0  0  0  0  0
   -1.1749    0.6534   -0.6787 C   0  0  0  0  0  0  0  0  0  0  0  0
   -1.0530    1.6051   -0.1598 H   0  0  0  0  0  0  0  0  0  0  0  0
   -0.3326    0.5445   -1.3638 H   0  0  0  0  0  0  0  0  0  0  0  0
   -2.4647    0.7128   -1.4742 C   0  0  0  0  0  0  0  0  0  0  0  0
   -3.1142    1.9457   -1.6852 C   0  0  0  0  0  0  0  0  0  0  0  0
   -2.7072    2.8522   -1.2568 H   0  0  0  0  0  0  0  0  0  0  0  0
   -4.2899    2.0012   -2.4589 C   0  0  0  0  0  0  0  0  0  0  0  0
   -4.7855    2.9467   -2.6171 H   0  0  0  0  0  0  0  0  0  0  0  0
   -4.8154    0.8200   -3.0264 C   0  0  0  0  0  0  0  0  0  0  0  0
   -5.9470    0.8635   -3.7765 O   0  0  0  0  0  0  0  0  0  0  0  0
   -6.3485    1.7334   -3.7742 H   0  0  0  0  0  0  0  0  0  0  0  0
   -4.1614   -0.4120   -2.8183 C   0  0  0  0  0  0  0  0  0  0  0  0
   -4.5754   -1.3090   -3.2538 H   0  0  0  0  0  0  0  0  0  0  0  0
   -2.9890   -0.4650   -2.0407 C   0  0  0  0  0  0  0  0  0  0  0  0
   -2.4922   -1.4133   -1.8735 H   0  0  0  0  0  0  0  0  0  0  0  0
   -0.8664    0.0378    1.7736 C   0  0  0  0  0  0  0  0  0  0  0  0
    0.2529   -0.0672    2.2760 O   0  0  0  0  0  0  0  0  0  0  0  0
   -1.8947    0.5991    2.4221 N   0  0  0  0  0  0  0  0  0  0  0  0
   -2.7942    0.5936    1.9635 H   0  0  0  0  0  0  0  0  0  0  0  0
   -1.8170    1.1453    3.7750 C   0  0  0  0  0  0  0  0  0  0  0  0
   -0.9697    1.8290    3.8506 H   0  0  0  0  0  0  0  0  0  0  0  0
   -2.7354    1.6828    4.0167 H   0  0  0  0  0  0  0  0  0  0  0  0
   -1.6754    0.3334    4.4914 H   0  0  0  0  0  0  0  0  0  0  0  0
  5  6  2  0  0  0  0
  5  7  1  0  0  0  0
  2  3  1  0  0  0  0
  2  4  1  0  0  0  0
  2  5  1  0  0  0  0
  1  2  1  0  0  0  0
 26 27  2  0  0  0  0
 26 28  1  0  0  0  0
 24 25  1  0  0  0  0
 22 23  1  0  0  0  0
 22 24  2  0  0  0  0
 20 21  1  0  0  0  0
 19 20  1  0  0  0  0
 19 22  1  0  0  0  0
 17 18  1  0  0  0  0
 17 19  2  0  0  0  0
 15 16  1  0  0  0  0
 15 17  1  0  0  0  0
 14 15  2  0  0  0  0
 14 24  1  0  0  0  0
 11 12  1  0  0  0  0
 11 13  1  0  0  0  0
 11 14  1  0  0  0  0
  9 10  1  0  0  0  0
  9 11  1  0  0  0  0
  9 26  1  0  0  0  0
  7  8  1  0  0  0  0
  7  9  1  0  0  0  0
 30 31  1  0  0  0  0
 30 32  1  0  0  0  0
 30 33  1  0  0  0  0
 28 29  1  0  0  0  0
 28 30  1  0  0  0  0
M  END
$$$$
default_name
  -OEChem-02102213163D

 33 33  0     1  0  0  0  0  0999 V2000
   -4.0702   -3.8485    1.4554 H   0  0  0  0  0  0  0  0  0  0  0  0
   -4.0012   -2.9605    0.8284 C   0  0  0  0  0  0  0  0  0  0  0  0
   -4.7652   -2.2435    1.1234 H   0  0  0  0  0  0  0  0  0  0  0  0
   -4.1352   -3.2385   -0.2156 H   0  0  0  0  0  0  0  0  0  0  0  0
   -2.6362   -2.3395    1.0094 C   0  0  0  0  0  0  0  0  0  0  0  0
   -1.8292   -2.8395    1.7814 O   0  0  0  0  0  0  0  0  0  0  0  0
   -2.3832   -1.2445    0.2964 N   0  0  0  0  0  0  0  0  0  0  0  0
   -3.1102   -0.8685   -0.2946 H   0  0  0  0  0  0  0  0  0  0  0  0
   -1.1292   -0.4875    0.3524 C   0  0  1  0  0  0  0  0  0  0  0  0
   -0.3087   -1.1556    0.0882 H   0  0  0  0  0  0  0  0  0  0  0  0
   -1.1749    0.6534   -0.6787 C   0  0  0  0  0  0  0  0  0  0  0  0
   -1.0530    1.6051   -0.1598 H   0  0  0  0  0  0  0  0  0  0  0  0
   -0.3326    0.5445   -1.3638 H   0  0  0  0  0  0  0  0  0  0  0  0
   -2.4647    0.7128   -1.4742 C   0  0  0  0  0  0  0  0  0  0  0  0
   -2.9474    1.9463   -1.9555 C   0  0  0  0  0  0  0  0  0  0  0  0
   -2.4114    2.8603   -1.7358 H   0  0  0  0  0  0  0  0  0  0  0  0
   -4.1241    1.9912   -2.7283 C   0  0  0  0  0  0  0  0  0  0  0  0
   -4.4918    2.9377   -3.0939 H   0  0  0  0  0  0  0  0  0  0  0  0
   -4.8181    0.7976   -3.0237 C   0  0  0  0  0  0  0  0  0  0  0  0
   -5.9522    0.8300   -3.7706 O   0  0  0  0  0  0  0  0  0  0  0  0
   -6.2328    1.7258   -3.9624 H   0  0  0  0  0  0  0  0  0  0  0  0
   -4.3309   -0.4364   -2.5453 C   0  0  0  0  0  0  0  0  0  0  0  0
   -4.8728   -1.3417   -2.7741 H   0  0  0  0  0  0  0  0  0  0  0  0
   -3.1570   -0.4775   -1.7693 C   0  0  0  0  0  0  0  0  0  0  0  0
   -2.7883   -1.4248   -1.3943 H   0  0  0  0  0  0  0  0  0  0  0  0
   -0.8664    0.0378    1.7736 C   0  0  0  0  0  0  0  0  0  0  0  0
    0.2529   -0.0672    2.2760 O   0  0  0  0  0  0  0  0  0  0  0  0
   -1.8947    0.5991    2.4221 N   0  0  0  0  0  0  0  0  0  0  0  0
   -2.7942    0.5936    1.9635 H   0  0  0  0  0  0  0  0  0  0  0  0
   -1.8170    1.1453    3.7750 C   0  0  0  0  0  0  0  0  0  0  0  0
   -0.9697    1.8290    3.8506 H   0  0  0  0  0  0  0  0  0  0  0  0
   -2.7354    1.6828    4.0167 H   0  0  0  0  0  0  0  0  0  0  0  0
   -1.6754    0.3334    4.4914 H   0  0  0  0  0  0  0  0  0  0  0  0
  5  6  2  0  0  0  0
  5  7  1  0  0  0  0
  2  3  1  0  0  0  0
  2  4  1  0  0  0  0
  2  5  1  0  0  0  0
  1  2  1  0  0  0  0
 26 27  2  0  0  0  0
 26 28  1  0  0  0  0
 24 25  1  0  0  0  0
 22 23  1  0  0  0  0
 22 24  2  0  0  0  0
 20 21  1  0  0  0  0
 19 20  1  0  0  0  0
 19 22  1  0  0  0  0
 17 18  1  0  0  0  0
 17 19  2  0  0  0  0
 15 16  1  0  0  0  0
 15 17  1  0  0  0  0
 14 15  2  0  0  0  0
 14 24  1  0  0  0  0
 11 12  1  0  0  0  0
 11 13  1  0  0  0  0
 11 14  1  0  0  0  0
  9 10  1  0  0  0  0
  9 11  1  0  0  0  0
  9 26  1  0  0  0  0
  7  8  1  0  0  0  0
  7  9  1  0  0  0  0
 30 31  1  0  0  0  0
 30 32  1  0  0  0  0
 30 33  1  0  0  0  0
 28 29  1  0  0  0  0
 28 30  1  0  0  0  0
M  END
$$$$
default_name
  -OEChem-02102213163D

 33 33  0     1  0  0  0  0  0999 V2000
   -4.0702   -3.8485    1.4554 H   0  0  0  0  0  0  0  0  0  0  0  0
   -4.0012   -2.9605    0.8284 C   0  0  0  0  0  0  0  0  0  0  0  0
   -4.7652   -2.2435    1.1234 H   0  0  0  0  0  0  0  0  0  0  0  0
   -4.1352   -3.2385   -0.2156 H   0  0  0  0  0  0  0  0  0  0  0  0
   -2.6362   -2.3395    1.0094 C   0  0  0  0  0  0  0  0  0  0  0  0
   -1.8292   -2.8395    1.7814 O   0  0  0  0  0  0  0  0  0  0  0  0
   -2.3832   -1.2445    0.2964 N   0  0  0  0  0  0  0  0  0  0  0  0
   -3.1102   -0.8685   -0.2946 H   0  0  0  0  0  0  0  0  0  0  0  0
   -1.1292   -0.4875    0.3524 C   0  0  1  0  0  0  0  0  0  0  0  0
   -0.3087   -1.1556    0.0882 H   0  0  0  0  0  0  0  0  0  0  0  0
   -1.1749    0.6534   -0.6787 C   0  0  0  0  0  0  0  0  0  0  0  0
   -1.0530    1.6051   -0.1598 H   0  0  0  0  0  0  0  0  0  0  0  0
   -0.3326    0.5445   -1.3638 H   0  0  0  0  0  0  0  0  0  0  0  0
   -2.4647    0.7128   -1.4742 C   0  0  0  0  0  0  0  0  0  0  0  0
   -2.7890    1.8648   -2.2185 C   0  0  0  0  0  0  0  0  0  0  0  0
   -2.1294    2.7226   -2.2033 H   0  0  0  0  0  0  0  0  0  0  0  0
   -3.9682    1.8998   -2.9880 C   0  0  0  0  0  0  0  0  0  0  0  0
   -4.2142    2.7841   -3.5555 H   0  0  0  0  0  0  0  0  0  0  0  0
   -4.8238    0.7769   -3.0160 C   0  0  0  0  0  0  0  0  0  0  0  0
   -5.9617    0.7996   -3.7574 O   0  0  0  0  0  0  0  0  0  0  0  0
   -6.1239    1.6612   -4.1437 H   0  0  0  0  0  0  0  0  0  0  0  0
   -4.4952   -0.3768   -2.2745 C   0  0  0  0  0  0  0  0  0  0  0  0
   -5.1596   -1.2273   -2.3005 H   0  0  0  0  0  0  0  0  0  0  0  0
   -3.3182   -0.4069   -1.5027 C   0  0  0  0  0  0  0  0  0  0  0  0
   -3.0711   -1.2903   -0.9259 H   0  0  0  0  0  0  0  0  0  0  0  0
   -0.8664    0.0378    1.7736 C   0  0  0  0  0  0  0  0  0  0  0  0
    0.2529   -0.0672    2.2760 O   0  0  0  0  0  0  0  0  0  0  0  0
   -1.8947    0.5991    2.4221 N   0  0  0  0  0  0  0  0  0  0  0  0
   -2.7942    0.5936    1.9635 H   0  0  0  0  0  0  0  0  0  0  0  0
   -1.8170    1.1453    3.7750 C   0  0  0  0  0  0  0  0  0  0  0  0
   -0.9697    1.8290    3.8506 H   0  0  0  0  0  0  0  0  0  0  0  0
   -2.7354    1.6828    4.0167 H   0  0  0  0  0  0  0  0  0  0  0  0
   -1.6754    0.3334    4.4914 H   0  0  0  0  0  0  0  0  0  0  0  0
  5  6  2  0  0  0  0
  5  7  1  0  0  0  0
  2  3  1  0  0  0  0
  2  4  1  0  0  0  0
  2  5  1  0  0  0  0
  1  2  1  0  0  0  0
 26 27  2  0  0  0  0
 26 28  1  0  0  0  0
 24 25  1  0  0  0  0
 22 23  1  0  0  0  0
 22 24  2  0  0  0  0
 20 21  1  0  0  0  0
 19 20  1  0  0  0  0
 19 22  1  0  0  0  0
 17 18  1  0  0  0  0
 17 19  2  0  0  0  0
 15 16  1  0  0  0  0
 15 17  1  0  0  0  0
 14 15  2  0  0  0  0
 14 24  1  0  0  0  0
 11 12  1  0  0  0  0
 11 13  1  0  0  0  0
 11 14  1  0  0  0  0
  9 10  1  0  0  0  0
  9 11  1  0  0  0  0
  9 26  1  0  0  0  0
  7  8  1  0  0  0  0
  7  9  1  0  0  0  0
 30 31  1  0  0  0  0
 30 32  1  0  0  0  0
 30 33  1  0  0  0  0
 28 29  1  0  0  0  0
 28 30  1  0  0  0  0
M  END
$$$$
default_name
  -OEChem-02102213163D

 33 33  0     1  0  0  0  0  0999 V2000
   -4.0702   -3.8485    1.4554 H   0  0  0  0  0  0  0  0  0  0  0  0
   -4.0012   -2.9605    0.8284 C   0  0  0  0  0  0  0  0  0  0  0  0
   -4.7652   -2.2435    1.1234 H   0  0  0  0  0  0  0  0  0  0  0  0
   -4.1352   -3.2385   -0.2156 H   0  0  0  0  0  0  0  0  0  0  0  0
   -2.6362   -2.3395    1.0094 C   0  0  0  0  0  0  0  0  0  0  0  0
   -1.8292   -2.8395    1.7814 O   0  0  0  0  0  0  0  0  0  0  0  0
   -2.3832   -1.2445    0.2964 N   0  0  0  0  0  0  0  0  0  0  0  0
   -3.1102   -0.8685   -0.2946 H   0  0  0  0  0  0  0  0  0  0  0  0
   -1.1292   -0.4875    0.3524 C   0  0  1  0  0  0  0  0  0  0  0  0
   -0.3087   -1.1556    0.0882 H   0  0  0  0  0  0  0  0  0  0  0  0
   -1.1749    0.6534   -0.6787 C   0  0  0  0  0  0  0  0  0  0  0  0
   -0.7929    1.5645   -0.2163 H   0  0  0  0  0  0  0  0  0  0  0  0
   -0.5120    0.4058   -1.5094 H   0  0  0  0  0  0  0  0  0  0  0  0
   -2.5637    0.9440   -1.2140 C   0  0  0  0  0  0  0  0  0  0  0  0
   -2.7600    1.9640   -2.1666 C   0  0  0  0  0  0  0  0  0  0  0  0
   -1.9218    2.5617   -2.5001 H   0  0  0  0  0  0  0  0  0  0  0  0
   -4.0452    2.2030   -2.6909 C   0  0  0  0  0  0  0  0  0  0  0  0
   -4.1920    2.9859   -3.4190 H   0  0  0  0  0  0  0  0  0  0  0  0
   -5.1371    1.4164   -2.2636 C   0  0  0  0  0  0  0  0  0  0  0  0
   -6.3799    1.6371   -2.7654 O   0  0  0  0  0  0  0  0  0  0  0  0
   -6.4089    2.4098   -3.3312 H   0  0  0  0  0  0  0  0  0  0  0  0
   -4.9380    0.3929   -1.3139 C   0  0  0  0  0  0  0  0  0  0  0  0
   -5.7816   -0.1988   -0.9918 H   0  0  0  0  0  0  0  0  0  0  0  0
   -3.6530    0.1595   -0.7883 C   0  0  0  0  0  0  0  0  0  0  0  0
   -3.5025   -0.6209   -0.0519 H   0  0  0  0  0  0  0  0  0  0  0  0
   -0.8664    0.0378    1.7736 C   0  0  0  0  0  0  0  0  0  0  0  0
    0.2529   -0.0672    2.2760 O   0  0  0  0  0  0  0  0  0  0  0  0
   -1.8947    0.5991    2.4221 N   0  0  0  0  0  0  0  0  0  0  0  0
   -2.7942    0.5936    1.9635 H   0  0  0  0  0  0  0  0  0  0  0  0
   -1.8170    1.1453    3.7750 C   0  0  0  0  0  0  0  0  0  0  0  0
   -0.9697    1.8290    3.8506 H   0  0  0  0  0  0  0  0  0  0  0  0
   -2.7354    1.6828    4.0167 H   0  0  0  0  0  0  0  0  0  0  0  0
   -1.6754    0.3334    4.4914 H   0  0  0  0  0  0  0  0  0  0  0  0
  5  6  2  0  0  0  0
  5  7  1  0  0  0  0
  2  3  1  0  0  0  0
  2  4  1  0  0  0  0
  2  5  1  0  0  0  0
  1  2  1  0  0  0  0
 26 27  2  0  0  0  0
 26 28  1  0  0  0  0
 24 25  1  0  0  0  0
 22 23  1  0  0  0  0
 22 24  2  0  0  0  0
 20 21  1  0  0  0  0
 19 20  1  0  0  0  0
 19 22  1  0  0  0  0
 17 18  1  0  0  0  0
 17 19  2  0  0  0  0
 15 16  1  0  0  0  0
 15 17  1  0  0  0  0
 14 15  2  0  0  0  0
 14 24  1  0  0  0  0
 11 12  1  0  0  0  0
 11 13  1  0  0  0  0
 11 14  1  0  0  0  0
  9 10  1  0  0  0  0
  9 11  1  0  0  0  0
  9 26  1  0  0  0  0
  7  8  1  0  0  0  0
  7  9  1  0  0  0  0
 30 31  1  0  0  0  0
 30 32  1  0  0  0  0
 30 33  1  0  0  0  0
 28 29  1  0  0  0  0
 28 30  1  0  0  0  0
M  END
$$$$
default_name
  -OEChem-02102213163D

 33 33  0     1  0  0  0  0  0999 V2000
   -4.0702   -3.8485    1.4554 H   0  0  0  0  0  0  0  0  0  0  0  0
   -4.0012   -2.9605    0.8284 C   0  0  0  0  0  0  0  0  0  0  0  0
   -4.7652   -2.2435    1.1234 H   0  0  0  0  0  0  0  0  0  0  0  0
   -4.1352   -3.2385   -0.2156 H   0  0  0  0  0  0  0  0  0  0  0  0
   -2.6362   -2.3395    1.0094 C   0  0  0  0  0  0  0  0  0  0  0  0
   -1.8292   -2.8395    1.7814 O   0  0  0  0  0  0  0  0  0  0  0  0
   -2.3832   -1.2445    0.2964 N   0  0  0  0  0  0  0  0  0  0  0  0
   -3.1102   -0.8685   -0.2946 H   0  0  0  0  0  0  0  0  0  0  0  0
   -1.1292   -0.4875    0.3524 C   0  0  1  0  0  0  0  0  0  0  0  0
   -0.3087   -1.1556    0.0882 H   0  0  0  0  0  0  0  0  0  0  0  0
   -1.1749    0.6534   -0.6787 C   0  0  0  0  0  0  0  0  0  0  0  0
   -0.7929    1.5645   -0.2163 H   0  0  0  0  0  0  0  0  0  0  0  0
   -0.5120    0.4058   -1.5094 H   0  0  0  0  0  0  0  0  0  0  0  0
   -2.5637    0.9440   -1.2140 C   0  0  0  0  0  0  0  0  0  0  0  0
   -2.7295    1.7260   -2.3747 C   0  0  0  0  0  0  0  0  0  0  0  0
   -1.8651    2.1443   -2.8736 H   0  0  0  0  0  0  0  0  0  0  0  0
   -4.0190    1.9592   -2.8911 C   0  0  0  0  0  0  0  0  0  0  0  0
   -4.1423    2.5598   -3.7791 H   0  0  0  0  0  0  0  0  0  0  0  0
   -5.1462    1.4051   -2.2461 C   0  0  0  0  0  0  0  0  0  0  0  0
   -6.3937    1.6217   -2.7378 O   0  0  0  0  0  0  0  0  0  0  0  0
   -6.3909    2.2391   -3.4705 H   0  0  0  0  0  0  0  0  0  0  0  0
   -4.9781    0.6187   -1.0875 C   0  0  0  0  0  0  0  0  0  0  0  0
   -5.8480    0.2041   -0.6008 H   0  0  0  0  0  0  0  0  0  0  0  0
   -3.6882    0.3912   -0.5713 C   0  0  0  0  0  0  0  0  0  0  0  0
   -3.5606   -0.2054    0.3242 H   0  0  0  0  0  0  0  0  0  0  0  0
   -0.8664    0.0378    1.7736 C   0  0  0  0  0  0  0  0  0  0  0  0
    0.2529   -0.0672    2.2760 O   0  0  0  0  0  0  0  0  0  0  0  0
   -1.8947    0.5991    2.4221 N   0  0  0  0  0  0  0  0  0  0  0  0
   -2.7942    0.5936    1.9635 H   0  0  0  0  0  0  0  0  0  0  0  0
   -1.8170    1.1453    3.7750 C   0  0  0  0  0  0  0  0  0  0  0  0
   -0.9697    1.8290    3.8506 H   0  0  0  0  0  0  0  0  0  0  0  0
   -2.7354    1.6828    4.0167 H   0  0  0  0  0  0  0  0  0  0  0  0
   -1.6754    0.3334    4.4914 H   0  0  0  0  0  0  0  0  0  0  0  0
  5  6  2  0  0  0  0
  5  7  1  0  0  0  0
  2  3  1  0  0  0  0
  2  4  1  0  0  0  0
  2  5  1  0  0  0  0
  1  2  1  0  0  0  0
 26 27  2  0  0  0  0
 26 28  1  0  0  0  0
 24 25  1  0  0  0  0
 22 23  1  0  0  0  0
 22 24  2  0  0  0  0
 20 21  1  0  0  0  0
 19 20  1  0  0  0  0
 19 22  1  0  0  0  0
 17 18  1  0  0  0  0
 17 19  2  0  0  0  0
 15 16  1  0  0  0  0
 15 17  1  0  0  0  0
 14 15  2  0  0  0  0
 14 24  1  0  0  0  0
 11 12  1  0  0  0  0
 11 13  1  0  0  0  0
 11 14  1  0  0  0  0
  9 10  1  0  0  0  0
  9 11  1  0  0  0  0
  9 26  1  0  0  0  0
  7  8  1  0  0  0  0
  7  9  1  0  0  0  0
 30 31  1  0  0  0  0
 30 32  1  0  0  0  0
 30 33  1  0  0  0  0
 28 29  1  0  0  0  0
 28 30  1  0  0  0  0
M  END
$$$$
default_name
  -OEChem-02102213163D

 33 33  0     1  0  0  0  0  0999 V2000
   -4.0702   -3.8485    1.4554 H   0  0  0  0  0  0  0  0  0  0  0  0
   -4.0012   -2.9605    0.8284 C   0  0  0  0  0  0  0  0  0  0  0  0
   -4.7652   -2.2435    1.1234 H   0  0  0  0  0  0  0  0  0  0  0  0
   -4.1352   -3.2385   -0.2156 H   0  0  0  0  0  0  0  0  0  0  0  0
   -2.6362   -2.3395    1.0094 C   0  0  0  0  0  0  0  0  0  0  0  0
   -1.8292   -2.8395    1.7814 O   0  0  0  0  0  0  0  0  0  0  0  0
   -2.3832   -1.2445    0.2964 N   0  0  0  0  0  0  0  0  0  0  0  0
   -3.1102   -0.8685   -0.2946 H   0  0  0  0  0  0  0  0  0  0  0  0
   -1.1292   -0.4875    0.3524 C   0  0  1  0  0  0  0  0  0  0  0  0
   -0.3087   -1.1556    0.0882 H   0  0  0  0  0  0  0  0  0  0  0  0
   -1.1749    0.6534   -0.6787 C   0  0  0  0  0  0  0  0  0  0  0  0
   -0.7929    1.5645   -0.2163 H   0  0  0  0  0  0  0  0  0  0  0  0
   -0.5120    0.4058   -1.5094 H   0  0  0  0  0  0  0  0  0  0  0  0
   -2.5637    0.9440   -1.2140 C   0  0  0  0  0  0  0  0  0  0  0  0
   -2.7321    1.4440   -2.5209 C   0  0  0  0  0  0  0  0  0  0  0  0
   -1.8670    1.6473   -3.1383 H   0  0  0  0  0  0  0  0  0  0  0  0
   -4.0259    1.6740   -3.0279 C   0  0  0  0  0  0  0  0  0  0  0  0
   -4.1511    2.0584   -4.0285 H   0  0  0  0  0  0  0  0  0  0  0  0
   -5.1552    1.3991   -2.2261 C   0  0  0  0  0  0  0  0  0  0  0  0
   -6.4071    1.6147   -2.7069 O   0  0  0  0  0  0  0  0  0  0  0  0
   -6.3960    2.0395   -3.5656 H   0  0  0  0  0  0  0  0  0  0  0  0
   -4.9849    0.8941   -0.9203 C   0  0  0  0  0  0  0  0  0  0  0  0
   -5.8560    0.6920   -0.3154 H   0  0  0  0  0  0  0  0  0  0  0  0
   -3.6903    0.6697   -0.4148 C   0  0  0  0  0  0  0  0  0  0  0  0
   -3.5600    0.2904    0.5918 H   0  0  0  0  0  0  0  0  0  0  0  0
   -0.8664    0.0378    1.7736 C   0  0  0  0  0  0  0  0  0  0  0  0
    0.2529   -0.0672    2.2760 O   0  0  0  0  0  0  0  0  0  0  0  0
   -1.8947    0.5991    2.4221 N   0  0  0  0  0  0  0  0  0  0  0  0
   -2.7942    0.5936    1.9635 H   0  0  0  0  0  0  0  0  0  0  0  0
   -1.8170    1.1453    3.7750 C   0  0  0  0  0  0  0  0  0  0  0  0
   -0.9697    1.8290    3.8506 H   0  0  0  0  0  0  0  0  0  0  0  0
   -2.7354    1.6828    4.0167 H   0  0  0  0  0  0  0  0  0  0  0  0
   -1.6754    0.3334    4.4914 H   0  0  0  0  0  0  0  0  0  0  0  0
  5  6  2  0  0  0  0
  5  7  1  0  0  0  0
  2  3  1  0  0  0  0
  2  4  1  0  0  0  0
  2  5  1  0  0  0  0
  1  2  1  0  0  0  0
 26 27  2  0  0  0  0
 26 28  1  0  0  0  0
 24 25  1  0  0  0  0
 22 23  1  0  0  0  0
 22 24  2  0  0  0  0
 20 21  1  0  0  0  0
 19 20  1  0  0  0  0
 19 22  1  0  0  0  0
 17 18  1  0  0  0  0
 17 19  2  0  0  0  0
 15 16  1  0  0  0  0
 15 17  1  0  0  0  0
 14 15  2  0  0  0  0
 14 24  1  0  0  0  0
 11 12  1  0  0  0  0
 11 13  1  0  0  0  0
 11 14  1  0  0  0  0
  9 10  1  0  0  0  0
  9 11  1  0  0  0  0
  9 26  1  0  0  0  0
  7  8  1  0  0  0  0
  7  9  1  0  0  0  0
 30 31  1  0  0  0  0
 30 32  1  0  0  0  0
 30 33  1  0  0  0  0
 28 29  1  0  0  0  0
 28 30  1  0  0  0  0
M  END
$$$$
default_name
  -OEChem-02102213163D

 33 33  0     1  0  0  0  0  0999 V2000
   -4.0702   -3.8485    1.4554 H   0  0  0  0  0  0  0  0  0  0  0  0
   -4.0012   -2.9605    0.8284 C   0  0  0  0  0  0  0  0  0  0  0  0
   -4.7652   -2.2435    1.1234 H   0  0  0  0  0  0  0  0  0  0  0  0
   -4.1352   -3.2385   -0.2156 H   0  0  0  0  0  0  0  0  0  0  0  0
   -2.6362   -2.3395    1.0094 C   0  0  0  0  0  0  0  0  0  0  0  0
   -1.8292   -2.8395    1.7814 O   0  0  0  0  0  0  0  0  0  0  0  0
   -2.3832   -1.2445    0.2964 N   0  0  0  0  0  0  0  0  0  0  0  0
   -3.1102   -0.8685   -0.2946 H   0  0  0  0  0  0  0  0  0  0  0  0
   -1.1292   -0.4875    0.3524 C   0  0  1  0  0  0  0  0  0  0  0  0
   -0.3087   -1.1556    0.0882 H   0  0  0  0  0  0  0  0  0  0  0  0
   -1.1749    0.6534   -0.6787 C   0  0  0  0  0  0  0  0  0  0  0  0
   -0.7929    1.5645   -0.2163 H   0  0  0  0  0  0  0  0  0  0  0  0
   -0.5120    0.4058   -1.5094 H   0  0  0  0  0  0  0  0  0  0  0  0
   -2.5637    0.9440   -1.2140 C   0  0  0  0  0  0  0  0  0  0  0  0
   -2.7677    1.1373   -2.5951 C   0  0  0  0  0  0  0  0  0  0  0  0
   -1.9274    1.1047   -3.2761 H   0  0  0  0  0  0  0  0  0  0  0  0
   -4.0655    1.3666   -3.0921 C   0  0  0  0  0  0  0  0  0  0  0  0
   -4.2178    1.5158   -4.1500 H   0  0  0  0  0  0  0  0  0  0  0  0
   -5.1634    1.3989   -2.2049 C   0  0  0  0  0  0  0  0  0  0  0  0
   -6.4192    1.6164   -2.6746 O   0  0  0  0  0  0  0  0  0  0  0  0
   -6.4239    1.8247   -3.6098 H   0  0  0  0  0  0  0  0  0  0  0  0
   -4.9580    1.2004   -0.8238 C   0  0  0  0  0  0  0  0  0  0  0  0
   -5.8049    1.2317   -0.1549 H   0  0  0  0  0  0  0  0  0  0  0  0
   -3.6591    0.9760   -0.3295 C   0  0  0  0  0  0  0  0  0  0  0  0
   -3.5009    0.8327    0.7328 H   0  0  0  0  0  0  0  0  0  0  0  0
   -0.8664    0.0378    1.7736 C   0  0  0  0  0  0  0  0  0  0  0  0
    0.2529   -0.0672    2.2760 O   0  0  0  0  0  0  0  0  0  0  0  0
   -1.8947    0.5991    2.4221 N   0  0  0  0  0  0  0  0  0  0  0  0
   -2.7942    0.5936    1.9635 H   0  0  0  0  0  0  0  0  0  0  0  0
   -1.8170    1.1453    3.7750 C   0  0  0  0  0  0  0  0  0  0  0  0
   -0.9697    1.8290    3.8506 H   0  0  0  0  0  0  0  0  0  0  0  0
   -2.7354    1.6828    4.0167 H   0  0  0  0  0  0  0  0  0  0  0  0
   -1.6754    0.3334    4.4914 H   0  0  0  0  0  0  0  0  0  0  0  0
  5  6  2  0  0  0  0
  5  7  1  0  0  0  0
  2  3  1  0  0  0  0
  2  4  1  0  0  0  0
  2  5  1  0  0  0  0
  1  2  1  0  0  0  0
 26 27  2  0  0  0  0
 26 28  1  0  0  0  0
 24 25  1  0  0  0  0
 22 23  1  0  0  0  0
 22 24  2  0  0  0  0
 20 21  1  0  0  0  0
 19 20  1  0  0  0  0
 19 22  1  0  0  0  0
 17 18  1  0  0  0  0
 17 19  2  0  0  0  0
 15 16  1  0  0  0  0
 15 17  1  0  0  0  0
 14 15  2  0  0  0  0
 14 24  1  0  0  0  0
 11 12  1  0  0  0  0
 11 13  1  0  0  0  0
 11 14  1  0  0  0  0
  9 10  1  0  0  0  0
  9 11  1  0  0  0  0
  9 26  1  0  0  0  0
  7  8  1  0  0  0  0
  7  9  1  0  0  0  0
 30 31  1  0  0  0  0
 30 32  1  0  0  0  0
 30 33  1  0  0  0  0
 28 29  1  0  0  0  0
 28 30  1  0  0  0  0
M  END
$$$$
default_name
  -OEChem-02102213163D

 33 33  0     1  0  0  0  0  0999 V2000
   -4.0702   -3.8485    1.4554 H   0  0  0  0  0  0  0  0  0  0  0  0
   -4.0012   -2.9605    0.8284 C   0  0  0  0  0  0  0  0  0  0  0  0
   -4.7652   -2.2435    1.1234 H   0  0  0  0  0  0  0  0  0  0  0  0
   -4.1352   -3.2385   -0.2156 H   0  0  0  0  0  0  0  0  0  0  0  0
   -2.6362   -2.3395    1.0094 C   0  0  0  0  0  0  0  0  0  0  0  0
   -1.8292   -2.8395    1.7814 O   0  0  0  0  0  0  0  0  0  0  0  0
   -2.3832   -1.2445    0.2964 N   0  0  0  0  0  0  0  0  0  0  0  0
   -3.1102   -0.8685   -0.2946 H   0  0  0  0  0  0  0  0  0  0  0  0
   -1.1292   -0.4875    0.3524 C   0  0  1  0  0  0  0  0  0  0  0  0
   -0.3087   -1.1556    0.0882 H   0  0  0  0  0  0  0  0  0  0  0  0
   -1.1749    0.6534   -0.6787 C   0  0  0  0  0  0  0  0  0  0  0  0
   -0.7929    1.5645   -0.2163 H   0  0  0  0  0  0  0  0  0  0  0  0
   -0.5120    0.4058   -1.5094 H   0  0  0  0  0  0  0  0  0  0  0  0
   -2.5637    0.9440   -1.2140 C   0  0  0  0  0  0  0  0  0  0  0  0
   -2.8338    0.8266   -2.5923 C   0  0  0  0  0  0  0  0  0  0  0  0
   -2.0421    0.5535   -3.2777 H   0  0  0  0  0  0  0  0  0  0  0  0
   -4.1349    1.0581   -3.0793 C   0  0  0  0  0  0  0  0  0  0  0  0
   -4.3378    0.9689   -4.1355 H   0  0  0  0  0  0  0  0  0  0  0  0
   -5.1703    1.4045   -2.1839 C   0  0  0  0  0  0  0  0  0  0  0  0
   -6.4291    1.6269   -2.6433 O   0  0  0  0  0  0  0  0  0  0  0  0
   -6.4726    1.6092   -3.6003 H   0  0  0  0  0  0  0  0  0  0  0  0
   -4.8993    1.5167   -0.8045 C   0  0  0  0  0  0  0  0  0  0  0  0
   -5.6983    1.7864   -0.1304 H   0  0  0  0  0  0  0  0  0  0  0  0
   -3.5967    1.2892   -0.3213 C   0  0  0  0  0  0  0  0  0  0  0  0
   -3.3873    1.3846    0.7375 H   0  0  0  0  0  0  0  0  0  0  0  0
   -0.8664    0.0378    1.7736 C   0  0  0  0  0  0  0  0  0  0  0  0
    0.2529   -0.0672    2.2760 O   0  0  0  0  0  0  0  0  0  0  0  0
   -1.8947    0.5991    2.4221 N   0  0  0  0  0  0  0  0  0  0  0  0
   -2.7942    0.5936    1.9635 H   0  0  0  0  0  0  0  0  0  0  0  0
   -1.8170    1.1453    3.7750 C   0  0  0  0  0  0  0  0  0  0  0  0
   -0.9697    1.8290    3.8506 H   0  0  0  0  0  0  0  0  0  0  0  0
   -2.7354    1.6828    4.0167 H   0  0  0  0  0  0  0  0  0  0  0  0
   -1.6754    0.3334    4.4914 H   0  0  0  0  0  0  0  0  0  0  0  0
  5  6  2  0  0  0  0
  5  7  1  0  0  0  0
  2  3  1  0  0  0  0
  2  4  1  0  0  0  0
  2  5  1  0  0  0  0
  1  2  1  0  0  0  0
 26 27  2  0  0  0  0
 26 28  1  0  0  0  0
 24 25  1  0  0  0  0
 22 23  1  0  0  0  0
 22 24  2  0  0  0  0
 20 21  1  0  0  0  0
 19 20  1  0  0  0  0
 19 22  1  0  0  0  0
 17 18  1  0  0  0  0
 17 19  2  0  0  0  0
 15 16  1  0  0  0  0
 15 17  1  0  0  0  0
 14 15  2  0  0  0  0
 14 24  1  0  0  0  0
 11 12  1  0  0  0  0
 11 13  1  0  0  0  0
 11 14  1  0  0  0  0
  9 10  1  0  0  0  0
  9 11  1  0  0  0  0
  9 26  1  0  0  0  0
  7  8  1  0  0  0  0
  7  9  1  0  0  0  0
 30 31  1  0  0  0  0
 30 32  1  0  0  0  0
 30 33  1  0  0  0  0
 28 29  1  0  0  0  0
 28 30  1  0  0  0  0
M  END
$$$$
default_name
  -OEChem-02102213163D

 33 33  0     1  0  0  0  0  0999 V2000
   -4.0702   -3.8485    1.4554 H   0  0  0  0  0  0  0  0  0  0  0  0
   -4.0012   -2.9605    0.8284 C   0  0  0  0  0  0  0  0  0  0  0  0
   -4.7652   -2.2435    1.1234 H   0  0  0  0  0  0  0  0  0  0  0  0
   -4.1352   -3.2385   -0.2156 H   0  0  0  0  0  0  0  0  0  0  0  0
   -2.6362   -2.3395    1.0094 C   0  0  0  0  0  0  0  0  0  0  0  0
   -1.8292   -2.8395    1.7814 O   0  0  0  0  0  0  0  0  0  0  0  0
   -2.3832   -1.2445    0.2964 N   0  0  0  0  0  0  0  0  0  0  0  0
   -3.1102   -0.8685   -0.2946 H   0  0  0  0  0  0  0  0  0  0  0  0
   -1.1292   -0.4875    0.3524 C   0  0  1  0  0  0  0  0  0  0  0  0
   -0.3087   -1.1556    0.0882 H   0  0  0  0  0  0  0  0  0  0  0  0
   -1.1749    0.6534   -0.6787 C   0  0  0  0  0  0  0  0  0  0  0  0
   -0.7929    1.5645   -0.2163 H   0  0  0  0  0  0  0  0  0  0  0  0
   -0.5120    0.4058   -1.5094 H   0  0  0  0  0  0  0  0  0  0  0  0
   -2.5637    0.9440   -1.2140 C   0  0  0  0  0  0  0  0  0  0  0  0
   -2.9258    0.5333   -2.5127 C   0  0  0  0  0  0  0  0  0  0  0  0
   -2.2034    0.0312   -3.1428 H   0  0  0  0  0  0  0  0  0  0  0  0
   -4.2296    0.7695   -2.9904 C   0  0  0  0  0  0  0  0  0  0  0  0
   -4.5029    0.4551   -3.9859 H   0  0  0  0  0  0  0  0  0  0  0  0
   -5.1754    1.4155   -2.1647 C   0  0  0  0  0  0  0  0  0  0  0  0
   -6.4361    1.6453   -2.6150 O   0  0  0  0  0  0  0  0  0  0  0  0
   -6.5389    1.4078   -3.5375 H   0  0  0  0  0  0  0  0  0  0  0  0
   -4.8128    1.8214   -0.8637 C   0  0  0  0  0  0  0  0  0  0  0  0
   -5.5435    2.3183   -0.2434 H   0  0  0  0  0  0  0  0  0  0  0  0
   -3.5075    1.5879   -0.3907 C   0  0  0  0  0  0  0  0  0  0  0  0
   -3.2269    1.9084    0.6056 H   0  0  0  0  0  0  0  0  0  0  0  0
   -0.8664    0.0378    1.7736 C   0  0  0  0  0  0  0  0  0  0  0  0
    0.2529   -0.0672    2.2760 O   0  0  0  0  0  0  0  0  0  0  0  0
   -1.8947    0.5991    2.4221 N   0  0  0  0  0  0  0  0  0  0  0  0
   -2.7942    0.5936    1.9635 H   0  0  0  0  0  0  0  0  0  0  0  0
   -1.8170    1.1453    3.7750 C   0  0  0  0  0  0  0  0  0  0  0  0
   -0.9697    1.8290    3.8506 H   0  0  0  0  0  0  0  0  0  0  0  0
   -2.7354    1.6828    4.0167 H   0  0  0  0  0  0  0  0  0  0  0  0
   -1.6754    0.3334    4.4914 H   0  0  0  0  0  0  0  0  0  0  0  0
  5  6  2  0  0  0  0
  5  7  1  0  0  0  0
  2  3  1  0  0  0  0
  2  4  1  0  0  0  0
  2  5  1  0  0  0  0
  1  2  1  0  0  0  0
 26 27  2  0  0  0  0
 26 28  1  0  0  0  0
 24 25  1  0  0  0  0
 22 23  1  0  0  0  0
 22 24  2  0  0  0  0
 20 21  1  0  0  0  0
 19 20  1  0  0  0  0
 19 22  1  0  0  0  0
 17 18  1  0  0  0  0
 17 19  2  0  0  0  0
 15 16  1  0  0  0  0
 15 17  1  0  0  0  0
 14 15  2  0  0  0  0
 14 24  1  0  0  0  0
 11 12  1  0  0  0  0
 11 13  1  0  0  0  0
 11 14  1  0  0  0  0
  9 10  1  0  0  0  0
  9 11  1  0  0  0  0
  9 26  1  0  0  0  0
  7  8  1  0  0  0  0
  7  9  1  0  0  0  0
 30 31  1  0  0  0  0
 30 32  1  0  0  0  0
 30 33  1  0  0  0  0
 28 29  1  0  0  0  0
 28 30  1  0  0  0  0
M  END
$$$$
default_name
  -OEChem-02102213163D

 33 33  0     1  0  0  0  0  0999 V2000
   -4.0702   -3.8485    1.4554 H   0  0  0  0  0  0  0  0  0  0  0  0
   -4.0012   -2.9605    0.8284 C   0  0  0  0  0  0  0  0  0  0  0  0
   -4.7652   -2.2435    1.1234 H   0  0  0  0  0  0  0  0  0  0  0  0
   -4.1352   -3.2385   -0.2156 H   0  0  0  0  0  0  0  0  0  0  0  0
   -2.6362   -2.3395    1.0094 C   0  0  0  0  0  0  0  0  0  0  0  0
   -1.8292   -2.8395    1.7814 O   0  0  0  0  0  0  0  0  0  0  0  0
   -2.3832   -1.2445    0.2964 N   0  0  0  0  0  0  0  0  0  0  0  0
   -3.1102   -0.8685   -0.2946 H   0  0  0  0  0  0  0  0  0  0  0  0
   -1.1292   -0.4875    0.3524 C   0  0  1  0  0  0  0  0  0  0  0  0
   -0.3087   -1.1556    0.0882 H   0  0  0  0  0  0  0  0  0  0  0  0
   -1.1749    0.6534   -0.6787 C   0  0  0  0  0  0  0  0  0  0  0  0
   -0.7929    1.5645   -0.2163 H   0  0  0  0  0  0  0  0  0  0  0  0
   -0.5120    0.4058   -1.5094 H   0  0  0  0  0  0  0  0  0  0  0  0
   -2.5637    0.9440   -1.2140 C   0  0  0  0  0  0  0  0  0  0  0  0
   -3.0376    0.2772   -2.3617 C   0  0  0  0  0  0  0  0  0  0  0  0
   -2.4002   -0.4267   -2.8807 H   0  0  0  0  0  0  0  0  0  0  0  0
   -4.3430    0.5205   -2.8314 C   0  0  0  0  0  0  0  0  0  0  0  0
   -4.7020    0.0093   -3.7114 H   0  0  0  0  0  0  0  0  0  0  0  0
   -5.1784    1.4311   -2.1485 C   0  0  0  0  0  0  0  0  0  0  0  0
   -6.4398    1.6704   -2.5918 O   0  0  0  0  0  0  0  0  0  0  0  0
   -6.6183    1.2342   -3.4259 H   0  0  0  0  0  0  0  0  0  0  0  0
   -4.7042    2.0938   -0.9974 C   0  0  0  0  0  0  0  0  0  0  0  0
   -5.3509    2.7911   -0.4864 H   0  0  0  0  0  0  0  0  0  0  0  0
   -3.3974    1.8519   -0.5330 C   0  0  0  0  0  0  0  0  0  0  0  0
   -3.0306    2.3684    0.3461 H   0  0  0  0  0  0  0  0  0  0  0  0
   -0.8664    0.0378    1.7736 C   0  0  0  0  0  0  0  0  0  0  0  0
    0.2529   -0.0672    2.2760 O   0  0  0  0  0  0  0  0  0  0  0  0
   -1.8947    0.5991    2.4221 N   0  0  0  0  0  0  0  0  0  0  0  0
   -2.7942    0.5936    1.9635 H   0  0  0  0  0  0  0  0  0  0  0  0
   -1.8170    1.1453    3.7750 C   0  0  0  0  0  0  0  0  0  0  0  0
   -0.9697    1.8290    3.8506 H   0  0  0  0  0  0  0  0  0  0  0  0
   -2.7354    1.6828    4.0167 H   0  0  0  0  0  0  0  0  0  0  0  0
   -1.6754    0.3334    4.4914 H   0  0  0  0  0  0  0  0  0  0  0  0
  5  6  2  0  0  0  0
  5  7  1  0  0  0  0
  2  3  1  0  0  0  0
  2  4  1  0  0  0  0
  2  5  1  0  0  0  0
  1  2  1  0  0  0  0
 26 27  2  0  0  0  0
 26 28  1  0  0  0  0
 24 25  1  0  0  0  0
 22 23  1  0  0  0  0
 22 24  2  0  0  0  0
 20 21  1  0  0  0  0
 19 20  1  0  0  0  0
 19 22  1  0  0  0  0
 17 18  1  0  0  0  0
 17 19  2  0  0  0  0
 15 16  1  0  0  0  0
 15 17  1  0  0  0  0
 14 15  2  0  0  0  0
 14 24  1  0  0  0  0
 11 12  1  0  0  0  0
 11 13  1  0  0  0  0
 11 14  1  0  0  0  0
  9 10  1  0  0  0  0
  9 11  1  0  0  0  0
  9 26  1  0  0  0  0
  7  8  1  0  0  0  0
  7  9  1  0  0  0  0
 30 31  1  0  0  0  0
 30 32  1  0  0  0  0
 30 33  1  0  0  0  0
 28 29  1  0  0  0  0
 28 30  1  0  0  0  0
M  END
$$$$
default_name
  -OEChem-02102213163D

 33 33  0     1  0  0  0  0  0999 V2000
   -4.0702   -3.8485    1.4554 H   0  0  0  0  0  0  0  0  0  0  0  0
   -4.0012   -2.9605    0.8284 C   0  0  0  0  0  0  0  0  0  0  0  0
   -4.7652   -2.2435    1.1234 H   0  0  0  0  0  0  0  0  0  0  0  0
   -4.1352   -3.2385   -0.2156 H   0  0  0  0  0  0  0  0  0  0  0  0
   -2.6362   -2.3395    1.0094 C   0  0  0  0  0  0  0  0  0  0  0  0
   -1.8292   -2.8395    1.7814 O   0  0  0  0  0  0  0  0  0  0  0  0
   -2.3832   -1.2445    0.2964 N   0  0  0  0  0  0  0  0  0  0  0  0
   -3.1102   -0.8685   -0.2946 H   0  0  0  0  0  0  0  0  0  0  0  0
   -1.1292   -0.4875    0.3524 C   0  0  1  0  0  0  0  0  0  0  0  0
   -0.3087   -1.1556    0.0882 H   0  0  0  0  0  0  0  0  0  0  0  0
   -1.1749    0.6534   -0.6787 C   0  0  0  0  0  0  0  0  0  0  0  0
   -0.7929    1.5645   -0.2163 H   0  0  0  0  0  0  0  0  0  0  0  0
   -0.5120    0.4058   -1.5094 H   0  0  0  0  0  0  0  0  0  0  0  0
   -2.5637    0.9440   -1.2140 C   0  0  0  0  0  0  0  0  0  0  0  0
   -3.1615    0.0758   -2.1496 C   0  0  0  0  0  0  0  0  0  0  0  0
   -2.6191   -0.7888   -2.5093 H   0  0  0  0  0  0  0  0  0  0  0  0
   -4.4674    0.3280   -2.6132 C   0  0  0  0  0  0  0  0  0  0  0  0
   -4.9214   -0.3380   -3.3308 H   0  0  0  0  0  0  0  0  0  0  0  0
   -5.1790    1.4503   -2.1363 C   0  0  0  0  0  0  0  0  0  0  0  0
   -6.4400    1.7006   -2.5750 O   0  0  0  0  0  0  0  0  0  0  0  0
   -6.7052    1.1003   -3.2731 H   0  0  0  0  0  0  0  0  0  0  0  0
   -4.5812    2.3153   -1.1965 C   0  0  0  0  0  0  0  0  0  0  0  0
   -5.1338    3.1726   -0.8427 H   0  0  0  0  0  0  0  0  0  0  0  0
   -3.2740    2.0631   -0.7385 C   0  0  0  0  0  0  0  0  0  0  0  0
   -2.8119    2.7332   -0.0234 H   0  0  0  0  0  0  0  0  0  0  0  0
   -0.8664    0.0378    1.7736 C   0  0  0  0  0  0  0  0  0  0  0  0
    0.2529   -0.0672    2.2760 O   0  0  0  0  0  0  0  0  0  0  0  0
   -1.8947    0.5991    2.4221 N   0  0  0  0  0  0  0  0  0  0  0  0
   -2.7942    0.5936    1.9635 H   0  0  0  0  0  0  0  0  0  0  0  0
   -1.8170    1.1453    3.7750 C   0  0  0  0  0  0  0  0  0  0  0  0
   -0.9697    1.8290    3.8506 H   0  0  0  0  0  0  0  0  0  0  0  0
   -2.7354    1.6828    4.0167 H   0  0  0  0  0  0  0  0  0  0  0  0
   -1.6754    0.3334    4.4914 H   0  0  0  0  0  0  0  0  0  0  0  0
  5  6  2  0  0  0  0
  5  7  1  0  0  0  0
  2  3  1  0  0  0  0
  2  4  1  0  0  0  0
  2  5  1  0  0  0  0
  1  2  1  0  0  0  0
 26 27  2  0  0  0  0
 26 28  1  0  0  0  0
 24 25  1  0  0  0  0
 22 23  1  0  0  0  0
 22 24  2  0  0  0  0
 20 21  1  0  0  0  0
 19 20  1  0  0  0  0
 19 22  1  0  0  0  0
 17 18  1  0  0  0  0
 17 19  2  0  0  0  0
 15 16  1  0  0  0  0
 15 17  1  0  0  0  0
 14 15  2  0  0  0  0
 14 24  1  0  0  0  0
 11 12  1  0  0  0  0
 11 13  1  0  0  0  0
 11 14  1  0  0  0  0
  9 10  1  0  0  0  0
  9 11  1  0  0  0  0
  9 26  1  0  0  0  0
  7  8  1  0  0  0  0
  7  9  1  0  0  0  0
 30 31  1  0  0  0  0
 30 32  1  0  0  0  0
 30 33  1  0  0  0  0
 28 29  1  0  0  0  0
 28 30  1  0  0  0  0
M  END
$$$$
default_name
  -OEChem-02102213163D

 33 33  0     1  0  0  0  0  0999 V2000
   -4.0702   -3.8485    1.4554 H   0  0  0  0  0  0  0  0  0  0  0  0
   -4.0012   -2.9605    0.8284 C   0  0  0  0  0  0  0  0  0  0  0  0
   -4.7652   -2.2435    1.1234 H   0  0  0  0  0  0  0  0  0  0  0  0
   -4.1352   -3.2385   -0.2156 H   0  0  0  0  0  0  0  0  0  0  0  0
   -2.6362   -2.3395    1.0094 C   0  0  0  0  0  0  0  0  0  0  0  0
   -1.8292   -2.8395    1.7814 O   0  0  0  0  0  0  0  0  0  0  0  0
   -2.3832   -1.2445    0.2964 N   0  0  0  0  0  0  0  0  0  0  0  0
   -3.1102   -0.8685   -0.2946 H   0  0  0  0  0  0  0  0  0  0  0  0
   -1.1292   -0.4875    0.3524 C   0  0  1  0  0  0  0  0  0  0  0  0
   -0.3087   -1.1556    0.0882 H   0  0  0  0  0  0  0  0  0  0  0  0
   -1.1749    0.6534   -0.6787 C   0  0  0  0  0  0  0  0  0  0  0  0
   -0.7929    1.5645   -0.2163 H   0  0  0  0  0  0  0  0  0  0  0  0
   -0.5120    0.4058   -1.5094 H   0  0  0  0  0  0  0  0  0  0  0  0
   -2.5637    0.9440   -1.2140 C   0  0  0  0  0  0  0  0  0  0  0  0
   -3.2890   -0.0571   -1.8909 C   0  0  0  0  0  0  0  0  0  0  0  0
   -2.8453   -1.0305   -2.0538 H   0  0  0  0  0  0  0  0  0  0  0  0
   -4.5943    0.2051   -2.3506 C   0  0  0  0  0  0  0  0  0  0  0  0
   -5.1462   -0.5633   -2.8699 H   0  0  0  0  0  0  0  0  0  0  0  0
   -5.1773    1.4718   -2.1292 C   0  0  0  0  0  0  0  0  0  0  0  0
   -6.4365    1.7336   -2.5660 O   0  0  0  0  0  0  0  0  0  0  0  0
   -6.7939    1.0150   -3.0893 H   0  0  0  0  0  0  0  0  0  0  0  0
   -4.4519    2.4708   -1.4474 C   0  0  0  0  0  0  0  0  0  0  0  0
   -4.9068    3.4368   -1.2880 H   0  0  0  0  0  0  0  0  0  0  0  0
   -3.1457    2.2072   -0.9931 C   0  0  0  0  0  0  0  0  0  0  0  0
   -2.5855    2.9781   -0.4775 H   0  0  0  0  0  0  0  0  0  0  0  0
   -0.8664    0.0378    1.7736 C   0  0  0  0  0  0  0  0  0  0  0  0
    0.2529   -0.0672    2.2760 O   0  0  0  0  0  0  0  0  0  0  0  0
   -1.8947    0.5991    2.4221 N   0  0  0  0  0  0  0  0  0  0  0  0
   -2.7942    0.5936    1.9635 H   0  0  0  0  0  0  0  0  0  0  0  0
   -1.8170    1.1453    3.7750 C   0  0  0  0  0  0  0  0  0  0  0  0
   -0.9697    1.8290    3.8506 H   0  0  0  0  0  0  0  0  0  0  0  0
   -2.7354    1.6828    4.0167 H   0  0  0  0  0  0  0  0  0  0  0  0
   -1.6754    0.3334    4.4914 H   0  0  0  0  0  0  0  0  0  0  0  0
  5  6  2  0  0  0  0
  5  7  1  0  0  0  0
  2  3  1  0  0  0  0
  2  4  1  0  0  0  0
  2  5  1  0  0  0  0
  1  2  1  0  0  0  0
 26 27  2  0  0  0  0
 26 28  1  0  0  0  0
 24 25  1  0  0  0  0
 22 23  1  0  0  0  0
 22 24  2  0  0  0  0
 20 21  1  0  0  0  0
 19 20  1  0  0  0  0
 19 22  1  0  0  0  0
 17 18  1  0  0  0  0
 17 19  2  0  0  0  0
 15 16  1  0  0  0  0
 15 17  1  0  0  0  0
 14 15  2  0  0  0  0
 14 24  1  0  0  0  0
 11 12  1  0  0  0  0
 11 13  1  0  0  0  0
 11 14  1  0  0  0  0
  9 10  1  0  0  0  0
  9 11  1  0  0  0  0
  9 26  1  0  0  0  0
  7  8  1  0  0  0  0
  7  9  1  0  0  0  0
 30 31  1  0  0  0  0
 30 32  1  0  0  0  0
 30 33  1  0  0  0  0
 28 29  1  0  0  0  0
 28 30  1  0  0  0  0
M  END
$$$$
default_name
  -OEChem-02102213163D

 33 33  0     1  0  0  0  0  0999 V2000
   -4.0702   -3.8485    1.4554 H   0  0  0  0  0  0  0  0  0  0  0  0
   -4.0012   -2.9605    0.8284 C   0  0  0  0  0  0  0  0  0  0  0  0
   -4.7652   -2.2435    1.1234 H   0  0  0  0  0  0  0  0  0  0  0  0
   -4.1352   -3.2385   -0.2156 H   0  0  0  0  0  0  0  0  0  0  0  0
   -2.6362   -2.3395    1.0094 C   0  0  0  0  0  0  0  0  0  0  0  0
   -1.8292   -2.8395    1.7814 O   0  0  0  0  0  0  0  0  0  0  0  0
   -2.3832   -1.2445    0.2964 N   0  0  0  0  0  0  0  0  0  0  0  0
   -3.1102   -0.8685   -0.2946 H   0  0  0  0  0  0  0  0  0  0  0  0
   -1.1292   -0.4875    0.3524 C   0  0  1  0  0  0  0  0  0  0  0  0
   -0.3087   -1.1556    0.0882 H   0  0  0  0  0  0  0  0  0  0  0  0
   -1.1749    0.6534   -0.6787 C   0  0  0  0  0  0  0  0  0  0  0  0
   -0.7929    1.5645   -0.2163 H   0  0  0  0  0  0  0  0  0  0  0  0
   -0.5120    0.4058   -1.5094 H   0  0  0  0  0  0  0  0  0  0  0  0
   -2.5637    0.9440   -1.2140 C   0  0  0  0  0  0  0  0  0  0  0  0
   -3.4115   -0.1125   -1.6031 C   0  0  0  0  0  0  0  0  0  0  0  0
   -3.0632   -1.1354   -1.5453 H   0  0  0  0  0  0  0  0  0  0  0  0
   -4.7151    0.1602   -2.0616 C   0  0  0  0  0  0  0  0  0  0  0  0
   -5.3611   -0.6511   -2.3602 H   0  0  0  0  0  0  0  0  0  0  0  0
   -5.1733    1.4942   -2.1274 C   0  0  0  0  0  0  0  0  0  0  0  0
   -6.4298    1.7674   -2.5653 O   0  0  0  0  0  0  0  0  0  0  0  0
   -6.8782    0.9843   -2.8873 H   0  0  0  0  0  0  0  0  0  0  0  0
   -4.3253    2.5497   -1.7330 C   0  0  0  0  0  0  0  0  0  0  0  0
   -4.6856    3.5657   -1.7920 H   0  0  0  0  0  0  0  0  0  0  0  0
   -3.0212    2.2742   -1.2796 C   0  0  0  0  0  0  0  0  0  0  0  0
   -2.3671    3.0864   -0.9855 H   0  0  0  0  0  0  0  0  0  0  0  0
   -0.8664    0.0378    1.7736 C   0  0  0  0  0  0  0  0  0  0  0  0
    0.2529   -0.0672    2.2760 O   0  0  0  0  0  0  0  0  0  0  0  0
   -1.8947    0.5991    2.4221 N   0  0  0  0  0  0  0  0  0  0  0  0
   -2.7942    0.5936    1.9635 H   0  0  0  0  0  0  0  0  0  0  0  0
   -1.8170    1.1453    3.7750 C   0  0  0  0  0  0  0  0  0  0  0  0
   -0.9697    1.8290    3.8506 H   0  0  0  0  0  0  0  0  0  0  0  0
   -2.7354    1.6828    4.0167 H   0  0  0  0  0  0  0  0  0  0  0  0
   -1.6754    0.3334    4.4914 H   0  0  0  0  0  0  0  0  0  0  0  0
  5  6  2  0  0  0  0
  5  7  1  0  0  0  0
  2  3  1  0  0  0  0
  2  4  1  0  0  0  0
  2  5  1  0  0  0  0
  1  2  1  0  0  0  0
 26 27  2  0  0  0  0
 26 28  1  0  0  0  0
 24 25  1  0  0  0  0
 22 23  1  0  0  0  0
 22 24  2  0  0  0  0
 20 21  1  0  0  0  0
 19 20  1  0  0  0  0
 19 22  1  0  0  0  0
 17 18  1  0  0  0  0
 17 19  2  0  0  0  0
 15 16  1  0  0  0  0
 15 17  1  0  0  0  0
 14 15  2  0  0  0  0
 14 24  1  0  0  0  0
 11 12  1  0  0  0  0
 11 13  1  0  0  0  0
 11 14  1  0  0  0  0
  9 10  1  0  0  0  0
  9 11  1  0  0  0  0
  9 26  1  0  0  0  0
  7  8  1  0  0  0  0
  7  9  1  0  0  0  0
 30 31  1  0  0  0  0
 30 32  1  0  0  0  0
 30 33  1  0  0  0  0
 28 29  1  0  0  0  0
 28 30  1  0  0  0  0
M  END
$$$$
default_name
  -OEChem-02102213163D

 33 33  0     1  0  0  0  0  0999 V2000
   -4.0702   -3.8485    1.4554 H   0  0  0  0  0  0  0  0  0  0  0  0
   -4.0012   -2.9605    0.8284 C   0  0  0  0  0  0  0  0  0  0  0  0
   -4.7652   -2.2435    1.1234 H   0  0  0  0  0  0  0  0  0  0  0  0
   -4.1352   -3.2385   -0.2156 H   0  0  0  0  0  0  0  0  0  0  0  0
   -2.6362   -2.3395    1.0094 C   0  0  0  0  0  0  0  0  0  0  0  0
   -1.8292   -2.8395    1.7814 O   0  0  0  0  0  0  0  0  0  0  0  0
   -2.3832   -1.2445    0.2964 N   0  0  0  0  0  0  0  0  0  0  0  0
   -3.1102   -0.8685   -0.2946 H   0  0  0  0  0  0  0  0  0  0  0  0
   -1.1292   -0.4875    0.3524 C   0  0  1  0  0  0  0  0  0  0  0  0
   -0.3087   -1.1556    0.0882 H   0  0  0  0  0  0  0  0  0  0  0  0
   -1.1749    0.6534   -0.6787 C   0  0  0  0  0  0  0  0  0  0  0  0
   -0.7929    1.5645   -0.2163 H   0  0  0  0  0  0  0  0  0  0  0  0
   -0.5120    0.4058   -1.5094 H   0  0  0  0  0  0  0  0  0  0  0  0
   -2.5637    0.9440   -1.2140 C   0  0  0  0  0  0  0  0  0  0  0  0
   -3.5207   -0.0866   -1.3060 C   0  0  0  0  0  0  0  0  0  0  0  0
   -3.2581   -1.0963   -1.0185 H   0  0  0  0  0  0  0  0  0  0  0  0
   -4.8216    0.1965   -1.7658 C   0  0  0  0  0  0  0  0  0  0  0  0
   -5.5513   -0.5954   -1.8364 H   0  0  0  0  0  0  0  0  0  0  0  0
   -5.1673    1.5158   -2.1312 C   0  0  0  0  0  0  0  0  0  0  0  0
   -6.4201    1.7996   -2.5730 O   0  0  0  0  0  0  0  0  0  0  0  0
   -6.9524    1.0103   -2.6806 H   0  0  0  0  0  0  0  0  0  0  0  0
   -4.2099    2.5467   -2.0339 C   0  0  0  0  0  0  0  0  0  0  0  0
   -4.4850    3.5506   -2.3204 H   0  0  0  0  0  0  0  0  0  0  0  0
   -2.9091    2.2597   -1.5783 C   0  0  0  0  0  0  0  0  0  0  0  0
   -2.1714    3.0506   -1.5126 H   0  0  0  0  0  0  0  0  0  0  0  0
   -0.8664    0.0378    1.7736 C   0  0  0  0  0  0  0  0  0  0  0  0
    0.2529   -0.0672    2.2760 O   0  0  0  0  0  0  0  0  0  0  0  0
   -1.8947    0.5991    2.4221 N   0  0  0  0  0  0  0  0  0  0  0  0
   -2.7942    0.5936    1.9635 H   0  0  0  0  0  0  0  0  0  0  0  0
   -1.8170    1.1453    3.7750 C   0  0  0  0  0  0  0  0  0  0  0  0
   -0.9697    1.8290    3.8506 H   0  0  0  0  0  0  0  0  0  0  0  0
   -2.7354    1.6828    4.0167 H   0  0  0  0  0  0  0  0  0  0  0  0
   -1.6754    0.3334    4.4914 H   0  0  0  0  0  0  0  0  0  0  0  0
  5  6  2  0  0  0  0
  5  7  1  0  0  0  0
  2  3  1  0  0  0  0
  2  4  1  0  0  0  0
  2  5  1  0  0  0  0
  1  2  1  0  0  0  0
 26 27  2  0  0  0  0
 26 28  1  0  0  0  0
 24 25  1  0  0  0  0
 22 23  1  0  0  0  0
 22 24  2  0  0  0  0
 20 21  1  0  0  0  0
 19 20  1  0  0  0  0
 19 22  1  0  0  0  0
 17 18  1  0  0  0  0
 17 19  2  0  0  0  0
 15 16  1  0  0  0  0
 15 17  1  0  0  0  0
 14 15  2  0  0  0  0
 14 24  1  0  0  0  0
 11 12  1  0  0  0  0
 11 13  1  0  0  0  0
 11 14  1  0  0  0  0
  9 10  1  0  0  0  0
  9 11  1  0  0  0  0
  9 26  1  0  0  0  0
  7  8  1  0  0  0  0
  7  9  1  0  0  0  0
 30 31  1  0  0  0  0
 30 32  1  0  0  0  0
 30 33  1  0  0  0  0
 28 29  1  0  0  0  0
 28 30  1  0  0  0  0
M  END
$$$$
default_name
  -OEChem-02102213163D

 33 33  0     1  0  0  0  0  0999 V2000
   -4.0702   -3.8485    1.4554 H   0  0  0  0  0  0  0  0  0  0  0  0
   -4.0012   -2.9605    0.8284 C   0  0  0  0  0  0  0  0  0  0  0  0
   -4.7652   -2.2435    1.1234 H   0  0  0  0  0  0  0  0  0  0  0  0
   -4.1352   -3.2385   -0.2156 H   0  0  0  0  0  0  0  0  0  0  0  0
   -2.6362   -2.3395    1.0094 C   0  0  0  0  0  0  0  0  0  0  0  0
   -1.8292   -2.8395    1.7814 O   0  0  0  0  0  0  0  0  0  0  0  0
   -2.3832   -1.2445    0.2964 N   0  0  0  0  0  0  0  0  0  0  0  0
   -3.1102   -0.8685   -0.2946 H   0  0  0  0  0  0  0  0  0  0  0  0
   -1.1292   -0.4875    0.3524 C   0  0  1  0  0  0  0  0  0  0  0  0
   -0.3087   -1.1556    0.0882 H   0  0  0  0  0  0  0  0  0  0  0  0
   -1.1749    0.6534   -0.6787 C   0  0  0  0  0  0  0  0  0  0  0  0
   -0.7929    1.5645   -0.2163 H   0  0  0  0  0  0  0  0  0  0  0  0
   -0.5120    0.4058   -1.5094 H   0  0  0  0  0  0  0  0  0  0  0  0
   -2.5637    0.9440   -1.2140 C   0  0  0  0  0  0  0  0  0  0  0  0
   -3.6090    0.0188   -1.0197 C   0  0  0  0  0  0  0  0  0  0  0  0
   -3.4167   -0.9158   -0.5093 H   0  0  0  0  0  0  0  0  0  0  0  0
   -4.9064    0.3113   -1.4833 C   0  0  0  0  0  0  0  0  0  0  0  0
   -5.7041   -0.4001   -1.3342 H   0  0  0  0  0  0  0  0  0  0  0  0
   -5.1598    1.5352   -2.1403 C   0  0  0  0  0  0  0  0  0  0  0  0
   -6.4082    1.8280   -2.5885 O   0  0  0  0  0  0  0  0  0  0  0  0
   -7.0115    1.0911   -2.4835 H   0  0  0  0  0  0  0  0  0  0  0  0
   -4.1137    2.4619   -2.3295 C   0  0  0  0  0  0  0  0  0  0  0  0
   -4.3189    3.3924   -2.8371 H   0  0  0  0  0  0  0  0  0  0  0  0
   -2.8169    2.1646   -1.8690 C   0  0  0  0  0  0  0  0  0  0  0  0
   -2.0117    2.8731   -2.0230 H   0  0  0  0  0  0  0  0  0  0  0  0
   -0.8664    0.0378    1.7736 C   0  0  0  0  0  0  0  0  0  0  0  0
    0.2529   -0.0672    2.2760 O   0  0  0  0  0  0  0  0  0  0  0  0
   -1.8947    0.5991    2.4221 N   0  0  0  0  0  0  0  0  0  0  0  0
   -2.7942    0.5936    1.9635 H   0  0  0  0  0  0  0  0  0  0  0  0
   -1.8170    1.1453    3.7750 C   0  0  0  0  0  0  0  0  0  0  0  0
   -0.9697    1.8290    3.8506 H   0  0  0  0  0  0  0  0  0  0  0  0
   -2.7354    1.6828    4.0167 H   0  0  0  0  0  0  0  0  0  0  0  0
   -1.6754    0.3334    4.4914 H   0  0  0  0  0  0  0  0  0  0  0  0
  5  6  2  0  0  0  0
  5  7  1  0  0  0  0
  2  3  1  0  0  0  0
  2  4  1  0  0  0  0
  2  5  1  0  0  0  0
  1  2  1  0  0  0  0
 26 27  2  0  0  0  0
 26 28  1  0  0  0  0
 24 25  1  0  0  0  0
 22 23  1  0  0  0  0
 22 24  2  0  0  0  0
 20 21  1  0  0  0  0
 19 20  1  0  0  0  0
 19 22  1  0  0  0  0
 17 18  1  0  0  0  0
 17 19  2  0  0  0  0
 15 16  1  0  0  0  0
 15 17  1  0  0  0  0
 14 15  2  0  0  0  0
 14 24  1  0  0  0  0
 11 12  1  0  0  0  0
 11 13  1  0  0  0  0
 11 14  1  0  0  0  0
  9 10  1  0  0  0  0
  9 11  1  0  0  0  0
  9 26  1  0  0  0  0
  7  8  1  0  0  0  0
  7  9  1  0  0  0  0
 30 31  1  0  0  0  0
 30 32  1  0  0  0  0
 30 33  1  0  0  0  0
 28 29  1  0  0  0  0
 28 30  1  0  0  0  0
M  END
$$$$
default_name
  -OEChem-02102213163D

 33 33  0     1  0  0  0  0  0999 V2000
   -4.0702   -3.8485    1.4554 H   0  0  0  0  0  0  0  0  0  0  0  0
   -4.0012   -2.9605    0.8284 C   0  0  0  0  0  0  0  0  0  0  0  0
   -4.7652   -2.2435    1.1234 H   0  0  0  0  0  0  0  0  0  0  0  0
   -4.1352   -3.2385   -0.2156 H   0  0  0  0  0  0  0  0  0  0  0  0
   -2.6362   -2.3395    1.0094 C   0  0  0  0  0  0  0  0  0  0  0  0
   -1.8292   -2.8395    1.7814 O   0  0  0  0  0  0  0  0  0  0  0  0
   -2.3832   -1.2445    0.2964 N   0  0  0  0  0  0  0  0  0  0  0  0
   -3.1102   -0.8685   -0.2946 H   0  0  0  0  0  0  0  0  0  0  0  0
   -1.1292   -0.4875    0.3524 C   0  0  1  0  0  0  0  0  0  0  0  0
   -0.3087   -1.1556    0.0882 H   0  0  0  0  0  0  0  0  0  0  0  0
   -1.1749    0.6534   -0.6787 C   0  0  0  0  0  0  0  0  0  0  0  0
   -0.7929    1.5645   -0.2163 H   0  0  0  0  0  0  0  0  0  0  0  0
   -0.5120    0.4058   -1.5094 H   0  0  0  0  0  0  0  0  0  0  0  0
   -2.5637    0.9440   -1.2140 C   0  0  0  0  0  0  0  0  0  0  0  0
   -3.6705    0.1965   -0.7638 C   0  0  0  0  0  0  0  0  0  0  0  0
   -3.5281   -0.6063   -0.0523 H   0  0  0  0  0  0  0  0  0  0  0  0
   -4.9639    0.4969   -1.2336 C   0  0  0  0  0  0  0  0  0  0  0  0
   -5.8089   -0.0785   -0.8878 H   0  0  0  0  0  0  0  0  0  0  0  0
   -5.1511    1.5511   -2.1540 C   0  0  0  0  0  0  0  0  0  0  0  0
   -6.3948    1.8506   -2.6108 O   0  0  0  0  0  0  0  0  0  0  0  0
   -7.0514    1.2214   -2.3093 H   0  0  0  0  0  0  0  0  0  0  0  0
   -4.0431    2.3012   -2.5998 C   0  0  0  0  0  0  0  0  0  0  0  0
   -4.1985    3.1019   -3.3070 H   0  0  0  0  0  0  0  0  0  0  0  0
   -2.7510    1.9955   -2.1319 C   0  0  0  0  0  0  0  0  0  0  0  0
   -1.8990    2.5662   -2.4819 H   0  0  0  0  0  0  0  0  0  0  0  0
   -0.8664    0.0378    1.7736 C   0  0  0  0  0  0  0  0  0  0  0  0
    0.2529   -0.0672    2.2760 O   0  0  0  0  0  0  0  0  0  0  0  0
   -1.8947    0.5991    2.4221 N   0  0  0  0  0  0  0  0  0  0  0  0
   -2.7942    0.5936    1.9635 H   0  0  0  0  0  0  0  0  0  0  0  0
   -1.8170    1.1453    3.7750 C   0  0  0  0  0  0  0  0  0  0  0  0
   -0.9697    1.8290    3.8506 H   0  0  0  0  0  0  0  0  0  0  0  0
   -2.7354    1.6828    4.0167 H   0  0  0  0  0  0  0  0  0  0  0  0
   -1.6754    0.3334    4.4914 H   0  0  0  0  0  0  0  0  0  0  0  0
  5  6  2  0  0  0  0
  5  7  1  0  0  0  0
  2  3  1  0  0  0  0
  2  4  1  0  0  0  0
  2  5  1  0  0  0  0
  1  2  1  0  0  0  0
 26 27  2  0  0  0  0
 26 28  1  0  0  0  0
 24 25  1  0  0  0  0
 22 23  1  0  0  0  0
 22 24  2  0  0  0  0
 20 21  1  0  0  0  0
 19 20  1  0  0  0  0
 19 22  1  0  0  0  0
 17 18  1  0  0  0  0
 17 19  2  0  0  0  0
 15 16  1  0  0  0  0
 15 17  1  0  0  0  0
 14 15  2  0  0  0  0
 14 24  1  0  0  0  0
 11 12  1  0  0  0  0
 11 13  1  0  0  0  0
 11 14  1  0  0  0  0
  9 10  1  0  0  0  0
  9 11  1  0  0  0  0
  9 26  1  0  0  0  0
  7  8  1  0  0  0  0
  7  9  1  0  0  0  0
 30 31  1  0  0  0  0
 30 32  1  0  0  0  0
 30 33  1  0  0  0  0
 28 29  1  0  0  0  0
 28 30  1  0  0  0  0
M  END
$$$$
default_name
  -OEChem-02102213163D

 33 33  0     1  0  0  0  0  0999 V2000
   -4.0702   -3.8485    1.4554 H   0  0  0  0  0  0  0  0  0  0  0  0
   -4.0012   -2.9605    0.8284 C   0  0  0  0  0  0  0  0  0  0  0  0
   -4.7652   -2.2435    1.1234 H   0  0  0  0  0  0  0  0  0  0  0  0
   -4.1352   -3.2385   -0.2156 H   0  0  0  0  0  0  0  0  0  0  0  0
   -2.6362   -2.3395    1.0094 C   0  0  0  0  0  0  0  0  0  0  0  0
   -1.8292   -2.8395    1.7814 O   0  0  0  0  0  0  0  0  0  0  0  0
   -2.3832   -1.2445    0.2964 N   0  0  0  0  0  0  0  0  0  0  0  0
   -3.1102   -0.8685   -0.2946 H   0  0  0  0  0  0  0  0  0  0  0  0
   -1.1292   -0.4875    0.3524 C   0  0  1  0  0  0  0  0  0  0  0  0
   -0.3087   -1.1556    0.0882 H   0  0  0  0  0  0  0  0  0  0  0  0
   -1.1749    0.6534   -0.6787 C   0  0  0  0  0  0  0  0  0  0  0  0
   -0.7929    1.5645   -0.2163 H   0  0  0  0  0  0  0  0  0  0  0  0
   -0.5120    0.4058   -1.5094 H   0  0  0  0  0  0  0  0  0  0  0  0
   -2.5637    0.9440   -1.2140 C   0  0  0  0  0  0  0  0  0  0  0  0
   -3.7009    0.4345   -0.5557 C   0  0  0  0  0  0  0  0  0  0  0  0
   -3.5848   -0.1889    0.3212 H   0  0  0  0  0  0  0  0  0  0  0  0
   -4.9901    0.7407   -1.0334 C   0  0  0  0  0  0  0  0  0  0  0  0
   -5.8586    0.3476   -0.5277 H   0  0  0  0  0  0  0  0  0  0  0  0
   -5.1420    1.5624   -2.1715 C   0  0  0  0  0  0  0  0  0  0  0  0
   -6.3810    1.8660   -2.6384 O   0  0  0  0  0  0  0  0  0  0  0  0
   -7.0695    1.3921   -2.1700 H   0  0  0  0  0  0  0  0  0  0  0  0
   -4.0031    2.0754   -2.8262 C   0  0  0  0  0  0  0  0  0  0  0  0
   -4.1321    2.6990   -3.6980 H   0  0  0  0  0  0  0  0  0  0  0  0
   -2.7158    1.7638   -2.3489 C   0  0  0  0  0  0  0  0  0  0  0  0
   -1.8410    2.1506   -2.8579 H   0  0  0  0  0  0  0  0  0  0  0  0
   -0.8664    0.0378    1.7736 C   0  0  0  0  0  0  0  0  0  0  0  0
    0.2529   -0.0672    2.2760 O   0  0  0  0  0  0  0  0  0  0  0  0
   -1.8947    0.5991    2.4221 N   0  0  0  0  0  0  0  0  0  0  0  0
   -2.7942    0.5936    1.9635 H   0  0  0  0  0  0  0  0  0  0  0  0
   -1.8170    1.1453    3.7750 C   0  0  0  0  0  0  0  0  0  0  0  0
   -0.9697    1.8290    3.8506 H   0  0  0  0  0  0  0  0  0  0  0  0
   -2.7354    1.6828    4.0167 H   0  0  0  0  0  0  0  0  0  0  0  0
   -1.6754    0.3334    4.4914 H   0  0  0  0  0  0  0  0  0  0  0  0
  5  6  2  0  0  0  0
  5  7  1  0  0  0  0
  2  3  1  0  0  0  0
  2  4  1  0  0  0  0
  2  5  1  0  0  0  0
  1  2  1  0  0  0  0
 26 27  2  0  0  0  0
 26 28  1  0  0  0  0
 24 25  1  0  0  0  0
 22 23  1  0  0  0  0
 22 24  2  0  0  0  0
 20 21  1  0  0  0  0
 19 20  1  0  0  0  0
 19 22  1  0  0  0  0
 17 18  1  0  0  0  0
 17 19  2  0  0  0  0
 15 16  1  0  0  0  0
 15 17  1  0  0  0  0
 14 15  2  0  0  0  0
 14 24  1  0  0  0  0
 11 12  1  0  0  0  0
 11 13  1  0  0  0  0
 11 14  1  0  0  0  0
  9 10  1  0  0  0  0
  9 11  1  0  0  0  0
  9 26  1  0  0  0  0
  7  8  1  0  0  0  0
  7  9  1  0  0  0  0
 30 31  1  0  0  0  0
 30 32  1  0  0  0  0
 30 33  1  0  0  0  0
 28 29  1  0  0  0  0
 28 30  1  0  0  0  0
M  END
$$$$
default_name
  -OEChem-02102213163D

 33 33  0     1  0  0  0  0  0999 V2000
   -4.0702   -3.8485    1.4554 H   0  0  0  0  0  0  0  0  0  0  0  0
   -4.0012   -2.9605    0.8284 C   0  0  0  0  0  0  0  0  0  0  0  0
   -4.7652   -2.2435    1.1234 H   0  0  0  0  0  0  0  0  0  0  0  0
   -4.1352   -3.2385   -0.2156 H   0  0  0  0  0  0  0  0  0  0  0  0
   -2.6362   -2.3395    1.0094 C   0  0  0  0  0  0  0  0  0  0  0  0
   -1.8292   -2.8395    1.7814 O   0  0  0  0  0  0  0  0  0  0  0  0
   -2.3832   -1.2445    0.2964 N   0  0  0  0  0  0  0  0  0  0  0  0
   -3.1102   -0.8685   -0.2946 H   0  0  0  0  0  0  0  0  0  0  0  0
   -1.1292   -0.4875    0.3524 C   0  0  1  0  0  0  0  0  0  0  0  0
   -0.3087   -1.1556    0.0882 H   0  0  0  0  0  0  0  0  0  0  0  0
   -1.1749    0.6534   -0.6787 C   0  0  0  0  0  0  0  0  0  0  0  0
   -0.7929    1.5645   -0.2163 H   0  0  0  0  0  0  0  0  0  0  0  0
   -0.5120    0.4058   -1.5094 H   0  0  0  0  0  0  0  0  0  0  0  0
   -2.5637    0.9440   -1.2140 C   0  0  0  0  0  0  0  0  0  0  0  0
   -3.6983    0.7165   -0.4095 C   0  0  0  0  0  0  0  0  0  0  0  0
   -3.5829    0.3081    0.5860 H   0  0  0  0  0  0  0  0  0  0  0  0
   -4.9831    1.0260   -0.8966 C   0  0  0  0  0  0  0  0  0  0  0  0
   -5.8498    0.8490   -0.2784 H   0  0  0  0  0  0  0  0  0  0  0  0
   -5.1331    1.5684   -2.1915 C   0  0  0  0  0  0  0  0  0  0  0  0
   -6.3676    1.8730   -2.6693 O   0  0  0  0  0  0  0  0  0  0  0  0
   -7.0643    1.5916   -2.0749 H   0  0  0  0  0  0  0  0  0  0  0  0
   -3.9962    1.8000   -2.9934 C   0  0  0  0  0  0  0  0  0  0  0  0
   -4.1241    2.2110   -3.9834 H   0  0  0  0  0  0  0  0  0  0  0  0
   -2.7137    1.4853   -2.5054 C   0  0  0  0  0  0  0  0  0  0  0  0
   -1.8415    1.6548   -3.1256 H   0  0  0  0  0  0  0  0  0  0  0  0
   -0.8664    0.0378    1.7736 C   0  0  0  0  0  0  0  0  0  0  0  0
    0.2529   -0.0672    2.2760 O   0  0  0  0  0  0  0  0  0  0  0  0
   -1.8947    0.5991    2.4221 N   0  0  0  0  0  0  0  0  0  0  0  0
   -2.7942    0.5936    1.9635 H   0  0  0  0  0  0  0  0  0  0  0  0
   -1.8170    1.1453    3.7750 C   0  0  0  0  0  0  0  0  0  0  0  0
   -0.9697    1.8290    3.8506 H   0  0  0  0  0  0  0  0  0  0  0  0
   -2.7354    1.6828    4.0167 H   0  0  0  0  0  0  0  0  0  0  0  0
   -1.6754    0.3334    4.4914 H   0  0  0  0  0  0  0  0  0  0  0  0
  5  6  2  0  0  0  0
  5  7  1  0  0  0  0
  2  3  1  0  0  0  0
  2  4  1  0  0  0  0
  2  5  1  0  0  0  0
  1  2  1  0  0  0  0
 26 27  2  0  0  0  0
 26 28  1  0  0  0  0
 24 25  1  0  0  0  0
 22 23  1  0  0  0  0
 22 24  2  0  0  0  0
 20 21  1  0  0  0  0
 19 20  1  0  0  0  0
 19 22  1  0  0  0  0
 17 18  1  0  0  0  0
 17 19  2  0  0  0  0
 15 16  1  0  0  0  0
 15 17  1  0  0  0  0
 14 15  2  0  0  0  0
 14 24  1  0  0  0  0
 11 12  1  0  0  0  0
 11 13  1  0  0  0  0
 11 14  1  0  0  0  0
  9 10  1  0  0  0  0
  9 11  1  0  0  0  0
  9 26  1  0  0  0  0
  7  8  1  0  0  0  0
  7  9  1  0  0  0  0
 30 31  1  0  0  0  0
 30 32  1  0  0  0  0
 30 33  1  0  0  0  0
 28 29  1  0  0  0  0
 28 30  1  0  0  0  0
M  END
$$$$
default_name
  -OEChem-02102213163D

 33 33  0     1  0  0  0  0  0999 V2000
   -4.0702   -3.8485    1.4554 H   0  0  0  0  0  0  0  0  0  0  0  0
   -4.0012   -2.9605    0.8284 C   0  0  0  0  0  0  0  0  0  0  0  0
   -4.7652   -2.2435    1.1234 H   0  0  0  0  0  0  0  0  0  0  0  0
   -4.1352   -3.2385   -0.2156 H   0  0  0  0  0  0  0  0  0  0  0  0
   -2.6362   -2.3395    1.0094 C   0  0  0  0  0  0  0  0  0  0  0  0
   -1.8292   -2.8395    1.7814 O   0  0  0  0  0  0  0  0  0  0  0  0
   -2.3832   -1.2445    0.2964 N   0  0  0  0  0  0  0  0  0  0  0  0
   -3.1102   -0.8685   -0.2946 H   0  0  0  0  0  0  0  0  0  0  0  0
   -1.1292   -0.4875    0.3524 C   0  0  1  0  0  0  0  0  0  0  0  0
   -0.3087   -1.1556    0.0882 H   0  0  0  0  0  0  0  0  0  0  0  0
   -1.1749    0.6534   -0.6787 C   0  0  0  0  0  0  0  0  0  0  0  0
   -0.7929    1.5645   -0.2163 H   0  0  0  0  0  0  0  0  0  0  0  0
   -0.5120    0.4058   -1.5094 H   0  0  0  0  0  0  0  0  0  0  0  0
   -2.5637    0.9440   -1.2140 C   0  0  0  0  0  0  0  0  0  0  0  0
   -3.6627    1.0232   -0.3353 C   0  0  0  0  0  0  0  0  0  0  0  0
   -3.5225    0.8506    0.7238 H   0  0  0  0  0  0  0  0  0  0  0  0
   -4.9436    1.3333   -0.8324 C   0  0  0  0  0  0  0  0  0  0  0  0
   -5.7831    1.3917   -0.1568 H   0  0  0  0  0  0  0  0  0  0  0  0
   -5.1248    1.5686   -2.2127 C   0  0  0  0  0  0  0  0  0  0  0  0
   -6.3555    1.8712   -2.7015 O   0  0  0  0  0  0  0  0  0  0  0  0
   -7.0365    1.8064   -2.0307 H   0  0  0  0  0  0  0  0  0  0  0  0
   -4.0231    1.4937   -3.0899 C   0  0  0  0  0  0  0  0  0  0  0  0
   -4.1752    1.6713   -4.1439 H   0  0  0  0  0  0  0  0  0  0  0  0
   -2.7449    1.1790   -2.5907 C   0  0  0  0  0  0  0  0  0  0  0  0
   -1.9006    1.1125   -3.2665 H   0  0  0  0  0  0  0  0  0  0  0  0
   -0.8664    0.0378    1.7736 C   0  0  0  0  0  0  0  0  0  0  0  0
    0.2529   -0.0672    2.2760 O   0  0  0  0  0  0  0  0  0  0  0  0
   -1.8947    0.5991    2.4221 N   0  0  0  0  0  0  0  0  0  0  0  0
   -2.7942    0.5936    1.9635 H   0  0  0  0  0  0  0  0  0  0  0  0
   -1.8170    1.1453    3.7750 C   0  0  0  0  0  0  0  0  0  0  0  0
   -0.9697    1.8290    3.8506 H   0  0  0  0  0  0  0  0  0  0  0  0
   -2.7354    1.6828    4.0167 H   0  0  0  0  0  0  0  0  0  0  0  0
   -1.6754    0.3334    4.4914 H   0  0  0  0  0  0  0  0  0  0  0  0
  5  6  2  0  0  0  0
  5  7  1  0  0  0  0
  2  3  1  0  0  0  0
  2  4  1  0  0  0  0
  2  5  1  0  0  0  0
  1  2  1  0  0  0  0
 26 27  2  0  0  0  0
 26 28  1  0  0  0  0
 24 25  1  0  0  0  0
 22 23  1  0  0  0  0
 22 24  2  0  0  0  0
 20 21  1  0  0  0  0
 19 20  1  0  0  0  0
 19 22  1  0  0  0  0
 17 18  1  0  0  0  0
 17 19  2  0  0  0  0
 15 16  1  0  0  0  0
 15 17  1  0  0  0  0
 14 15  2  0  0  0  0
 14 24  1  0  0  0  0
 11 12  1  0  0  0  0
 11 13  1  0  0  0  0
 11 14  1  0  0  0  0
  9 10  1  0  0  0  0
  9 11  1  0  0  0  0
  9 26  1  0  0  0  0
  7  8  1  0  0  0  0
  7  9  1  0  0  0  0
 30 31  1  0  0  0  0
 30 32  1  0  0  0  0
 30 33  1  0  0  0  0
 28 29  1  0  0  0  0
 28 30  1  0  0  0  0
M  END
$$$$
default_name
  -OEChem-02102213163D

 33 33  0     1  0  0  0  0  0999 V2000
   -4.0702   -3.8485    1.4554 H   0  0  0  0  0  0  0  0  0  0  0  0
   -4.0012   -2.9605    0.8284 C   0  0  0  0  0  0  0  0  0  0  0  0
   -4.7652   -2.2435    1.1234 H   0  0  0  0  0  0  0  0  0  0  0  0
   -4.1352   -3.2385   -0.2156 H   0  0  0  0  0  0  0  0  0  0  0  0
   -2.6362   -2.3395    1.0094 C   0  0  0  0  0  0  0  0  0  0  0  0
   -1.8292   -2.8395    1.7814 O   0  0  0  0  0  0  0  0  0  0  0  0
   -2.3832   -1.2445    0.2964 N   0  0  0  0  0  0  0  0  0  0  0  0
   -3.1102   -0.8685   -0.2946 H   0  0  0  0  0  0  0  0  0  0  0  0
   -1.1292   -0.4875    0.3524 C   0  0  1  0  0  0  0  0  0  0  0  0
   -0.3087   -1.1556    0.0882 H   0  0  0  0  0  0  0  0  0  0  0  0
   -1.1749    0.6534   -0.6787 C   0  0  0  0  0  0  0  0  0  0  0  0
   -0.7929    1.5645   -0.2163 H   0  0  0  0  0  0  0  0  0  0  0  0
   -0.5120    0.4058   -1.5094 H   0  0  0  0  0  0  0  0  0  0  0  0
   -2.5637    0.9440   -1.2140 C   0  0  0  0  0  0  0  0  0  0  0  0
   -3.5967    1.3339   -0.3381 C   0  0  0  0  0  0  0  0  0  0  0  0
   -3.4078    1.4019    0.7253 H   0  0  0  0  0  0  0  0  0  0  0  0
   -4.8741    1.6418   -0.8452 C   0  0  0  0  0  0  0  0  0  0  0  0
   -5.6632    1.9385   -0.1714 H   0  0  0  0  0  0  0  0  0  0  0  0
   -5.1179    1.5630   -2.2337 C   0  0  0  0  0  0  0  0  0  0  0  0
   -6.3456    1.8608   -2.7329 O   0  0  0  0  0  0  0  0  0  0  0  0
   -6.9877    2.0219   -2.0402 H   0  0  0  0  0  0  0  0  0  0  0  0
   -4.0818    1.1774   -3.1092 C   0  0  0  0  0  0  0  0  0  0  0  0
   -4.2818    1.1166   -4.1684 H   0  0  0  0  0  0  0  0  0  0  0  0
   -2.8073    0.8658   -2.5989 C   0  0  0  0  0  0  0  0  0  0  0  0
   -2.0143    0.5607   -3.2712 H   0  0  0  0  0  0  0  0  0  0  0  0
   -0.8664    0.0378    1.7736 C   0  0  0  0  0  0  0  0  0  0  0  0
    0.2529   -0.0672    2.2760 O   0  0  0  0  0  0  0  0  0  0  0  0
   -1.8947    0.5991    2.4221 N   0  0  0  0  0  0  0  0  0  0  0  0
   -2.7942    0.5936    1.9635 H   0  0  0  0  0  0  0  0  0  0  0  0
   -1.8170    1.1453    3.7750 C   0  0  0  0  0  0  0  0  0  0  0  0
   -0.9697    1.8290    3.8506 H   0  0  0  0  0  0  0  0  0  0  0  0
   -2.7354    1.6828    4.0167 H   0  0  0  0  0  0  0  0  0  0  0  0
   -1.6754    0.3334    4.4914 H   0  0  0  0  0  0  0  0  0  0  0  0
  5  6  2  0  0  0  0
  5  7  1  0  0  0  0
  2  3  1  0  0  0  0
  2  4  1  0  0  0  0
  2  5  1  0  0  0  0
  1  2  1  0  0  0  0
 26 27  2  0  0  0  0
 26 28  1  0  0  0  0
 24 25  1  0  0  0  0
 22 23  1  0  0  0  0
 22 24  2  0  0  0  0
 20 21  1  0  0  0  0
 19 20  1  0  0  0  0
 19 22  1  0  0  0  0
 17 18  1  0  0  0  0
 17 19  2  0  0  0  0
 15 16  1  0  0  0  0
 15 17  1  0  0  0  0
 14 15  2  0  0  0  0
 14 24  1  0  0  0  0
 11 12  1  0  0  0  0
 11 13  1  0  0  0  0
 11 14  1  0  0  0  0
  9 10  1  0  0  0  0
  9 11  1  0  0  0  0
  9 26  1  0  0  0  0
  7  8  1  0  0  0  0
  7  9  1  0  0  0  0
 30 31  1  0  0  0  0
 30 32  1  0  0  0  0
 30 33  1  0  0  0  0
 28 29  1  0  0  0  0
 28 30  1  0  0  0  0
M  END
$$$$
default_name
  -OEChem-02102213163D

 33 33  0     1  0  0  0  0  0999 V2000
   -4.0702   -3.8485    1.4554 H   0  0  0  0  0  0  0  0  0  0  0  0
   -4.0012   -2.9605    0.8284 C   0  0  0  0  0  0  0  0  0  0  0  0
   -4.7652   -2.2435    1.1234 H   0  0  0  0  0  0  0  0  0  0  0  0
   -4.1352   -3.2385   -0.2156 H   0  0  0  0  0  0  0  0  0  0  0  0
   -2.6362   -2.3395    1.0094 C   0  0  0  0  0  0  0  0  0  0  0  0
   -1.8292   -2.8395    1.7814 O   0  0  0  0  0  0  0  0  0  0  0  0
   -2.3832   -1.2445    0.2964 N   0  0  0  0  0  0  0  0  0  0  0  0
   -3.1102   -0.8685   -0.2946 H   0  0  0  0  0  0  0  0  0  0  0  0
   -1.1292   -0.4875    0.3524 C   0  0  1  0  0  0  0  0  0  0  0  0
   -0.3087   -1.1556    0.0882 H   0  0  0  0  0  0  0  0  0  0  0  0
   -1.1749    0.6534   -0.6787 C   0  0  0  0  0  0  0  0  0  0  0  0
   -0.7929    1.5645   -0.2163 H   0  0  0  0  0  0  0  0  0  0  0  0
   -0.5120    0.4058   -1.5094 H   0  0  0  0  0  0  0  0  0  0  0  0
   -2.5637    0.9440   -1.2140 C   0  0  0  0  0  0  0  0  0  0  0  0
   -3.5046    1.6272   -0.4177 C   0  0  0  0  0  0  0  0  0  0  0  0
   -3.2465    1.9242    0.5904 H   0  0  0  0  0  0  0  0  0  0  0  0
   -4.7795    1.9304   -0.9341 C   0  0  0  0  0  0  0  0  0  0  0  0
   -5.4980    2.4524   -0.3209 H   0  0  0  0  0  0  0  0  0  0  0  0
   -5.1128    1.5520   -2.2529 C   0  0  0  0  0  0  0  0  0  0  0  0
   -6.3386    1.8424   -2.7611 O   0  0  0  0  0  0  0  0  0  0  0  0
   -6.9214    2.2233   -2.1029 H   0  0  0  0  0  0  0  0  0  0  0  0
   -4.1684    0.8727   -3.0500 C   0  0  0  0  0  0  0  0  0  0  0  0
   -4.4366    0.5848   -4.0554 H   0  0  0  0  0  0  0  0  0  0  0  0
   -2.8965    0.5670   -2.5295 C   0  0  0  0  0  0  0  0  0  0  0  0
   -2.1747    0.0369   -3.1393 H   0  0  0  0  0  0  0  0  0  0  0  0
   -0.8664    0.0378    1.7736 C   0  0  0  0  0  0  0  0  0  0  0  0
    0.2529   -0.0672    2.2760 O   0  0  0  0  0  0  0  0  0  0  0  0
   -1.8947    0.5991    2.4221 N   0  0  0  0  0  0  0  0  0  0  0  0
   -2.7942    0.5936    1.9635 H   0  0  0  0  0  0  0  0  0  0  0  0
   -1.8170    1.1453    3.7750 C   0  0  0  0  0  0  0  0  0  0  0  0
   -0.9697    1.8290    3.8506 H   0  0  0  0  0  0  0  0  0  0  0  0
   -2.7354    1.6828    4.0167 H   0  0  0  0  0  0  0  0  0  0  0  0
   -1.6754    0.3334    4.4914 H   0  0  0  0  0  0  0  0  0  0  0  0
  5  6  2  0  0  0  0
  5  7  1  0  0  0  0
  2  3  1  0  0  0  0
  2  4  1  0  0  0  0
  2  5  1  0  0  0  0
  1  2  1  0  0  0  0
 26 27  2  0  0  0  0
 26 28  1  0  0  0  0
 24 25  1  0  0  0  0
 22 23  1  0  0  0  0
 22 24  2  0  0  0  0
 20 21  1  0  0  0  0
 19 20  1  0  0  0  0
 19 22  1  0  0  0  0
 17 18  1  0  0  0  0
 17 19  2  0  0  0  0
 15 16  1  0  0  0  0
 15 17  1  0  0  0  0
 14 15  2  0  0  0  0
 14 24  1  0  0  0  0
 11 12  1  0  0  0  0
 11 13  1  0  0  0  0
 11 14  1  0  0  0  0
  9 10  1  0  0  0  0
  9 11  1  0  0  0  0
  9 26  1  0  0  0  0
  7  8  1  0  0  0  0
  7  9  1  0  0  0  0
 30 31  1  0  0  0  0
 30 32  1  0  0  0  0
 30 33  1  0  0  0  0
 28 29  1  0  0  0  0
 28 30  1  0  0  0  0
M  END
$$$$
default_name
  -OEChem-02102213163D

 33 33  0     1  0  0  0  0  0999 V2000
   -4.0702   -3.8485    1.4554 H   0  0  0  0  0  0  0  0  0  0  0  0
   -4.0012   -2.9605    0.8284 C   0  0  0  0  0  0  0  0  0  0  0  0
   -4.7652   -2.2435    1.1234 H   0  0  0  0  0  0  0  0  0  0  0  0
   -4.1352   -3.2385   -0.2156 H   0  0  0  0  0  0  0  0  0  0  0  0
   -2.6362   -2.3395    1.0094 C   0  0  0  0  0  0  0  0  0  0  0  0
   -1.8292   -2.8395    1.7814 O   0  0  0  0  0  0  0  0  0  0  0  0
   -2.3832   -1.2445    0.2964 N   0  0  0  0  0  0  0  0  0  0  0  0
   -3.1102   -0.8685   -0.2946 H   0  0  0  0  0  0  0  0  0  0  0  0
   -1.1292   -0.4875    0.3524 C   0  0  1  0  0  0  0  0  0  0  0  0
   -0.3087   -1.1556    0.0882 H   0  0  0  0  0  0  0  0  0  0  0  0
   -1.1749    0.6534   -0.6787 C   0  0  0  0  0  0  0  0  0  0  0  0
   -0.7929    1.5645   -0.2163 H   0  0  0  0  0  0  0  0  0  0  0  0
   -0.5120    0.4058   -1.5094 H   0  0  0  0  0  0  0  0  0  0  0  0
   -2.5637    0.9440   -1.2140 C   0  0  0  0  0  0  0  0  0  0  0  0
   -3.3928    1.8833   -0.5687 C   0  0  0  0  0  0  0  0  0  0  0  0
   -3.0497    2.3820    0.3283 H   0  0  0  0  0  0  0  0  0  0  0  0
   -4.6661    2.1795   -1.0930 C   0  0  0  0  0  0  0  0  0  0  0  0
   -5.2989    2.8981   -0.5954 H   0  0  0  0  0  0  0  0  0  0  0  0
   -5.1098    1.5364   -2.2691 C   0  0  0  0  0  0  0  0  0  0  0  0
   -6.3349    1.8173   -2.7844 O   0  0  0  0  0  0  0  0  0  0  0  0
   -6.8421    2.3969   -2.2145 H   0  0  0  0  0  0  0  0  0  0  0  0
   -4.2769    0.6003   -2.9163 C   0  0  0  0  0  0  0  0  0  0  0  0
   -4.6292    0.1120   -3.8124 H   0  0  0  0  0  0  0  0  0  0  0  0
   -3.0066    0.3031   -2.3872 C   0  0  0  0  0  0  0  0  0  0  0  0
   -2.3709   -0.4231   -2.8798 H   0  0  0  0  0  0  0  0  0  0  0  0
   -0.8664    0.0378    1.7736 C   0  0  0  0  0  0  0  0  0  0  0  0
    0.2529   -0.0672    2.2760 O   0  0  0  0  0  0  0  0  0  0  0  0
   -1.8947    0.5991    2.4221 N   0  0  0  0  0  0  0  0  0  0  0  0
   -2.7942    0.5936    1.9635 H   0  0  0  0  0  0  0  0  0  0  0  0
   -1.8170    1.1453    3.7750 C   0  0  0  0  0  0  0  0  0  0  0  0
   -0.9697    1.8290    3.8506 H   0  0  0  0  0  0  0  0  0  0  0  0
   -2.7354    1.6828    4.0167 H   0  0  0  0  0  0  0  0  0  0  0  0
   -1.6754    0.3334    4.4914 H   0  0  0  0  0  0  0  0  0  0  0  0
  5  6  2  0  0  0  0
  5  7  1  0  0  0  0
  2  3  1  0  0  0  0
  2  4  1  0  0  0  0
  2  5  1  0  0  0  0
  1  2  1  0  0  0  0
 26 27  2  0  0  0  0
 26 28  1  0  0  0  0
 24 25  1  0  0  0  0
 22 23  1  0  0  0  0
 22 24  2  0  0  0  0
 20 21  1  0  0  0  0
 19 20  1  0  0  0  0
 19 22  1  0  0  0  0
 17 18  1  0  0  0  0
 17 19  2  0  0  0  0
 15 16  1  0  0  0  0
 15 17  1  0  0  0  0
 14 15  2  0  0  0  0
 14 24  1  0  0  0  0
 11 12  1  0  0  0  0
 11 13  1  0  0  0  0
 11 14  1  0  0  0  0
  9 10  1  0  0  0  0
  9 11  1  0  0  0  0
  9 26  1  0  0  0  0
  7  8  1  0  0  0  0
  7  9  1  0  0  0  0
 30 31  1  0  0  0  0
 30 32  1  0  0  0  0
 30 33  1  0  0  0  0
 28 29  1  0  0  0  0
 28 30  1  0  0  0  0
M  END
$$$$
default_name
  -OEChem-02102213163D

 33 33  0     1  0  0  0  0  0999 V2000
   -4.0702   -3.8485    1.4554 H   0  0  0  0  0  0  0  0  0  0  0  0
   -4.0012   -2.9605    0.8284 C   0  0  0  0  0  0  0  0  0  0  0  0
   -4.7652   -2.2435    1.1234 H   0  0  0  0  0  0  0  0  0  0  0  0
   -4.1352   -3.2385   -0.2156 H   0  0  0  0  0  0  0  0  0  0  0  0
   -2.6362   -2.3395    1.0094 C   0  0  0  0  0  0  0  0  0  0  0  0
   -1.8292   -2.8395    1.7814 O   0  0  0  0  0  0  0  0  0  0  0  0
   -2.3832   -1.2445    0.2964 N   0  0  0  0  0  0  0  0  0  0  0  0
   -3.1102   -0.8685   -0.2946 H   0  0  0  0  0  0  0  0  0  0  0  0
   -1.1292   -0.4875    0.3524 C   0  0  1  0  0  0  0  0  0  0  0  0
   -0.3087   -1.1556    0.0882 H   0  0  0  0  0  0  0  0  0  0  0  0
   -1.1749    0.6534   -0.6787 C   0  0  0  0  0  0  0  0  0  0  0  0
   -0.7929    1.5645   -0.2163 H   0  0  0  0  0  0  0  0  0  0  0  0
   -0.5120    0.4058   -1.5094 H   0  0  0  0  0  0  0  0  0  0  0  0
   -2.5637    0.9440   -1.2140 C   0  0  0  0  0  0  0  0  0  0  0  0
   -3.2689    2.0847   -0.7808 C   0  0  0  0  0  0  0  0  0  0  0  0
   -2.8308    2.7442   -0.0431 H   0  0  0  0  0  0  0  0  0  0  0  0
   -4.5417    2.3720   -1.3113 C   0  0  0  0  0  0  0  0  0  0  0  0
   -5.0795    3.2455   -0.9761 H   0  0  0  0  0  0  0  0  0  0  0  0
   -5.1092    1.5172   -2.2813 C   0  0  0  0  0  0  0  0  0  0  0  0
   -6.3347    1.7871   -2.8011 O   0  0  0  0  0  0  0  0  0  0  0  0
   -6.7551    2.5308   -2.3674 H   0  0  0  0  0  0  0  0  0  0  0  0
   -4.4000    0.3788   -2.7172 C   0  0  0  0  0  0  0  0  0  0  0  0
   -4.8463   -0.2695   -3.4562 H   0  0  0  0  0  0  0  0  0  0  0  0
   -3.1300    0.0919   -2.1817 C   0  0  0  0  0  0  0  0  0  0  0  0
   -2.5897   -0.7880   -2.5104 H   0  0  0  0  0  0  0  0  0  0  0  0
   -0.8664    0.0378    1.7736 C   0  0  0  0  0  0  0  0  0  0  0  0
    0.2529   -0.0672    2.2760 O   0  0  0  0  0  0  0  0  0  0  0  0
   -1.8947    0.5991    2.4221 N   0  0  0  0  0  0  0  0  0  0  0  0
   -2.7942    0.5936    1.9635 H   0  0  0  0  0  0  0  0  0  0  0  0
   -1.8170    1.1453    3.7750 C   0  0  0  0  0  0  0  0  0  0  0  0
   -0.9697    1.8290    3.8506 H   0  0  0  0  0  0  0  0  0  0  0  0
   -2.7354    1.6828    4.0167 H   0  0  0  0  0  0  0  0  0  0  0  0
   -1.6754    0.3334    4.4914 H   0  0  0  0  0  0  0  0  0  0  0  0
  5  6  2  0  0  0  0
  5  7  1  0  0  0  0
  2  3  1  0  0  0  0
  2  4  1  0  0  0  0
  2  5  1  0  0  0  0
  1  2  1  0  0  0  0
 26 27  2  0  0  0  0
 26 28  1  0  0  0  0
 24 25  1  0  0  0  0
 22 23  1  0  0  0  0
 22 24  2  0  0  0  0
 20 21  1  0  0  0  0
 19 20  1  0  0  0  0
 19 22  1  0  0  0  0
 17 18  1  0  0  0  0
 17 19  2  0  0  0  0
 15 16  1  0  0  0  0
 15 17  1  0  0  0  0
 14 15  2  0  0  0  0
 14 24  1  0  0  0  0
 11 12  1  0  0  0  0
 11 13  1  0  0  0  0
 11 14  1  0  0  0  0
  9 10  1  0  0  0  0
  9 11  1  0  0  0  0
  9 26  1  0  0  0  0
  7  8  1  0  0  0  0
  7  9  1  0  0  0  0
 30 31  1  0  0  0  0
 30 32  1  0  0  0  0
 30 33  1  0  0  0  0
 28 29  1  0  0  0  0
 28 30  1  0  0  0  0
M  END
$$$$
default_name
  -OEChem-02102213163D

 33 33  0     1  0  0  0  0  0999 V2000
   -4.0702   -3.8485    1.4554 H   0  0  0  0  0  0  0  0  0  0  0  0
   -4.0012   -2.9605    0.8284 C   0  0  0  0  0  0  0  0  0  0  0  0
   -4.7652   -2.2435    1.1234 H   0  0  0  0  0  0  0  0  0  0  0  0
   -4.1352   -3.2385   -0.2156 H   0  0  0  0  0  0  0  0  0  0  0  0
   -2.6362   -2.3395    1.0094 C   0  0  0  0  0  0  0  0  0  0  0  0
   -1.8292   -2.8395    1.7814 O   0  0  0  0  0  0  0  0  0  0  0  0
   -2.3832   -1.2445    0.2964 N   0  0  0  0  0  0  0  0  0  0  0  0
   -3.1102   -0.8685   -0.2946 H   0  0  0  0  0  0  0  0  0  0  0  0
   -1.1292   -0.4875    0.3524 C   0  0  1  0  0  0  0  0  0  0  0  0
   -0.3087   -1.1556    0.0882 H   0  0  0  0  0  0  0  0  0  0  0  0
   -1.1749    0.6534   -0.6787 C   0  0  0  0  0  0  0  0  0  0  0  0
   -0.7929    1.5645   -0.2163 H   0  0  0  0  0  0  0  0  0  0  0  0
   -0.5120    0.4058   -1.5094 H   0  0  0  0  0  0  0  0  0  0  0  0
   -2.5637    0.9440   -1.2140 C   0  0  0  0  0  0  0  0  0  0  0  0
   -3.1414    2.2176   -1.0395 C   0  0  0  0  0  0  0  0  0  0  0  0
   -2.6046    2.9859   -0.4986 H   0  0  0  0  0  0  0  0  0  0  0  0
   -4.4148    2.4948   -1.5738 C   0  0  0  0  0  0  0  0  0  0  0  0
   -4.8547    3.4707   -1.4369 H   0  0  0  0  0  0  0  0  0  0  0  0
   -5.1109    1.4957   -2.2884 C   0  0  0  0  0  0  0  0  0  0  0  0
   -6.3382    1.7540   -2.8102 O   0  0  0  0  0  0  0  0  0  0  0  0
   -6.6664    2.6161   -2.5511 H   0  0  0  0  0  0  0  0  0  0  0  0
   -4.5292    0.2233   -2.4663 C   0  0  0  0  0  0  0  0  0  0  0  0
   -5.0733   -0.5337   -3.0108 H   0  0  0  0  0  0  0  0  0  0  0  0
   -3.2583   -0.0522   -1.9271 C   0  0  0  0  0  0  0  0  0  0  0  0
   -2.8160   -1.0329   -2.0562 H   0  0  0  0  0  0  0  0  0  0  0  0
   -0.8664    0.0378    1.7736 C   0  0  0  0  0  0  0  0  0  0  0  0
    0.2529   -0.0672    2.2760 O   0  0  0  0  0  0  0  0  0  0  0  0
   -1.8947    0.5991    2.4221 N   0  0  0  0  0  0  0  0  0  0  0  0
   -2.7942    0.5936    1.9635 H   0  0  0  0  0  0  0  0  0  0  0  0
   -1.8170    1.1453    3.7750 C   0  0  0  0  0  0  0  0  0  0  0  0
   -0.9697    1.8290    3.8506 H   0  0  0  0  0  0  0  0  0  0  0  0
   -2.7354    1.6828    4.0167 H   0  0  0  0  0  0  0  0  0  0  0  0
   -1.6754    0.3334    4.4914 H   0  0  0  0  0  0  0  0  0  0  0  0
  5  6  2  0  0  0  0
  5  7  1  0  0  0  0
  2  3  1  0  0  0  0
  2  4  1  0  0  0  0
  2  5  1  0  0  0  0
  1  2  1  0  0  0  0
 26 27  2  0  0  0  0
 26 28  1  0  0  0  0
 24 25  1  0  0  0  0
 22 23  1  0  0  0  0
 22 24  2  0  0  0  0
 20 21  1  0  0  0  0
 19 20  1  0  0  0  0
 19 22  1  0  0  0  0
 17 18  1  0  0  0  0
 17 19  2  0  0  0  0
 15 16  1  0  0  0  0
 15 17  1  0  0  0  0
 14 15  2  0  0  0  0
 14 24  1  0  0  0  0
 11 12  1  0  0  0  0
 11 13  1  0  0  0  0
 11 14  1  0  0  0  0
  9 10  1  0  0  0  0
  9 11  1  0  0  0  0
  9 26  1  0  0  0  0
  7  8  1  0  0  0  0
  7  9  1  0  0  0  0
 30 31  1  0  0  0  0
 30 32  1  0  0  0  0
 30 33  1  0  0  0  0
 28 29  1  0  0  0  0
 28 30  1  0  0  0  0
M  END
$$$$
default_name
  -OEChem-02102213163D

 33 33  0     1  0  0  0  0  0999 V2000
   -4.0702   -3.8485    1.4554 H   0  0  0  0  0  0  0  0  0  0  0  0
   -4.0012   -2.9605    0.8284 C   0  0  0  0  0  0  0  0  0  0  0  0
   -4.7652   -2.2435    1.1234 H   0  0  0  0  0  0  0  0  0  0  0  0
   -4.1352   -3.2385   -0.2156 H   0  0  0  0  0  0  0  0  0  0  0  0
   -2.6362   -2.3395    1.0094 C   0  0  0  0  0  0  0  0  0  0  0  0
   -1.8292   -2.8395    1.7814 O   0  0  0  0  0  0  0  0  0  0  0  0
   -2.3832   -1.2445    0.2964 N   0  0  0  0  0  0  0  0  0  0  0  0
   -3.1102   -0.8685   -0.2946 H   0  0  0  0  0  0  0  0  0  0  0  0
   -1.1292   -0.4875    0.3524 C   0  0  1  0  0  0  0  0  0  0  0  0
   -0.3087   -1.1556    0.0882 H   0  0  0  0  0  0  0  0  0  0  0  0
   -1.1749    0.6534   -0.6787 C   0  0  0  0  0  0  0  0  0  0  0  0
   -0.7929    1.5645   -0.2163 H   0  0  0  0  0  0  0  0  0  0  0  0
   -0.5120    0.4058   -1.5094 H   0  0  0  0  0  0  0  0  0  0  0  0
   -2.5637    0.9440   -1.2140 C   0  0  0  0  0  0  0  0  0  0  0  0
   -3.0189    2.2730   -1.3272 C   0  0  0  0  0  0  0  0  0  0  0  0
   -2.3867    3.0908   -1.0071 H   0  0  0  0  0  0  0  0  0  0  0  0
   -4.2940    2.5397   -1.8629 C   0  0  0  0  0  0  0  0  0  0  0  0
   -4.6399    3.5585   -1.9467 H   0  0  0  0  0  0  0  0  0  0  0  0
   -5.1149    1.4734   -2.2902 C   0  0  0  0  0  0  0  0  0  0  0  0
   -6.3450    1.7203   -2.8109 O   0  0  0  0  0  0  0  0  0  0  0  0
   -6.5821    2.6468   -2.7532 H   0  0  0  0  0  0  0  0  0  0  0  0
   -4.6559    0.1444   -2.1807 C   0  0  0  0  0  0  0  0  0  0  0  0
   -5.2946   -0.6627   -2.5068 H   0  0  0  0  0  0  0  0  0  0  0  0
   -3.3827   -0.1192   -1.6406 C   0  0  0  0  0  0  0  0  0  0  0  0
   -3.0345   -1.1411   -1.5483 H   0  0  0  0  0  0  0  0  0  0  0  0
   -0.8664    0.0378    1.7736 C   0  0  0  0  0  0  0  0  0  0  0  0
    0.2529   -0.0672    2.2760 O   0  0  0  0  0  0  0  0  0  0  0  0
   -1.8947    0.5991    2.4221 N   0  0  0  0  0  0  0  0  0  0  0  0
   -2.7942    0.5936    1.9635 H   0  0  0  0  0  0  0  0  0  0  0  0
   -1.8170    1.1453    3.7750 C   0  0  0  0  0  0  0  0  0  0  0  0
   -0.9697    1.8290    3.8506 H   0  0  0  0  0  0  0  0  0  0  0  0
   -2.7354    1.6828    4.0167 H   0  0  0  0  0  0  0  0  0  0  0  0
   -1.6754    0.3334    4.4914 H   0  0  0  0  0  0  0  0  0  0  0  0
  5  6  2  0  0  0  0
  5  7  1  0  0  0  0
  2  3  1  0  0  0  0
  2  4  1  0  0  0  0
  2  5  1  0  0  0  0
  1  2  1  0  0  0  0
 26 27  2  0  0  0  0
 26 28  1  0  0  0  0
 24 25  1  0  0  0  0
 22 23  1  0  0  0  0
 22 24  2  0  0  0  0
 20 21  1  0  0  0  0
 19 20  1  0  0  0  0
 19 22  1  0  0  0  0
 17 18  1  0  0  0  0
 17 19  2  0  0  0  0
 15 16  1  0  0  0  0
 15 17  1  0  0  0  0
 14 15  2  0  0  0  0
 14 24  1  0  0  0  0
 11 12  1  0  0  0  0
 11 13  1  0  0  0  0
 11 14  1  0  0  0  0
  9 10  1  0  0  0  0
  9 11  1  0  0  0  0
  9 26  1  0  0  0  0
  7  8  1  0  0  0  0
  7  9  1  0  0  0  0
 30 31  1  0  0  0  0
 30 32  1  0  0  0  0
 30 33  1  0  0  0  0
 28 29  1  0  0  0  0
 28 30  1  0  0  0  0
M  END
$$$$
default_name
  -OEChem-02102213163D

 33 33  0     1  0  0  0  0  0999 V2000
   -4.0702   -3.8485    1.4554 H   0  0  0  0  0  0  0  0  0  0  0  0
   -4.0012   -2.9605    0.8284 C   0  0  0  0  0  0  0  0  0  0  0  0
   -4.7652   -2.2435    1.1234 H   0  0  0  0  0  0  0  0  0  0  0  0
   -4.1352   -3.2385   -0.2156 H   0  0  0  0  0  0  0  0  0  0  0  0
   -2.6362   -2.3395    1.0094 C   0  0  0  0  0  0  0  0  0  0  0  0
   -1.8292   -2.8395    1.7814 O   0  0  0  0  0  0  0  0  0  0  0  0
   -2.3832   -1.2445    0.2964 N   0  0  0  0  0  0  0  0  0  0  0  0
   -3.1102   -0.8685   -0.2946 H   0  0  0  0  0  0  0  0  0  0  0  0
   -1.1292   -0.4875    0.3524 C   0  0  1  0  0  0  0  0  0  0  0  0
   -0.3087   -1.1556    0.0882 H   0  0  0  0  0  0  0  0  0  0  0  0
   -1.1749    0.6534   -0.6787 C   0  0  0  0  0  0  0  0  0  0  0  0
   -0.7929    1.5645   -0.2163 H   0  0  0  0  0  0  0  0  0  0  0  0
   -0.5120    0.4058   -1.5094 H   0  0  0  0  0  0  0  0  0  0  0  0
   -2.5637    0.9440   -1.2140 C   0  0  0  0  0  0  0  0  0  0  0  0
   -2.9098    2.2471   -1.6244 C   0  0  0  0  0  0  0  0  0  0  0  0
   -2.1918    3.0517   -1.5339 H   0  0  0  0  0  0  0  0  0  0  0  0
   -4.1875    2.5035   -2.1587 C   0  0  0  0  0  0  0  0  0  0  0  0
   -4.4496    3.5028   -2.4705 H   0  0  0  0  0  0  0  0  0  0  0  0
   -5.1209    1.4518   -2.2864 C   0  0  0  0  0  0  0  0  0  0  0  0
   -6.3546    1.6881   -2.8032 O   0  0  0  0  0  0  0  0  0  0  0  0
   -6.5079    2.6208   -2.9599 H   0  0  0  0  0  0  0  0  0  0  0  0
   -4.7712    0.1474   -1.8798 C   0  0  0  0  0  0  0  0  0  0  0  0
   -5.4951   -0.6475   -1.9784 H   0  0  0  0  0  0  0  0  0  0  0  0
   -3.4949   -0.1047   -1.3419 C   0  0  0  0  0  0  0  0  0  0  0  0
   -3.2302   -1.1053   -1.0211 H   0  0  0  0  0  0  0  0  0  0  0  0
   -0.8664    0.0378    1.7736 C   0  0  0  0  0  0  0  0  0  0  0  0
    0.2529   -0.0672    2.2760 O   0  0  0  0  0  0  0  0  0  0  0  0
   -1.8947    0.5991    2.4221 N   0  0  0  0  0  0  0  0  0  0  0  0
   -2.7942    0.5936    1.9635 H   0  0  0  0  0  0  0  0  0  0  0  0
   -1.8170    1.1453    3.7750 C   0  0  0  0  0  0  0  0  0  0  0  0
   -0.9697    1.8290    3.8506 H   0  0  0  0  0  0  0  0  0  0  0  0
   -2.7354    1.6828    4.0167 H   0  0  0  0  0  0  0  0  0  0  0  0
   -1.6754    0.3334    4.4914 H   0  0  0  0  0  0  0  0  0  0  0  0
  5  6  2  0  0  0  0
  5  7  1  0  0  0  0
  2  3  1  0  0  0  0
  2  4  1  0  0  0  0
  2  5  1  0  0  0  0
  1  2  1  0  0  0  0
 26 27  2  0  0  0  0
 26 28  1  0  0  0  0
 24 25  1  0  0  0  0
 22 23  1  0  0  0  0
 22 24  2  0  0  0  0
 20 21  1  0  0  0  0
 19 20  1  0  0  0  0
 19 22  1  0  0  0  0
 17 18  1  0  0  0  0
 17 19  2  0  0  0  0
 15 16  1  0  0  0  0
 15 17  1  0  0  0  0
 14 15  2  0  0  0  0
 14 24  1  0  0  0  0
 11 12  1  0  0  0  0
 11 13  1  0  0  0  0
 11 14  1  0  0  0  0
  9 10  1  0  0  0  0
  9 11  1  0  0  0  0
  9 26  1  0  0  0  0
  7  8  1  0  0  0  0
  7  9  1  0  0  0  0
 30 31  1  0  0  0  0
 30 32  1  0  0  0  0
 30 33  1  0  0  0  0
 28 29  1  0  0  0  0
 28 30  1  0  0  0  0
M  END
$$$$
default_name
  -OEChem-02102213163D

 33 33  0     1  0  0  0  0  0999 V2000
   -4.0702   -3.8485    1.4554 H   0  0  0  0  0  0  0  0  0  0  0  0
   -4.0012   -2.9605    0.8284 C   0  0  0  0  0  0  0  0  0  0  0  0
   -4.7652   -2.2435    1.1234 H   0  0  0  0  0  0  0  0  0  0  0  0
   -4.1352   -3.2385   -0.2156 H   0  0  0  0  0  0  0  0  0  0  0  0
   -2.6362   -2.3395    1.0094 C   0  0  0  0  0  0  0  0  0  0  0  0
   -1.8292   -2.8395    1.7814 O   0  0  0  0  0  0  0  0  0  0  0  0
   -2.3832   -1.2445    0.2964 N   0  0  0  0  0  0  0  0  0  0  0  0
   -3.1102   -0.8685   -0.2946 H   0  0  0  0  0  0  0  0  0  0  0  0
   -1.1292   -0.4875    0.3524 C   0  0  1  0  0  0  0  0  0  0  0  0
   -0.3087   -1.1556    0.0882 H   0  0  0  0  0  0  0  0  0  0  0  0
   -1.1749    0.6534   -0.6787 C   0  0  0  0  0  0  0  0  0  0  0  0
   -0.7929    1.5645   -0.2163 H   0  0  0  0  0  0  0  0  0  0  0  0
   -0.5120    0.4058   -1.5094 H   0  0  0  0  0  0  0  0  0  0  0  0
   -2.5637    0.9440   -1.2140 C   0  0  0  0  0  0  0  0  0  0  0  0
   -2.8214    2.1417   -1.9107 C   0  0  0  0  0  0  0  0  0  0  0  0
   -2.0332    2.8712   -2.0431 H   0  0  0  0  0  0  0  0  0  0  0  0
   -4.1026    2.3886   -2.4411 C   0  0  0  0  0  0  0  0  0  0  0  0
   -4.2968    3.3075   -2.9727 H   0  0  0  0  0  0  0  0  0  0  0  0
   -5.1284    1.4323   -2.2773 C   0  0  0  0  0  0  0  0  0  0  0  0
   -6.3666    1.6597   -2.7877 O   0  0  0  0  0  0  0  0  0  0  0  0
   -6.4488    2.5400   -3.1570 H   0  0  0  0  0  0  0  0  0  0  0  0
   -4.8674    0.2322   -1.5842 C   0  0  0  0  0  0  0  0  0  0  0  0
   -5.6612   -0.4893   -1.4617 H   0  0  0  0  0  0  0  0  0  0  0  0
   -3.5871   -0.0097   -1.0512 C   0  0  0  0  0  0  0  0  0  0  0  0
   -3.3898   -0.9279   -0.5107 H   0  0  0  0  0  0  0  0  0  0  0  0
   -0.8664    0.0378    1.7736 C   0  0  0  0  0  0  0  0  0  0  0  0
    0.2529   -0.0672    2.2760 O   0  0  0  0  0  0  0  0  0  0  0  0
   -1.8947    0.5991    2.4221 N   0  0  0  0  0  0  0  0  0  0  0  0
   -2.7942    0.5936    1.9635 H   0  0  0  0  0  0  0  0  0  0  0  0
   -1.8170    1.1453    3.7750 C   0  0  0  0  0  0  0  0  0  0  0  0
   -0.9697    1.8290    3.8506 H   0  0  0  0  0  0  0  0  0  0  0  0
   -2.7354    1.6828    4.0167 H   0  0  0  0  0  0  0  0  0  0  0  0
   -1.6754    0.3334    4.4914 H   0  0  0  0  0  0  0  0  0  0  0  0
  5  6  2  0  0  0  0
  5  7  1  0  0  0  0
  2  3  1  0  0  0  0
  2  4  1  0  0  0  0
  2  5  1  0  0  0  0
  1  2  1  0  0  0  0
 26 27  2  0  0  0  0
 26 28  1  0  0  0  0
 24 25  1  0  0  0  0
 22 23  1  0  0  0  0
 22 24  2  0  0  0  0
 20 21  1  0  0  0  0
 19 20  1  0  0  0  0
 19 22  1  0  0  0  0
 17 18  1  0  0  0  0
 17 19  2  0  0  0  0
 15 16  1  0  0  0  0
 15 17  1  0  0  0  0
 14 15  2  0  0  0  0
 14 24  1  0  0  0  0
 11 12  1  0  0  0  0
 11 13  1  0  0  0  0
 11 14  1  0  0  0  0
  9 10  1  0  0  0  0
  9 11  1  0  0  0  0
  9 26  1  0  0  0  0
  7  8  1  0  0  0  0
  7  9  1  0  0  0  0
 30 31  1  0  0  0  0
 30 32  1  0  0  0  0
 30 33  1  0  0  0  0
 28 29  1  0  0  0  0
 28 30  1  0  0  0  0
M  END
$$$$
default_name
  -OEChem-02102213163D

 33 33  0     1  0  0  0  0  0999 V2000
   -4.0702   -3.8485    1.4554 H   0  0  0  0  0  0  0  0  0  0  0  0
   -4.0012   -2.9605    0.8284 C   0  0  0  0  0  0  0  0  0  0  0  0
   -4.7652   -2.2435    1.1234 H   0  0  0  0  0  0  0  0  0  0  0  0
   -4.1352   -3.2385   -0.2156 H   0  0  0  0  0  0  0  0  0  0  0  0
   -2.6362   -2.3395    1.0094 C   0  0  0  0  0  0  0  0  0  0  0  0
   -1.8292   -2.8395    1.7814 O   0  0  0  0  0  0  0  0  0  0  0  0
   -2.3832   -1.2445    0.2964 N   0  0  0  0  0  0  0  0  0  0  0  0
   -3.1102   -0.8685   -0.2946 H   0  0  0  0  0  0  0  0  0  0  0  0
   -1.1292   -0.4875    0.3524 C   0  0  1  0  0  0  0  0  0  0  0  0
   -0.3087   -1.1556    0.0882 H   0  0  0  0  0  0  0  0  0  0  0  0
   -1.1749    0.6534   -0.6787 C   0  0  0  0  0  0  0  0  0  0  0  0
   -0.5595    1.4797   -0.3205 H   0  0  0  0  0  0  0  0  0  0  0  0
   -0.7374    0.3018   -1.6145 H   0  0  0  0  0  0  0  0  0  0  0  0
   -2.5694    1.1864   -0.9455 C   0  0  0  0  0  0  0  0  0  0  0  0
   -2.7663    2.2337   -1.8678 C   0  0  0  0  0  0  0  0  0  0  0  0
   -1.9176    2.6794   -2.3700 H   0  0  0  0  0  0  0  0  0  0  0  0
   -4.0674    2.6979   -2.1424 C   0  0  0  0  0  0  0  0  0  0  0  0
   -4.2143    3.5011   -2.8480 H   0  0  0  0  0  0  0  0  0  0  0  0
   -5.1757    2.1096   -1.4948 C   0  0  0  0  0  0  0  0  0  0  0  0
   -6.4347    2.5480   -1.7549 O   0  0  0  0  0  0  0  0  0  0  0  0
   -6.4383    3.3191   -2.3236 H   0  0  0  0  0  0  0  0  0  0  0  0
   -4.9773    1.0584   -0.5759 C   0  0  0  0  0  0  0  0  0  0  0  0
   -5.8323    0.6196   -0.0839 H   0  0  0  0  0  0  0  0  0  0  0  0
   -3.6751    0.5998   -0.3002 C   0  0  0  0  0  0  0  0  0  0  0  0
   -3.5226   -0.2017    0.4129 H   0  0  0  0  0  0  0  0  0  0  0  0
   -0.8664    0.0378    1.7736 C   0  0  0  0  0  0  0  0  0  0  0  0
    0.2529   -0.0672    2.2760 O   0  0  0  0  0  0  0  0  0  0  0  0
   -1.8947    0.5991    2.4221 N   0  0  0  0  0  0  0  0  0  0  0  0
   -2.7942    0.5936    1.9635 H   0  0  0  0  0  0  0  0  0  0  0  0
   -1.8170    1.1453    3.7750 C   0  0  0  0  0  0  0  0  0  0  0  0
   -0.9697    1.8290    3.8506 H   0  0  0  0  0  0  0  0  0  0  0  0
   -2.7354    1.6828    4.0167 H   0  0  0  0  0  0  0  0  0  0  0  0
   -1.6754    0.3334    4.4914 H   0  0  0  0  0  0  0  0  0  0  0  0
  5  6  2  0  0  0  0
  5  7  1  0  0  0  0
  2  3  1  0  0  0  0
  2  4  1  0  0  0  0
  2  5  1  0  0  0  0
  1  2  1  0  0  0  0
 26 27  2  0  0  0  0
 26 28  1  0  0  0  0
 24 25  1  0  0  0  0
 22 23  1  0  0  0  0
 22 24  2  0  0  0  0
 20 21  1  0  0  0  0
 19 20  1  0  0  0  0
 19 22  1  0  0  0  0
 17 18  1  0  0  0  0
 17 19  2  0  0  0  0
 15 16  1  0  0  0  0
 15 17  1  0  0  0  0
 14 15  2  0  0  0  0
 14 24  1  0  0  0  0
 11 12  1  0  0  0  0
 11 13  1  0  0  0  0
 11 14  1  0  0  0  0
  9 10  1  0  0  0  0
  9 11  1  0  0  0  0
  9 26  1  0  0  0  0
  7  8  1  0  0  0  0
  7  9  1  0  0  0  0
 30 31  1  0  0  0  0
 30 32  1  0  0  0  0
 30 33  1  0  0  0  0
 28 29  1  0  0  0  0
 28 30  1  0  0  0  0
M  END
$$$$
default_name
  -OEChem-02102213163D

 33 33  0     1  0  0  0  0  0999 V2000
   -4.0702   -3.8485    1.4554 H   0  0  0  0  0  0  0  0  0  0  0  0
   -4.0012   -2.9605    0.8284 C   0  0  0  0  0  0  0  0  0  0  0  0
   -4.7652   -2.2435    1.1234 H   0  0  0  0  0  0  0  0  0  0  0  0
   -4.1352   -3.2385   -0.2156 H   0  0  0  0  0  0  0  0  0  0  0  0
   -2.6362   -2.3395    1.0094 C   0  0  0  0  0  0  0  0  0  0  0  0
   -1.8292   -2.8395    1.7814 O   0  0  0  0  0  0  0  0  0  0  0  0
   -2.3832   -1.2445    0.2964 N   0  0  0  0  0  0  0  0  0  0  0  0
   -3.1102   -0.8685   -0.2946 H   0  0  0  0  0  0  0  0  0  0  0  0
   -1.1292   -0.4875    0.3524 C   0  0  1  0  0  0  0  0  0  0  0  0
   -0.3087   -1.1556    0.0882 H   0  0  0  0  0  0  0  0  0  0  0  0
   -1.1749    0.6534   -0.6787 C   0  0  0  0  0  0  0  0  0  0  0  0
   -0.5595    1.4797   -0.3205 H   0  0  0  0  0  0  0  0  0  0  0  0
   -0.7374    0.3018   -1.6145 H   0  0  0  0  0  0  0  0  0  0  0  0
   -2.5694    1.1864   -0.9455 C   0  0  0  0  0  0  0  0  0  0  0  0
   -2.8180    1.9960   -2.0720 C   0  0  0  0  0  0  0  0  0  0  0  0
   -2.0069    2.2619   -2.7372 H   0  0  0  0  0  0  0  0  0  0  0  0
   -4.1228    2.4551   -2.3377 C   0  0  0  0  0  0  0  0  0  0  0  0
   -4.3093    3.0762   -3.2003 H   0  0  0  0  0  0  0  0  0  0  0  0
   -5.1831    2.0999   -1.4756 C   0  0  0  0  0  0  0  0  0  0  0  0
   -6.4455    2.5351   -1.7249 O   0  0  0  0  0  0  0  0  0  0  0  0
   -6.4772    3.1492   -2.4596 H   0  0  0  0  0  0  0  0  0  0  0  0
   -4.9333    1.2856   -0.3516 C   0  0  0  0  0  0  0  0  0  0  0  0
   -5.7515    1.0244    0.3025 H   0  0  0  0  0  0  0  0  0  0  0  0
   -3.6273    0.8321   -0.0861 C   0  0  0  0  0  0  0  0  0  0  0  0
   -3.4345    0.2141    0.7828 H   0  0  0  0  0  0  0  0  0  0  0  0
   -0.8664    0.0378    1.7736 C   0  0  0  0  0  0  0  0  0  0  0  0
    0.2529   -0.0672    2.2760 O   0  0  0  0  0  0  0  0  0  0  0  0
   -1.8947    0.5991    2.4221 N   0  0  0  0  0  0  0  0  0  0  0  0
   -2.7942    0.5936    1.9635 H   0  0  0  0  0  0  0  0  0  0  0  0
   -1.8170    1.1453    3.7750 C   0  0  0  0  0  0  0  0  0  0  0  0
   -0.9697    1.8290    3.8506 H   0  0  0  0  0  0  0  0  0  0  0  0
   -2.7354    1.6828    4.0167 H   0  0  0  0  0  0  0  0  0  0  0  0
   -1.6754    0.3334    4.4914 H   0  0  0  0  0  0  0  0  0  0  0  0
  5  6  2  0  0  0  0
  5  7  1  0  0  0  0
  2  3  1  0  0  0  0
  2  4  1  0  0  0  0
  2  5  1  0  0  0  0
  1  2  1  0  0  0  0
 26 27  2  0  0  0  0
 26 28  1  0  0  0  0
 24 25  1  0  0  0  0
 22 23  1  0  0  0  0
 22 24  2  0  0  0  0
 20 21  1  0  0  0  0
 19 20  1  0  0  0  0
 19 22  1  0  0  0  0
 17 18  1  0  0  0  0
 17 19  2  0  0  0  0
 15 16  1  0  0  0  0
 15 17  1  0  0  0  0
 14 15  2  0  0  0  0
 14 24  1  0  0  0  0
 11 12  1  0  0  0  0
 11 13  1  0  0  0  0
 11 14  1  0  0  0  0
  9 10  1  0  0  0  0
  9 11  1  0  0  0  0
  9 26  1  0  0  0  0
  7  8  1  0  0  0  0
  7  9  1  0  0  0  0
 30 31  1  0  0  0  0
 30 32  1  0  0  0  0
 30 33  1  0  0  0  0
 28 29  1  0  0  0  0
 28 30  1  0  0  0  0
M  END
$$$$
default_name
  -OEChem-02102213163D

 33 33  0     1  0  0  0  0  0999 V2000
   -4.0702   -3.8485    1.4554 H   0  0  0  0  0  0  0  0  0  0  0  0
   -4.0012   -2.9605    0.8284 C   0  0  0  0  0  0  0  0  0  0  0  0
   -4.7652   -2.2435    1.1234 H   0  0  0  0  0  0  0  0  0  0  0  0
   -4.1352   -3.2385   -0.2156 H   0  0  0  0  0  0  0  0  0  0  0  0
   -2.6362   -2.3395    1.0094 C   0  0  0  0  0  0  0  0  0  0  0  0
   -1.8292   -2.8395    1.7814 O   0  0  0  0  0  0  0  0  0  0  0  0
   -2.3832   -1.2445    0.2964 N   0  0  0  0  0  0  0  0  0  0  0  0
   -3.1102   -0.8685   -0.2946 H   0  0  0  0  0  0  0  0  0  0  0  0
   -1.1292   -0.4875    0.3524 C   0  0  1  0  0  0  0  0  0  0  0  0
   -0.3087   -1.1556    0.0882 H   0  0  0  0  0  0  0  0  0  0  0  0
   -1.1749    0.6534   -0.6787 C   0  0  0  0  0  0  0  0  0  0  0  0
   -0.5595    1.4797   -0.3205 H   0  0  0  0  0  0  0  0  0  0  0  0
   -0.7374    0.3018   -1.6145 H   0  0  0  0  0  0  0  0  0  0  0  0
   -2.5694    1.1864   -0.9455 C   0  0  0  0  0  0  0  0  0  0  0  0
   -2.8974    1.7202   -2.2079 C   0  0  0  0  0  0  0  0  0  0  0  0
   -2.1456    1.7754   -2.9843 H   0  0  0  0  0  0  0  0  0  0  0  0
   -4.2051    2.1767   -2.4636 C   0  0  0  0  0  0  0  0  0  0  0  0
   -4.4524    2.5863   -3.4310 H   0  0  0  0  0  0  0  0  0  0  0  0
   -5.1889    2.0954   -1.4541 C   0  0  0  0  0  0  0  0  0  0  0  0
   -6.4537    2.5302   -1.6917 O   0  0  0  0  0  0  0  0  0  0  0  0
   -6.5349    2.9545   -2.5469 H   0  0  0  0  0  0  0  0  0  0  0  0
   -4.8602    1.5564   -0.1930 C   0  0  0  0  0  0  0  0  0  0  0  0
   -5.6200    1.5036    0.5721 H   0  0  0  0  0  0  0  0  0  0  0  0
   -3.5510    1.1052    0.0609 C   0  0  0  0  0  0  0  0  0  0  0  0
   -3.2968    0.6998    1.0331 H   0  0  0  0  0  0  0  0  0  0  0  0
   -0.8664    0.0378    1.7736 C   0  0  0  0  0  0  0  0  0  0  0  0
    0.2529   -0.0672    2.2760 O   0  0  0  0  0  0  0  0  0  0  0  0
   -1.8947    0.5991    2.4221 N   0  0  0  0  0  0  0  0  0  0  0  0
   -2.7942    0.5936    1.9635 H   0  0  0  0  0  0  0  0  0  0  0  0
   -1.8170    1.1453    3.7750 C   0  0  0  0  0  0  0  0  0  0  0  0
   -0.9697    1.8290    3.8506 H   0  0  0  0  0  0  0  0  0  0  0  0
   -2.7354    1.6828    4.0167 H   0  0  0  0  0  0  0  0  0  0  0  0
   -1.6754    0.3334    4.4914 H   0  0  0  0  0  0  0  0  0  0  0  0
  5  6  2  0  0  0  0
  5  7  1  0  0  0  0
  2  3  1  0  0  0  0
  2  4  1  0  0  0  0
  2  5  1  0  0  0  0
  1  2  1  0  0  0  0
 26 27  2  0  0  0  0
 26 28  1  0  0  0  0
 24 25  1  0  0  0  0
 22 23  1  0  0  0  0
 22 24  2  0  0  0  0
 20 21  1  0  0  0  0
 19 20  1  0  0  0  0
 19 22  1  0  0  0  0
 17 18  1  0  0  0  0
 17 19  2  0  0  0  0
 15 16  1  0  0  0  0
 15 17  1  0  0  0  0
 14 15  2  0  0  0  0
 14 24  1  0  0  0  0
 11 12  1  0  0  0  0
 11 13  1  0  0  0  0
 11 14  1  0  0  0  0
  9 10  1  0  0  0  0
  9 11  1  0  0  0  0
  9 26  1  0  0  0  0
  7  8  1  0  0  0  0
  7  9  1  0  0  0  0
 30 31  1  0  0  0  0
 30 32  1  0  0  0  0
 30 33  1  0  0  0  0
 28 29  1  0  0  0  0
 28 30  1  0  0  0  0
M  END
$$$$
default_name
  -OEChem-02102213163D

 33 33  0     1  0  0  0  0  0999 V2000
   -4.0702   -3.8485    1.4554 H   0  0  0  0  0  0  0  0  0  0  0  0
   -4.0012   -2.9605    0.8284 C   0  0  0  0  0  0  0  0  0  0  0  0
   -4.7652   -2.2435    1.1234 H   0  0  0  0  0  0  0  0  0  0  0  0
   -4.1352   -3.2385   -0.2156 H   0  0  0  0  0  0  0  0  0  0  0  0
   -2.6362   -2.3395    1.0094 C   0  0  0  0  0  0  0  0  0  0  0  0
   -1.8292   -2.8395    1.7814 O   0  0  0  0  0  0  0  0  0  0  0  0
   -2.3832   -1.2445    0.2964 N   0  0  0  0  0  0  0  0  0  0  0  0
   -3.1102   -0.8685   -0.2946 H   0  0  0  0  0  0  0  0  0  0  0  0
   -1.1292   -0.4875    0.3524 C   0  0  1  0  0  0  0  0  0  0  0  0
   -0.3087   -1.1556    0.0882 H   0  0  0  0  0  0  0  0  0  0  0  0
   -1.1749    0.6534   -0.6787 C   0  0  0  0  0  0  0  0  0  0  0  0
   -0.5595    1.4797   -0.3205 H   0  0  0  0  0  0  0  0  0  0  0  0
   -0.7374    0.3018   -1.6145 H   0  0  0  0  0  0  0  0  0  0  0  0
   -2.5694    1.1864   -0.9455 C   0  0  0  0  0  0  0  0  0  0  0  0
   -2.9991    1.4250   -2.2664 C   0  0  0  0  0  0  0  0  0  0  0  0
   -2.3241    1.2529   -3.0946 H   0  0  0  0  0  0  0  0  0  0  0  0
   -4.3088    1.8815   -2.5115 C   0  0  0  0  0  0  0  0  0  0  0  0
   -4.6339    2.0647   -3.5241 H   0  0  0  0  0  0  0  0  0  0  0  0
   -5.1928    2.0964   -1.4318 C   0  0  0  0  0  0  0  0  0  0  0  0
   -6.4588    2.5337   -1.6579 O   0  0  0  0  0  0  0  0  0  0  0  0
   -6.6075    2.7482   -2.5797 H   0  0  0  0  0  0  0  0  0  0  0  0
   -4.7627    1.8524   -0.1110 C   0  0  0  0  0  0  0  0  0  0  0  0
   -5.4465    2.0246    0.7065 H   0  0  0  0  0  0  0  0  0  0  0  0
   -3.4516    1.4005    0.1311 C   0  0  0  0  0  0  0  0  0  0  0  0
   -3.1189    1.2222    1.1467 H   0  0  0  0  0  0  0  0  0  0  0  0
   -0.8664    0.0378    1.7736 C   0  0  0  0  0  0  0  0  0  0  0  0
    0.2529   -0.0672    2.2760 O   0  0  0  0  0  0  0  0  0  0  0  0
   -1.8947    0.5991    2.4221 N   0  0  0  0  0  0  0  0  0  0  0  0
   -2.7942    0.5936    1.9635 H   0  0  0  0  0  0  0  0  0  0  0  0
   -1.8170    1.1453    3.7750 C   0  0  0  0  0  0  0  0  0  0  0  0
   -0.9697    1.8290    3.8506 H   0  0  0  0  0  0  0  0  0  0  0  0
   -2.7354    1.6828    4.0167 H   0  0  0  0  0  0  0  0  0  0  0  0
   -1.6754    0.3334    4.4914 H   0  0  0  0  0  0  0  0  0  0  0  0
  5  6  2  0  0  0  0
  5  7  1  0  0  0  0
  2  3  1  0  0  0  0
  2  4  1  0  0  0  0
  2  5  1  0  0  0  0
  1  2  1  0  0  0  0
 26 27  2  0  0  0  0
 26 28  1  0  0  0  0
 24 25  1  0  0  0  0
 22 23  1  0  0  0  0
 22 24  2  0  0  0  0
 20 21  1  0  0  0  0
 19 20  1  0  0  0  0
 19 22  1  0  0  0  0
 17 18  1  0  0  0  0
 17 19  2  0  0  0  0
 15 16  1  0  0  0  0
 15 17  1  0  0  0  0
 14 15  2  0  0  0  0
 14 24  1  0  0  0  0
 11 12  1  0  0  0  0
 11 13  1  0  0  0  0
 11 14  1  0  0  0  0
  9 10  1  0  0  0  0
  9 11  1  0  0  0  0
  9 26  1  0  0  0  0
  7  8  1  0  0  0  0
  7  9  1  0  0  0  0
 30 31  1  0  0  0  0
 30 32  1  0  0  0  0
 30 33  1  0  0  0  0
 28 29  1  0  0  0  0
 28 30  1  0  0  0  0
M  END
$$$$
default_name
  -OEChem-02102213163D

 33 33  0     1  0  0  0  0  0999 V2000
   -4.0702   -3.8485    1.4554 H   0  0  0  0  0  0  0  0  0  0  0  0
   -4.0012   -2.9605    0.8284 C   0  0  0  0  0  0  0  0  0  0  0  0
   -4.7652   -2.2435    1.1234 H   0  0  0  0  0  0  0  0  0  0  0  0
   -4.1352   -3.2385   -0.2156 H   0  0  0  0  0  0  0  0  0  0  0  0
   -2.6362   -2.3395    1.0094 C   0  0  0  0  0  0  0  0  0  0  0  0
   -1.8292   -2.8395    1.7814 O   0  0  0  0  0  0  0  0  0  0  0  0
   -2.3832   -1.2445    0.2964 N   0  0  0  0  0  0  0  0  0  0  0  0
   -3.1102   -0.8685   -0.2946 H   0  0  0  0  0  0  0  0  0  0  0  0
   -1.1292   -0.4875    0.3524 C   0  0  1  0  0  0  0  0  0  0  0  0
   -0.3087   -1.1556    0.0882 H   0  0  0  0  0  0  0  0  0  0  0  0
   -1.1749    0.6534   -0.6787 C   0  0  0  0  0  0  0  0  0  0  0  0
   -0.5595    1.4797   -0.3205 H   0  0  0  0  0  0  0  0  0  0  0  0
   -0.7374    0.3018   -1.6145 H   0  0  0  0  0  0  0  0  0  0  0  0
   -2.5694    1.1864   -0.9455 C   0  0  0  0  0  0  0  0  0  0  0  0
   -3.1160    1.1306   -2.2434 C   0  0  0  0  0  0  0  0  0  0  0  0
   -2.5305    0.7301   -3.0606 H   0  0  0  0  0  0  0  0  0  0  0  0
   -4.4267    1.5898   -2.4781 C   0  0  0  0  0  0  0  0  0  0  0  0
   -4.8415    1.5470   -3.4735 H   0  0  0  0  0  0  0  0  0  0  0  0
   -5.1945    2.1029   -1.4100 C   0  0  0  0  0  0  0  0  0  0  0  0
   -6.4605    2.5454   -1.6255 O   0  0  0  0  0  0  0  0  0  0  0  0
   -6.6900    2.5445   -2.5557 H   0  0  0  0  0  0  0  0  0  0  0  0
   -4.6477    2.1534   -0.1110 C   0  0  0  0  0  0  0  0  0  0  0  0
   -5.2431    2.5520    0.6966 H   0  0  0  0  0  0  0  0  0  0  0  0
   -3.3357    1.6980    0.1195 C   0  0  0  0  0  0  0  0  0  0  0  0
   -2.9129    1.7457    1.1160 H   0  0  0  0  0  0  0  0  0  0  0  0
   -0.8664    0.0378    1.7736 C   0  0  0  0  0  0  0  0  0  0  0  0
    0.2529   -0.0672    2.2760 O   0  0  0  0  0  0  0  0  0  0  0  0
   -1.8947    0.5991    2.4221 N   0  0  0  0  0  0  0  0  0  0  0  0
   -2.7942    0.5936    1.9635 H   0  0  0  0  0  0  0  0  0  0  0  0
   -1.8170    1.1453    3.7750 C   0  0  0  0  0  0  0  0  0  0  0  0
   -0.9697    1.8290    3.8506 H   0  0  0  0  0  0  0  0  0  0  0  0
   -2.7354    1.6828    4.0167 H   0  0  0  0  0  0  0  0  0  0  0  0
   -1.6754    0.3334    4.4914 H   0  0  0  0  0  0  0  0  0  0  0  0
  5  6  2  0  0  0  0
  5  7  1  0  0  0  0
  2  3  1  0  0  0  0
  2  4  1  0  0  0  0
  2  5  1  0  0  0  0
  1  2  1  0  0  0  0
 26 27  2  0  0  0  0
 26 28  1  0  0  0  0
 24 25  1  0  0  0  0
 22 23  1  0  0  0  0
 22 24  2  0  0  0  0
 20 21  1  0  0  0  0
 19 20  1  0  0  0  0
 19 22  1  0  0  0  0
 17 18  1  0  0  0  0
 17 19  2  0  0  0  0
 15 16  1  0  0  0  0
 15 17  1  0  0  0  0
 14 15  2  0  0  0  0
 14 24  1  0  0  0  0
 11 12  1  0  0  0  0
 11 13  1  0  0  0  0
 11 14  1  0  0  0  0
  9 10  1  0  0  0  0
  9 11  1  0  0  0  0
  9 26  1  0  0  0  0
  7  8  1  0  0  0  0
  7  9  1  0  0  0  0
 30 31  1  0  0  0  0
 30 32  1  0  0  0  0
 30 33  1  0  0  0  0
 28 29  1  0  0  0  0
 28 30  1  0  0  0  0
M  END
$$$$
default_name
  -OEChem-02102213163D

 33 33  0     1  0  0  0  0  0999 V2000
   -4.0702   -3.8485    1.4554 H   0  0  0  0  0  0  0  0  0  0  0  0
   -4.0012   -2.9605    0.8284 C   0  0  0  0  0  0  0  0  0  0  0  0
   -4.7652   -2.2435    1.1234 H   0  0  0  0  0  0  0  0  0  0  0  0
   -4.1352   -3.2385   -0.2156 H   0  0  0  0  0  0  0  0  0  0  0  0
   -2.6362   -2.3395    1.0094 C   0  0  0  0  0  0  0  0  0  0  0  0
   -1.8292   -2.8395    1.7814 O   0  0  0  0  0  0  0  0  0  0  0  0
   -2.3832   -1.2445    0.2964 N   0  0  0  0  0  0  0  0  0  0  0  0
   -3.1102   -0.8685   -0.2946 H   0  0  0  0  0  0  0  0  0  0  0  0
   -1.1292   -0.4875    0.3524 C   0  0  1  0  0  0  0  0  0  0  0  0
   -0.3087   -1.1556    0.0882 H   0  0  0  0  0  0  0  0  0  0  0  0
   -1.1749    0.6534   -0.6787 C   0  0  0  0  0  0  0  0  0  0  0  0
   -0.5595    1.4797   -0.3205 H   0  0  0  0  0  0  0  0  0  0  0  0
   -0.7374    0.3018   -1.6145 H   0  0  0  0  0  0  0  0  0  0  0  0
   -2.5694    1.1864   -0.9455 C   0  0  0  0  0  0  0  0  0  0  0  0
   -3.2402    0.8571   -2.1404 C   0  0  0  0  0  0  0  0  0  0  0  0
   -2.7505    0.2426   -2.8845 H   0  0  0  0  0  0  0  0  0  0  0  0
   -4.5508    1.3213   -2.3656 C   0  0  0  0  0  0  0  0  0  0  0  0
   -5.0609    1.0685   -3.2824 H   0  0  0  0  0  0  0  0  0  0  0  0
   -5.1938    2.1144   -1.3904 C   0  0  0  0  0  0  0  0  0  0  0  0
   -6.4587    2.5645   -1.5969 O   0  0  0  0  0  0  0  0  0  0  0  0
   -6.7767    2.3572   -2.4765 H   0  0  0  0  0  0  0  0  0  0  0  0
   -4.5228    2.4389   -0.1932 C   0  0  0  0  0  0  0  0  0  0  0  0
   -5.0234    3.0498    0.5429 H   0  0  0  0  0  0  0  0  0  0  0  0
   -3.2112    1.9773    0.0270 C   0  0  0  0  0  0  0  0  0  0  0  0
   -2.6929    2.2347    0.9430 H   0  0  0  0  0  0  0  0  0  0  0  0
   -0.8664    0.0378    1.7736 C   0  0  0  0  0  0  0  0  0  0  0  0
    0.2529   -0.0672    2.2760 O   0  0  0  0  0  0  0  0  0  0  0  0
   -1.8947    0.5991    2.4221 N   0  0  0  0  0  0  0  0  0  0  0  0
   -2.7942    0.5936    1.9635 H   0  0  0  0  0  0  0  0  0  0  0  0
   -1.8170    1.1453    3.7750 C   0  0  0  0  0  0  0  0  0  0  0  0
   -0.9697    1.8290    3.8506 H   0  0  0  0  0  0  0  0  0  0  0  0
   -2.7354    1.6828    4.0167 H   0  0  0  0  0  0  0  0  0  0  0  0
   -1.6754    0.3334    4.4914 H   0  0  0  0  0  0  0  0  0  0  0  0
  5  6  2  0  0  0  0
  5  7  1  0  0  0  0
  2  3  1  0  0  0  0
  2  4  1  0  0  0  0
  2  5  1  0  0  0  0
  1  2  1  0  0  0  0
 26 27  2  0  0  0  0
 26 28  1  0  0  0  0
 24 25  1  0  0  0  0
 22 23  1  0  0  0  0
 22 24  2  0  0  0  0
 20 21  1  0  0  0  0
 19 20  1  0  0  0  0
 19 22  1  0  0  0  0
 17 18  1  0  0  0  0
 17 19  2  0  0  0  0
 15 16  1  0  0  0  0
 15 17  1  0  0  0  0
 14 15  2  0  0  0  0
 14 24  1  0  0  0  0
 11 12  1  0  0  0  0
 11 13  1  0  0  0  0
 11 14  1  0  0  0  0
  9 10  1  0  0  0  0
  9 11  1  0  0  0  0
  9 26  1  0  0  0  0
  7  8  1  0  0  0  0
  7  9  1  0  0  0  0
 30 31  1  0  0  0  0
 30 32  1  0  0  0  0
 30 33  1  0  0  0  0
 28 29  1  0  0  0  0
 28 30  1  0  0  0  0
M  END
$$$$
default_name
  -OEChem-02102213163D

 33 33  0     1  0  0  0  0  0999 V2000
   -4.0702   -3.8485    1.4554 H   0  0  0  0  0  0  0  0  0  0  0  0
   -4.0012   -2.9605    0.8284 C   0  0  0  0  0  0  0  0  0  0  0  0
   -4.7652   -2.2435    1.1234 H   0  0  0  0  0  0  0  0  0  0  0  0
   -4.1352   -3.2385   -0.2156 H   0  0  0  0  0  0  0  0  0  0  0  0
   -2.6362   -2.3395    1.0094 C   0  0  0  0  0  0  0  0  0  0  0  0
   -1.8292   -2.8395    1.7814 O   0  0  0  0  0  0  0  0  0  0  0  0
   -2.3832   -1.2445    0.2964 N   0  0  0  0  0  0  0  0  0  0  0  0
   -3.1102   -0.8685   -0.2946 H   0  0  0  0  0  0  0  0  0  0  0  0
   -1.1292   -0.4875    0.3524 C   0  0  1  0  0  0  0  0  0  0  0  0
   -0.3087   -1.1556    0.0882 H   0  0  0  0  0  0  0  0  0  0  0  0
   -1.1749    0.6534   -0.6787 C   0  0  0  0  0  0  0  0  0  0  0  0
   -0.5595    1.4797   -0.3205 H   0  0  0  0  0  0  0  0  0  0  0  0
   -0.7374    0.3018   -1.6145 H   0  0  0  0  0  0  0  0  0  0  0  0
   -2.5694    1.1864   -0.9455 C   0  0  0  0  0  0  0  0  0  0  0  0
   -3.3634    0.6230   -1.9646 C   0  0  0  0  0  0  0  0  0  0  0  0
   -2.9692   -0.1763   -2.5784 H   0  0  0  0  0  0  0  0  0  0  0  0
   -4.6727    1.0943   -2.1818 C   0  0  0  0  0  0  0  0  0  0  0  0
   -5.2773    0.6617   -2.9641 H   0  0  0  0  0  0  0  0  0  0  0  0
   -5.1909    2.1302   -1.3743 C   0  0  0  0  0  0  0  0  0  0  0  0
   -6.4535    2.5897   -1.5739 O   0  0  0  0  0  0  0  0  0  0  0  0
   -6.8618    2.1990   -2.3476 H   0  0  0  0  0  0  0  0  0  0  0  0
   -4.3967    2.6895   -0.3518 C   0  0  0  0  0  0  0  0  0  0  0  0
   -4.8026    3.4840    0.2561 H   0  0  0  0  0  0  0  0  0  0  0  0
   -3.0867    2.2194   -0.1402 C   0  0  0  0  0  0  0  0  0  0  0  0
   -2.4739    2.6559    0.6395 H   0  0  0  0  0  0  0  0  0  0  0  0
   -0.8664    0.0378    1.7736 C   0  0  0  0  0  0  0  0  0  0  0  0
    0.2529   -0.0672    2.2760 O   0  0  0  0  0  0  0  0  0  0  0  0
   -1.8947    0.5991    2.4221 N   0  0  0  0  0  0  0  0  0  0  0  0
   -2.7942    0.5936    1.9635 H   0  0  0  0  0  0  0  0  0  0  0  0
   -1.8170    1.1453    3.7750 C   0  0  0  0  0  0  0  0  0  0  0  0
   -0.9697    1.8290    3.8506 H   0  0  0  0  0  0  0  0  0  0  0  0
   -2.7354    1.6828    4.0167 H   0  0  0  0  0  0  0  0  0  0  0  0
   -1.6754    0.3334    4.4914 H   0  0  0  0  0  0  0  0  0  0  0  0
  5  6  2  0  0  0  0
  5  7  1  0  0  0  0
  2  3  1  0  0  0  0
  2  4  1  0  0  0  0
  2  5  1  0  0  0  0
  1  2  1  0  0  0  0
 26 27  2  0  0  0  0
 26 28  1  0  0  0  0
 24 25  1  0  0  0  0
 22 23  1  0  0  0  0
 22 24  2  0  0  0  0
 20 21  1  0  0  0  0
 19 20  1  0  0  0  0
 19 22  1  0  0  0  0
 17 18  1  0  0  0  0
 17 19  2  0  0  0  0
 15 16  1  0  0  0  0
 15 17  1  0  0  0  0
 14 15  2  0  0  0  0
 14 24  1  0  0  0  0
 11 12  1  0  0  0  0
 11 13  1  0  0  0  0
 11 14  1  0  0  0  0
  9 10  1  0  0  0  0
  9 11  1  0  0  0  0
  9 26  1  0  0  0  0
  7  8  1  0  0  0  0
  7  9  1  0  0  0  0
 30 31  1  0  0  0  0
 30 32  1  0  0  0  0
 30 33  1  0  0  0  0
 28 29  1  0  0  0  0
 28 30  1  0  0  0  0
M  END
$$$$
default_name
  -OEChem-02102213163D

 33 33  0     1  0  0  0  0  0999 V2000
   -4.0702   -3.8485    1.4554 H   0  0  0  0  0  0  0  0  0  0  0  0
   -4.0012   -2.9605    0.8284 C   0  0  0  0  0  0  0  0  0  0  0  0
   -4.7652   -2.2435    1.1234 H   0  0  0  0  0  0  0  0  0  0  0  0
   -4.1352   -3.2385   -0.2156 H   0  0  0  0  0  0  0  0  0  0  0  0
   -2.6362   -2.3395    1.0094 C   0  0  0  0  0  0  0  0  0  0  0  0
   -1.8292   -2.8395    1.7814 O   0  0  0  0  0  0  0  0  0  0  0  0
   -2.3832   -1.2445    0.2964 N   0  0  0  0  0  0  0  0  0  0  0  0
   -3.1102   -0.8685   -0.2946 H   0  0  0  0  0  0  0  0  0  0  0  0
   -1.1292   -0.4875    0.3524 C   0  0  1  0  0  0  0  0  0  0  0  0
   -0.3087   -1.1556    0.0882 H   0  0  0  0  0  0  0  0  0  0  0  0
   -1.1749    0.6534   -0.6787 C   0  0  0  0  0  0  0  0  0  0  0  0
   -0.5595    1.4797   -0.3205 H   0  0  0  0  0  0  0  0  0  0  0  0
   -0.7374    0.3018   -1.6145 H   0  0  0  0  0  0  0  0  0  0  0  0
   -2.5694    1.1864   -0.9455 C   0  0  0  0  0  0  0  0  0  0  0  0
   -3.4769    0.4444   -1.7278 C   0  0  0  0  0  0  0  0  0  0  0  0
   -3.1716   -0.4982   -2.1632 H   0  0  0  0  0  0  0  0  0  0  0  0
   -4.7841    0.9244   -1.9392 C   0  0  0  0  0  0  0  0  0  0  0  0
   -5.4759    0.3544   -2.5400 H   0  0  0  0  0  0  0  0  0  0  0  0
   -5.1859    2.1491   -1.3628 C   0  0  0  0  0  0  0  0  0  0  0  0
   -6.4452    2.6192   -1.5582 O   0  0  0  0  0  0  0  0  0  0  0  0
   -6.9395    2.0808   -2.1777 H   0  0  0  0  0  0  0  0  0  0  0  0
   -4.2779    2.8880   -0.5762 C   0  0  0  0  0  0  0  0  0  0  0  0
   -4.5955    3.8251   -0.1445 H   0  0  0  0  0  0  0  0  0  0  0  0
   -2.9706    2.4077   -0.3706 C   0  0  0  0  0  0  0  0  0  0  0  0
   -2.2707    2.9805    0.2262 H   0  0  0  0  0  0  0  0  0  0  0  0
   -0.8664    0.0378    1.7736 C   0  0  0  0  0  0  0  0  0  0  0  0
    0.2529   -0.0672    2.2760 O   0  0  0  0  0  0  0  0  0  0  0  0
   -1.8947    0.5991    2.4221 N   0  0  0  0  0  0  0  0  0  0  0  0
   -2.7942    0.5936    1.9635 H   0  0  0  0  0  0  0  0  0  0  0  0
   -1.8170    1.1453    3.7750 C   0  0  0  0  0  0  0  0  0  0  0  0
   -0.9697    1.8290    3.8506 H   0  0  0  0  0  0  0  0  0  0  0  0
   -2.7354    1.6828    4.0167 H   0  0  0  0  0  0  0  0  0  0  0  0
   -1.6754    0.3334    4.4914 H   0  0  0  0  0  0  0  0  0  0  0  0
  5  6  2  0  0  0  0
  5  7  1  0  0  0  0
  2  3  1  0  0  0  0
  2  4  1  0  0  0  0
  2  5  1  0  0  0  0
  1  2  1  0  0  0  0
 26 27  2  0  0  0  0
 26 28  1  0  0  0  0
 24 25  1  0  0  0  0
 22 23  1  0  0  0  0
 22 24  2  0  0  0  0
 20 21  1  0  0  0  0
 19 20  1  0  0  0  0
 19 22  1  0  0  0  0
 17 18  1  0  0  0  0
 17 19  2  0  0  0  0
 15 16  1  0  0  0  0
 15 17  1  0  0  0  0
 14 15  2  0  0  0  0
 14 24  1  0  0  0  0
 11 12  1  0  0  0  0
 11 13  1  0  0  0  0
 11 14  1  0  0  0  0
  9 10  1  0  0  0  0
  9 11  1  0  0  0  0
  9 26  1  0  0  0  0
  7  8  1  0  0  0  0
  7  9  1  0  0  0  0
 30 31  1  0  0  0  0
 30 32  1  0  0  0  0
 30 33  1  0  0  0  0
 28 29  1  0  0  0  0
 28 30  1  0  0  0  0
M  END
$$$$
default_name
  -OEChem-02102213163D

 33 33  0     1  0  0  0  0  0999 V2000
   -4.0702   -3.8485    1.4554 H   0  0  0  0  0  0  0  0  0  0  0  0
   -4.0012   -2.9605    0.8284 C   0  0  0  0  0  0  0  0  0  0  0  0
   -4.7652   -2.2435    1.1234 H   0  0  0  0  0  0  0  0  0  0  0  0
   -4.1352   -3.2385   -0.2156 H   0  0  0  0  0  0  0  0  0  0  0  0
   -2.6362   -2.3395    1.0094 C   0  0  0  0  0  0  0  0  0  0  0  0
   -1.8292   -2.8395    1.7814 O   0  0  0  0  0  0  0  0  0  0  0  0
   -2.3832   -1.2445    0.2964 N   0  0  0  0  0  0  0  0  0  0  0  0
   -3.1102   -0.8685   -0.2946 H   0  0  0  0  0  0  0  0  0  0  0  0
   -1.1292   -0.4875    0.3524 C   0  0  1  0  0  0  0  0  0  0  0  0
   -0.3087   -1.1556    0.0882 H   0  0  0  0  0  0  0  0  0  0  0  0
   -1.1749    0.6534   -0.6787 C   0  0  0  0  0  0  0  0  0  0  0  0
   -0.5595    1.4797   -0.3205 H   0  0  0  0  0  0  0  0  0  0  0  0
   -0.7374    0.3018   -1.6145 H   0  0  0  0  0  0  0  0  0  0  0  0
   -2.5694    1.1864   -0.9455 C   0  0  0  0  0  0  0  0  0  0  0  0
   -3.5733    0.3333   -1.4463 C   0  0  0  0  0  0  0  0  0  0  0  0
   -3.3441   -0.7010   -1.6670 H   0  0  0  0  0  0  0  0  0  0  0  0
   -4.8774    0.8231   -1.6542 C   0  0  0  0  0  0  0  0  0  0  0  0
   -5.6432    0.1675   -2.0393 H   0  0  0  0  0  0  0  0  0  0  0  0
   -5.1791    2.1700   -1.3566 C   0  0  0  0  0  0  0  0  0  0  0  0
   -6.4344    2.6511   -1.5509 O   0  0  0  0  0  0  0  0  0  0  0  0
   -7.0045    2.0106   -1.9783 H   0  0  0  0  0  0  0  0  0  0  0  0
   -4.1745    3.0209   -0.8509 C   0  0  0  0  0  0  0  0  0  0  0  0
   -4.4164    4.0499   -0.6313 H   0  0  0  0  0  0  0  0  0  0  0  0
   -2.8708    2.5296   -0.6485 C   0  0  0  0  0  0  0  0  0  0  0  0
   -2.0973    3.1864   -0.2688 H   0  0  0  0  0  0  0  0  0  0  0  0
   -0.8664    0.0378    1.7736 C   0  0  0  0  0  0  0  0  0  0  0  0
    0.2529   -0.0672    2.2760 O   0  0  0  0  0  0  0  0  0  0  0  0
   -1.8947    0.5991    2.4221 N   0  0  0  0  0  0  0  0  0  0  0  0
   -2.7942    0.5936    1.9635 H   0  0  0  0  0  0  0  0  0  0  0  0
   -1.8170    1.1453    3.7750 C   0  0  0  0  0  0  0  0  0  0  0  0
   -0.9697    1.8290    3.8506 H   0  0  0  0  0  0  0  0  0  0  0  0
   -2.7354    1.6828    4.0167 H   0  0  0  0  0  0  0  0  0  0  0  0
   -1.6754    0.3334    4.4914 H   0  0  0  0  0  0  0  0  0  0  0  0
  5  6  2  0  0  0  0
  5  7  1  0  0  0  0
  2  3  1  0  0  0  0
  2  4  1  0  0  0  0
  2  5  1  0  0  0  0
  1  2  1  0  0  0  0
 26 27  2  0  0  0  0
 26 28  1  0  0  0  0
 24 25  1  0  0  0  0
 22 23  1  0  0  0  0
 22 24  2  0  0  0  0
 20 21  1  0  0  0  0
 19 20  1  0  0  0  0
 19 22  1  0  0  0  0
 17 18  1  0  0  0  0
 17 19  2  0  0  0  0
 15 16  1  0  0  0  0
 15 17  1  0  0  0  0
 14 15  2  0  0  0  0
 14 24  1  0  0  0  0
 11 12  1  0  0  0  0
 11 13  1  0  0  0  0
 11 14  1  0  0  0  0
  9 10  1  0  0  0  0
  9 11  1  0  0  0  0
  9 26  1  0  0  0  0
  7  8  1  0  0  0  0
  7  9  1  0  0  0  0
 30 31  1  0  0  0  0
 30 32  1  0  0  0  0
 30 33  1  0  0  0  0
 28 29  1  0  0  0  0
 28 30  1  0  0  0  0
M  END
$$$$
default_name
  -OEChem-02102213163D

 33 33  0     1  0  0  0  0  0999 V2000
   -4.0702   -3.8485    1.4554 H   0  0  0  0  0  0  0  0  0  0  0  0
   -4.0012   -2.9605    0.8284 C   0  0  0  0  0  0  0  0  0  0  0  0
   -4.7652   -2.2435    1.1234 H   0  0  0  0  0  0  0  0  0  0  0  0
   -4.1352   -3.2385   -0.2156 H   0  0  0  0  0  0  0  0  0  0  0  0
   -2.6362   -2.3395    1.0094 C   0  0  0  0  0  0  0  0  0  0  0  0
   -1.8292   -2.8395    1.7814 O   0  0  0  0  0  0  0  0  0  0  0  0
   -2.3832   -1.2445    0.2964 N   0  0  0  0  0  0  0  0  0  0  0  0
   -3.1102   -0.8685   -0.2946 H   0  0  0  0  0  0  0  0  0  0  0  0
   -1.1292   -0.4875    0.3524 C   0  0  1  0  0  0  0  0  0  0  0  0
   -0.3087   -1.1556    0.0882 H   0  0  0  0  0  0  0  0  0  0  0  0
   -1.1749    0.6534   -0.6787 C   0  0  0  0  0  0  0  0  0  0  0  0
   -0.5595    1.4797   -0.3205 H   0  0  0  0  0  0  0  0  0  0  0  0
   -0.7374    0.3018   -1.6145 H   0  0  0  0  0  0  0  0  0  0  0  0
   -2.5694    1.1864   -0.9455 C   0  0  0  0  0  0  0  0  0  0  0  0
   -3.6458    0.2975   -1.1392 C   0  0  0  0  0  0  0  0  0  0  0  0
   -3.4748   -0.7710   -1.1239 H   0  0  0  0  0  0  0  0  0  0  0  0
   -4.9461    0.7973   -1.3464 C   0  0  0  0  0  0  0  0  0  0  0  0
   -5.7677    0.1138   -1.4959 H   0  0  0  0  0  0  0  0  0  0  0  0
   -5.1710    2.1912   -1.3562 C   0  0  0  0  0  0  0  0  0  0  0  0
   -6.4219    2.6832   -1.5523 O   0  0  0  0  0  0  0  0  0  0  0  0
   -7.0523    1.9933   -1.7632 H   0  0  0  0  0  0  0  0  0  0  0  0
   -4.0936    3.0792   -1.1574 C   0  0  0  0  0  0  0  0  0  0  0  0
   -4.2775    4.1429   -1.1714 H   0  0  0  0  0  0  0  0  0  0  0  0
   -2.7942    2.5766   -0.9551 C   0  0  0  0  0  0  0  0  0  0  0  0
   -1.9654    3.2596   -0.8116 H   0  0  0  0  0  0  0  0  0  0  0  0
   -0.8664    0.0378    1.7736 C   0  0  0  0  0  0  0  0  0  0  0  0
    0.2529   -0.0672    2.2760 O   0  0  0  0  0  0  0  0  0  0  0  0
   -1.8947    0.5991    2.4221 N   0  0  0  0  0  0  0  0  0  0  0  0
   -2.7942    0.5936    1.9635 H   0  0  0  0  0  0  0  0  0  0  0  0
   -1.8170    1.1453    3.7750 C   0  0  0  0  0  0  0  0  0  0  0  0
   -0.9697    1.8290    3.8506 H   0  0  0  0  0  0  0  0  0  0  0  0
   -2.7354    1.6828    4.0167 H   0  0  0  0  0  0  0  0  0  0  0  0
   -1.6754    0.3334    4.4914 H   0  0  0  0  0  0  0  0  0  0  0  0
  5  6  2  0  0  0  0
  5  7  1  0  0  0  0
  2  3  1  0  0  0  0
  2  4  1  0  0  0  0
  2  5  1  0  0  0  0
  1  2  1  0  0  0  0
 26 27  2  0  0  0  0
 26 28  1  0  0  0  0
 24 25  1  0  0  0  0
 22 23  1  0  0  0  0
 22 24  2  0  0  0  0
 20 21  1  0  0  0  0
 19 20  1  0  0  0  0
 19 22  1  0  0  0  0
 17 18  1  0  0  0  0
 17 19  2  0  0  0  0
 15 16  1  0  0  0  0
 15 17  1  0  0  0  0
 14 15  2  0  0  0  0
 14 24  1  0  0  0  0
 11 12  1  0  0  0  0
 11 13  1  0  0  0  0
 11 14  1  0  0  0  0
  9 10  1  0  0  0  0
  9 11  1  0  0  0  0
  9 26  1  0  0  0  0
  7  8  1  0  0  0  0
  7  9  1  0  0  0  0
 30 31  1  0  0  0  0
 30 32  1  0  0  0  0
 30 33  1  0  0  0  0
 28 29  1  0  0  0  0
 28 30  1  0  0  0  0
M  END
$$$$
default_name
  -OEChem-02102213163D

 33 33  0     1  0  0  0  0  0999 V2000
   -4.0702   -3.8485    1.4554 H   0  0  0  0  0  0  0  0  0  0  0  0
   -4.0012   -2.9605    0.8284 C   0  0  0  0  0  0  0  0  0  0  0  0
   -4.7652   -2.2435    1.1234 H   0  0  0  0  0  0  0  0  0  0  0  0
   -4.1352   -3.2385   -0.2156 H   0  0  0  0  0  0  0  0  0  0  0  0
   -2.6362   -2.3395    1.0094 C   0  0  0  0  0  0  0  0  0  0  0  0
   -1.8292   -2.8395    1.7814 O   0  0  0  0  0  0  0  0  0  0  0  0
   -2.3832   -1.2445    0.2964 N   0  0  0  0  0  0  0  0  0  0  0  0
   -3.1102   -0.8685   -0.2946 H   0  0  0  0  0  0  0  0  0  0  0  0
   -1.1292   -0.4875    0.3524 C   0  0  1  0  0  0  0  0  0  0  0  0
   -0.3087   -1.1556    0.0882 H   0  0  0  0  0  0  0  0  0  0  0  0
   -1.1749    0.6534   -0.6787 C   0  0  0  0  0  0  0  0  0  0  0  0
   -0.5595    1.4797   -0.3205 H   0  0  0  0  0  0  0  0  0  0  0  0
   -0.7374    0.3018   -1.6145 H   0  0  0  0  0  0  0  0  0  0  0  0
   -2.5694    1.1864   -0.9455 C   0  0  0  0  0  0  0  0  0  0  0  0
   -3.6895    0.3392   -0.8274 C   0  0  0  0  0  0  0  0  0  0  0  0
   -3.5549   -0.7034   -0.5706 H   0  0  0  0  0  0  0  0  0  0  0  0
   -4.9857    0.8488   -1.0367 C   0  0  0  0  0  0  0  0  0  0  0  0
   -5.8410    0.1969   -0.9469 H   0  0  0  0  0  0  0  0  0  0  0  0
   -5.1623    2.2115   -1.3616 C   0  0  0  0  0  0  0  0  0  0  0  0
   -6.4084    2.7133   -1.5625 O   0  0  0  0  0  0  0  0  0  0  0  0
   -7.0797    2.0298   -1.5468 H   0  0  0  0  0  0  0  0  0  0  0  0
   -4.0406    3.0589   -1.4746 C   0  0  0  0  0  0  0  0  0  0  0  0
   -4.1882    4.0980   -1.7279 H   0  0  0  0  0  0  0  0  0  0  0  0
   -2.7459    2.5455   -1.2693 C   0  0  0  0  0  0  0  0  0  0  0  0
   -1.8841    3.1951   -1.3654 H   0  0  0  0  0  0  0  0  0  0  0  0
   -0.8664    0.0378    1.7736 C   0  0  0  0  0  0  0  0  0  0  0  0
    0.2529   -0.0672    2.2760 O   0  0  0  0  0  0  0  0  0  0  0  0
   -1.8947    0.5991    2.4221 N   0  0  0  0  0  0  0  0  0  0  0  0
   -2.7942    0.5936    1.9635 H   0  0  0  0  0  0  0  0  0  0  0  0
   -1.8170    1.1453    3.7750 C   0  0  0  0  0  0  0  0  0  0  0  0
   -0.9697    1.8290    3.8506 H   0  0  0  0  0  0  0  0  0  0  0  0
   -2.7354    1.6828    4.0167 H   0  0  0  0  0  0  0  0  0  0  0  0
   -1.6754    0.3334    4.4914 H   0  0  0  0  0  0  0  0  0  0  0  0
  5  6  2  0  0  0  0
  5  7  1  0  0  0  0
  2  3  1  0  0  0  0
  2  4  1  0  0  0  0
  2  5  1  0  0  0  0
  1  2  1  0  0  0  0
 26 27  2  0  0  0  0
 26 28  1  0  0  0  0
 24 25  1  0  0  0  0
 22 23  1  0  0  0  0
 22 24  2  0  0  0  0
 20 21  1  0  0  0  0
 19 20  1  0  0  0  0
 19 22  1  0  0  0  0
 17 18  1  0  0  0  0
 17 19  2  0  0  0  0
 15 16  1  0  0  0  0
 15 17  1  0  0  0  0
 14 15  2  0  0  0  0
 14 24  1  0  0  0  0
 11 12  1  0  0  0  0
 11 13  1  0  0  0  0
 11 14  1  0  0  0  0
  9 10  1  0  0  0  0
  9 11  1  0  0  0  0
  9 26  1  0  0  0  0
  7  8  1  0  0  0  0
  7  9  1  0  0  0  0
 30 31  1  0  0  0  0
 30 32  1  0  0  0  0
 30 33  1  0  0  0  0
 28 29  1  0  0  0  0
 28 30  1  0  0  0  0
M  END
$$$$
default_name
  -OEChem-02102213163D

 33 33  0     1  0  0  0  0  0999 V2000
   -4.0702   -3.8485    1.4554 H   0  0  0  0  0  0  0  0  0  0  0  0
   -4.0012   -2.9605    0.8284 C   0  0  0  0  0  0  0  0  0  0  0  0
   -4.7652   -2.2435    1.1234 H   0  0  0  0  0  0  0  0  0  0  0  0
   -4.1352   -3.2385   -0.2156 H   0  0  0  0  0  0  0  0  0  0  0  0
   -2.6362   -2.3395    1.0094 C   0  0  0  0  0  0  0  0  0  0  0  0
   -1.8292   -2.8395    1.7814 O   0  0  0  0  0  0  0  0  0  0  0  0
   -2.3832   -1.2445    0.2964 N   0  0  0  0  0  0  0  0  0  0  0  0
   -3.1102   -0.8685   -0.2946 H   0  0  0  0  0  0  0  0  0  0  0  0
   -1.1292   -0.4875    0.3524 C   0  0  1  0  0  0  0  0  0  0  0  0
   -0.3087   -1.1556    0.0882 H   0  0  0  0  0  0  0  0  0  0  0  0
   -1.1749    0.6534   -0.6787 C   0  0  0  0  0  0  0  0  0  0  0  0
   -0.5595    1.4797   -0.3205 H   0  0  0  0  0  0  0  0  0  0  0  0
   -0.7374    0.3018   -1.6145 H   0  0  0  0  0  0  0  0  0  0  0  0
   -2.5694    1.1864   -0.9455 C   0  0  0  0  0  0  0  0  0  0  0  0
   -3.7014    0.4557   -0.5322 C   0  0  0  0  0  0  0  0  0  0  0  0
   -3.5788   -0.5028   -0.0451 H   0  0  0  0  0  0  0  0  0  0  0  0
   -4.9935    0.9741   -0.7461 C   0  0  0  0  0  0  0  0  0  0  0  0
   -5.8581    0.4111   -0.4297 H   0  0  0  0  0  0  0  0  0  0  0  0
   -5.1533    2.2294   -1.3724 C   0  0  0  0  0  0  0  0  0  0  0  0
   -6.3950    2.7393   -1.5807 O   0  0  0  0  0  0  0  0  0  0  0  0
   -7.0849    2.1179   -1.3441 H   0  0  0  0  0  0  0  0  0  0  0  0
   -4.0193    2.9614   -1.7810 C   0  0  0  0  0  0  0  0  0  0  0  0
   -4.1546    3.9180   -2.2628 H   0  0  0  0  0  0  0  0  0  0  0  0
   -2.7293    2.4385   -1.5699 C   0  0  0  0  0  0  0  0  0  0  0  0
   -1.8588    2.9973   -1.8924 H   0  0  0  0  0  0  0  0  0  0  0  0
   -0.8664    0.0378    1.7736 C   0  0  0  0  0  0  0  0  0  0  0  0
    0.2529   -0.0672    2.2760 O   0  0  0  0  0  0  0  0  0  0  0  0
   -1.8947    0.5991    2.4221 N   0  0  0  0  0  0  0  0  0  0  0  0
   -2.7942    0.5936    1.9635 H   0  0  0  0  0  0  0  0  0  0  0  0
   -1.8170    1.1453    3.7750 C   0  0  0  0  0  0  0  0  0  0  0  0
   -0.9697    1.8290    3.8506 H   0  0  0  0  0  0  0  0  0  0  0  0
   -2.7354    1.6828    4.0167 H   0  0  0  0  0  0  0  0  0  0  0  0
   -1.6754    0.3334    4.4914 H   0  0  0  0  0  0  0  0  0  0  0  0
  5  6  2  0  0  0  0
  5  7  1  0  0  0  0
  2  3  1  0  0  0  0
  2  4  1  0  0  0  0
  2  5  1  0  0  0  0
  1  2  1  0  0  0  0
 26 27  2  0  0  0  0
 26 28  1  0  0  0  0
 24 25  1  0  0  0  0
 22 23  1  0  0  0  0
 22 24  2  0  0  0  0
 20 21  1  0  0  0  0
 19 20  1  0  0  0  0
 19 22  1  0  0  0  0
 17 18  1  0  0  0  0
 17 19  2  0  0  0  0
 15 16  1  0  0  0  0
 15 17  1  0  0  0  0
 14 15  2  0  0  0  0
 14 24  1  0  0  0  0
 11 12  1  0  0  0  0
 11 13  1  0  0  0  0
 11 14  1  0  0  0  0
  9 10  1  0  0  0  0
  9 11  1  0  0  0  0
  9 26  1  0  0  0  0
  7  8  1  0  0  0  0
  7  9  1  0  0  0  0
 30 31  1  0  0  0  0
 30 32  1  0  0  0  0
 30 33  1  0  0  0  0
 28 29  1  0  0  0  0
 28 30  1  0  0  0  0
M  END
$$$$
default_name
  -OEChem-02102213163D

 33 33  0     1  0  0  0  0  0999 V2000
   -4.0702   -3.8485    1.4554 H   0  0  0  0  0  0  0  0  0  0  0  0
   -4.0012   -2.9605    0.8284 C   0  0  0  0  0  0  0  0  0  0  0  0
   -4.7652   -2.2435    1.1234 H   0  0  0  0  0  0  0  0  0  0  0  0
   -4.1352   -3.2385   -0.2156 H   0  0  0  0  0  0  0  0  0  0  0  0
   -2.6362   -2.3395    1.0094 C   0  0  0  0  0  0  0  0  0  0  0  0
   -1.8292   -2.8395    1.7814 O   0  0  0  0  0  0  0  0  0  0  0  0
   -2.3832   -1.2445    0.2964 N   0  0  0  0  0  0  0  0  0  0  0  0
   -3.1102   -0.8685   -0.2946 H   0  0  0  0  0  0  0  0  0  0  0  0
   -1.1292   -0.4875    0.3524 C   0  0  1  0  0  0  0  0  0  0  0  0
   -0.3087   -1.1556    0.0882 H   0  0  0  0  0  0  0  0  0  0  0  0
   -1.1749    0.6534   -0.6787 C   0  0  0  0  0  0  0  0  0  0  0  0
   -0.5595    1.4797   -0.3205 H   0  0  0  0  0  0  0  0  0  0  0  0
   -0.7374    0.3018   -1.6145 H   0  0  0  0  0  0  0  0  0  0  0  0
   -2.5694    1.1864   -0.9455 C   0  0  0  0  0  0  0  0  0  0  0  0
   -3.6808    0.6391   -0.2736 C   0  0  0  0  0  0  0  0  0  0  0  0
   -3.5449   -0.1829    0.4170 H   0  0  0  0  0  0  0  0  0  0  0  0
   -4.9688    1.1645   -0.4946 C   0  0  0  0  0  0  0  0  0  0  0  0
   -5.8178    0.7420    0.0204 H   0  0  0  0  0  0  0  0  0  0  0  0
   -5.1449    2.2437   -1.3880 C   0  0  0  0  0  0  0  0  0  0  0  0
   -6.3825    2.7594   -1.6057 O   0  0  0  0  0  0  0  0  0  0  0  0
   -7.0674    2.2515   -1.1688 H   0  0  0  0  0  0  0  0  0  0  0  0
   -4.0309    2.7933   -2.0557 C   0  0  0  0  0  0  0  0  0  0  0  0
   -4.1790    3.6154   -2.7397 H   0  0  0  0  0  0  0  0  0  0  0  0
   -2.7455    2.2629   -1.8362 C   0  0  0  0  0  0  0  0  0  0  0  0
   -1.8914    2.6797   -2.3566 H   0  0  0  0  0  0  0  0  0  0  0  0
   -0.8664    0.0378    1.7736 C   0  0  0  0  0  0  0  0  0  0  0  0
    0.2529   -0.0672    2.2760 O   0  0  0  0  0  0  0  0  0  0  0  0
   -1.8947    0.5991    2.4221 N   0  0  0  0  0  0  0  0  0  0  0  0
   -2.7942    0.5936    1.9635 H   0  0  0  0  0  0  0  0  0  0  0  0
   -1.8170    1.1453    3.7750 C   0  0  0  0  0  0  0  0  0  0  0  0
   -0.9697    1.8290    3.8506 H   0  0  0  0  0  0  0  0  0  0  0  0
   -2.7354    1.6828    4.0167 H   0  0  0  0  0  0  0  0  0  0  0  0
   -1.6754    0.3334    4.4914 H   0  0  0  0  0  0  0  0  0  0  0  0
  5  6  2  0  0  0  0
  5  7  1  0  0  0  0
  2  3  1  0  0  0  0
  2  4  1  0  0  0  0
  2  5  1  0  0  0  0
  1  2  1  0  0  0  0
 26 27  2  0  0  0  0
 26 28  1  0  0  0  0
 24 25  1  0  0  0  0
 22 23  1  0  0  0  0
 22 24  2  0  0  0  0
 20 21  1  0  0  0  0
 19 20  1  0  0  0  0
 19 22  1  0  0  0  0
 17 18  1  0  0  0  0
 17 19  2  0  0  0  0
 15 16  1  0  0  0  0
 15 17  1  0  0  0  0
 14 15  2  0  0  0  0
 14 24  1  0  0  0  0
 11 12  1  0  0  0  0
 11 13  1  0  0  0  0
 11 14  1  0  0  0  0
  9 10  1  0  0  0  0
  9 11  1  0  0  0  0
  9 26  1  0  0  0  0
  7  8  1  0  0  0  0
  7  9  1  0  0  0  0
 30 31  1  0  0  0  0
 30 32  1  0  0  0  0
 30 33  1  0  0  0  0
 28 29  1  0  0  0  0
 28 30  1  0  0  0  0
M  END
$$$$
default_name
  -OEChem-02102213163D

 33 33  0     1  0  0  0  0  0999 V2000
   -4.0702   -3.8485    1.4554 H   0  0  0  0  0  0  0  0  0  0  0  0
   -4.0012   -2.9605    0.8284 C   0  0  0  0  0  0  0  0  0  0  0  0
   -4.7652   -2.2435    1.1234 H   0  0  0  0  0  0  0  0  0  0  0  0
   -4.1352   -3.2385   -0.2156 H   0  0  0  0  0  0  0  0  0  0  0  0
   -2.6362   -2.3395    1.0094 C   0  0  0  0  0  0  0  0  0  0  0  0
   -1.8292   -2.8395    1.7814 O   0  0  0  0  0  0  0  0  0  0  0  0
   -2.3832   -1.2445    0.2964 N   0  0  0  0  0  0  0  0  0  0  0  0
   -3.1102   -0.8685   -0.2946 H   0  0  0  0  0  0  0  0  0  0  0  0
   -1.1292   -0.4875    0.3524 C   0  0  1  0  0  0  0  0  0  0  0  0
   -0.3087   -1.1556    0.0882 H   0  0  0  0  0  0  0  0  0  0  0  0
   -1.1749    0.6534   -0.6787 C   0  0  0  0  0  0  0  0  0  0  0  0
   -0.5595    1.4797   -0.3205 H   0  0  0  0  0  0  0  0  0  0  0  0
   -0.7374    0.3018   -1.6145 H   0  0  0  0  0  0  0  0  0  0  0  0
   -2.5694    1.1864   -0.9455 C   0  0  0  0  0  0  0  0  0  0  0  0
   -3.6291    0.8768   -0.0695 C   0  0  0  0  0  0  0  0  0  0  0  0
   -3.4556    0.2346    0.7841 H   0  0  0  0  0  0  0  0  0  0  0  0
   -4.9134    1.4073   -0.2992 C   0  0  0  0  0  0  0  0  0  0  0  0
   -5.7229    1.1668    0.3728 H   0  0  0  0  0  0  0  0  0  0  0  0
   -5.1375    2.2534   -1.4071 C   0  0  0  0  0  0  0  0  0  0  0  0
   -6.3718    2.7724   -1.6357 O   0  0  0  0  0  0  0  0  0  0  0  0
   -7.0285    2.4214   -1.0328 H   0  0  0  0  0  0  0  0  0  0  0  0
   -4.0749    2.5661   -2.2800 C   0  0  0  0  0  0  0  0  0  0  0  0
   -4.2597    3.2107   -3.1261 H   0  0  0  0  0  0  0  0  0  0  0  0
   -2.7933    2.0306   -2.0502 C   0  0  0  0  0  0  0  0  0  0  0  0
   -1.9795    2.2639   -2.7265 H   0  0  0  0  0  0  0  0  0  0  0  0
   -0.8664    0.0378    1.7736 C   0  0  0  0  0  0  0  0  0  0  0  0
    0.2529   -0.0672    2.2760 O   0  0  0  0  0  0  0  0  0  0  0  0
   -1.8947    0.5991    2.4221 N   0  0  0  0  0  0  0  0  0  0  0  0
   -2.7942    0.5936    1.9635 H   0  0  0  0  0  0  0  0  0  0  0  0
   -1.8170    1.1453    3.7750 C   0  0  0  0  0  0  0  0  0  0  0  0
   -0.9697    1.8290    3.8506 H   0  0  0  0  0  0  0  0  0  0  0  0
   -2.7354    1.6828    4.0167 H   0  0  0  0  0  0  0  0  0  0  0  0
   -1.6754    0.3334    4.4914 H   0  0  0  0  0  0  0  0  0  0  0  0
  5  6  2  0  0  0  0
  5  7  1  0  0  0  0
  2  3  1  0  0  0  0
  2  4  1  0  0  0  0
  2  5  1  0  0  0  0
  1  2  1  0  0  0  0
 26 27  2  0  0  0  0
 26 28  1  0  0  0  0
 24 25  1  0  0  0  0
 22 23  1  0  0  0  0
 22 24  2  0  0  0  0
 20 21  1  0  0  0  0
 19 20  1  0  0  0  0
 19 22  1  0  0  0  0
 17 18  1  0  0  0  0
 17 19  2  0  0  0  0
 15 16  1  0  0  0  0
 15 17  1  0  0  0  0
 14 15  2  0  0  0  0
 14 24  1  0  0  0  0
 11 12  1  0  0  0  0
 11 13  1  0  0  0  0
 11 14  1  0  0  0  0
  9 10  1  0  0  0  0
  9 11  1  0  0  0  0
  9 26  1  0  0  0  0
  7  8  1  0  0  0  0
  7  9  1  0  0  0  0
 30 31  1  0  0  0  0
 30 32  1  0  0  0  0
 30 33  1  0  0  0  0
 28 29  1  0  0  0  0
 28 30  1  0  0  0  0
M  END
$$$$
default_name
  -OEChem-02102213163D

 33 33  0     1  0  0  0  0  0999 V2000
   -4.0702   -3.8485    1.4554 H   0  0  0  0  0  0  0  0  0  0  0  0
   -4.0012   -2.9605    0.8284 C   0  0  0  0  0  0  0  0  0  0  0  0
   -4.7652   -2.2435    1.1234 H   0  0  0  0  0  0  0  0  0  0  0  0
   -4.1352   -3.2385   -0.2156 H   0  0  0  0  0  0  0  0  0  0  0  0
   -2.6362   -2.3395    1.0094 C   0  0  0  0  0  0  0  0  0  0  0  0
   -1.8292   -2.8395    1.7814 O   0  0  0  0  0  0  0  0  0  0  0  0
   -2.3832   -1.2445    0.2964 N   0  0  0  0  0  0  0  0  0  0  0  0
   -3.1102   -0.8685   -0.2946 H   0  0  0  0  0  0  0  0  0  0  0  0
   -1.1292   -0.4875    0.3524 C   0  0  1  0  0  0  0  0  0  0  0  0
   -0.3087   -1.1556    0.0882 H   0  0  0  0  0  0  0  0  0  0  0  0
   -1.1749    0.6534   -0.6787 C   0  0  0  0  0  0  0  0  0  0  0  0
   -0.5595    1.4797   -0.3205 H   0  0  0  0  0  0  0  0  0  0  0  0
   -0.7374    0.3018   -1.6145 H   0  0  0  0  0  0  0  0  0  0  0  0
   -2.5694    1.1864   -0.9455 C   0  0  0  0  0  0  0  0  0  0  0  0
   -3.5497    1.1526    0.0665 C   0  0  0  0  0  0  0  0  0  0  0  0
   -3.3170    0.7212    1.0313 H   0  0  0  0  0  0  0  0  0  0  0  0
   -4.8311    1.6857   -0.1733 C   0  0  0  0  0  0  0  0  0  0  0  0
   -5.5798    1.6567    0.6034 H   0  0  0  0  0  0  0  0  0  0  0  0
   -5.1317    2.2579   -1.4286 C   0  0  0  0  0  0  0  0  0  0  0  0
   -6.3636    2.7773   -1.6688 O   0  0  0  0  0  0  0  0  0  0  0  0
   -6.9708    2.6161   -0.9454 H   0  0  0  0  0  0  0  0  0  0  0  0
   -4.1480    2.2953   -2.4386 C   0  0  0  0  0  0  0  0  0  0  0  0
   -4.3913    2.7315   -3.3957 H   0  0  0  0  0  0  0  0  0  0  0  0
   -2.8695    1.7575   -2.1973 C   0  0  0  0  0  0  0  0  0  0  0  0
   -2.1172    1.7782   -2.9768 H   0  0  0  0  0  0  0  0  0  0  0  0
   -0.8664    0.0378    1.7736 C   0  0  0  0  0  0  0  0  0  0  0  0
    0.2529   -0.0672    2.2760 O   0  0  0  0  0  0  0  0  0  0  0  0
   -1.8947    0.5991    2.4221 N   0  0  0  0  0  0  0  0  0  0  0  0
   -2.7942    0.5936    1.9635 H   0  0  0  0  0  0  0  0  0  0  0  0
   -1.8170    1.1453    3.7750 C   0  0  0  0  0  0  0  0  0  0  0  0
   -0.9697    1.8290    3.8506 H   0  0  0  0  0  0  0  0  0  0  0  0
   -2.7354    1.6828    4.0167 H   0  0  0  0  0  0  0  0  0  0  0  0
   -1.6754    0.3334    4.4914 H   0  0  0  0  0  0  0  0  0  0  0  0
  5  6  2  0  0  0  0
  5  7  1  0  0  0  0
  2  3  1  0  0  0  0
  2  4  1  0  0  0  0
  2  5  1  0  0  0  0
  1  2  1  0  0  0  0
 26 27  2  0  0  0  0
 26 28  1  0  0  0  0
 24 25  1  0  0  0  0
 22 23  1  0  0  0  0
 22 24  2  0  0  0  0
 20 21  1  0  0  0  0
 19 20  1  0  0  0  0
 19 22  1  0  0  0  0
 17 18  1  0  0  0  0
 17 19  2  0  0  0  0
 15 16  1  0  0  0  0
 15 17  1  0  0  0  0
 14 15  2  0  0  0  0
 14 24  1  0  0  0  0
 11 12  1  0  0  0  0
 11 13  1  0  0  0  0
 11 14  1  0  0  0  0
  9 10  1  0  0  0  0
  9 11  1  0  0  0  0
  9 26  1  0  0  0  0
  7  8  1  0  0  0  0
  7  9  1  0  0  0  0
 30 31  1  0  0  0  0
 30 32  1  0  0  0  0
 30 33  1  0  0  0  0
 28 29  1  0  0  0  0
 28 30  1  0  0  0  0
M  END
$$$$
default_name
  -OEChem-02102213163D

 33 33  0     1  0  0  0  0  0999 V2000
   -4.0702   -3.8485    1.4554 H   0  0  0  0  0  0  0  0  0  0  0  0
   -4.0012   -2.9605    0.8284 C   0  0  0  0  0  0  0  0  0  0  0  0
   -4.7652   -2.2435    1.1234 H   0  0  0  0  0  0  0  0  0  0  0  0
   -4.1352   -3.2385   -0.2156 H   0  0  0  0  0  0  0  0  0  0  0  0
   -2.6362   -2.3395    1.0094 C   0  0  0  0  0  0  0  0  0  0  0  0
   -1.8292   -2.8395    1.7814 O   0  0  0  0  0  0  0  0  0  0  0  0
   -2.3832   -1.2445    0.2964 N   0  0  0  0  0  0  0  0  0  0  0  0
   -3.1102   -0.8685   -0.2946 H   0  0  0  0  0  0  0  0  0  0  0  0
   -1.1292   -0.4875    0.3524 C   0  0  1  0  0  0  0  0  0  0  0  0
   -0.3087   -1.1556    0.0882 H   0  0  0  0  0  0  0  0  0  0  0  0
   -1.1749    0.6534   -0.6787 C   0  0  0  0  0  0  0  0  0  0  0  0
   -0.5595    1.4797   -0.3205 H   0  0  0  0  0  0  0  0  0  0  0  0
   -0.7374    0.3018   -1.6145 H   0  0  0  0  0  0  0  0  0  0  0  0
   -2.5694    1.1864   -0.9455 C   0  0  0  0  0  0  0  0  0  0  0  0
   -3.4480    1.4478    0.1250 C   0  0  0  0  0  0  0  0  0  0  0  0
   -3.1384    1.2436    1.1416 H   0  0  0  0  0  0  0  0  0  0  0  0
   -4.7275    1.9809   -0.1254 C   0  0  0  0  0  0  0  0  0  0  0  0
   -5.3983    2.1783    0.6966 H   0  0  0  0  0  0  0  0  0  0  0  0
   -5.1278    2.2569   -1.4510 C   0  0  0  0  0  0  0  0  0  0  0  0
   -6.3585    2.7738   -1.7027 O   0  0  0  0  0  0  0  0  0  0  0  0
   -6.8982    2.8224   -0.9126 H   0  0  0  0  0  0  0  0  0  0  0  0
   -4.2454    1.9993   -2.5206 C   0  0  0  0  0  0  0  0  0  0  0  0
   -4.5647    2.2104   -3.5301 H   0  0  0  0  0  0  0  0  0  0  0  0
   -2.9690    1.4621   -2.2675 C   0  0  0  0  0  0  0  0  0  0  0  0
   -2.2951    1.2558   -3.0905 H   0  0  0  0  0  0  0  0  0  0  0  0
   -0.8664    0.0378    1.7736 C   0  0  0  0  0  0  0  0  0  0  0  0
    0.2529   -0.0672    2.2760 O   0  0  0  0  0  0  0  0  0  0  0  0
   -1.8947    0.5991    2.4221 N   0  0  0  0  0  0  0  0  0  0  0  0
   -2.7942    0.5936    1.9635 H   0  0  0  0  0  0  0  0  0  0  0  0
   -1.8170    1.1453    3.7750 C   0  0  0  0  0  0  0  0  0  0  0  0
   -0.9697    1.8290    3.8506 H   0  0  0  0  0  0  0  0  0  0  0  0
   -2.7354    1.6828    4.0167 H   0  0  0  0  0  0  0  0  0  0  0  0
   -1.6754    0.3334    4.4914 H   0  0  0  0  0  0  0  0  0  0  0  0
  5  6  2  0  0  0  0
  5  7  1  0  0  0  0
  2  3  1  0  0  0  0
  2  4  1  0  0  0  0
  2  5  1  0  0  0  0
  1  2  1  0  0  0  0
 26 27  2  0  0  0  0
 26 28  1  0  0  0  0
 24 25  1  0  0  0  0
 22 23  1  0  0  0  0
 22 24  2  0  0  0  0
 20 21  1  0  0  0  0
 19 20  1  0  0  0  0
 19 22  1  0  0  0  0
 17 18  1  0  0  0  0
 17 19  2  0  0  0  0
 15 16  1  0  0  0  0
 15 17  1  0  0  0  0
 14 15  2  0  0  0  0
 14 24  1  0  0  0  0
 11 12  1  0  0  0  0
 11 13  1  0  0  0  0
 11 14  1  0  0  0  0
  9 10  1  0  0  0  0
  9 11  1  0  0  0  0
  9 26  1  0  0  0  0
  7  8  1  0  0  0  0
  7  9  1  0  0  0  0
 30 31  1  0  0  0  0
 30 32  1  0  0  0  0
 30 33  1  0  0  0  0
 28 29  1  0  0  0  0
 28 30  1  0  0  0  0
M  END
$$$$
default_name
  -OEChem-02102213163D

 33 33  0     1  0  0  0  0  0999 V2000
   -4.0702   -3.8485    1.4554 H   0  0  0  0  0  0  0  0  0  0  0  0
   -4.0012   -2.9605    0.8284 C   0  0  0  0  0  0  0  0  0  0  0  0
   -4.7652   -2.2435    1.1234 H   0  0  0  0  0  0  0  0  0  0  0  0
   -4.1352   -3.2385   -0.2156 H   0  0  0  0  0  0  0  0  0  0  0  0
   -2.6362   -2.3395    1.0094 C   0  0  0  0  0  0  0  0  0  0  0  0
   -1.8292   -2.8395    1.7814 O   0  0  0  0  0  0  0  0  0  0  0  0
   -2.3832   -1.2445    0.2964 N   0  0  0  0  0  0  0  0  0  0  0  0
   -3.1102   -0.8685   -0.2946 H   0  0  0  0  0  0  0  0  0  0  0  0
   -1.1292   -0.4875    0.3524 C   0  0  1  0  0  0  0  0  0  0  0  0
   -0.3087   -1.1556    0.0882 H   0  0  0  0  0  0  0  0  0  0  0  0
   -1.1749    0.6534   -0.6787 C   0  0  0  0  0  0  0  0  0  0  0  0
   -0.5595    1.4797   -0.3205 H   0  0  0  0  0  0  0  0  0  0  0  0
   -0.7374    0.3018   -1.6145 H   0  0  0  0  0  0  0  0  0  0  0  0
   -2.5694    1.1864   -0.9455 C   0  0  0  0  0  0  0  0  0  0  0  0
   -3.3311    1.7422    0.1019 C   0  0  0  0  0  0  0  0  0  0  0  0
   -2.9321    1.7664    1.1075 H   0  0  0  0  0  0  0  0  0  0  0  0
   -4.6096    2.2726   -0.1589 C   0  0  0  0  0  0  0  0  0  0  0  0
   -5.1907    2.6960    0.6459 H   0  0  0  0  0  0  0  0  0  0  0  0
   -5.1261    2.2504   -1.4727 C   0  0  0  0  0  0  0  0  0  0  0  0
   -6.3568    2.7621   -1.7351 O   0  0  0  0  0  0  0  0  0  0  0  0
   -6.8157    3.0261   -0.9366 H   0  0  0  0  0  0  0  0  0  0  0  0
   -4.3605    1.6983   -2.5206 C   0  0  0  0  0  0  0  0  0  0  0  0
   -4.7682    1.6830   -3.5201 H   0  0  0  0  0  0  0  0  0  0  0  0
   -3.0849    1.1647   -2.2559 C   0  0  0  0  0  0  0  0  0  0  0  0
   -2.5011    0.7323   -3.0598 H   0  0  0  0  0  0  0  0  0  0  0  0
   -0.8664    0.0378    1.7736 C   0  0  0  0  0  0  0  0  0  0  0  0
    0.2529   -0.0672    2.2760 O   0  0  0  0  0  0  0  0  0  0  0  0
   -1.8947    0.5991    2.4221 N   0  0  0  0  0  0  0  0  0  0  0  0
   -2.7942    0.5936    1.9635 H   0  0  0  0  0  0  0  0  0  0  0  0
   -1.8170    1.1453    3.7750 C   0  0  0  0  0  0  0  0  0  0  0  0
   -0.9697    1.8290    3.8506 H   0  0  0  0  0  0  0  0  0  0  0  0
   -2.7354    1.6828    4.0167 H   0  0  0  0  0  0  0  0  0  0  0  0
   -1.6754    0.3334    4.4914 H   0  0  0  0  0  0  0  0  0  0  0  0
  5  6  2  0  0  0  0
  5  7  1  0  0  0  0
  2  3  1  0  0  0  0
  2  4  1  0  0  0  0
  2  5  1  0  0  0  0
  1  2  1  0  0  0  0
 26 27  2  0  0  0  0
 26 28  1  0  0  0  0
 24 25  1  0  0  0  0
 22 23  1  0  0  0  0
 22 24  2  0  0  0  0
 20 21  1  0  0  0  0
 19 20  1  0  0  0  0
 19 22  1  0  0  0  0
 17 18  1  0  0  0  0
 17 19  2  0  0  0  0
 15 16  1  0  0  0  0
 15 17  1  0  0  0  0
 14 15  2  0  0  0  0
 14 24  1  0  0  0  0
 11 12  1  0  0  0  0
 11 13  1  0  0  0  0
 11 14  1  0  0  0  0
  9 10  1  0  0  0  0
  9 11  1  0  0  0  0
  9 26  1  0  0  0  0
  7  8  1  0  0  0  0
  7  9  1  0  0  0  0
 30 31  1  0  0  0  0
 30 32  1  0  0  0  0
 30 33  1  0  0  0  0
 28 29  1  0  0  0  0
 28 30  1  0  0  0  0
M  END
$$$$
default_name
  -OEChem-02102213163D

 33 33  0     1  0  0  0  0  0999 V2000
   -4.0702   -3.8485    1.4554 H   0  0  0  0  0  0  0  0  0  0  0  0
   -4.0012   -2.9605    0.8284 C   0  0  0  0  0  0  0  0  0  0  0  0
   -4.7652   -2.2435    1.1234 H   0  0  0  0  0  0  0  0  0  0  0  0
   -4.1352   -3.2385   -0.2156 H   0  0  0  0  0  0  0  0  0  0  0  0
   -2.6362   -2.3395    1.0094 C   0  0  0  0  0  0  0  0  0  0  0  0
   -1.8292   -2.8395    1.7814 O   0  0  0  0  0  0  0  0  0  0  0  0
   -2.3832   -1.2445    0.2964 N   0  0  0  0  0  0  0  0  0  0  0  0
   -3.1102   -0.8685   -0.2946 H   0  0  0  0  0  0  0  0  0  0  0  0
   -1.1292   -0.4875    0.3524 C   0  0  1  0  0  0  0  0  0  0  0  0
   -0.3087   -1.1556    0.0882 H   0  0  0  0  0  0  0  0  0  0  0  0
   -1.1749    0.6534   -0.6787 C   0  0  0  0  0  0  0  0  0  0  0  0
   -0.5595    1.4797   -0.3205 H   0  0  0  0  0  0  0  0  0  0  0  0
   -0.7374    0.3018   -1.6145 H   0  0  0  0  0  0  0  0  0  0  0  0
   -2.5694    1.1864   -0.9455 C   0  0  0  0  0  0  0  0  0  0  0  0
   -3.2069    2.0157   -0.0010 C   0  0  0  0  0  0  0  0  0  0  0  0
   -2.7121    2.2539    0.9315 H   0  0  0  0  0  0  0  0  0  0  0  0
   -4.4854    2.5411   -0.2713 C   0  0  0  0  0  0  0  0  0  0  0  0
   -4.9712    3.1746    0.4549 H   0  0  0  0  0  0  0  0  0  0  0  0
   -5.1268    2.2388   -1.4923 C   0  0  0  0  0  0  0  0  0  0  0  0
   -6.3586    2.7430   -1.7637 O   0  0  0  0  0  0  0  0  0  0  0  0
   -6.7290    3.2134   -1.0158 H   0  0  0  0  0  0  0  0  0  0  0  0
   -4.4853    1.4127   -2.4384 C   0  0  0  0  0  0  0  0  0  0  0  0
   -4.9878    1.1853   -3.3665 H   0  0  0  0  0  0  0  0  0  0  0  0
   -3.2093    0.8854   -2.1633 C   0  0  0  0  0  0  0  0  0  0  0  0
   -2.7211    0.2433   -2.8867 H   0  0  0  0  0  0  0  0  0  0  0  0
   -0.8664    0.0378    1.7736 C   0  0  0  0  0  0  0  0  0  0  0  0
    0.2529   -0.0672    2.2760 O   0  0  0  0  0  0  0  0  0  0  0  0
   -1.8947    0.5991    2.4221 N   0  0  0  0  0  0  0  0  0  0  0  0
   -2.7942    0.5936    1.9635 H   0  0  0  0  0  0  0  0  0  0  0  0
   -1.8170    1.1453    3.7750 C   0  0  0  0  0  0  0  0  0  0  0  0
   -0.9697    1.8290    3.8506 H   0  0  0  0  0  0  0  0  0  0  0  0
   -2.7354    1.6828    4.0167 H   0  0  0  0  0  0  0  0  0  0  0  0
   -1.6754    0.3334    4.4914 H   0  0  0  0  0  0  0  0  0  0  0  0
  5  6  2  0  0  0  0
  5  7  1  0  0  0  0
  2  3  1  0  0  0  0
  2  4  1  0  0  0  0
  2  5  1  0  0  0  0
  1  2  1  0  0  0  0
 26 27  2  0  0  0  0
 26 28  1  0  0  0  0
 24 25  1  0  0  0  0
 22 23  1  0  0  0  0
 22 24  2  0  0  0  0
 20 21  1  0  0  0  0
 19 20  1  0  0  0  0
 19 22  1  0  0  0  0
 17 18  1  0  0  0  0
 17 19  2  0  0  0  0
 15 16  1  0  0  0  0
 15 17  1  0  0  0  0
 14 15  2  0  0  0  0
 14 24  1  0  0  0  0
 11 12  1  0  0  0  0
 11 13  1  0  0  0  0
 11 14  1  0  0  0  0
  9 10  1  0  0  0  0
  9 11  1  0  0  0  0
  9 26  1  0  0  0  0
  7  8  1  0  0  0  0
  7  9  1  0  0  0  0
 30 31  1  0  0  0  0
 30 32  1  0  0  0  0
 30 33  1  0  0  0  0
 28 29  1  0  0  0  0
 28 30  1  0  0  0  0
M  END
$$$$
default_name
  -OEChem-02102213163D

 33 33  0     1  0  0  0  0  0999 V2000
   -4.0702   -3.8485    1.4554 H   0  0  0  0  0  0  0  0  0  0  0  0
   -4.0012   -2.9605    0.8284 C   0  0  0  0  0  0  0  0  0  0  0  0
   -4.7652   -2.2435    1.1234 H   0  0  0  0  0  0  0  0  0  0  0  0
   -4.1352   -3.2385   -0.2156 H   0  0  0  0  0  0  0  0  0  0  0  0
   -2.6362   -2.3395    1.0094 C   0  0  0  0  0  0  0  0  0  0  0  0
   -1.8292   -2.8395    1.7814 O   0  0  0  0  0  0  0  0  0  0  0  0
   -2.3832   -1.2445    0.2964 N   0  0  0  0  0  0  0  0  0  0  0  0
   -3.1102   -0.8685   -0.2946 H   0  0  0  0  0  0  0  0  0  0  0  0
   -1.1292   -0.4875    0.3524 C   0  0  1  0  0  0  0  0  0  0  0  0
   -0.3087   -1.1556    0.0882 H   0  0  0  0  0  0  0  0  0  0  0  0
   -1.1749    0.6534   -0.6787 C   0  0  0  0  0  0  0  0  0  0  0  0
   -0.5595    1.4797   -0.3205 H   0  0  0  0  0  0  0  0  0  0  0  0
   -0.7374    0.3018   -1.6145 H   0  0  0  0  0  0  0  0  0  0  0  0
   -2.5694    1.1864   -0.9455 C   0  0  0  0  0  0  0  0  0  0  0  0
   -3.0837    2.2498   -0.1769 C   0  0  0  0  0  0  0  0  0  0  0  0
   -2.4934    2.6728    0.6254 H   0  0  0  0  0  0  0  0  0  0  0  0
   -4.3635    2.7681   -0.4551 C   0  0  0  0  0  0  0  0  0  0  0  0
   -4.7548    3.5814    0.1365 H   0  0  0  0  0  0  0  0  0  0  0  0
   -5.1297    2.2231   -1.5084 C   0  0  0  0  0  0  0  0  0  0  0  0
   -6.3638    2.7178   -1.7867 O   0  0  0  0  0  0  0  0  0  0  0  0
   -6.6439    3.3716   -1.1447 H   0  0  0  0  0  0  0  0  0  0  0  0
   -4.6115    1.1622   -2.2798 C   0  0  0  0  0  0  0  0  0  0  0  0
   -5.2087    0.7510   -3.0796 H   0  0  0  0  0  0  0  0  0  0  0  0
   -3.3338    0.6433   -1.9962 C   0  0  0  0  0  0  0  0  0  0  0  0
   -2.9401   -0.1779   -2.5833 H   0  0  0  0  0  0  0  0  0  0  0  0
   -0.8664    0.0378    1.7736 C   0  0  0  0  0  0  0  0  0  0  0  0
    0.2529   -0.0672    2.2760 O   0  0  0  0  0  0  0  0  0  0  0  0
   -1.8947    0.5991    2.4221 N   0  0  0  0  0  0  0  0  0  0  0  0
   -2.7942    0.5936    1.9635 H   0  0  0  0  0  0  0  0  0  0  0  0
   -1.8170    1.1453    3.7750 C   0  0  0  0  0  0  0  0  0  0  0  0
   -0.9697    1.8290    3.8506 H   0  0  0  0  0  0  0  0  0  0  0  0
   -2.7354    1.6828    4.0167 H   0  0  0  0  0  0  0  0  0  0  0  0
   -1.6754    0.3334    4.4914 H   0  0  0  0  0  0  0  0  0  0  0  0
  5  6  2  0  0  0  0
  5  7  1  0  0  0  0
  2  3  1  0  0  0  0
  2  4  1  0  0  0  0
  2  5  1  0  0  0  0
  1  2  1  0  0  0  0
 26 27  2  0  0  0  0
 26 28  1  0  0  0  0
 24 25  1  0  0  0  0
 22 23  1  0  0  0  0
 22 24  2  0  0  0  0
 20 21  1  0  0  0  0
 19 20  1  0  0  0  0
 19 22  1  0  0  0  0
 17 18  1  0  0  0  0
 17 19  2  0  0  0  0
 15 16  1  0  0  0  0
 15 17  1  0  0  0  0
 14 15  2  0  0  0  0
 14 24  1  0  0  0  0
 11 12  1  0  0  0  0
 11 13  1  0  0  0  0
 11 14  1  0  0  0  0
  9 10  1  0  0  0  0
  9 11  1  0  0  0  0
  9 26  1  0  0  0  0
  7  8  1  0  0  0  0
  7  9  1  0  0  0  0
 30 31  1  0  0  0  0
 30 32  1  0  0  0  0
 30 33  1  0  0  0  0
 28 29  1  0  0  0  0
 28 30  1  0  0  0  0
M  END
$$$$
default_name
  -OEChem-02102213163D

 33 33  0     1  0  0  0  0  0999 V2000
   -4.0702   -3.8485    1.4554 H   0  0  0  0  0  0  0  0  0  0  0  0
   -4.0012   -2.9605    0.8284 C   0  0  0  0  0  0  0  0  0  0  0  0
   -4.7652   -2.2435    1.1234 H   0  0  0  0  0  0  0  0  0  0  0  0
   -4.1352   -3.2385   -0.2156 H   0  0  0  0  0  0  0  0  0  0  0  0
   -2.6362   -2.3395    1.0094 C   0  0  0  0  0  0  0  0  0  0  0  0
   -1.8292   -2.8395    1.7814 O   0  0  0  0  0  0  0  0  0  0  0  0
   -2.3832   -1.2445    0.2964 N   0  0  0  0  0  0  0  0  0  0  0  0
   -3.1102   -0.8685   -0.2946 H   0  0  0  0  0  0  0  0  0  0  0  0
   -1.1292   -0.4875    0.3524 C   0  0  1  0  0  0  0  0  0  0  0  0
   -0.3087   -1.1556    0.0882 H   0  0  0  0  0  0  0  0  0  0  0  0
   -1.1749    0.6534   -0.6787 C   0  0  0  0  0  0  0  0  0  0  0  0
   -0.5595    1.4797   -0.3205 H   0  0  0  0  0  0  0  0  0  0  0  0
   -0.7374    0.3018   -1.6145 H   0  0  0  0  0  0  0  0  0  0  0  0
   -2.5694    1.1864   -0.9455 C   0  0  0  0  0  0  0  0  0  0  0  0
   -2.9701    2.4285   -0.4136 C   0  0  0  0  0  0  0  0  0  0  0  0
   -2.2909    2.9947    0.2101 H   0  0  0  0  0  0  0  0  0  0  0  0
   -4.2521    2.9380   -0.6978 C   0  0  0  0  0  0  0  0  0  0  0  0
   -4.5562    3.8887   -0.2875 H   0  0  0  0  0  0  0  0  0  0  0  0
   -5.1348    2.2041   -1.5200 C   0  0  0  0  0  0  0  0  0  0  0  0
   -6.3721    2.6882   -1.8024 O   0  0  0  0  0  0  0  0  0  0  0  0
   -6.5662    3.4898   -1.3147 H   0  0  0  0  0  0  0  0  0  0  0  0
   -4.7303    0.9637   -2.0554 C   0  0  0  0  0  0  0  0  0  0  0  0
   -5.4157    0.4099   -2.6791 H   0  0  0  0  0  0  0  0  0  0  0  0
   -3.4499    0.4549   -1.7658 C   0  0  0  0  0  0  0  0  0  0  0  0
   -3.1433   -0.5025   -2.1699 H   0  0  0  0  0  0  0  0  0  0  0  0
   -0.8664    0.0378    1.7736 C   0  0  0  0  0  0  0  0  0  0  0  0
    0.2529   -0.0672    2.2760 O   0  0  0  0  0  0  0  0  0  0  0  0
   -1.8947    0.5991    2.4221 N   0  0  0  0  0  0  0  0  0  0  0  0
   -2.7942    0.5936    1.9635 H   0  0  0  0  0  0  0  0  0  0  0  0
   -1.8170    1.1453    3.7750 C   0  0  0  0  0  0  0  0  0  0  0  0
   -0.9697    1.8290    3.8506 H   0  0  0  0  0  0  0  0  0  0  0  0
   -2.7354    1.6828    4.0167 H   0  0  0  0  0  0  0  0  0  0  0  0
   -1.6754    0.3334    4.4914 H   0  0  0  0  0  0  0  0  0  0  0  0
  5  6  2  0  0  0  0
  5  7  1  0  0  0  0
  2  3  1  0  0  0  0
  2  4  1  0  0  0  0
  2  5  1  0  0  0  0
  1  2  1  0  0  0  0
 26 27  2  0  0  0  0
 26 28  1  0  0  0  0
 24 25  1  0  0  0  0
 22 23  1  0  0  0  0
 22 24  2  0  0  0  0
 20 21  1  0  0  0  0
 19 20  1  0  0  0  0
 19 22  1  0  0  0  0
 17 18  1  0  0  0  0
 17 19  2  0  0  0  0
 15 16  1  0  0  0  0
 15 17  1  0  0  0  0
 14 15  2  0  0  0  0
 14 24  1  0  0  0  0
 11 12  1  0  0  0  0
 11 13  1  0  0  0  0
 11 14  1  0  0  0  0
  9 10  1  0  0  0  0
  9 11  1  0  0  0  0
  9 26  1  0  0  0  0
  7  8  1  0  0  0  0
  7  9  1  0  0  0  0
 30 31  1  0  0  0  0
 30 32  1  0  0  0  0
 30 33  1  0  0  0  0
 28 29  1  0  0  0  0
 28 30  1  0  0  0  0
M  END
$$$$
default_name
  -OEChem-02102213163D

 33 33  0     1  0  0  0  0  0999 V2000
   -4.0702   -3.8485    1.4554 H   0  0  0  0  0  0  0  0  0  0  0  0
   -4.0012   -2.9605    0.8284 C   0  0  0  0  0  0  0  0  0  0  0  0
   -4.7652   -2.2435    1.1234 H   0  0  0  0  0  0  0  0  0  0  0  0
   -4.1352   -3.2385   -0.2156 H   0  0  0  0  0  0  0  0  0  0  0  0
   -2.6362   -2.3395    1.0094 C   0  0  0  0  0  0  0  0  0  0  0  0
   -1.8292   -2.8395    1.7814 O   0  0  0  0  0  0  0  0  0  0  0  0
   -2.3832   -1.2445    0.2964 N   0  0  0  0  0  0  0  0  0  0  0  0
   -3.1102   -0.8685   -0.2946 H   0  0  0  0  0  0  0  0  0  0  0  0
   -1.1292   -0.4875    0.3524 C   0  0  1  0  0  0  0  0  0  0  0  0
   -0.3087   -1.1556    0.0882 H   0  0  0  0  0  0  0  0  0  0  0  0
   -1.1749    0.6534   -0.6787 C   0  0  0  0  0  0  0  0  0  0  0  0
   -0.5595    1.4797   -0.3205 H   0  0  0  0  0  0  0  0  0  0  0  0
   -0.7374    0.3018   -1.6145 H   0  0  0  0  0  0  0  0  0  0  0  0
   -2.5694    1.1864   -0.9455 C   0  0  0  0  0  0  0  0  0  0  0  0
   -2.8738    2.5395   -0.6952 C   0  0  0  0  0  0  0  0  0  0  0  0
   -2.1184    3.1975   -0.2860 H   0  0  0  0  0  0  0  0  0  0  0  0
   -4.1589    3.0393   -0.9827 C   0  0  0  0  0  0  0  0  0  0  0  0
   -4.3890    4.0756   -0.7883 H   0  0  0  0  0  0  0  0  0  0  0  0
   -5.1415    2.1833   -1.5262 C   0  0  0  0  0  0  0  0  0  0  0  0
   -6.3829    2.6564   -1.8097 O   0  0  0  0  0  0  0  0  0  0  0  0
   -6.5012    3.5600   -1.5140 H   0  0  0  0  0  0  0  0  0  0  0  0
   -4.8337    0.8308   -1.7807 C   0  0  0  0  0  0  0  0  0  0  0  0
   -5.5948    0.1852   -2.1922 H   0  0  0  0  0  0  0  0  0  0  0  0
   -3.5497    0.3331   -1.4878 C   0  0  0  0  0  0  0  0  0  0  0  0
   -3.3167   -0.7084   -1.6750 H   0  0  0  0  0  0  0  0  0  0  0  0
   -0.8664    0.0378    1.7736 C   0  0  0  0  0  0  0  0  0  0  0  0
    0.2529   -0.0672    2.2760 O   0  0  0  0  0  0  0  0  0  0  0  0
   -1.8947    0.5991    2.4221 N   0  0  0  0  0  0  0  0  0  0  0  0
   -2.7942    0.5936    1.9635 H   0  0  0  0  0  0  0  0  0  0  0  0
   -1.8170    1.1453    3.7750 C   0  0  0  0  0  0  0  0  0  0  0  0
   -0.9697    1.8290    3.8506 H   0  0  0  0  0  0  0  0  0  0  0  0
   -2.7354    1.6828    4.0167 H   0  0  0  0  0  0  0  0  0  0  0  0
   -1.6754    0.3334    4.4914 H   0  0  0  0  0  0  0  0  0  0  0  0
  5  6  2  0  0  0  0
  5  7  1  0  0  0  0
  2  3  1  0  0  0  0
  2  4  1  0  0  0  0
  2  5  1  0  0  0  0
  1  2  1  0  0  0  0
 26 27  2  0  0  0  0
 26 28  1  0  0  0  0
 24 25  1  0  0  0  0
 22 23  1  0  0  0  0
 22 24  2  0  0  0  0
 20 21  1  0  0  0  0
 19 20  1  0  0  0  0
 19 22  1  0  0  0  0
 17 18  1  0  0  0  0
 17 19  2  0  0  0  0
 15 16  1  0  0  0  0
 15 17  1  0  0  0  0
 14 15  2  0  0  0  0
 14 24  1  0  0  0  0
 11 12  1  0  0  0  0
 11 13  1  0  0  0  0
 11 14  1  0  0  0  0
  9 10  1  0  0  0  0
  9 11  1  0  0  0  0
  9 26  1  0  0  0  0
  7  8  1  0  0  0  0
  7  9  1  0  0  0  0
 30 31  1  0  0  0  0
 30 32  1  0  0  0  0
 30 33  1  0  0  0  0
 28 29  1  0  0  0  0
 28 30  1  0  0  0  0
M  END
$$$$
default_name
  -OEChem-02102213163D

 33 33  0     1  0  0  0  0  0999 V2000
   -4.0702   -3.8485    1.4554 H   0  0  0  0  0  0  0  0  0  0  0  0
   -4.0012   -2.9605    0.8284 C   0  0  0  0  0  0  0  0  0  0  0  0
   -4.7652   -2.2435    1.1234 H   0  0  0  0  0  0  0  0  0  0  0  0
   -4.1352   -3.2385   -0.2156 H   0  0  0  0  0  0  0  0  0  0  0  0
   -2.6362   -2.3395    1.0094 C   0  0  0  0  0  0  0  0  0  0  0  0
   -1.8292   -2.8395    1.7814 O   0  0  0  0  0  0  0  0  0  0  0  0
   -2.3832   -1.2445    0.2964 N   0  0  0  0  0  0  0  0  0  0  0  0
   -3.1102   -0.8685   -0.2946 H   0  0  0  0  0  0  0  0  0  0  0  0
   -1.1292   -0.4875    0.3524 C   0  0  1  0  0  0  0  0  0  0  0  0
   -0.3087   -1.1556    0.0882 H   0  0  0  0  0  0  0  0  0  0  0  0
   -1.1749    0.6534   -0.6787 C   0  0  0  0  0  0  0  0  0  0  0  0
   -0.5595    1.4797   -0.3205 H   0  0  0  0  0  0  0  0  0  0  0  0
   -0.7374    0.3018   -1.6145 H   0  0  0  0  0  0  0  0  0  0  0  0
   -2.5694    1.1864   -0.9455 C   0  0  0  0  0  0  0  0  0  0  0  0
   -2.8013    2.5754   -1.0023 C   0  0  0  0  0  0  0  0  0  0  0  0
   -1.9877    3.2675   -0.8292 H   0  0  0  0  0  0  0  0  0  0  0  0
   -4.0901    3.0651   -1.2906 C   0  0  0  0  0  0  0  0  0  0  0  0
   -4.2644    4.1293   -1.3317 H   0  0  0  0  0  0  0  0  0  0  0  0
   -5.1496    2.1621   -1.5266 C   0  0  0  0  0  0  0  0  0  0  0  0
   -6.3954    2.6243   -1.8083 O   0  0  0  0  0  0  0  0  0  0  0  0
   -6.4534    3.5774   -1.7292 H   0  0  0  0  0  0  0  0  0  0  0  0
   -4.9146    0.7725   -1.4742 C   0  0  0  0  0  0  0  0  0  0  0  0
   -5.7337    0.0921   -1.6522 H   0  0  0  0  0  0  0  0  0  0  0  0
   -3.6263    0.2861   -1.1813 C   0  0  0  0  0  0  0  0  0  0  0  0
   -3.4486   -0.7816   -1.1321 H   0  0  0  0  0  0  0  0  0  0  0  0
   -0.8664    0.0378    1.7736 C   0  0  0  0  0  0  0  0  0  0  0  0
    0.2529   -0.0672    2.2760 O   0  0  0  0  0  0  0  0  0  0  0  0
   -1.8947    0.5991    2.4221 N   0  0  0  0  0  0  0  0  0  0  0  0
   -2.7942    0.5936    1.9635 H   0  0  0  0  0  0  0  0  0  0  0  0
   -1.8170    1.1453    3.7750 C   0  0  0  0  0  0  0  0  0  0  0  0
   -0.9697    1.8290    3.8506 H   0  0  0  0  0  0  0  0  0  0  0  0
   -2.7354    1.6828    4.0167 H   0  0  0  0  0  0  0  0  0  0  0  0
   -1.6754    0.3334    4.4914 H   0  0  0  0  0  0  0  0  0  0  0  0
  5  6  2  0  0  0  0
  5  7  1  0  0  0  0
  2  3  1  0  0  0  0
  2  4  1  0  0  0  0
  2  5  1  0  0  0  0
  1  2  1  0  0  0  0
 26 27  2  0  0  0  0
 26 28  1  0  0  0  0
 24 25  1  0  0  0  0
 22 23  1  0  0  0  0
 22 24  2  0  0  0  0
 20 21  1  0  0  0  0
 19 20  1  0  0  0  0
 19 22  1  0  0  0  0
 17 18  1  0  0  0  0
 17 19  2  0  0  0  0
 15 16  1  0  0  0  0
 15 17  1  0  0  0  0
 14 15  2  0  0  0  0
 14 24  1  0  0  0  0
 11 12  1  0  0  0  0
 11 13  1  0  0  0  0
 11 14  1  0  0  0  0
  9 10  1  0  0  0  0
  9 11  1  0  0  0  0
  9 26  1  0  0  0  0
  7  8  1  0  0  0  0
  7  9  1  0  0  0  0
 30 31  1  0  0  0  0
 30 32  1  0  0  0  0
 30 33  1  0  0  0  0
 28 29  1  0  0  0  0
 28 30  1  0  0  0  0
M  END
$$$$
default_name
  -OEChem-02102213163D

 33 33  0     1  0  0  0  0  0999 V2000
   -4.0702   -3.8485    1.4554 H   0  0  0  0  0  0  0  0  0  0  0  0
   -4.0012   -2.9605    0.8284 C   0  0  0  0  0  0  0  0  0  0  0  0
   -4.7652   -2.2435    1.1234 H   0  0  0  0  0  0  0  0  0  0  0  0
   -4.1352   -3.2385   -0.2156 H   0  0  0  0  0  0  0  0  0  0  0  0
   -2.6362   -2.3395    1.0094 C   0  0  0  0  0  0  0  0  0  0  0  0
   -1.8292   -2.8395    1.7814 O   0  0  0  0  0  0  0  0  0  0  0  0
   -2.3832   -1.2445    0.2964 N   0  0  0  0  0  0  0  0  0  0  0  0
   -3.1102   -0.8685   -0.2946 H   0  0  0  0  0  0  0  0  0  0  0  0
   -1.1292   -0.4875    0.3524 C   0  0  1  0  0  0  0  0  0  0  0  0
   -0.3087   -1.1556    0.0882 H   0  0  0  0  0  0  0  0  0  0  0  0
   -1.1749    0.6534   -0.6787 C   0  0  0  0  0  0  0  0  0  0  0  0
   -0.5595    1.4797   -0.3205 H   0  0  0  0  0  0  0  0  0  0  0  0
   -0.7374    0.3018   -1.6145 H   0  0  0  0  0  0  0  0  0  0  0  0
   -2.5694    1.1864   -0.9455 C   0  0  0  0  0  0  0  0  0  0  0  0
   -2.7576    2.5336   -1.3141 C   0  0  0  0  0  0  0  0  0  0  0  0
   -1.9077    3.1999   -1.3824 H   0  0  0  0  0  0  0  0  0  0  0  0
   -4.0505    3.0136   -1.6003 C   0  0  0  0  0  0  0  0  0  0  0  0
   -4.1911    4.0462   -1.8807 H   0  0  0  0  0  0  0  0  0  0  0  0
   -5.1584    2.1418   -1.5212 C   0  0  0  0  0  0  0  0  0  0  0  0
   -6.4088    2.5942   -1.7981 O   0  0  0  0  0  0  0  0  0  0  0  0
   -6.4260    3.5408   -1.9455 H   0  0  0  0  0  0  0  0  0  0  0  0
   -4.9675    0.7928   -1.1570 C   0  0  0  0  0  0  0  0  0  0  0  0
   -5.8230    0.1371   -1.0957 H   0  0  0  0  0  0  0  0  0  0  0  0
   -3.6746    0.3172   -0.8671 C   0  0  0  0  0  0  0  0  0  0  0  0
   -3.5299   -0.7171   -0.5783 H   0  0  0  0  0  0  0  0  0  0  0  0
   -0.8664    0.0378    1.7736 C   0  0  0  0  0  0  0  0  0  0  0  0
    0.2529   -0.0672    2.2760 O   0  0  0  0  0  0  0  0  0  0  0  0
   -1.8947    0.5991    2.4221 N   0  0  0  0  0  0  0  0  0  0  0  0
   -2.7942    0.5936    1.9635 H   0  0  0  0  0  0  0  0  0  0  0  0
   -1.8170    1.1453    3.7750 C   0  0  0  0  0  0  0  0  0  0  0  0
   -0.9697    1.8290    3.8506 H   0  0  0  0  0  0  0  0  0  0  0  0
   -2.7354    1.6828    4.0167 H   0  0  0  0  0  0  0  0  0  0  0  0
   -1.6754    0.3334    4.4914 H   0  0  0  0  0  0  0  0  0  0  0  0
  5  6  2  0  0  0  0
  5  7  1  0  0  0  0
  2  3  1  0  0  0  0
  2  4  1  0  0  0  0
  2  5  1  0  0  0  0
  1  2  1  0  0  0  0
 26 27  2  0  0  0  0
 26 28  1  0  0  0  0
 24 25  1  0  0  0  0
 22 23  1  0  0  0  0
 22 24  2  0  0  0  0
 20 21  1  0  0  0  0
 19 20  1  0  0  0  0
 19 22  1  0  0  0  0
 17 18  1  0  0  0  0
 17 19  2  0  0  0  0
 15 16  1  0  0  0  0
 15 17  1  0  0  0  0
 14 15  2  0  0  0  0
 14 24  1  0  0  0  0
 11 12  1  0  0  0  0
 11 13  1  0  0  0  0
 11 14  1  0  0  0  0
  9 10  1  0  0  0  0
  9 11  1  0  0  0  0
  9 26  1  0  0  0  0
  7  8  1  0  0  0  0
  7  9  1  0  0  0  0
 30 31  1  0  0  0  0
 30 32  1  0  0  0  0
 30 33  1  0  0  0  0
 28 29  1  0  0  0  0
 28 30  1  0  0  0  0
M  END
$$$$
default_name
  -OEChem-02102213163D

 33 33  0     1  0  0  0  0  0999 V2000
   -4.0702   -3.8485    1.4554 H   0  0  0  0  0  0  0  0  0  0  0  0
   -4.0012   -2.9605    0.8284 C   0  0  0  0  0  0  0  0  0  0  0  0
   -4.7652   -2.2435    1.1234 H   0  0  0  0  0  0  0  0  0  0  0  0
   -4.1352   -3.2385   -0.2156 H   0  0  0  0  0  0  0  0  0  0  0  0
   -2.6362   -2.3395    1.0094 C   0  0  0  0  0  0  0  0  0  0  0  0
   -1.8292   -2.8395    1.7814 O   0  0  0  0  0  0  0  0  0  0  0  0
   -2.3832   -1.2445    0.2964 N   0  0  0  0  0  0  0  0  0  0  0  0
   -3.1102   -0.8685   -0.2946 H   0  0  0  0  0  0  0  0  0  0  0  0
   -1.1292   -0.4875    0.3524 C   0  0  1  0  0  0  0  0  0  0  0  0
   -0.3087   -1.1556    0.0882 H   0  0  0  0  0  0  0  0  0  0  0  0
   -1.1749    0.6534   -0.6787 C   0  0  0  0  0  0  0  0  0  0  0  0
   -0.5595    1.4797   -0.3205 H   0  0  0  0  0  0  0  0  0  0  0  0
   -0.7374    0.3018   -1.6145 H   0  0  0  0  0  0  0  0  0  0  0  0
   -2.5694    1.1864   -0.9455 C   0  0  0  0  0  0  0  0  0  0  0  0
   -2.7457    2.4171   -1.6093 C   0  0  0  0  0  0  0  0  0  0  0  0
   -1.8838    2.9993   -1.9079 H   0  0  0  0  0  0  0  0  0  0  0  0
   -4.0428    2.8883   -1.8908 C   0  0  0  0  0  0  0  0  0  0  0  0
   -4.1740    3.8319   -2.3979 H   0  0  0  0  0  0  0  0  0  0  0  0
   -5.1673    2.1239   -1.5103 C   0  0  0  0  0  0  0  0  0  0  0  0
   -6.4223    2.5682   -1.7799 O   0  0  0  0  0  0  0  0  0  0  0  0
   -6.4208    3.4527   -2.1482 H   0  0  0  0  0  0  0  0  0  0  0  0
   -4.9889    0.8903   -0.8506 C   0  0  0  0  0  0  0  0  0  0  0  0
   -5.8566    0.3170   -0.5608 H   0  0  0  0  0  0  0  0  0  0  0  0
   -3.6912    0.4241   -0.5665 C   0  0  0  0  0  0  0  0  0  0  0  0
   -3.5552   -0.5193   -0.0513 H   0  0  0  0  0  0  0  0  0  0  0  0
   -0.8664    0.0378    1.7736 C   0  0  0  0  0  0  0  0  0  0  0  0
    0.2529   -0.0672    2.2760 O   0  0  0  0  0  0  0  0  0  0  0  0
   -1.8947    0.5991    2.4221 N   0  0  0  0  0  0  0  0  0  0  0  0
   -2.7942    0.5936    1.9635 H   0  0  0  0  0  0  0  0  0  0  0  0
   -1.8170    1.1453    3.7750 C   0  0  0  0  0  0  0  0  0  0  0  0
   -0.9697    1.8290    3.8506 H   0  0  0  0  0  0  0  0  0  0  0  0
   -2.7354    1.6828    4.0167 H   0  0  0  0  0  0  0  0  0  0  0  0
   -1.6754    0.3334    4.4914 H   0  0  0  0  0  0  0  0  0  0  0  0
  5  6  2  0  0  0  0
  5  7  1  0  0  0  0
  2  3  1  0  0  0  0
  2  4  1  0  0  0  0
  2  5  1  0  0  0  0
  1  2  1  0  0  0  0
 26 27  2  0  0  0  0
 26 28  1  0  0  0  0
 24 25  1  0  0  0  0
 22 23  1  0  0  0  0
 22 24  2  0  0  0  0
 20 21  1  0  0  0  0
 19 20  1  0  0  0  0
 19 22  1  0  0  0  0
 17 18  1  0  0  0  0
 17 19  2  0  0  0  0
 15 16  1  0  0  0  0
 15 17  1  0  0  0  0
 14 15  2  0  0  0  0
 14 24  1  0  0  0  0
 11 12  1  0  0  0  0
 11 13  1  0  0  0  0
 11 14  1  0  0  0  0
  9 10  1  0  0  0  0
  9 11  1  0  0  0  0
  9 26  1  0  0  0  0
  7  8  1  0  0  0  0
  7  9  1  0  0  0  0
 30 31  1  0  0  0  0
 30 32  1  0  0  0  0
 30 33  1  0  0  0  0
 28 29  1  0  0  0  0
 28 30  1  0  0  0  0
M  END
$$$$
default_name
  -OEChem-02102213163D

 33 33  0     1  0  0  0  0  0999 V2000
   -4.0702   -3.8485    1.4554 H   0  0  0  0  0  0  0  0  0  0  0  0
   -4.0012   -2.9605    0.8284 C   0  0  0  0  0  0  0  0  0  0  0  0
   -4.7652   -2.2435    1.1234 H   0  0  0  0  0  0  0  0  0  0  0  0
   -4.1352   -3.2385   -0.2156 H   0  0  0  0  0  0  0  0  0  0  0  0
   -2.6362   -2.3395    1.0094 C   0  0  0  0  0  0  0  0  0  0  0  0
   -1.8292   -2.8395    1.7814 O   0  0  0  0  0  0  0  0  0  0  0  0
   -2.3832   -1.2445    0.2964 N   0  0  0  0  0  0  0  0  0  0  0  0
   -3.1102   -0.8685   -0.2946 H   0  0  0  0  0  0  0  0  0  0  0  0
   -1.1292   -0.4875    0.3524 C   0  0  1  0  0  0  0  0  0  0  0  0
   -0.3087   -1.1556    0.0882 H   0  0  0  0  0  0  0  0  0  0  0  0
   -1.1749    0.6534   -0.6787 C   0  0  0  0  0  0  0  0  0  0  0  0
   -0.3687    1.3565   -0.4652 H   0  0  0  0  0  0  0  0  0  0  0  0
   -0.9932    0.2396   -1.6719 H   0  0  0  0  0  0  0  0  0  0  0  0
   -2.4813    1.4236   -0.6869 C   0  0  0  0  0  0  0  0  0  0  0  0
   -2.6682    2.4977   -1.5800 C   0  0  0  0  0  0  0  0  0  0  0  0
   -1.8682    2.7933   -2.2461 H   0  0  0  0  0  0  0  0  0  0  0  0
   -3.8978    3.1839   -1.6120 C   0  0  0  0  0  0  0  0  0  0  0  0
   -4.0369    4.0069   -2.2961 H   0  0  0  0  0  0  0  0  0  0  0  0
   -4.9452    2.7918   -0.7502 C   0  0  0  0  0  0  0  0  0  0  0  0
   -6.1358    3.4452   -0.7754 O   0  0  0  0  0  0  0  0  0  0  0  0
   -6.1156    4.2104   -1.3517 H   0  0  0  0  0  0  0  0  0  0  0  0
   -4.7581    1.7136    0.1394 C   0  0  0  0  0  0  0  0  0  0  0  0
   -5.5650    1.4260    0.7965 H   0  0  0  0  0  0  0  0  0  0  0  0
   -3.5263    1.0326    0.1722 C   0  0  0  0  0  0  0  0  0  0  0  0
   -3.3802    0.2103    0.8625 H   0  0  0  0  0  0  0  0  0  0  0  0
   -0.8664    0.0378    1.7736 C   0  0  0  0  0  0  0  0  0  0  0  0
    0.2529   -0.0672    2.2760 O   0  0  0  0  0  0  0  0  0  0  0  0
   -1.8947    0.5991    2.4221 N   0  0  0  0  0  0  0  0  0  0  0  0
   -2.7942    0.5936    1.9635 H   0  0  0  0  0  0  0  0  0  0  0  0
   -1.8170    1.1453    3.7750 C   0  0  0  0  0  0  0  0  0  0  0  0
   -0.9697    1.8290    3.8506 H   0  0  0  0  0  0  0  0  0  0  0  0
   -2.7354    1.6828    4.0167 H   0  0  0  0  0  0  0  0  0  0  0  0
   -1.6754    0.3334    4.4914 H   0  0  0  0  0  0  0  0  0  0  0  0
  5  6  2  0  0  0  0
  5  7  1  0  0  0  0
  2  3  1  0  0  0  0
  2  4  1  0  0  0  0
  2  5  1  0  0  0  0
  1  2  1  0  0  0  0
 26 27  2  0  0  0  0
 26 28  1  0  0  0  0
 24 25  1  0  0  0  0
 22 23  1  0  0  0  0
 22 24  2  0  0  0  0
 20 21  1  0  0  0  0
 19 20  1  0  0  0  0
 19 22  1  0  0  0  0
 17 18  1  0  0  0  0
 17 19  2  0  0  0  0
 15 16  1  0  0  0  0
 15 17  1  0  0  0  0
 14 15  2  0  0  0  0
 14 24  1  0  0  0  0
 11 12  1  0  0  0  0
 11 13  1  0  0  0  0
 11 14  1  0  0  0  0
  9 10  1  0  0  0  0
  9 11  1  0  0  0  0
  9 26  1  0  0  0  0
  7  8  1  0  0  0  0
  7  9  1  0  0  0  0
 30 31  1  0  0  0  0
 30 32  1  0  0  0  0
 30 33  1  0  0  0  0
 28 29  1  0  0  0  0
 28 30  1  0  0  0  0
M  END
$$$$
default_name
  -OEChem-02102213163D

 33 33  0     1  0  0  0  0  0999 V2000
   -4.0702   -3.8485    1.4554 H   0  0  0  0  0  0  0  0  0  0  0  0
   -4.0012   -2.9605    0.8284 C   0  0  0  0  0  0  0  0  0  0  0  0
   -4.7652   -2.2435    1.1234 H   0  0  0  0  0  0  0  0  0  0  0  0
   -4.1352   -3.2385   -0.2156 H   0  0  0  0  0  0  0  0  0  0  0  0
   -2.6362   -2.3395    1.0094 C   0  0  0  0  0  0  0  0  0  0  0  0
   -1.8292   -2.8395    1.7814 O   0  0  0  0  0  0  0  0  0  0  0  0
   -2.3832   -1.2445    0.2964 N   0  0  0  0  0  0  0  0  0  0  0  0
   -3.1102   -0.8685   -0.2946 H   0  0  0  0  0  0  0  0  0  0  0  0
   -1.1292   -0.4875    0.3524 C   0  0  1  0  0  0  0  0  0  0  0  0
   -0.3087   -1.1556    0.0882 H   0  0  0  0  0  0  0  0  0  0  0  0
   -1.1749    0.6534   -0.6787 C   0  0  0  0  0  0  0  0  0  0  0  0
   -0.3687    1.3565   -0.4652 H   0  0  0  0  0  0  0  0  0  0  0  0
   -0.9932    0.2396   -1.6719 H   0  0  0  0  0  0  0  0  0  0  0  0
   -2.4813    1.4236   -0.6869 C   0  0  0  0  0  0  0  0  0  0  0  0
   -2.7986    2.2746   -1.7646 C   0  0  0  0  0  0  0  0  0  0  0  0
   -2.0973    2.4012   -2.5790 H   0  0  0  0  0  0  0  0  0  0  0  0
   -4.0309    2.9564   -1.7871 C   0  0  0  0  0  0  0  0  0  0  0  0
   -4.2699    3.6084   -2.6132 H   0  0  0  0  0  0  0  0  0  0  0  0
   -4.9503    2.7833   -0.7297 C   0  0  0  0  0  0  0  0  0  0  0  0
   -6.1426    3.4341   -0.7435 O   0  0  0  0  0  0  0  0  0  0  0  0
   -6.2087    4.0511   -1.4735 H   0  0  0  0  0  0  0  0  0  0  0  0
   -4.6332    1.9276    0.3455 C   0  0  0  0  0  0  0  0  0  0  0  0
   -5.3427    1.8069    1.1503 H   0  0  0  0  0  0  0  0  0  0  0  0
   -3.3988    1.2511    0.3674 C   0  0  0  0  0  0  0  0  0  0  0  0
   -3.1520    0.6010    1.1983 H   0  0  0  0  0  0  0  0  0  0  0  0
   -0.8664    0.0378    1.7736 C   0  0  0  0  0  0  0  0  0  0  0  0
    0.2529   -0.0672    2.2760 O   0  0  0  0  0  0  0  0  0  0  0  0
   -1.8947    0.5991    2.4221 N   0  0  0  0  0  0  0  0  0  0  0  0
   -2.7942    0.5936    1.9635 H   0  0  0  0  0  0  0  0  0  0  0  0
   -1.8170    1.1453    3.7750 C   0  0  0  0  0  0  0  0  0  0  0  0
   -0.9697    1.8290    3.8506 H   0  0  0  0  0  0  0  0  0  0  0  0
   -2.7354    1.6828    4.0167 H   0  0  0  0  0  0  0  0  0  0  0  0
   -1.6754    0.3334    4.4914 H   0  0  0  0  0  0  0  0  0  0  0  0
  5  6  2  0  0  0  0
  5  7  1  0  0  0  0
  2  3  1  0  0  0  0
  2  4  1  0  0  0  0
  2  5  1  0  0  0  0
  1  2  1  0  0  0  0
 26 27  2  0  0  0  0
 26 28  1  0  0  0  0
 24 25  1  0  0  0  0
 22 23  1  0  0  0  0
 22 24  2  0  0  0  0
 20 21  1  0  0  0  0
 19 20  1  0  0  0  0
 19 22  1  0  0  0  0
 17 18  1  0  0  0  0
 17 19  2  0  0  0  0
 15 16  1  0  0  0  0
 15 17  1  0  0  0  0
 14 15  2  0  0  0  0
 14 24  1  0  0  0  0
 11 12  1  0  0  0  0
 11 13  1  0  0  0  0
 11 14  1  0  0  0  0
  9 10  1  0  0  0  0
  9 11  1  0  0  0  0
  9 26  1  0  0  0  0
  7  8  1  0  0  0  0
  7  9  1  0  0  0  0
 30 31  1  0  0  0  0
 30 32  1  0  0  0  0
 30 33  1  0  0  0  0
 28 29  1  0  0  0  0
 28 30  1  0  0  0  0
M  END
$$$$
default_name
  -OEChem-02102213163D

 33 33  0     1  0  0  0  0  0999 V2000
   -4.0702   -3.8485    1.4554 H   0  0  0  0  0  0  0  0  0  0  0  0
   -4.0012   -2.9605    0.8284 C   0  0  0  0  0  0  0  0  0  0  0  0
   -4.7652   -2.2435    1.1234 H   0  0  0  0  0  0  0  0  0  0  0  0
   -4.1352   -3.2385   -0.2156 H   0  0  0  0  0  0  0  0  0  0  0  0
   -2.6362   -2.3395    1.0094 C   0  0  0  0  0  0  0  0  0  0  0  0
   -1.8292   -2.8395    1.7814 O   0  0  0  0  0  0  0  0  0  0  0  0
   -2.3832   -1.2445    0.2964 N   0  0  0  0  0  0  0  0  0  0  0  0
   -3.1102   -0.8685   -0.2946 H   0  0  0  0  0  0  0  0  0  0  0  0
   -1.1292   -0.4875    0.3524 C   0  0  1  0  0  0  0  0  0  0  0  0
   -0.3087   -1.1556    0.0882 H   0  0  0  0  0  0  0  0  0  0  0  0
   -1.1749    0.6534   -0.6787 C   0  0  0  0  0  0  0  0  0  0  0  0
   -0.3687    1.3565   -0.4652 H   0  0  0  0  0  0  0  0  0  0  0  0
   -0.9932    0.2396   -1.6719 H   0  0  0  0  0  0  0  0  0  0  0  0
   -2.4813    1.4236   -0.6869 C   0  0  0  0  0  0  0  0  0  0  0  0
   -2.9491    2.0181   -1.8761 C   0  0  0  0  0  0  0  0  0  0  0  0
   -2.3629    1.9486   -2.7830 H   0  0  0  0  0  0  0  0  0  0  0  0
   -4.1827    2.6977   -1.8881 C   0  0  0  0  0  0  0  0  0  0  0  0
   -4.5371    3.1531   -2.8001 H   0  0  0  0  0  0  0  0  0  0  0  0
   -4.9526    2.7797   -0.7074 C   0  0  0  0  0  0  0  0  0  0  0  0
   -6.1450    3.4304   -0.7093 O   0  0  0  0  0  0  0  0  0  0  0  0
   -6.3149    3.8702   -1.5434 H   0  0  0  0  0  0  0  0  0  0  0  0
   -4.4852    2.1800    0.4804 C   0  0  0  0  0  0  0  0  0  0  0  0
   -5.0809    2.2533    1.3779 H   0  0  0  0  0  0  0  0  0  0  0  0
   -3.2496    1.5054    0.4904 C   0  0  0  0  0  0  0  0  0  0  0  0
   -2.8869    1.0529    1.4056 H   0  0  0  0  0  0  0  0  0  0  0  0
   -0.8664    0.0378    1.7736 C   0  0  0  0  0  0  0  0  0  0  0  0
    0.2529   -0.0672    2.2760 O   0  0  0  0  0  0  0  0  0  0  0  0
   -1.8947    0.5991    2.4221 N   0  0  0  0  0  0  0  0  0  0  0  0
   -2.7942    0.5936    1.9635 H   0  0  0  0  0  0  0  0  0  0  0  0
   -1.8170    1.1453    3.7750 C   0  0  0  0  0  0  0  0  0  0  0  0
   -0.9697    1.8290    3.8506 H   0  0  0  0  0  0  0  0  0  0  0  0
   -2.7354    1.6828    4.0167 H   0  0  0  0  0  0  0  0  0  0  0  0
   -1.6754    0.3334    4.4914 H   0  0  0  0  0  0  0  0  0  0  0  0
  5  6  2  0  0  0  0
  5  7  1  0  0  0  0
  2  3  1  0  0  0  0
  2  4  1  0  0  0  0
  2  5  1  0  0  0  0
  1  2  1  0  0  0  0
 26 27  2  0  0  0  0
 26 28  1  0  0  0  0
 24 25  1  0  0  0  0
 22 23  1  0  0  0  0
 22 24  2  0  0  0  0
 20 21  1  0  0  0  0
 19 20  1  0  0  0  0
 19 22  1  0  0  0  0
 17 18  1  0  0  0  0
 17 19  2  0  0  0  0
 15 16  1  0  0  0  0
 15 17  1  0  0  0  0
 14 15  2  0  0  0  0
 14 24  1  0  0  0  0
 11 12  1  0  0  0  0
 11 13  1  0  0  0  0
 11 14  1  0  0  0  0
  9 10  1  0  0  0  0
  9 11  1  0  0  0  0
  9 26  1  0  0  0  0
  7  8  1  0  0  0  0
  7  9  1  0  0  0  0
 30 31  1  0  0  0  0
 30 32  1  0  0  0  0
 30 33  1  0  0  0  0
 28 29  1  0  0  0  0
 28 30  1  0  0  0  0
M  END
$$$$
default_name
  -OEChem-02102213163D

 33 33  0     1  0  0  0  0  0999 V2000
   -4.0702   -3.8485    1.4554 H   0  0  0  0  0  0  0  0  0  0  0  0
   -4.0012   -2.9605    0.8284 C   0  0  0  0  0  0  0  0  0  0  0  0
   -4.7652   -2.2435    1.1234 H   0  0  0  0  0  0  0  0  0  0  0  0
   -4.1352   -3.2385   -0.2156 H   0  0  0  0  0  0  0  0  0  0  0  0
   -2.6362   -2.3395    1.0094 C   0  0  0  0  0  0  0  0  0  0  0  0
   -1.8292   -2.8395    1.7814 O   0  0  0  0  0  0  0  0  0  0  0  0
   -2.3832   -1.2445    0.2964 N   0  0  0  0  0  0  0  0  0  0  0  0
   -3.1102   -0.8685   -0.2946 H   0  0  0  0  0  0  0  0  0  0  0  0
   -1.1292   -0.4875    0.3524 C   0  0  1  0  0  0  0  0  0  0  0  0
   -0.3087   -1.1556    0.0882 H   0  0  0  0  0  0  0  0  0  0  0  0
   -1.1749    0.6534   -0.6787 C   0  0  0  0  0  0  0  0  0  0  0  0
   -0.3687    1.3565   -0.4652 H   0  0  0  0  0  0  0  0  0  0  0  0
   -0.9932    0.2396   -1.6719 H   0  0  0  0  0  0  0  0  0  0  0  0
   -2.4813    1.4236   -0.6869 C   0  0  0  0  0  0  0  0  0  0  0  0
   -3.1095    1.7457   -1.9067 C   0  0  0  0  0  0  0  0  0  0  0  0
   -2.6468    1.4663   -2.8442 H   0  0  0  0  0  0  0  0  0  0  0  0
   -4.3430    2.4256   -1.9080 C   0  0  0  0  0  0  0  0  0  0  0  0
   -4.8205    2.6720   -2.8439 H   0  0  0  0  0  0  0  0  0  0  0  0
   -4.9519    2.7812   -0.6847 C   0  0  0  0  0  0  0  0  0  0  0  0
   -6.1428    3.4344   -0.6752 O   0  0  0  0  0  0  0  0  0  0  0  0
   -6.4269    3.6801   -1.5566 H   0  0  0  0  0  0  0  0  0  0  0  0
   -4.3242    2.4538    0.5350 C   0  0  0  0  0  0  0  0  0  0  0  0
   -4.7975    2.7349    1.4638 H   0  0  0  0  0  0  0  0  0  0  0  0
   -3.0891    1.7782    0.5329 C   0  0  0  0  0  0  0  0  0  0  0  0
   -2.6029    1.5352    1.4703 H   0  0  0  0  0  0  0  0  0  0  0  0
   -0.8664    0.0378    1.7736 C   0  0  0  0  0  0  0  0  0  0  0  0
    0.2529   -0.0672    2.2760 O   0  0  0  0  0  0  0  0  0  0  0  0
   -1.8947    0.5991    2.4221 N   0  0  0  0  0  0  0  0  0  0  0  0
   -2.7942    0.5936    1.9635 H   0  0  0  0  0  0  0  0  0  0  0  0
   -1.8170    1.1453    3.7750 C   0  0  0  0  0  0  0  0  0  0  0  0
   -0.9697    1.8290    3.8506 H   0  0  0  0  0  0  0  0  0  0  0  0
   -2.7354    1.6828    4.0167 H   0  0  0  0  0  0  0  0  0  0  0  0
   -1.6754    0.3334    4.4914 H   0  0  0  0  0  0  0  0  0  0  0  0
  5  6  2  0  0  0  0
  5  7  1  0  0  0  0
  2  3  1  0  0  0  0
  2  4  1  0  0  0  0
  2  5  1  0  0  0  0
  1  2  1  0  0  0  0
 26 27  2  0  0  0  0
 26 28  1  0  0  0  0
 24 25  1  0  0  0  0
 22 23  1  0  0  0  0
 22 24  2  0  0  0  0
 20 21  1  0  0  0  0
 19 20  1  0  0  0  0
 19 22  1  0  0  0  0
 17 18  1  0  0  0  0
 17 19  2  0  0  0  0
 15 16  1  0  0  0  0
 15 17  1  0  0  0  0
 14 15  2  0  0  0  0
 14 24  1  0  0  0  0
 11 12  1  0  0  0  0
 11 13  1  0  0  0  0
 11 14  1  0  0  0  0
  9 10  1  0  0  0  0
  9 11  1  0  0  0  0
  9 26  1  0  0  0  0
  7  8  1  0  0  0  0
  7  9  1  0  0  0  0
 30 31  1  0  0  0  0
 30 32  1  0  0  0  0
 30 33  1  0  0  0  0
 28 29  1  0  0  0  0
 28 30  1  0  0  0  0
M  END
$$$$
default_name
  -OEChem-02102213163D

 33 33  0     1  0  0  0  0  0999 V2000
   -4.0702   -3.8485    1.4554 H   0  0  0  0  0  0  0  0  0  0  0  0
   -4.0012   -2.9605    0.8284 C   0  0  0  0  0  0  0  0  0  0  0  0
   -4.7652   -2.2435    1.1234 H   0  0  0  0  0  0  0  0  0  0  0  0
   -4.1352   -3.2385   -0.2156 H   0  0  0  0  0  0  0  0  0  0  0  0
   -2.6362   -2.3395    1.0094 C   0  0  0  0  0  0  0  0  0  0  0  0
   -1.8292   -2.8395    1.7814 O   0  0  0  0  0  0  0  0  0  0  0  0
   -2.3832   -1.2445    0.2964 N   0  0  0  0  0  0  0  0  0  0  0  0
   -3.1102   -0.8685   -0.2946 H   0  0  0  0  0  0  0  0  0  0  0  0
   -1.1292   -0.4875    0.3524 C   0  0  1  0  0  0  0  0  0  0  0  0
   -0.3087   -1.1556    0.0882 H   0  0  0  0  0  0  0  0  0  0  0  0
   -1.1749    0.6534   -0.6787 C   0  0  0  0  0  0  0  0  0  0  0  0
   -0.3687    1.3565   -0.4652 H   0  0  0  0  0  0  0  0  0  0  0  0
   -0.9932    0.2396   -1.6719 H   0  0  0  0  0  0  0  0  0  0  0  0
   -2.4813    1.4236   -0.6869 C   0  0  0  0  0  0  0  0  0  0  0  0
   -3.2689    1.4759   -1.8545 C   0  0  0  0  0  0  0  0  0  0  0  0
   -2.9299    0.9871   -2.7585 H   0  0  0  0  0  0  0  0  0  0  0  0
   -4.5009    2.1585   -1.8455 C   0  0  0  0  0  0  0  0  0  0  0  0
   -5.1006    2.1979   -2.7417 H   0  0  0  0  0  0  0  0  0  0  0  0
   -4.9482    2.7877   -0.6632 C   0  0  0  0  0  0  0  0  0  0  0  0
   -6.1362    3.4460   -0.6434 O   0  0  0  0  0  0  0  0  0  0  0  0
   -6.5372    3.4936   -1.5122 H   0  0  0  0  0  0  0  0  0  0  0  0
   -4.1611    2.7301    0.5056 C   0  0  0  0  0  0  0  0  0  0  0  0
   -4.5118    3.2189    1.4021 H   0  0  0  0  0  0  0  0  0  0  0  0
   -2.9280    2.0510    0.4921 C   0  0  0  0  0  0  0  0  0  0  0  0
   -2.3194    2.0151    1.3878 H   0  0  0  0  0  0  0  0  0  0  0  0
   -0.8664    0.0378    1.7736 C   0  0  0  0  0  0  0  0  0  0  0  0
    0.2529   -0.0672    2.2760 O   0  0  0  0  0  0  0  0  0  0  0  0
   -1.8947    0.5991    2.4221 N   0  0  0  0  0  0  0  0  0  0  0  0
   -2.7942    0.5936    1.9635 H   0  0  0  0  0  0  0  0  0  0  0  0
   -1.8170    1.1453    3.7750 C   0  0  0  0  0  0  0  0  0  0  0  0
   -0.9697    1.8290    3.8506 H   0  0  0  0  0  0  0  0  0  0  0  0
   -2.7354    1.6828    4.0167 H   0  0  0  0  0  0  0  0  0  0  0  0
   -1.6754    0.3334    4.4914 H   0  0  0  0  0  0  0  0  0  0  0  0
  5  6  2  0  0  0  0
  5  7  1  0  0  0  0
  2  3  1  0  0  0  0
  2  4  1  0  0  0  0
  2  5  1  0  0  0  0
  1  2  1  0  0  0  0
 26 27  2  0  0  0  0
 26 28  1  0  0  0  0
 24 25  1  0  0  0  0
 22 23  1  0  0  0  0
 22 24  2  0  0  0  0
 20 21  1  0  0  0  0
 19 20  1  0  0  0  0
 19 22  1  0  0  0  0
 17 18  1  0  0  0  0
 17 19  2  0  0  0  0
 15 16  1  0  0  0  0
 15 17  1  0  0  0  0
 14 15  2  0  0  0  0
 14 24  1  0  0  0  0
 11 12  1  0  0  0  0
 11 13  1  0  0  0  0
 11 14  1  0  0  0  0
  9 10  1  0  0  0  0
  9 11  1  0  0  0  0
  9 26  1  0  0  0  0
  7  8  1  0  0  0  0
  7  9  1  0  0  0  0
 30 31  1  0  0  0  0
 30 32  1  0  0  0  0
 30 33  1  0  0  0  0
 28 29  1  0  0  0  0
 28 30  1  0  0  0  0
M  END
$$$$
default_name
  -OEChem-02102213163D

 33 33  0     1  0  0  0  0  0999 V2000
   -4.0702   -3.8485    1.4554 H   0  0  0  0  0  0  0  0  0  0  0  0
   -4.0012   -2.9605    0.8284 C   0  0  0  0  0  0  0  0  0  0  0  0
   -4.7652   -2.2435    1.1234 H   0  0  0  0  0  0  0  0  0  0  0  0
   -4.1352   -3.2385   -0.2156 H   0  0  0  0  0  0  0  0  0  0  0  0
   -2.6362   -2.3395    1.0094 C   0  0  0  0  0  0  0  0  0  0  0  0
   -1.8292   -2.8395    1.7814 O   0  0  0  0  0  0  0  0  0  0  0  0
   -2.3832   -1.2445    0.2964 N   0  0  0  0  0  0  0  0  0  0  0  0
   -3.1102   -0.8685   -0.2946 H   0  0  0  0  0  0  0  0  0  0  0  0
   -1.1292   -0.4875    0.3524 C   0  0  1  0  0  0  0  0  0  0  0  0
   -0.3087   -1.1556    0.0882 H   0  0  0  0  0  0  0  0  0  0  0  0
   -1.1749    0.6534   -0.6787 C   0  0  0  0  0  0  0  0  0  0  0  0
   -0.3687    1.3565   -0.4652 H   0  0  0  0  0  0  0  0  0  0  0  0
   -0.9932    0.2396   -1.6719 H   0  0  0  0  0  0  0  0  0  0  0  0
   -2.4813    1.4236   -0.6869 C   0  0  0  0  0  0  0  0  0  0  0  0
   -3.4163    1.2273   -1.7230 C   0  0  0  0  0  0  0  0  0  0  0  0
   -3.1927    0.5438   -2.5317 H   0  0  0  0  0  0  0  0  0  0  0  0
   -4.6455    1.9147   -1.7048 C   0  0  0  0  0  0  0  0  0  0  0  0
   -5.3585    1.7631   -2.5006 H   0  0  0  0  0  0  0  0  0  0  0  0
   -4.9418    2.7988   -0.6444 C   0  0  0  0  0  0  0  0  0  0  0  0
   -6.1256    3.4642   -0.6161 O   0  0  0  0  0  0  0  0  0  0  0  0
   -6.6381    3.3235   -1.4134 H   0  0  0  0  0  0  0  0  0  0  0  0
   -4.0070    2.9903    0.3941 C   0  0  0  0  0  0  0  0  0  0  0  0
   -4.2432    3.6722    1.1970 H   0  0  0  0  0  0  0  0  0  0  0  0
   -2.7773    2.3052    0.3706 C   0  0  0  0  0  0  0  0  0  0  0  0
   -2.0558    2.4599    1.1640 H   0  0  0  0  0  0  0  0  0  0  0  0
   -0.8664    0.0378    1.7736 C   0  0  0  0  0  0  0  0  0  0  0  0
    0.2529   -0.0672    2.2760 O   0  0  0  0  0  0  0  0  0  0  0  0
   -1.8947    0.5991    2.4221 N   0  0  0  0  0  0  0  0  0  0  0  0
   -2.7942    0.5936    1.9635 H   0  0  0  0  0  0  0  0  0  0  0  0
   -1.8170    1.1453    3.7750 C   0  0  0  0  0  0  0  0  0  0  0  0
   -0.9697    1.8290    3.8506 H   0  0  0  0  0  0  0  0  0  0  0  0
   -2.7354    1.6828    4.0167 H   0  0  0  0  0  0  0  0  0  0  0  0
   -1.6754    0.3334    4.4914 H   0  0  0  0  0  0  0  0  0  0  0  0
  5  6  2  0  0  0  0
  5  7  1  0  0  0  0
  2  3  1  0  0  0  0
  2  4  1  0  0  0  0
  2  5  1  0  0  0  0
  1  2  1  0  0  0  0
 26 27  2  0  0  0  0
 26 28  1  0  0  0  0
 24 25  1  0  0  0  0
 22 23  1  0  0  0  0
 22 24  2  0  0  0  0
 20 21  1  0  0  0  0
 19 20  1  0  0  0  0
 19 22  1  0  0  0  0
 17 18  1  0  0  0  0
 17 19  2  0  0  0  0
 15 16  1  0  0  0  0
 15 17  1  0  0  0  0
 14 15  2  0  0  0  0
 14 24  1  0  0  0  0
 11 12  1  0  0  0  0
 11 13  1  0  0  0  0
 11 14  1  0  0  0  0
  9 10  1  0  0  0  0
  9 11  1  0  0  0  0
  9 26  1  0  0  0  0
  7  8  1  0  0  0  0
  7  9  1  0  0  0  0
 30 31  1  0  0  0  0
 30 32  1  0  0  0  0
 30 33  1  0  0  0  0
 28 29  1  0  0  0  0
 28 30  1  0  0  0  0
M  END
$$$$
default_name
  -OEChem-02102213163D

 33 33  0     1  0  0  0  0  0999 V2000
   -4.0702   -3.8485    1.4554 H   0  0  0  0  0  0  0  0  0  0  0  0
   -4.0012   -2.9605    0.8284 C   0  0  0  0  0  0  0  0  0  0  0  0
   -4.7652   -2.2435    1.1234 H   0  0  0  0  0  0  0  0  0  0  0  0
   -4.1352   -3.2385   -0.2156 H   0  0  0  0  0  0  0  0  0  0  0  0
   -2.6362   -2.3395    1.0094 C   0  0  0  0  0  0  0  0  0  0  0  0
   -1.8292   -2.8395    1.7814 O   0  0  0  0  0  0  0  0  0  0  0  0
   -2.3832   -1.2445    0.2964 N   0  0  0  0  0  0  0  0  0  0  0  0
   -3.1102   -0.8685   -0.2946 H   0  0  0  0  0  0  0  0  0  0  0  0
   -1.1292   -0.4875    0.3524 C   0  0  1  0  0  0  0  0  0  0  0  0
   -0.3087   -1.1556    0.0882 H   0  0  0  0  0  0  0  0  0  0  0  0
   -1.1749    0.6534   -0.6787 C   0  0  0  0  0  0  0  0  0  0  0  0
   -0.3687    1.3565   -0.4652 H   0  0  0  0  0  0  0  0  0  0  0  0
   -0.9932    0.2396   -1.6719 H   0  0  0  0  0  0  0  0  0  0  0  0
   -2.4813    1.4236   -0.6869 C   0  0  0  0  0  0  0  0  0  0  0  0
   -3.5418    1.0166   -1.5211 C   0  0  0  0  0  0  0  0  0  0  0  0
   -3.4173    0.1666   -2.1792 H   0  0  0  0  0  0  0  0  0  0  0  0
   -4.7671    1.7108   -1.4955 C   0  0  0  0  0  0  0  0  0  0  0  0
   -5.5765    1.3973   -2.1367 H   0  0  0  0  0  0  0  0  0  0  0  0
   -4.9331    2.8136   -0.6296 C   0  0  0  0  0  0  0  0  0  0  0  0
   -6.1118    3.4879   -0.5952 O   0  0  0  0  0  0  0  0  0  0  0  0
   -6.7228    3.1815   -1.2667 H   0  0  0  0  0  0  0  0  0  0  0  0
   -3.8725    3.2165    0.2081 C   0  0  0  0  0  0  0  0  0  0  0  0
   -4.0101    4.0639    0.8626 H   0  0  0  0  0  0  0  0  0  0  0  0
   -2.6474    2.5234    0.1768 C   0  0  0  0  0  0  0  0  0  0  0  0
   -1.8299    2.8392    0.8139 H   0  0  0  0  0  0  0  0  0  0  0  0
   -0.8664    0.0378    1.7736 C   0  0  0  0  0  0  0  0  0  0  0  0
    0.2529   -0.0672    2.2760 O   0  0  0  0  0  0  0  0  0  0  0  0
   -1.8947    0.5991    2.4221 N   0  0  0  0  0  0  0  0  0  0  0  0
   -2.7942    0.5936    1.9635 H   0  0  0  0  0  0  0  0  0  0  0  0
   -1.8170    1.1453    3.7750 C   0  0  0  0  0  0  0  0  0  0  0  0
   -0.9697    1.8290    3.8506 H   0  0  0  0  0  0  0  0  0  0  0  0
   -2.7354    1.6828    4.0167 H   0  0  0  0  0  0  0  0  0  0  0  0
   -1.6754    0.3334    4.4914 H   0  0  0  0  0  0  0  0  0  0  0  0
  5  6  2  0  0  0  0
  5  7  1  0  0  0  0
  2  3  1  0  0  0  0
  2  4  1  0  0  0  0
  2  5  1  0  0  0  0
  1  2  1  0  0  0  0
 26 27  2  0  0  0  0
 26 28  1  0  0  0  0
 24 25  1  0  0  0  0
 22 23  1  0  0  0  0
 22 24  2  0  0  0  0
 20 21  1  0  0  0  0
 19 20  1  0  0  0  0
 19 22  1  0  0  0  0
 17 18  1  0  0  0  0
 17 19  2  0  0  0  0
 15 16  1  0  0  0  0
 15 17  1  0  0  0  0
 14 15  2  0  0  0  0
 14 24  1  0  0  0  0
 11 12  1  0  0  0  0
 11 13  1  0  0  0  0
 11 14  1  0  0  0  0
  9 10  1  0  0  0  0
  9 11  1  0  0  0  0
  9 26  1  0  0  0  0
  7  8  1  0  0  0  0
  7  9  1  0  0  0  0
 30 31  1  0  0  0  0
 30 32  1  0  0  0  0
 30 33  1  0  0  0  0
 28 29  1  0  0  0  0
 28 30  1  0  0  0  0
M  END
$$$$
default_name
  -OEChem-02102213163D

 33 33  0     1  0  0  0  0  0999 V2000
   -4.0702   -3.8485    1.4554 H   0  0  0  0  0  0  0  0  0  0  0  0
   -4.0012   -2.9605    0.8284 C   0  0  0  0  0  0  0  0  0  0  0  0
   -4.7652   -2.2435    1.1234 H   0  0  0  0  0  0  0  0  0  0  0  0
   -4.1352   -3.2385   -0.2156 H   0  0  0  0  0  0  0  0  0  0  0  0
   -2.6362   -2.3395    1.0094 C   0  0  0  0  0  0  0  0  0  0  0  0
   -1.8292   -2.8395    1.7814 O   0  0  0  0  0  0  0  0  0  0  0  0
   -2.3832   -1.2445    0.2964 N   0  0  0  0  0  0  0  0  0  0  0  0
   -3.1102   -0.8685   -0.2946 H   0  0  0  0  0  0  0  0  0  0  0  0
   -1.1292   -0.4875    0.3524 C   0  0  1  0  0  0  0  0  0  0  0  0
   -0.3087   -1.1556    0.0882 H   0  0  0  0  0  0  0  0  0  0  0  0
   -1.1749    0.6534   -0.6787 C   0  0  0  0  0  0  0  0  0  0  0  0
   -0.3687    1.3565   -0.4652 H   0  0  0  0  0  0  0  0  0  0  0  0
   -0.9932    0.2396   -1.6719 H   0  0  0  0  0  0  0  0  0  0  0  0
   -2.4813    1.4236   -0.6869 C   0  0  0  0  0  0  0  0  0  0  0  0
   -3.6368    0.8583   -1.2627 C   0  0  0  0  0  0  0  0  0  0  0  0
   -3.5885   -0.1189   -1.7251 H   0  0  0  0  0  0  0  0  0  0  0  0
   -4.8573    1.5607   -1.2319 C   0  0  0  0  0  0  0  0  0  0  0  0
   -5.7397    1.1254   -1.6751 H   0  0  0  0  0  0  0  0  0  0  0  0
   -4.9228    2.8313   -0.6197 C   0  0  0  0  0  0  0  0  0  0  0  0
   -6.0957    3.5154   -0.5821 O   0  0  0  0  0  0  0  0  0  0  0  0
   -6.7855    3.0770   -1.0821 H   0  0  0  0  0  0  0  0  0  0  0  0
   -3.7666    3.3933   -0.0397 C   0  0  0  0  0  0  0  0  0  0  0  0
   -3.8284    4.3675    0.4216 H   0  0  0  0  0  0  0  0  0  0  0  0
   -2.5472    2.6908   -0.0761 C   0  0  0  0  0  0  0  0  0  0  0  0
   -1.6572    3.1273    0.3615 H   0  0  0  0  0  0  0  0  0  0  0  0
   -0.8664    0.0378    1.7736 C   0  0  0  0  0  0  0  0  0  0  0  0
    0.2529   -0.0672    2.2760 O   0  0  0  0  0  0  0  0  0  0  0  0
   -1.8947    0.5991    2.4221 N   0  0  0  0  0  0  0  0  0  0  0  0
   -2.7942    0.5936    1.9635 H   0  0  0  0  0  0  0  0  0  0  0  0
   -1.8170    1.1453    3.7750 C   0  0  0  0  0  0  0  0  0  0  0  0
   -0.9697    1.8290    3.8506 H   0  0  0  0  0  0  0  0  0  0  0  0
   -2.7354    1.6828    4.0167 H   0  0  0  0  0  0  0  0  0  0  0  0
   -1.6754    0.3334    4.4914 H   0  0  0  0  0  0  0  0  0  0  0  0
  5  6  2  0  0  0  0
  5  7  1  0  0  0  0
  2  3  1  0  0  0  0
  2  4  1  0  0  0  0
  2  5  1  0  0  0  0
  1  2  1  0  0  0  0
 26 27  2  0  0  0  0
 26 28  1  0  0  0  0
 24 25  1  0  0  0  0
 22 23  1  0  0  0  0
 22 24  2  0  0  0  0
 20 21  1  0  0  0  0
 19 20  1  0  0  0  0
 19 22  1  0  0  0  0
 17 18  1  0  0  0  0
 17 19  2  0  0  0  0
 15 16  1  0  0  0  0
 15 17  1  0  0  0  0
 14 15  2  0  0  0  0
 14 24  1  0  0  0  0
 11 12  1  0  0  0  0
 11 13  1  0  0  0  0
 11 14  1  0  0  0  0
  9 10  1  0  0  0  0
  9 11  1  0  0  0  0
  9 26  1  0  0  0  0
  7  8  1  0  0  0  0
  7  9  1  0  0  0  0
 30 31  1  0  0  0  0
 30 32  1  0  0  0  0
 30 33  1  0  0  0  0
 28 29  1  0  0  0  0
 28 30  1  0  0  0  0
M  END
$$$$
default_name
  -OEChem-02102213163D

 33 33  0     1  0  0  0  0  0999 V2000
   -4.0702   -3.8485    1.4554 H   0  0  0  0  0  0  0  0  0  0  0  0
   -4.0012   -2.9605    0.8284 C   0  0  0  0  0  0  0  0  0  0  0  0
   -4.7652   -2.2435    1.1234 H   0  0  0  0  0  0  0  0  0  0  0  0
   -4.1352   -3.2385   -0.2156 H   0  0  0  0  0  0  0  0  0  0  0  0
   -2.6362   -2.3395    1.0094 C   0  0  0  0  0  0  0  0  0  0  0  0
   -1.8292   -2.8395    1.7814 O   0  0  0  0  0  0  0  0  0  0  0  0
   -2.3832   -1.2445    0.2964 N   0  0  0  0  0  0  0  0  0  0  0  0
   -3.1102   -0.8685   -0.2946 H   0  0  0  0  0  0  0  0  0  0  0  0
   -1.1292   -0.4875    0.3524 C   0  0  1  0  0  0  0  0  0  0  0  0
   -0.3087   -1.1556    0.0882 H   0  0  0  0  0  0  0  0  0  0  0  0
   -1.1749    0.6534   -0.6787 C   0  0  0  0  0  0  0  0  0  0  0  0
   -0.3687    1.3565   -0.4652 H   0  0  0  0  0  0  0  0  0  0  0  0
   -0.9932    0.2396   -1.6719 H   0  0  0  0  0  0  0  0  0  0  0  0
   -2.4813    1.4236   -0.6869 C   0  0  0  0  0  0  0  0  0  0  0  0
   -3.6948    0.7631   -0.9653 C   0  0  0  0  0  0  0  0  0  0  0  0
   -3.6946   -0.2932   -1.2003 H   0  0  0  0  0  0  0  0  0  0  0  0
   -4.9099    1.4745   -0.9320 C   0  0  0  0  0  0  0  0  0  0  0  0
   -5.8371    0.9659   -1.1472 H   0  0  0  0  0  0  0  0  0  0  0  0
   -4.9114    2.8505   -0.6154 C   0  0  0  0  0  0  0  0  0  0  0  0
   -6.0783    3.5448   -0.5778 O   0  0  0  0  0  0  0  0  0  0  0  0
   -6.8220    3.0174   -0.8724 H   0  0  0  0  0  0  0  0  0  0  0  0
   -3.6967    3.5087   -0.3323 C   0  0  0  0  0  0  0  0  0  0  0  0
   -3.7104    4.5621   -0.0959 H   0  0  0  0  0  0  0  0  0  0  0  0
   -2.4833    2.7960   -0.3709 C   0  0  0  0  0  0  0  0  0  0  0  0
   -1.5495    3.3044   -0.1624 H   0  0  0  0  0  0  0  0  0  0  0  0
   -0.8664    0.0378    1.7736 C   0  0  0  0  0  0  0  0  0  0  0  0
    0.2529   -0.0672    2.2760 O   0  0  0  0  0  0  0  0  0  0  0  0
   -1.8947    0.5991    2.4221 N   0  0  0  0  0  0  0  0  0  0  0  0
   -2.7942    0.5936    1.9635 H   0  0  0  0  0  0  0  0  0  0  0  0
   -1.8170    1.1453    3.7750 C   0  0  0  0  0  0  0  0  0  0  0  0
   -0.9697    1.8290    3.8506 H   0  0  0  0  0  0  0  0  0  0  0  0
   -2.7354    1.6828    4.0167 H   0  0  0  0  0  0  0  0  0  0  0  0
   -1.6754    0.3334    4.4914 H   0  0  0  0  0  0  0  0  0  0  0  0
  5  6  2  0  0  0  0
  5  7  1  0  0  0  0
  2  3  1  0  0  0  0
  2  4  1  0  0  0  0
  2  5  1  0  0  0  0
  1  2  1  0  0  0  0
 26 27  2  0  0  0  0
 26 28  1  0  0  0  0
 24 25  1  0  0  0  0
 22 23  1  0  0  0  0
 22 24  2  0  0  0  0
 20 21  1  0  0  0  0
 19 20  1  0  0  0  0
 19 22  1  0  0  0  0
 17 18  1  0  0  0  0
 17 19  2  0  0  0  0
 15 16  1  0  0  0  0
 15 17  1  0  0  0  0
 14 15  2  0  0  0  0
 14 24  1  0  0  0  0
 11 12  1  0  0  0  0
 11 13  1  0  0  0  0
 11 14  1  0  0  0  0
  9 10  1  0  0  0  0
  9 11  1  0  0  0  0
  9 26  1  0  0  0  0
  7  8  1  0  0  0  0
  7  9  1  0  0  0  0
 30 31  1  0  0  0  0
 30 32  1  0  0  0  0
 30 33  1  0  0  0  0
 28 29  1  0  0  0  0
 28 30  1  0  0  0  0
M  END
$$$$
default_name
  -OEChem-02102213163D

 33 33  0     1  0  0  0  0  0999 V2000
   -4.0702   -3.8485    1.4554 H   0  0  0  0  0  0  0  0  0  0  0  0
   -4.0012   -2.9605    0.8284 C   0  0  0  0  0  0  0  0  0  0  0  0
   -4.7652   -2.2435    1.1234 H   0  0  0  0  0  0  0  0  0  0  0  0
   -4.1352   -3.2385   -0.2156 H   0  0  0  0  0  0  0  0  0  0  0  0
   -2.6362   -2.3395    1.0094 C   0  0  0  0  0  0  0  0  0  0  0  0
   -1.8292   -2.8395    1.7814 O   0  0  0  0  0  0  0  0  0  0  0  0
   -2.3832   -1.2445    0.2964 N   0  0  0  0  0  0  0  0  0  0  0  0
   -3.1102   -0.8685   -0.2946 H   0  0  0  0  0  0  0  0  0  0  0  0
   -1.1292   -0.4875    0.3524 C   0  0  1  0  0  0  0  0  0  0  0  0
   -0.3087   -1.1556    0.0882 H   0  0  0  0  0  0  0  0  0  0  0  0
   -1.1749    0.6534   -0.6787 C   0  0  0  0  0  0  0  0  0  0  0  0
   -0.3687    1.3565   -0.4652 H   0  0  0  0  0  0  0  0  0  0  0  0
   -0.9932    0.2396   -1.6719 H   0  0  0  0  0  0  0  0  0  0  0  0
   -2.4813    1.4236   -0.6869 C   0  0  0  0  0  0  0  0  0  0  0  0
   -3.7118    0.7376   -0.6492 C   0  0  0  0  0  0  0  0  0  0  0  0
   -3.7283   -0.3444   -0.6406 H   0  0  0  0  0  0  0  0  0  0  0  0
   -4.9215    1.4583   -0.6161 C   0  0  0  0  0  0  0  0  0  0  0  0
   -5.8620    0.9297   -0.5888 H   0  0  0  0  0  0  0  0  0  0  0  0
   -4.8999    2.8701   -0.6170 C   0  0  0  0  0  0  0  0  0  0  0  0
   -6.0610    3.5742   -0.5824 O   0  0  0  0  0  0  0  0  0  0  0  0
   -6.8297    3.0066   -0.6517 H   0  0  0  0  0  0  0  0  0  0  0  0
   -3.6675    3.5549   -0.6499 C   0  0  0  0  0  0  0  0  0  0  0  0
   -3.6641    4.6345   -0.6547 H   0  0  0  0  0  0  0  0  0  0  0  0
   -2.4602    2.8317   -0.6875 C   0  0  0  0  0  0  0  0  0  0  0  0
   -1.5140    3.3586   -0.7221 H   0  0  0  0  0  0  0  0  0  0  0  0
   -0.8664    0.0378    1.7736 C   0  0  0  0  0  0  0  0  0  0  0  0
    0.2529   -0.0672    2.2760 O   0  0  0  0  0  0  0  0  0  0  0  0
   -1.8947    0.5991    2.4221 N   0  0  0  0  0  0  0  0  0  0  0  0
   -2.7942    0.5936    1.9635 H   0  0  0  0  0  0  0  0  0  0  0  0
   -1.8170    1.1453    3.7750 C   0  0  0  0  0  0  0  0  0  0  0  0
   -0.9697    1.8290    3.8506 H   0  0  0  0  0  0  0  0  0  0  0  0
   -2.7354    1.6828    4.0167 H   0  0  0  0  0  0  0  0  0  0  0  0
   -1.6754    0.3334    4.4914 H   0  0  0  0  0  0  0  0  0  0  0  0
  5  6  2  0  0  0  0
  5  7  1  0  0  0  0
  2  3  1  0  0  0  0
  2  4  1  0  0  0  0
  2  5  1  0  0  0  0
  1  2  1  0  0  0  0
 26 27  2  0  0  0  0
 26 28  1  0  0  0  0
 24 25  1  0  0  0  0
 22 23  1  0  0  0  0
 22 24  2  0  0  0  0
 20 21  1  0  0  0  0
 19 20  1  0  0  0  0
 19 22  1  0  0  0  0
 17 18  1  0  0  0  0
 17 19  2  0  0  0  0
 15 16  1  0  0  0  0
 15 17  1  0  0  0  0
 14 15  2  0  0  0  0
 14 24  1  0  0  0  0
 11 12  1  0  0  0  0
 11 13  1  0  0  0  0
 11 14  1  0  0  0  0
  9 10  1  0  0  0  0
  9 11  1  0  0  0  0
  9 26  1  0  0  0  0
  7  8  1  0  0  0  0
  7  9  1  0  0  0  0
 30 31  1  0  0  0  0
 30 32  1  0  0  0  0
 30 33  1  0  0  0  0
 28 29  1  0  0  0  0
 28 30  1  0  0  0  0
M  END
$$$$
default_name
  -OEChem-02102213163D

 33 33  0     1  0  0  0  0  0999 V2000
   -4.0702   -3.8485    1.4554 H   0  0  0  0  0  0  0  0  0  0  0  0
   -4.0012   -2.9605    0.8284 C   0  0  0  0  0  0  0  0  0  0  0  0
   -4.7652   -2.2435    1.1234 H   0  0  0  0  0  0  0  0  0  0  0  0
   -4.1352   -3.2385   -0.2156 H   0  0  0  0  0  0  0  0  0  0  0  0
   -2.6362   -2.3395    1.0094 C   0  0  0  0  0  0  0  0  0  0  0  0
   -1.8292   -2.8395    1.7814 O   0  0  0  0  0  0  0  0  0  0  0  0
   -2.3832   -1.2445    0.2964 N   0  0  0  0  0  0  0  0  0  0  0  0
   -3.1102   -0.8685   -0.2946 H   0  0  0  0  0  0  0  0  0  0  0  0
   -1.1292   -0.4875    0.3524 C   0  0  1  0  0  0  0  0  0  0  0  0
   -0.3087   -1.1556    0.0882 H   0  0  0  0  0  0  0  0  0  0  0  0
   -1.1749    0.6534   -0.6787 C   0  0  0  0  0  0  0  0  0  0  0  0
   -0.3687    1.3565   -0.4652 H   0  0  0  0  0  0  0  0  0  0  0  0
   -0.9932    0.2396   -1.6719 H   0  0  0  0  0  0  0  0  0  0  0  0
   -2.4813    1.4236   -0.6869 C   0  0  0  0  0  0  0  0  0  0  0  0
   -3.6868    0.7835   -0.3359 C   0  0  0  0  0  0  0  0  0  0  0  0
   -3.6874   -0.2690   -0.0841 H   0  0  0  0  0  0  0  0  0  0  0  0
   -4.8912    1.5130   -0.3059 C   0  0  0  0  0  0  0  0  0  0  0  0
   -5.8127    1.0192   -0.0382 H   0  0  0  0  0  0  0  0  0  0  0  0
   -4.8890    2.8885   -0.6245 C   0  0  0  0  0  0  0  0  0  0  0  0
   -6.0448    3.6016   -0.5956 O   0  0  0  0  0  0  0  0  0  0  0  0
   -6.8082    3.0454   -0.4351 H   0  0  0  0  0  0  0  0  0  0  0  0
   -3.6810    3.5286   -0.9708 C   0  0  0  0  0  0  0  0  0  0  0  0
   -3.6928    4.5798   -1.2167 H   0  0  0  0  0  0  0  0  0  0  0  0
   -2.4795    2.7956   -1.0043 C   0  0  0  0  0  0  0  0  0  0  0  0
   -1.5532    3.2860   -1.2795 H   0  0  0  0  0  0  0  0  0  0  0  0
   -0.8664    0.0378    1.7736 C   0  0  0  0  0  0  0  0  0  0  0  0
    0.2529   -0.0672    2.2760 O   0  0  0  0  0  0  0  0  0  0  0  0
   -1.8947    0.5991    2.4221 N   0  0  0  0  0  0  0  0  0  0  0  0
   -2.7942    0.5936    1.9635 H   0  0  0  0  0  0  0  0  0  0  0  0
   -1.8170    1.1453    3.7750 C   0  0  0  0  0  0  0  0  0  0  0  0
   -0.9697    1.8290    3.8506 H   0  0  0  0  0  0  0  0  0  0  0  0
   -2.7354    1.6828    4.0167 H   0  0  0  0  0  0  0  0  0  0  0  0
   -1.6754    0.3334    4.4914 H   0  0  0  0  0  0  0  0  0  0  0  0
  5  6  2  0  0  0  0
  5  7  1  0  0  0  0
  2  3  1  0  0  0  0
  2  4  1  0  0  0  0
  2  5  1  0  0  0  0
  1  2  1  0  0  0  0
 26 27  2  0  0  0  0
 26 28  1  0  0  0  0
 24 25  1  0  0  0  0
 22 23  1  0  0  0  0
 22 24  2  0  0  0  0
 20 21  1  0  0  0  0
 19 20  1  0  0  0  0
 19 22  1  0  0  0  0
 17 18  1  0  0  0  0
 17 19  2  0  0  0  0
 15 16  1  0  0  0  0
 15 17  1  0  0  0  0
 14 15  2  0  0  0  0
 14 24  1  0  0  0  0
 11 12  1  0  0  0  0
 11 13  1  0  0  0  0
 11 14  1  0  0  0  0
  9 10  1  0  0  0  0
  9 11  1  0  0  0  0
  9 26  1  0  0  0  0
  7  8  1  0  0  0  0
  7  9  1  0  0  0  0
 30 31  1  0  0  0  0
 30 32  1  0  0  0  0
 30 33  1  0  0  0  0
 28 29  1  0  0  0  0
 28 30  1  0  0  0  0
M  END
$$$$
default_name
  -OEChem-02102213163D

 33 33  0     1  0  0  0  0  0999 V2000
   -4.0702   -3.8485    1.4554 H   0  0  0  0  0  0  0  0  0  0  0  0
   -4.0012   -2.9605    0.8284 C   0  0  0  0  0  0  0  0  0  0  0  0
   -4.7652   -2.2435    1.1234 H   0  0  0  0  0  0  0  0  0  0  0  0
   -4.1352   -3.2385   -0.2156 H   0  0  0  0  0  0  0  0  0  0  0  0
   -2.6362   -2.3395    1.0094 C   0  0  0  0  0  0  0  0  0  0  0  0
   -1.8292   -2.8395    1.7814 O   0  0  0  0  0  0  0  0  0  0  0  0
   -2.3832   -1.2445    0.2964 N   0  0  0  0  0  0  0  0  0  0  0  0
   -3.1102   -0.8685   -0.2946 H   0  0  0  0  0  0  0  0  0  0  0  0
   -1.1292   -0.4875    0.3524 C   0  0  1  0  0  0  0  0  0  0  0  0
   -0.3087   -1.1556    0.0882 H   0  0  0  0  0  0  0  0  0  0  0  0
   -1.1749    0.6534   -0.6787 C   0  0  0  0  0  0  0  0  0  0  0  0
   -0.3687    1.3565   -0.4652 H   0  0  0  0  0  0  0  0  0  0  0  0
   -0.9932    0.2396   -1.6719 H   0  0  0  0  0  0  0  0  0  0  0  0
   -2.4813    1.4236   -0.6869 C   0  0  0  0  0  0  0  0  0  0  0  0
   -3.6213    0.8975   -0.0468 C   0  0  0  0  0  0  0  0  0  0  0  0
   -3.5746   -0.0722    0.4313 H   0  0  0  0  0  0  0  0  0  0  0  0
   -4.8211    1.6350   -0.0224 C   0  0  0  0  0  0  0  0  0  0  0  0
   -5.6926    1.2284    0.4673 H   0  0  0  0  0  0  0  0  0  0  0  0
   -4.8794    2.9047   -0.6373 C   0  0  0  0  0  0  0  0  0  0  0  0
   -6.0308    3.6250   -0.6167 O   0  0  0  0  0  0  0  0  0  0  0  0
   -6.7589    3.1312   -0.2373 H   0  0  0  0  0  0  0  0  0  0  0  0
   -3.7362    3.4317   -1.2731 C   0  0  0  0  0  0  0  0  0  0  0  0
   -3.7945    4.4017   -1.7435 H   0  0  0  0  0  0  0  0  0  0  0  0
   -2.5398    2.6902   -1.2998 C   0  0  0  0  0  0  0  0  0  0  0  0
   -1.6645    3.0917   -1.7965 H   0  0  0  0  0  0  0  0  0  0  0  0
   -0.8664    0.0378    1.7736 C   0  0  0  0  0  0  0  0  0  0  0  0
    0.2529   -0.0672    2.2760 O   0  0  0  0  0  0  0  0  0  0  0  0
   -1.8947    0.5991    2.4221 N   0  0  0  0  0  0  0  0  0  0  0  0
   -2.7942    0.5936    1.9635 H   0  0  0  0  0  0  0  0  0  0  0  0
   -1.8170    1.1453    3.7750 C   0  0  0  0  0  0  0  0  0  0  0  0
   -0.9697    1.8290    3.8506 H   0  0  0  0  0  0  0  0  0  0  0  0
   -2.7354    1.6828    4.0167 H   0  0  0  0  0  0  0  0  0  0  0  0
   -1.6754    0.3334    4.4914 H   0  0  0  0  0  0  0  0  0  0  0  0
  5  6  2  0  0  0  0
  5  7  1  0  0  0  0
  2  3  1  0  0  0  0
  2  4  1  0  0  0  0
  2  5  1  0  0  0  0
  1  2  1  0  0  0  0
 26 27  2  0  0  0  0
 26 28  1  0  0  0  0
 24 25  1  0  0  0  0
 22 23  1  0  0  0  0
 22 24  2  0  0  0  0
 20 21  1  0  0  0  0
 19 20  1  0  0  0  0
 19 22  1  0  0  0  0
 17 18  1  0  0  0  0
 17 19  2  0  0  0  0
 15 16  1  0  0  0  0
 15 17  1  0  0  0  0
 14 15  2  0  0  0  0
 14 24  1  0  0  0  0
 11 12  1  0  0  0  0
 11 13  1  0  0  0  0
 11 14  1  0  0  0  0
  9 10  1  0  0  0  0
  9 11  1  0  0  0  0
  9 26  1  0  0  0  0
  7  8  1  0  0  0  0
  7  9  1  0  0  0  0
 30 31  1  0  0  0  0
 30 32  1  0  0  0  0
 30 33  1  0  0  0  0
 28 29  1  0  0  0  0
 28 30  1  0  0  0  0
M  END
$$$$
default_name
  -OEChem-02102213163D

 33 33  0     1  0  0  0  0  0999 V2000
   -4.0702   -3.8485    1.4554 H   0  0  0  0  0  0  0  0  0  0  0  0
   -4.0012   -2.9605    0.8284 C   0  0  0  0  0  0  0  0  0  0  0  0
   -4.7652   -2.2435    1.1234 H   0  0  0  0  0  0  0  0  0  0  0  0
   -4.1352   -3.2385   -0.2156 H   0  0  0  0  0  0  0  0  0  0  0  0
   -2.6362   -2.3395    1.0094 C   0  0  0  0  0  0  0  0  0  0  0  0
   -1.8292   -2.8395    1.7814 O   0  0  0  0  0  0  0  0  0  0  0  0
   -2.3832   -1.2445    0.2964 N   0  0  0  0  0  0  0  0  0  0  0  0
   -3.1102   -0.8685   -0.2946 H   0  0  0  0  0  0  0  0  0  0  0  0
   -1.1292   -0.4875    0.3524 C   0  0  1  0  0  0  0  0  0  0  0  0
   -0.3087   -1.1556    0.0882 H   0  0  0  0  0  0  0  0  0  0  0  0
   -1.1749    0.6534   -0.6787 C   0  0  0  0  0  0  0  0  0  0  0  0
   -0.3687    1.3565   -0.4652 H   0  0  0  0  0  0  0  0  0  0  0  0
   -0.9932    0.2396   -1.6719 H   0  0  0  0  0  0  0  0  0  0  0  0
   -2.4813    1.4236   -0.6869 C   0  0  0  0  0  0  0  0  0  0  0  0
   -3.5200    1.0721    0.1984 C   0  0  0  0  0  0  0  0  0  0  0  0
   -3.3976    0.2327    0.8703 H   0  0  0  0  0  0  0  0  0  0  0  0
   -4.7159    1.8159    0.2150 C   0  0  0  0  0  0  0  0  0  0  0  0
   -5.5098    1.5430    0.8931 H   0  0  0  0  0  0  0  0  0  0  0  0
   -4.8717    2.9174   -0.6545 C   0  0  0  0  0  0  0  0  0  0  0  0
   -6.0201    3.6429   -0.6441 O   0  0  0  0  0  0  0  0  0  0  0  0
   -6.6852    3.2580   -0.0719 H   0  0  0  0  0  0  0  0  0  0  0  0
   -3.8294    3.2708   -1.5363 C   0  0  0  0  0  0  0  0  0  0  0  0
   -3.9622    4.1124   -2.1994 H   0  0  0  0  0  0  0  0  0  0  0  0
   -2.6370    2.5225   -1.5537 C   0  0  0  0  0  0  0  0  0  0  0  0
   -1.8402    2.7889   -2.2380 H   0  0  0  0  0  0  0  0  0  0  0  0
   -0.8664    0.0378    1.7736 C   0  0  0  0  0  0  0  0  0  0  0  0
    0.2529   -0.0672    2.2760 O   0  0  0  0  0  0  0  0  0  0  0  0
   -1.8947    0.5991    2.4221 N   0  0  0  0  0  0  0  0  0  0  0  0
   -2.7942    0.5936    1.9635 H   0  0  0  0  0  0  0  0  0  0  0  0
   -1.8170    1.1453    3.7750 C   0  0  0  0  0  0  0  0  0  0  0  0
   -0.9697    1.8290    3.8506 H   0  0  0  0  0  0  0  0  0  0  0  0
   -2.7354    1.6828    4.0167 H   0  0  0  0  0  0  0  0  0  0  0  0
   -1.6754    0.3334    4.4914 H   0  0  0  0  0  0  0  0  0  0  0  0
  5  6  2  0  0  0  0
  5  7  1  0  0  0  0
  2  3  1  0  0  0  0
  2  4  1  0  0  0  0
  2  5  1  0  0  0  0
  1  2  1  0  0  0  0
 26 27  2  0  0  0  0
 26 28  1  0  0  0  0
 24 25  1  0  0  0  0
 22 23  1  0  0  0  0
 22 24  2  0  0  0  0
 20 21  1  0  0  0  0
 19 20  1  0  0  0  0
 19 22  1  0  0  0  0
 17 18  1  0  0  0  0
 17 19  2  0  0  0  0
 15 16  1  0  0  0  0
 15 17  1  0  0  0  0
 14 15  2  0  0  0  0
 14 24  1  0  0  0  0
 11 12  1  0  0  0  0
 11 13  1  0  0  0  0
 11 14  1  0  0  0  0
  9 10  1  0  0  0  0
  9 11  1  0  0  0  0
  9 26  1  0  0  0  0
  7  8  1  0  0  0  0
  7  9  1  0  0  0  0
 30 31  1  0  0  0  0
 30 32  1  0  0  0  0
 30 33  1  0  0  0  0
 28 29  1  0  0  0  0
 28 30  1  0  0  0  0
M  END
$$$$
default_name
  -OEChem-02102213163D

 33 33  0     1  0  0  0  0  0999 V2000
   -4.0702   -3.8485    1.4554 H   0  0  0  0  0  0  0  0  0  0  0  0
   -4.0012   -2.9605    0.8284 C   0  0  0  0  0  0  0  0  0  0  0  0
   -4.7652   -2.2435    1.1234 H   0  0  0  0  0  0  0  0  0  0  0  0
   -4.1352   -3.2385   -0.2156 H   0  0  0  0  0  0  0  0  0  0  0  0
   -2.6362   -2.3395    1.0094 C   0  0  0  0  0  0  0  0  0  0  0  0
   -1.8292   -2.8395    1.7814 O   0  0  0  0  0  0  0  0  0  0  0  0
   -2.3832   -1.2445    0.2964 N   0  0  0  0  0  0  0  0  0  0  0  0
   -3.1102   -0.8685   -0.2946 H   0  0  0  0  0  0  0  0  0  0  0  0
   -1.1292   -0.4875    0.3524 C   0  0  1  0  0  0  0  0  0  0  0  0
   -0.3087   -1.1556    0.0882 H   0  0  0  0  0  0  0  0  0  0  0  0
   -1.1749    0.6534   -0.6787 C   0  0  0  0  0  0  0  0  0  0  0  0
   -0.3687    1.3565   -0.4652 H   0  0  0  0  0  0  0  0  0  0  0  0
   -0.9932    0.2396   -1.6719 H   0  0  0  0  0  0  0  0  0  0  0  0
   -2.4813    1.4236   -0.6869 C   0  0  0  0  0  0  0  0  0  0  0  0
   -3.3896    1.2953    0.3830 C   0  0  0  0  0  0  0  0  0  0  0  0
   -3.1686    0.6248    1.2032 H   0  0  0  0  0  0  0  0  0  0  0  0
   -4.5829    2.0435    0.3901 C   0  0  0  0  0  0  0  0  0  0  0  0
   -5.2769    1.9415    1.2102 H   0  0  0  0  0  0  0  0  0  0  0  0
   -4.8666    2.9259   -0.6750 C   0  0  0  0  0  0  0  0  0  0  0  0
   -6.0133    3.6541   -0.6760 O   0  0  0  0  0  0  0  0  0  0  0  0
   -6.5921    3.4173    0.0499 H   0  0  0  0  0  0  0  0  0  0  0  0
   -3.9542    3.0568   -1.7424 C   0  0  0  0  0  0  0  0  0  0  0  0
   -4.1845    3.7315   -2.5531 H   0  0  0  0  0  0  0  0  0  0  0  0
   -2.7645    2.3041   -1.7489 C   0  0  0  0  0  0  0  0  0  0  0  0
   -2.0684    2.3983   -2.5739 H   0  0  0  0  0  0  0  0  0  0  0  0
   -0.8664    0.0378    1.7736 C   0  0  0  0  0  0  0  0  0  0  0  0
    0.2529   -0.0672    2.2760 O   0  0  0  0  0  0  0  0  0  0  0  0
   -1.8947    0.5991    2.4221 N   0  0  0  0  0  0  0  0  0  0  0  0
   -2.7942    0.5936    1.9635 H   0  0  0  0  0  0  0  0  0  0  0  0
   -1.8170    1.1453    3.7750 C   0  0  0  0  0  0  0  0  0  0  0  0
   -0.9697    1.8290    3.8506 H   0  0  0  0  0  0  0  0  0  0  0  0
   -2.7354    1.6828    4.0167 H   0  0  0  0  0  0  0  0  0  0  0  0
   -1.6754    0.3334    4.4914 H   0  0  0  0  0  0  0  0  0  0  0  0
  5  6  2  0  0  0  0
  5  7  1  0  0  0  0
  2  3  1  0  0  0  0
  2  4  1  0  0  0  0
  2  5  1  0  0  0  0
  1  2  1  0  0  0  0
 26 27  2  0  0  0  0
 26 28  1  0  0  0  0
 24 25  1  0  0  0  0
 22 23  1  0  0  0  0
 22 24  2  0  0  0  0
 20 21  1  0  0  0  0
 19 20  1  0  0  0  0
 19 22  1  0  0  0  0
 17 18  1  0  0  0  0
 17 19  2  0  0  0  0
 15 16  1  0  0  0  0
 15 17  1  0  0  0  0
 14 15  2  0  0  0  0
 14 24  1  0  0  0  0
 11 12  1  0  0  0  0
 11 13  1  0  0  0  0
 11 14  1  0  0  0  0
  9 10  1  0  0  0  0
  9 11  1  0  0  0  0
  9 26  1  0  0  0  0
  7  8  1  0  0  0  0
  7  9  1  0  0  0  0
 30 31  1  0  0  0  0
 30 32  1  0  0  0  0
 30 33  1  0  0  0  0
 28 29  1  0  0  0  0
 28 30  1  0  0  0  0
M  END
$$$$
default_name
  -OEChem-02102213163D

 33 33  0     1  0  0  0  0  0999 V2000
   -4.0702   -3.8485    1.4554 H   0  0  0  0  0  0  0  0  0  0  0  0
   -4.0012   -2.9605    0.8284 C   0  0  0  0  0  0  0  0  0  0  0  0
   -4.7652   -2.2435    1.1234 H   0  0  0  0  0  0  0  0  0  0  0  0
   -4.1352   -3.2385   -0.2156 H   0  0  0  0  0  0  0  0  0  0  0  0
   -2.6362   -2.3395    1.0094 C   0  0  0  0  0  0  0  0  0  0  0  0
   -1.8292   -2.8395    1.7814 O   0  0  0  0  0  0  0  0  0  0  0  0
   -2.3832   -1.2445    0.2964 N   0  0  0  0  0  0  0  0  0  0  0  0
   -3.1102   -0.8685   -0.2946 H   0  0  0  0  0  0  0  0  0  0  0  0
   -1.1292   -0.4875    0.3524 C   0  0  1  0  0  0  0  0  0  0  0  0
   -0.3087   -1.1556    0.0882 H   0  0  0  0  0  0  0  0  0  0  0  0
   -1.1749    0.6534   -0.6787 C   0  0  0  0  0  0  0  0  0  0  0  0
   -0.3687    1.3565   -0.4652 H   0  0  0  0  0  0  0  0  0  0  0  0
   -0.9932    0.2396   -1.6719 H   0  0  0  0  0  0  0  0  0  0  0  0
   -2.4813    1.4236   -0.6869 C   0  0  0  0  0  0  0  0  0  0  0  0
   -3.2391    1.5518    0.4944 C   0  0  0  0  0  0  0  0  0  0  0  0
   -2.9030    1.0775    1.4072 H   0  0  0  0  0  0  0  0  0  0  0  0
   -4.4310    2.3021    0.4911 C   0  0  0  0  0  0  0  0  0  0  0  0
   -5.0096    2.3968    1.3971 H   0  0  0  0  0  0  0  0  0  0  0  0
   -4.8643    2.9295   -0.6973 C   0  0  0  0  0  0  0  0  0  0  0  0
   -6.0109    3.6578   -0.7102 O   0  0  0  0  0  0  0  0  0  0  0  0
   -6.4859    3.5982    0.1198 H   0  0  0  0  0  0  0  0  0  0  0  0
   -4.1022    2.8043   -1.8773 C   0  0  0  0  0  0  0  0  0  0  0  0
   -4.4462    3.2850   -2.7807 H   0  0  0  0  0  0  0  0  0  0  0  0
   -2.9137    2.0498   -1.8719 C   0  0  0  0  0  0  0  0  0  0  0  0
   -2.3335    1.9464   -2.7812 H   0  0  0  0  0  0  0  0  0  0  0  0
   -0.8664    0.0378    1.7736 C   0  0  0  0  0  0  0  0  0  0  0  0
    0.2529   -0.0672    2.2760 O   0  0  0  0  0  0  0  0  0  0  0  0
   -1.8947    0.5991    2.4221 N   0  0  0  0  0  0  0  0  0  0  0  0
   -2.7942    0.5936    1.9635 H   0  0  0  0  0  0  0  0  0  0  0  0
   -1.8170    1.1453    3.7750 C   0  0  0  0  0  0  0  0  0  0  0  0
   -0.9697    1.8290    3.8506 H   0  0  0  0  0  0  0  0  0  0  0  0
   -2.7354    1.6828    4.0167 H   0  0  0  0  0  0  0  0  0  0  0  0
   -1.6754    0.3334    4.4914 H   0  0  0  0  0  0  0  0  0  0  0  0
  5  6  2  0  0  0  0
  5  7  1  0  0  0  0
  2  3  1  0  0  0  0
  2  4  1  0  0  0  0
  2  5  1  0  0  0  0
  1  2  1  0  0  0  0
 26 27  2  0  0  0  0
 26 28  1  0  0  0  0
 24 25  1  0  0  0  0
 22 23  1  0  0  0  0
 22 24  2  0  0  0  0
 20 21  1  0  0  0  0
 19 20  1  0  0  0  0
 19 22  1  0  0  0  0
 17 18  1  0  0  0  0
 17 19  2  0  0  0  0
 15 16  1  0  0  0  0
 15 17  1  0  0  0  0
 14 15  2  0  0  0  0
 14 24  1  0  0  0  0
 11 12  1  0  0  0  0
 11 13  1  0  0  0  0
 11 14  1  0  0  0  0
  9 10  1  0  0  0  0
  9 11  1  0  0  0  0
  9 26  1  0  0  0  0
  7  8  1  0  0  0  0
  7  9  1  0  0  0  0
 30 31  1  0  0  0  0
 30 32  1  0  0  0  0
 30 33  1  0  0  0  0
 28 29  1  0  0  0  0
 28 30  1  0  0  0  0
M  END
$$$$
default_name
  -OEChem-02102213163D

 33 33  0     1  0  0  0  0  0999 V2000
   -4.0702   -3.8485    1.4554 H   0  0  0  0  0  0  0  0  0  0  0  0
   -4.0012   -2.9605    0.8284 C   0  0  0  0  0  0  0  0  0  0  0  0
   -4.7652   -2.2435    1.1234 H   0  0  0  0  0  0  0  0  0  0  0  0
   -4.1352   -3.2385   -0.2156 H   0  0  0  0  0  0  0  0  0  0  0  0
   -2.6362   -2.3395    1.0094 C   0  0  0  0  0  0  0  0  0  0  0  0
   -1.8292   -2.8395    1.7814 O   0  0  0  0  0  0  0  0  0  0  0  0
   -2.3832   -1.2445    0.2964 N   0  0  0  0  0  0  0  0  0  0  0  0
   -3.1102   -0.8685   -0.2946 H   0  0  0  0  0  0  0  0  0  0  0  0
   -1.1292   -0.4875    0.3524 C   0  0  1  0  0  0  0  0  0  0  0  0
   -0.3087   -1.1556    0.0882 H   0  0  0  0  0  0  0  0  0  0  0  0
   -1.1749    0.6534   -0.6787 C   0  0  0  0  0  0  0  0  0  0  0  0
   -0.3687    1.3565   -0.4652 H   0  0  0  0  0  0  0  0  0  0  0  0
   -0.9932    0.2396   -1.6719 H   0  0  0  0  0  0  0  0  0  0  0  0
   -2.4813    1.4236   -0.6869 C   0  0  0  0  0  0  0  0  0  0  0  0
   -3.0787    1.8242    0.5251 C   0  0  0  0  0  0  0  0  0  0  0  0
   -2.6190    1.5598    1.4684 H   0  0  0  0  0  0  0  0  0  0  0  0
   -4.2707    2.5743    0.5109 C   0  0  0  0  0  0  0  0  0  0  0  0
   -4.7262    2.8779    1.4409 H   0  0  0  0  0  0  0  0  0  0  0  0
   -4.8651    2.9280   -0.7200 C   0  0  0  0  0  0  0  0  0  0  0  0
   -6.0131    3.6537   -0.7443 O   0  0  0  0  0  0  0  0  0  0  0  0
   -6.3738    3.7883    0.1330 H   0  0  0  0  0  0  0  0  0  0  0  0
   -4.2633    2.5306   -1.9319 C   0  0  0  0  0  0  0  0  0  0  0  0
   -4.7296    2.8034   -2.8666 H   0  0  0  0  0  0  0  0  0  0  0  0
   -3.0743    1.7770   -1.9144 C   0  0  0  0  0  0  0  0  0  0  0  0
   -2.6175    1.4640   -2.8458 H   0  0  0  0  0  0  0  0  0  0  0  0
   -0.8664    0.0378    1.7736 C   0  0  0  0  0  0  0  0  0  0  0  0
    0.2529   -0.0672    2.2760 O   0  0  0  0  0  0  0  0  0  0  0  0
   -1.8947    0.5991    2.4221 N   0  0  0  0  0  0  0  0  0  0  0  0
   -2.7942    0.5936    1.9635 H   0  0  0  0  0  0  0  0  0  0  0  0
   -1.8170    1.1453    3.7750 C   0  0  0  0  0  0  0  0  0  0  0  0
   -0.9697    1.8290    3.8506 H   0  0  0  0  0  0  0  0  0  0  0  0
   -2.7354    1.6828    4.0167 H   0  0  0  0  0  0  0  0  0  0  0  0
   -1.6754    0.3334    4.4914 H   0  0  0  0  0  0  0  0  0  0  0  0
  5  6  2  0  0  0  0
  5  7  1  0  0  0  0
  2  3  1  0  0  0  0
  2  4  1  0  0  0  0
  2  5  1  0  0  0  0
  1  2  1  0  0  0  0
 26 27  2  0  0  0  0
 26 28  1  0  0  0  0
 24 25  1  0  0  0  0
 22 23  1  0  0  0  0
 22 24  2  0  0  0  0
 20 21  1  0  0  0  0
 19 20  1  0  0  0  0
 19 22  1  0  0  0  0
 17 18  1  0  0  0  0
 17 19  2  0  0  0  0
 15 16  1  0  0  0  0
 15 17  1  0  0  0  0
 14 15  2  0  0  0  0
 14 24  1  0  0  0  0
 11 12  1  0  0  0  0
 11 13  1  0  0  0  0
 11 14  1  0  0  0  0
  9 10  1  0  0  0  0
  9 11  1  0  0  0  0
  9 26  1  0  0  0  0
  7  8  1  0  0  0  0
  7  9  1  0  0  0  0
 30 31  1  0  0  0  0
 30 32  1  0  0  0  0
 30 33  1  0  0  0  0
 28 29  1  0  0  0  0
 28 30  1  0  0  0  0
M  END
$$$$
default_name
  -OEChem-02102213163D

 33 33  0     1  0  0  0  0  0999 V2000
   -4.0702   -3.8485    1.4554 H   0  0  0  0  0  0  0  0  0  0  0  0
   -4.0012   -2.9605    0.8284 C   0  0  0  0  0  0  0  0  0  0  0  0
   -4.7652   -2.2435    1.1234 H   0  0  0  0  0  0  0  0  0  0  0  0
   -4.1352   -3.2385   -0.2156 H   0  0  0  0  0  0  0  0  0  0  0  0
   -2.6362   -2.3395    1.0094 C   0  0  0  0  0  0  0  0  0  0  0  0
   -1.8292   -2.8395    1.7814 O   0  0  0  0  0  0  0  0  0  0  0  0
   -2.3832   -1.2445    0.2964 N   0  0  0  0  0  0  0  0  0  0  0  0
   -3.1102   -0.8685   -0.2946 H   0  0  0  0  0  0  0  0  0  0  0  0
   -1.1292   -0.4875    0.3524 C   0  0  1  0  0  0  0  0  0  0  0  0
   -0.3087   -1.1556    0.0882 H   0  0  0  0  0  0  0  0  0  0  0  0
   -1.1749    0.6534   -0.6787 C   0  0  0  0  0  0  0  0  0  0  0  0
   -0.3687    1.3565   -0.4652 H   0  0  0  0  0  0  0  0  0  0  0  0
   -0.9932    0.2396   -1.6719 H   0  0  0  0  0  0  0  0  0  0  0  0
   -2.4813    1.4236   -0.6869 C   0  0  0  0  0  0  0  0  0  0  0  0
   -2.9193    2.0939    0.4729 C   0  0  0  0  0  0  0  0  0  0  0  0
   -2.3360    2.0389    1.3827 H   0  0  0  0  0  0  0  0  0  0  0  0
   -4.1129    2.8413    0.4484 C   0  0  0  0  0  0  0  0  0  0  0  0
   -4.4461    3.3520    1.3388 H   0  0  0  0  0  0  0  0  0  0  0  0
   -4.8688    2.9215   -0.7415 C   0  0  0  0  0  0  0  0  0  0  0  0
   -6.0197    3.6422   -0.7761 O   0  0  0  0  0  0  0  0  0  0  0  0
   -6.2636    3.9748    0.0887 H   0  0  0  0  0  0  0  0  0  0  0  0
   -4.4264    2.2542   -1.9024 C   0  0  0  0  0  0  0  0  0  0  0  0
   -5.0154    2.3195   -2.8049 H   0  0  0  0  0  0  0  0  0  0  0  0
   -3.2354    1.5042   -1.8736 C   0  0  0  0  0  0  0  0  0  0  0  0
   -2.9010    0.9841   -2.7634 H   0  0  0  0  0  0  0  0  0  0  0  0
   -0.8664    0.0378    1.7736 C   0  0  0  0  0  0  0  0  0  0  0  0
    0.2529   -0.0672    2.2760 O   0  0  0  0  0  0  0  0  0  0  0  0
   -1.8947    0.5991    2.4221 N   0  0  0  0  0  0  0  0  0  0  0  0
   -2.7942    0.5936    1.9635 H   0  0  0  0  0  0  0  0  0  0  0  0
   -1.8170    1.1453    3.7750 C   0  0  0  0  0  0  0  0  0  0  0  0
   -0.9697    1.8290    3.8506 H   0  0  0  0  0  0  0  0  0  0  0  0
   -2.7354    1.6828    4.0167 H   0  0  0  0  0  0  0  0  0  0  0  0
   -1.6754    0.3334    4.4914 H   0  0  0  0  0  0  0  0  0  0  0  0
  5  6  2  0  0  0  0
  5  7  1  0  0  0  0
  2  3  1  0  0  0  0
  2  4  1  0  0  0  0
  2  5  1  0  0  0  0
  1  2  1  0  0  0  0
 26 27  2  0  0  0  0
 26 28  1  0  0  0  0
 24 25  1  0  0  0  0
 22 23  1  0  0  0  0
 22 24  2  0  0  0  0
 20 21  1  0  0  0  0
 19 20  1  0  0  0  0
 19 22  1  0  0  0  0
 17 18  1  0  0  0  0
 17 19  2  0  0  0  0
 15 16  1  0  0  0  0
 15 17  1  0  0  0  0
 14 15  2  0  0  0  0
 14 24  1  0  0  0  0
 11 12  1  0  0  0  0
 11 13  1  0  0  0  0
 11 14  1  0  0  0  0
  9 10  1  0  0  0  0
  9 11  1  0  0  0  0
  9 26  1  0  0  0  0
  7  8  1  0  0  0  0
  7  9  1  0  0  0  0
 30 31  1  0  0  0  0
 30 32  1  0  0  0  0
 30 33  1  0  0  0  0
 28 29  1  0  0  0  0
 28 30  1  0  0  0  0
M  END
$$$$
default_name
  -OEChem-02102213163D

 33 33  0     1  0  0  0  0  0999 V2000
   -4.0702   -3.8485    1.4554 H   0  0  0  0  0  0  0  0  0  0  0  0
   -4.0012   -2.9605    0.8284 C   0  0  0  0  0  0  0  0  0  0  0  0
   -4.7652   -2.2435    1.1234 H   0  0  0  0  0  0  0  0  0  0  0  0
   -4.1352   -3.2385   -0.2156 H   0  0  0  0  0  0  0  0  0  0  0  0
   -2.6362   -2.3395    1.0094 C   0  0  0  0  0  0  0  0  0  0  0  0
   -1.8292   -2.8395    1.7814 O   0  0  0  0  0  0  0  0  0  0  0  0
   -2.3832   -1.2445    0.2964 N   0  0  0  0  0  0  0  0  0  0  0  0
   -3.1102   -0.8685   -0.2946 H   0  0  0  0  0  0  0  0  0  0  0  0
   -1.1292   -0.4875    0.3524 C   0  0  1  0  0  0  0  0  0  0  0  0
   -0.3087   -1.1556    0.0882 H   0  0  0  0  0  0  0  0  0  0  0  0
   -1.1749    0.6534   -0.6787 C   0  0  0  0  0  0  0  0  0  0  0  0
   -0.3687    1.3565   -0.4652 H   0  0  0  0  0  0  0  0  0  0  0  0
   -0.9932    0.2396   -1.6719 H   0  0  0  0  0  0  0  0  0  0  0  0
   -2.4813    1.4236   -0.6869 C   0  0  0  0  0  0  0  0  0  0  0  0
   -2.7719    2.3426    0.3413 C   0  0  0  0  0  0  0  0  0  0  0  0
   -2.0732    2.4822    1.1558 H   0  0  0  0  0  0  0  0  0  0  0  0
   -3.9682    3.0851    0.3077 C   0  0  0  0  0  0  0  0  0  0  0  0
   -4.1882    3.7868    1.0976 H   0  0  0  0  0  0  0  0  0  0  0  0
   -4.8752    2.9105   -0.7603 C   0  0  0  0  0  0  0  0  0  0  0  0
   -6.0302    3.6240   -0.8034 O   0  0  0  0  0  0  0  0  0  0  0  0
   -6.1627    4.1449   -0.0102 H   0  0  0  0  0  0  0  0  0  0  0  0
   -4.5805    1.9941   -1.7909 C   0  0  0  0  0  0  0  0  0  0  0  0
   -5.2839    1.8662   -2.5999 H   0  0  0  0  0  0  0  0  0  0  0  0
   -3.3860    1.2500   -1.7521 C   0  0  0  0  0  0  0  0  0  0  0  0
   -3.1646    0.5393   -2.5395 H   0  0  0  0  0  0  0  0  0  0  0  0
   -0.8664    0.0378    1.7736 C   0  0  0  0  0  0  0  0  0  0  0  0
    0.2529   -0.0672    2.2760 O   0  0  0  0  0  0  0  0  0  0  0  0
   -1.8947    0.5991    2.4221 N   0  0  0  0  0  0  0  0  0  0  0  0
   -2.7942    0.5936    1.9635 H   0  0  0  0  0  0  0  0  0  0  0  0
   -1.8170    1.1453    3.7750 C   0  0  0  0  0  0  0  0  0  0  0  0
   -0.9697    1.8290    3.8506 H   0  0  0  0  0  0  0  0  0  0  0  0
   -2.7354    1.6828    4.0167 H   0  0  0  0  0  0  0  0  0  0  0  0
   -1.6754    0.3334    4.4914 H   0  0  0  0  0  0  0  0  0  0  0  0
  5  6  2  0  0  0  0
  5  7  1  0  0  0  0
  2  3  1  0  0  0  0
  2  4  1  0  0  0  0
  2  5  1  0  0  0  0
  1  2  1  0  0  0  0
 26 27  2  0  0  0  0
 26 28  1  0  0  0  0
 24 25  1  0  0  0  0
 22 23  1  0  0  0  0
 22 24  2  0  0  0  0
 20 21  1  0  0  0  0
 19 20  1  0  0  0  0
 19 22  1  0  0  0  0
 17 18  1  0  0  0  0
 17 19  2  0  0  0  0
 15 16  1  0  0  0  0
 15 17  1  0  0  0  0
 14 15  2  0  0  0  0
 14 24  1  0  0  0  0
 11 12  1  0  0  0  0
 11 13  1  0  0  0  0
 11 14  1  0  0  0  0
  9 10  1  0  0  0  0
  9 11  1  0  0  0  0
  9 26  1  0  0  0  0
  7  8  1  0  0  0  0
  7  9  1  0  0  0  0
 30 31  1  0  0  0  0
 30 32  1  0  0  0  0
 30 33  1  0  0  0  0
 28 29  1  0  0  0  0
 28 30  1  0  0  0  0
M  END
$$$$
default_name
  -OEChem-02102213163D

 33 33  0     1  0  0  0  0  0999 V2000
   -4.0702   -3.8485    1.4554 H   0  0  0  0  0  0  0  0  0  0  0  0
   -4.0012   -2.9605    0.8284 C   0  0  0  0  0  0  0  0  0  0  0  0
   -4.7652   -2.2435    1.1234 H   0  0  0  0  0  0  0  0  0  0  0  0
   -4.1352   -3.2385   -0.2156 H   0  0  0  0  0  0  0  0  0  0  0  0
   -2.6362   -2.3395    1.0094 C   0  0  0  0  0  0  0  0  0  0  0  0
   -1.8292   -2.8395    1.7814 O   0  0  0  0  0  0  0  0  0  0  0  0
   -2.3832   -1.2445    0.2964 N   0  0  0  0  0  0  0  0  0  0  0  0
   -3.1102   -0.8685   -0.2946 H   0  0  0  0  0  0  0  0  0  0  0  0
   -1.1292   -0.4875    0.3524 C   0  0  1  0  0  0  0  0  0  0  0  0
   -0.3087   -1.1556    0.0882 H   0  0  0  0  0  0  0  0  0  0  0  0
   -1.1749    0.6534   -0.6787 C   0  0  0  0  0  0  0  0  0  0  0  0
   -0.3687    1.3565   -0.4652 H   0  0  0  0  0  0  0  0  0  0  0  0
   -0.9932    0.2396   -1.6719 H   0  0  0  0  0  0  0  0  0  0  0  0
   -2.4813    1.4236   -0.6869 C   0  0  0  0  0  0  0  0  0  0  0  0
   -2.6464    2.5532    0.1395 C   0  0  0  0  0  0  0  0  0  0  0  0
   -1.8486    2.8595    0.8034 H   0  0  0  0  0  0  0  0  0  0  0  0
   -3.8467    3.2891    0.0984 C   0  0  0  0  0  0  0  0  0  0  0  0
   -3.9703    4.1526    0.7338 H   0  0  0  0  0  0  0  0  0  0  0  0
   -4.8838    2.8956   -0.7751 C   0  0  0  0  0  0  0  0  0  0  0  0
   -6.0440    3.6003   -0.8243 O   0  0  0  0  0  0  0  0  0  0  0  0
   -6.0780    4.2870   -0.1569 H   0  0  0  0  0  0  0  0  0  0  0  0
   -4.7150    1.7679   -1.6050 C   0  0  0  0  0  0  0  0  0  0  0  0
   -5.5170    1.4744   -2.2655 H   0  0  0  0  0  0  0  0  0  0  0  0
   -3.5159    1.0318   -1.5583 C   0  0  0  0  0  0  0  0  0  0  0  0
   -3.3905    0.1600   -2.1894 H   0  0  0  0  0  0  0  0  0  0  0  0
   -0.8664    0.0378    1.7736 C   0  0  0  0  0  0  0  0  0  0  0  0
    0.2529   -0.0672    2.2760 O   0  0  0  0  0  0  0  0  0  0  0  0
   -1.8947    0.5991    2.4221 N   0  0  0  0  0  0  0  0  0  0  0  0
   -2.7942    0.5936    1.9635 H   0  0  0  0  0  0  0  0  0  0  0  0
   -1.8170    1.1453    3.7750 C   0  0  0  0  0  0  0  0  0  0  0  0
   -0.9697    1.8290    3.8506 H   0  0  0  0  0  0  0  0  0  0  0  0
   -2.7354    1.6828    4.0167 H   0  0  0  0  0  0  0  0  0  0  0  0
   -1.6754    0.3334    4.4914 H   0  0  0  0  0  0  0  0  0  0  0  0
  5  6  2  0  0  0  0
  5  7  1  0  0  0  0
  2  3  1  0  0  0  0
  2  4  1  0  0  0  0
  2  5  1  0  0  0  0
  1  2  1  0  0  0  0
 26 27  2  0  0  0  0
 26 28  1  0  0  0  0
 24 25  1  0  0  0  0
 22 23  1  0  0  0  0
 22 24  2  0  0  0  0
 20 21  1  0  0  0  0
 19 20  1  0  0  0  0
 19 22  1  0  0  0  0
 17 18  1  0  0  0  0
 17 19  2  0  0  0  0
 15 16  1  0  0  0  0
 15 17  1  0  0  0  0
 14 15  2  0  0  0  0
 14 24  1  0  0  0  0
 11 12  1  0  0  0  0
 11 13  1  0  0  0  0
 11 14  1  0  0  0  0
  9 10  1  0  0  0  0
  9 11  1  0  0  0  0
  9 26  1  0  0  0  0
  7  8  1  0  0  0  0
  7  9  1  0  0  0  0
 30 31  1  0  0  0  0
 30 32  1  0  0  0  0
 30 33  1  0  0  0  0
 28 29  1  0  0  0  0
 28 30  1  0  0  0  0
M  END
$$$$
default_name
  -OEChem-02102213163D

 33 33  0     1  0  0  0  0  0999 V2000
   -4.0702   -3.8485    1.4554 H   0  0  0  0  0  0  0  0  0  0  0  0
   -4.0012   -2.9605    0.8284 C   0  0  0  0  0  0  0  0  0  0  0  0
   -4.7652   -2.2435    1.1234 H   0  0  0  0  0  0  0  0  0  0  0  0
   -4.1352   -3.2385   -0.2156 H   0  0  0  0  0  0  0  0  0  0  0  0
   -2.6362   -2.3395    1.0094 C   0  0  0  0  0  0  0  0  0  0  0  0
   -1.8292   -2.8395    1.7814 O   0  0  0  0  0  0  0  0  0  0  0  0
   -2.3832   -1.2445    0.2964 N   0  0  0  0  0  0  0  0  0  0  0  0
   -3.1102   -0.8685   -0.2946 H   0  0  0  0  0  0  0  0  0  0  0  0
   -1.1292   -0.4875    0.3524 C   0  0  1  0  0  0  0  0  0  0  0  0
   -0.3087   -1.1556    0.0882 H   0  0  0  0  0  0  0  0  0  0  0  0
   -1.1749    0.6534   -0.6787 C   0  0  0  0  0  0  0  0  0  0  0  0
   -0.3687    1.3565   -0.4652 H   0  0  0  0  0  0  0  0  0  0  0  0
   -0.9932    0.2396   -1.6719 H   0  0  0  0  0  0  0  0  0  0  0  0
   -2.4813    1.4236   -0.6869 C   0  0  0  0  0  0  0  0  0  0  0  0
   -2.5514    2.7115   -0.1189 C   0  0  0  0  0  0  0  0  0  0  0  0
   -1.6774    3.1450    0.3492 H   0  0  0  0  0  0  0  0  0  0  0  0
   -3.7565    3.4392   -0.1651 C   0  0  0  0  0  0  0  0  0  0  0  0
   -3.8070    4.4245    0.2722 H   0  0  0  0  0  0  0  0  0  0  0  0
   -4.8942    2.8780   -0.7850 C   0  0  0  0  0  0  0  0  0  0  0  0
   -6.0602    3.5728   -0.8374 O   0  0  0  0  0  0  0  0  0  0  0  0
   -6.0153    4.3914   -0.3415 H   0  0  0  0  0  0  0  0  0  0  0  0
   -4.8208    1.5910   -1.3572 C   0  0  0  0  0  0  0  0  0  0  0  0
   -5.6987    1.1709   -1.8245 H   0  0  0  0  0  0  0  0  0  0  0  0
   -3.6162    0.8644   -1.3054 C   0  0  0  0  0  0  0  0  0  0  0  0
   -3.5632   -0.1281   -1.7370 H   0  0  0  0  0  0  0  0  0  0  0  0
   -0.8664    0.0378    1.7736 C   0  0  0  0  0  0  0  0  0  0  0  0
    0.2529   -0.0672    2.2760 O   0  0  0  0  0  0  0  0  0  0  0  0
   -1.8947    0.5991    2.4221 N   0  0  0  0  0  0  0  0  0  0  0  0
   -2.7942    0.5936    1.9635 H   0  0  0  0  0  0  0  0  0  0  0  0
   -1.8170    1.1453    3.7750 C   0  0  0  0  0  0  0  0  0  0  0  0
   -0.9697    1.8290    3.8506 H   0  0  0  0  0  0  0  0  0  0  0  0
   -2.7354    1.6828    4.0167 H   0  0  0  0  0  0  0  0  0  0  0  0
   -1.6754    0.3334    4.4914 H   0  0  0  0  0  0  0  0  0  0  0  0
  5  6  2  0  0  0  0
  5  7  1  0  0  0  0
  2  3  1  0  0  0  0
  2  4  1  0  0  0  0
  2  5  1  0  0  0  0
  1  2  1  0  0  0  0
 26 27  2  0  0  0  0
 26 28  1  0  0  0  0
 24 25  1  0  0  0  0
 22 23  1  0  0  0  0
 22 24  2  0  0  0  0
 20 21  1  0  0  0  0
 19 20  1  0  0  0  0
 19 22  1  0  0  0  0
 17 18  1  0  0  0  0
 17 19  2  0  0  0  0
 15 16  1  0  0  0  0
 15 17  1  0  0  0  0
 14 15  2  0  0  0  0
 14 24  1  0  0  0  0
 11 12  1  0  0  0  0
 11 13  1  0  0  0  0
 11 14  1  0  0  0  0
  9 10  1  0  0  0  0
  9 11  1  0  0  0  0
  9 26  1  0  0  0  0
  7  8  1  0  0  0  0
  7  9  1  0  0  0  0
 30 31  1  0  0  0  0
 30 32  1  0  0  0  0
 30 33  1  0  0  0  0
 28 29  1  0  0  0  0
 28 30  1  0  0  0  0
M  END
$$$$
default_name
  -OEChem-02102213163D

 33 33  0     1  0  0  0  0  0999 V2000
   -4.0702   -3.8485    1.4554 H   0  0  0  0  0  0  0  0  0  0  0  0
   -4.0012   -2.9605    0.8284 C   0  0  0  0  0  0  0  0  0  0  0  0
   -4.7652   -2.2435    1.1234 H   0  0  0  0  0  0  0  0  0  0  0  0
   -4.1352   -3.2385   -0.2156 H   0  0  0  0  0  0  0  0  0  0  0  0
   -2.6362   -2.3395    1.0094 C   0  0  0  0  0  0  0  0  0  0  0  0
   -1.8292   -2.8395    1.7814 O   0  0  0  0  0  0  0  0  0  0  0  0
   -2.3832   -1.2445    0.2964 N   0  0  0  0  0  0  0  0  0  0  0  0
   -3.1102   -0.8685   -0.2946 H   0  0  0  0  0  0  0  0  0  0  0  0
   -1.1292   -0.4875    0.3524 C   0  0  1  0  0  0  0  0  0  0  0  0
   -0.3087   -1.1556    0.0882 H   0  0  0  0  0  0  0  0  0  0  0  0
   -1.1749    0.6534   -0.6787 C   0  0  0  0  0  0  0  0  0  0  0  0
   -0.3687    1.3565   -0.4652 H   0  0  0  0  0  0  0  0  0  0  0  0
   -0.9932    0.2396   -1.6719 H   0  0  0  0  0  0  0  0  0  0  0  0
   -2.4813    1.4236   -0.6869 C   0  0  0  0  0  0  0  0  0  0  0  0
   -2.4934    2.8067   -0.4164 C   0  0  0  0  0  0  0  0  0  0  0  0
   -1.5713    3.3193   -0.1755 H   0  0  0  0  0  0  0  0  0  0  0  0
   -3.7038    3.5253   -0.4651 C   0  0  0  0  0  0  0  0  0  0  0  0
   -3.7096    4.5840   -0.2558 H   0  0  0  0  0  0  0  0  0  0  0  0
   -4.9055    2.8587   -0.7893 C   0  0  0  0  0  0  0  0  0  0  0  0
   -6.0775    3.5434   -0.8418 O   0  0  0  0  0  0  0  0  0  0  0  0
   -5.9788    4.4510   -0.5512 H   0  0  0  0  0  0  0  0  0  0  0  0
   -4.8907    1.4756   -1.0646 C   0  0  0  0  0  0  0  0  0  0  0  0
   -5.8168    0.9763   -1.3069 H   0  0  0  0  0  0  0  0  0  0  0  0
   -3.6800    0.7592   -1.0106 C   0  0  0  0  0  0  0  0  0  0  0  0
   -3.6709   -0.3052   -1.2131 H   0  0  0  0  0  0  0  0  0  0  0  0
   -0.8664    0.0378    1.7736 C   0  0  0  0  0  0  0  0  0  0  0  0
    0.2529   -0.0672    2.2760 O   0  0  0  0  0  0  0  0  0  0  0  0
   -1.8947    0.5991    2.4221 N   0  0  0  0  0  0  0  0  0  0  0  0
   -2.7942    0.5936    1.9635 H   0  0  0  0  0  0  0  0  0  0  0  0
   -1.8170    1.1453    3.7750 C   0  0  0  0  0  0  0  0  0  0  0  0
   -0.9697    1.8290    3.8506 H   0  0  0  0  0  0  0  0  0  0  0  0
   -2.7354    1.6828    4.0167 H   0  0  0  0  0  0  0  0  0  0  0  0
   -1.6754    0.3334    4.4914 H   0  0  0  0  0  0  0  0  0  0  0  0
  5  6  2  0  0  0  0
  5  7  1  0  0  0  0
  2  3  1  0  0  0  0
  2  4  1  0  0  0  0
  2  5  1  0  0  0  0
  1  2  1  0  0  0  0
 26 27  2  0  0  0  0
 26 28  1  0  0  0  0
 24 25  1  0  0  0  0
 22 23  1  0  0  0  0
 22 24  2  0  0  0  0
 20 21  1  0  0  0  0
 19 20  1  0  0  0  0
 19 22  1  0  0  0  0
 17 18  1  0  0  0  0
 17 19  2  0  0  0  0
 15 16  1  0  0  0  0
 15 17  1  0  0  0  0
 14 15  2  0  0  0  0
 14 24  1  0  0  0  0
 11 12  1  0  0  0  0
 11 13  1  0  0  0  0
 11 14  1  0  0  0  0
  9 10  1  0  0  0  0
  9 11  1  0  0  0  0
  9 26  1  0  0  0  0
  7  8  1  0  0  0  0
  7  9  1  0  0  0  0
 30 31  1  0  0  0  0
 30 32  1  0  0  0  0
 30 33  1  0  0  0  0
 28 29  1  0  0  0  0
 28 30  1  0  0  0  0
M  END
$$$$
default_name
  -OEChem-02102213163D

 33 33  0     1  0  0  0  0  0999 V2000
   -4.0702   -3.8485    1.4554 H   0  0  0  0  0  0  0  0  0  0  0  0
   -4.0012   -2.9605    0.8284 C   0  0  0  0  0  0  0  0  0  0  0  0
   -4.7652   -2.2435    1.1234 H   0  0  0  0  0  0  0  0  0  0  0  0
   -4.1352   -3.2385   -0.2156 H   0  0  0  0  0  0  0  0  0  0  0  0
   -2.6362   -2.3395    1.0094 C   0  0  0  0  0  0  0  0  0  0  0  0
   -1.8292   -2.8395    1.7814 O   0  0  0  0  0  0  0  0  0  0  0  0
   -2.3832   -1.2445    0.2964 N   0  0  0  0  0  0  0  0  0  0  0  0
   -3.1102   -0.8685   -0.2946 H   0  0  0  0  0  0  0  0  0  0  0  0
   -1.1292   -0.4875    0.3524 C   0  0  1  0  0  0  0  0  0  0  0  0
   -0.3087   -1.1556    0.0882 H   0  0  0  0  0  0  0  0  0  0  0  0
   -1.1749    0.6534   -0.6787 C   0  0  0  0  0  0  0  0  0  0  0  0
   -0.3687    1.3565   -0.4652 H   0  0  0  0  0  0  0  0  0  0  0  0
   -0.9932    0.2396   -1.6719 H   0  0  0  0  0  0  0  0  0  0  0  0
   -2.4813    1.4236   -0.6869 C   0  0  0  0  0  0  0  0  0  0  0  0
   -2.4764    2.8322   -0.7325 C   0  0  0  0  0  0  0  0  0  0  0  0
   -1.5376    3.3704   -0.7353 H   0  0  0  0  0  0  0  0  0  0  0  0
   -3.6922    3.5416   -0.7809 C   0  0  0  0  0  0  0  0  0  0  0  0
   -3.6847    4.6202   -0.8141 H   0  0  0  0  0  0  0  0  0  0  0  0
   -4.9170    2.8392   -0.7876 C   0  0  0  0  0  0  0  0  0  0  0  0
   -6.0949    3.5140   -0.8371 O   0  0  0  0  0  0  0  0  0  0  0  0
   -5.9711    4.4618   -0.7719 H   0  0  0  0  0  0  0  0  0  0  0  0
   -4.9200    1.4295   -0.7470 C   0  0  0  0  0  0  0  0  0  0  0  0
   -5.8630    0.9039   -0.7482 H   0  0  0  0  0  0  0  0  0  0  0  0
   -3.7031    0.7234   -0.6940 C   0  0  0  0  0  0  0  0  0  0  0  0
   -3.7064   -0.3593   -0.6534 H   0  0  0  0  0  0  0  0  0  0  0  0
   -0.8664    0.0378    1.7736 C   0  0  0  0  0  0  0  0  0  0  0  0
    0.2529   -0.0672    2.2760 O   0  0  0  0  0  0  0  0  0  0  0  0
   -1.8947    0.5991    2.4221 N   0  0  0  0  0  0  0  0  0  0  0  0
   -2.7942    0.5936    1.9635 H   0  0  0  0  0  0  0  0  0  0  0  0
   -1.8170    1.1453    3.7750 C   0  0  0  0  0  0  0  0  0  0  0  0
   -0.9697    1.8290    3.8506 H   0  0  0  0  0  0  0  0  0  0  0  0
   -2.7354    1.6828    4.0167 H   0  0  0  0  0  0  0  0  0  0  0  0
   -1.6754    0.3334    4.4914 H   0  0  0  0  0  0  0  0  0  0  0  0
  5  6  2  0  0  0  0
  5  7  1  0  0  0  0
  2  3  1  0  0  0  0
  2  4  1  0  0  0  0
  2  5  1  0  0  0  0
  1  2  1  0  0  0  0
 26 27  2  0  0  0  0
 26 28  1  0  0  0  0
 24 25  1  0  0  0  0
 22 23  1  0  0  0  0
 22 24  2  0  0  0  0
 20 21  1  0  0  0  0
 19 20  1  0  0  0  0
 19 22  1  0  0  0  0
 17 18  1  0  0  0  0
 17 19  2  0  0  0  0
 15 16  1  0  0  0  0
 15 17  1  0  0  0  0
 14 15  2  0  0  0  0
 14 24  1  0  0  0  0
 11 12  1  0  0  0  0
 11 13  1  0  0  0  0
 11 14  1  0  0  0  0
  9 10  1  0  0  0  0
  9 11  1  0  0  0  0
  9 26  1  0  0  0  0
  7  8  1  0  0  0  0
  7  9  1  0  0  0  0
 30 31  1  0  0  0  0
 30 32  1  0  0  0  0
 30 33  1  0  0  0  0
 28 29  1  0  0  0  0
 28 30  1  0  0  0  0
M  END
$$$$
default_name
  -OEChem-02102213163D

 33 33  0     1  0  0  0  0  0999 V2000
   -4.0702   -3.8485    1.4554 H   0  0  0  0  0  0  0  0  0  0  0  0
   -4.0012   -2.9605    0.8284 C   0  0  0  0  0  0  0  0  0  0  0  0
   -4.7652   -2.2435    1.1234 H   0  0  0  0  0  0  0  0  0  0  0  0
   -4.1352   -3.2385   -0.2156 H   0  0  0  0  0  0  0  0  0  0  0  0
   -2.6362   -2.3395    1.0094 C   0  0  0  0  0  0  0  0  0  0  0  0
   -1.8292   -2.8395    1.7814 O   0  0  0  0  0  0  0  0  0  0  0  0
   -2.3832   -1.2445    0.2964 N   0  0  0  0  0  0  0  0  0  0  0  0
   -3.1102   -0.8685   -0.2946 H   0  0  0  0  0  0  0  0  0  0  0  0
   -1.1292   -0.4875    0.3524 C   0  0  1  0  0  0  0  0  0  0  0  0
   -0.3087   -1.1556    0.0882 H   0  0  0  0  0  0  0  0  0  0  0  0
   -1.1749    0.6534   -0.6787 C   0  0  0  0  0  0  0  0  0  0  0  0
   -0.3687    1.3565   -0.4652 H   0  0  0  0  0  0  0  0  0  0  0  0
   -0.9932    0.2396   -1.6719 H   0  0  0  0  0  0  0  0  0  0  0  0
   -2.4813    1.4236   -0.6869 C   0  0  0  0  0  0  0  0  0  0  0  0
   -2.5014    2.7864   -1.0457 C   0  0  0  0  0  0  0  0  0  0  0  0
   -1.5785    3.2950   -1.2917 H   0  0  0  0  0  0  0  0  0  0  0  0
   -3.7225    3.4869   -1.0911 C   0  0  0  0  0  0  0  0  0  0  0  0
   -3.7340    4.5307   -1.3648 H   0  0  0  0  0  0  0  0  0  0  0  0
   -4.9280    2.8207   -0.7802 C   0  0  0  0  0  0  0  0  0  0  0  0
   -6.1111    3.4866   -0.8239 O   0  0  0  0  0  0  0  0  0  0  0  0
   -5.9926    4.4230   -0.9885 H   0  0  0  0  0  0  0  0  0  0  0  0
   -4.9065    1.4557   -0.4261 C   0  0  0  0  0  0  0  0  0  0  0  0
   -5.8343    0.9586   -0.1862 H   0  0  0  0  0  0  0  0  0  0  0  0
   -3.6839    0.7595   -0.3772 C   0  0  0  0  0  0  0  0  0  0  0  0
   -3.6671   -0.2868   -0.0960 H   0  0  0  0  0  0  0  0  0  0  0  0
   -0.8664    0.0378    1.7736 C   0  0  0  0  0  0  0  0  0  0  0  0
    0.2529   -0.0672    2.2760 O   0  0  0  0  0  0  0  0  0  0  0  0
   -1.8947    0.5991    2.4221 N   0  0  0  0  0  0  0  0  0  0  0  0
   -2.7942    0.5936    1.9635 H   0  0  0  0  0  0  0  0  0  0  0  0
   -1.8170    1.1453    3.7750 C   0  0  0  0  0  0  0  0  0  0  0  0
   -0.9697    1.8290    3.8506 H   0  0  0  0  0  0  0  0  0  0  0  0
   -2.7354    1.6828    4.0167 H   0  0  0  0  0  0  0  0  0  0  0  0
   -1.6754    0.3334    4.4914 H   0  0  0  0  0  0  0  0  0  0  0  0
  5  6  2  0  0  0  0
  5  7  1  0  0  0  0
  2  3  1  0  0  0  0
  2  4  1  0  0  0  0
  2  5  1  0  0  0  0
  1  2  1  0  0  0  0
 26 27  2  0  0  0  0
 26 28  1  0  0  0  0
 24 25  1  0  0  0  0
 22 23  1  0  0  0  0
 22 24  2  0  0  0  0
 20 21  1  0  0  0  0
 19 20  1  0  0  0  0
 19 22  1  0  0  0  0
 17 18  1  0  0  0  0
 17 19  2  0  0  0  0
 15 16  1  0  0  0  0
 15 17  1  0  0  0  0
 14 15  2  0  0  0  0
 14 24  1  0  0  0  0
 11 12  1  0  0  0  0
 11 13  1  0  0  0  0
 11 14  1  0  0  0  0
  9 10  1  0  0  0  0
  9 11  1  0  0  0  0
  9 26  1  0  0  0  0
  7  8  1  0  0  0  0
  7  9  1  0  0  0  0
 30 31  1  0  0  0  0
 30 32  1  0  0  0  0
 30 33  1  0  0  0  0
 28 29  1  0  0  0  0
 28 30  1  0  0  0  0
M  END
$$$$
default_name
  -OEChem-02102213163D

 33 33  0     1  0  0  0  0  0999 V2000
   -4.0702   -3.8485    1.4554 H   0  0  0  0  0  0  0  0  0  0  0  0
   -4.0012   -2.9605    0.8284 C   0  0  0  0  0  0  0  0  0  0  0  0
   -4.7652   -2.2435    1.1234 H   0  0  0  0  0  0  0  0  0  0  0  0
   -4.1352   -3.2385   -0.2156 H   0  0  0  0  0  0  0  0  0  0  0  0
   -2.6362   -2.3395    1.0094 C   0  0  0  0  0  0  0  0  0  0  0  0
   -1.8292   -2.8395    1.7814 O   0  0  0  0  0  0  0  0  0  0  0  0
   -2.3832   -1.2445    0.2964 N   0  0  0  0  0  0  0  0  0  0  0  0
   -3.1102   -0.8685   -0.2946 H   0  0  0  0  0  0  0  0  0  0  0  0
   -1.1292   -0.4875    0.3524 C   0  0  1  0  0  0  0  0  0  0  0  0
   -0.3087   -1.1556    0.0882 H   0  0  0  0  0  0  0  0  0  0  0  0
   -1.1749    0.6534   -0.6787 C   0  0  0  0  0  0  0  0  0  0  0  0
   -0.3687    1.3565   -0.4652 H   0  0  0  0  0  0  0  0  0  0  0  0
   -0.9932    0.2396   -1.6719 H   0  0  0  0  0  0  0  0  0  0  0  0
   -2.4813    1.4236   -0.6869 C   0  0  0  0  0  0  0  0  0  0  0  0
   -2.5668    2.6723   -1.3348 C   0  0  0  0  0  0  0  0  0  0  0  0
   -1.6913    3.0982   -1.8071 H   0  0  0  0  0  0  0  0  0  0  0  0
   -3.7926    3.3649   -1.3746 C   0  0  0  0  0  0  0  0  0  0  0  0
   -3.8542    4.3215   -1.8702 H   0  0  0  0  0  0  0  0  0  0  0  0
   -4.9376    2.8045   -0.7674 C   0  0  0  0  0  0  0  0  0  0  0  0
   -6.1250    3.4632   -0.8028 O   0  0  0  0  0  0  0  0  0  0  0  0
   -6.0418    4.3372   -1.1863 H   0  0  0  0  0  0  0  0  0  0  0  0
   -4.8513    1.5527   -0.1237 C   0  0  0  0  0  0  0  0  0  0  0  0
   -5.7327    1.1367    0.3407 H   0  0  0  0  0  0  0  0  0  0  0  0
   -3.6236    0.8650   -0.0817 C   0  0  0  0  0  0  0  0  0  0  0  0
   -3.5559   -0.0925    0.4210 H   0  0  0  0  0  0  0  0  0  0  0  0
   -0.8664    0.0378    1.7736 C   0  0  0  0  0  0  0  0  0  0  0  0
    0.2529   -0.0672    2.2760 O   0  0  0  0  0  0  0  0  0  0  0  0
   -1.8947    0.5991    2.4221 N   0  0  0  0  0  0  0  0  0  0  0  0
   -2.7942    0.5936    1.9635 H   0  0  0  0  0  0  0  0  0  0  0  0
   -1.8170    1.1453    3.7750 C   0  0  0  0  0  0  0  0  0  0  0  0
   -0.9697    1.8290    3.8506 H   0  0  0  0  0  0  0  0  0  0  0  0
   -2.7354    1.6828    4.0167 H   0  0  0  0  0  0  0  0  0  0  0  0
   -1.6754    0.3334    4.4914 H   0  0  0  0  0  0  0  0  0  0  0  0
  5  6  2  0  0  0  0
  5  7  1  0  0  0  0
  2  3  1  0  0  0  0
  2  4  1  0  0  0  0
  2  5  1  0  0  0  0
  1  2  1  0  0  0  0
 26 27  2  0  0  0  0
 26 28  1  0  0  0  0
 24 25  1  0  0  0  0
 22 23  1  0  0  0  0
 22 24  2  0  0  0  0
 20 21  1  0  0  0  0
 19 20  1  0  0  0  0
 19 22  1  0  0  0  0
 17 18  1  0  0  0  0
 17 19  2  0  0  0  0
 15 16  1  0  0  0  0
 15 17  1  0  0  0  0
 14 15  2  0  0  0  0
 14 24  1  0  0  0  0
 11 12  1  0  0  0  0
 11 13  1  0  0  0  0
 11 14  1  0  0  0  0
  9 10  1  0  0  0  0
  9 11  1  0  0  0  0
  9 26  1  0  0  0  0
  7  8  1  0  0  0  0
  7  9  1  0  0  0  0
 30 31  1  0  0  0  0
 30 32  1  0  0  0  0
 30 33  1  0  0  0  0
 28 29  1  0  0  0  0
 28 30  1  0  0  0  0
M  END
$$$$
default_name
  -OEChem-02102213163D

 33 33  0     1  0  0  0  0  0999 V2000
   -4.0702   -3.8485    1.4554 H   0  0  0  0  0  0  0  0  0  0  0  0
   -4.0012   -2.9605    0.8284 C   0  0  0  0  0  0  0  0  0  0  0  0
   -4.7652   -2.2435    1.1234 H   0  0  0  0  0  0  0  0  0  0  0  0
   -4.1352   -3.2385   -0.2156 H   0  0  0  0  0  0  0  0  0  0  0  0
   -2.6362   -2.3395    1.0094 C   0  0  0  0  0  0  0  0  0  0  0  0
   -1.8292   -2.8395    1.7814 O   0  0  0  0  0  0  0  0  0  0  0  0
   -2.3832   -1.2445    0.2964 N   0  0  0  0  0  0  0  0  0  0  0  0
   -3.1102   -0.8685   -0.2946 H   0  0  0  0  0  0  0  0  0  0  0  0
   -1.1292   -0.4875    0.3524 C   0  0  1  0  0  0  0  0  0  0  0  0
   -0.3087   -1.1556    0.0882 H   0  0  0  0  0  0  0  0  0  0  0  0
   -1.1749    0.6534   -0.6787 C   0  0  0  0  0  0  0  0  0  0  0  0
   -0.2337    1.2033   -0.6408 H   0  0  0  0  0  0  0  0  0  0  0  0
   -1.2622    0.2235   -1.6779 H   0  0  0  0  0  0  0  0  0  0  0  0
   -2.3054    1.6395   -0.4559 C   0  0  0  0  0  0  0  0  0  0  0  0
   -2.4725    2.7379   -1.3229 C   0  0  0  0  0  0  0  0  0  0  0  0
   -1.7770    2.8958   -2.1368 H   0  0  0  0  0  0  0  0  0  0  0  0
   -3.5479    3.6281   -1.1360 C   0  0  0  0  0  0  0  0  0  0  0  0
   -3.6718    4.4691   -1.8009 H   0  0  0  0  0  0  0  0  0  0  0  0
   -4.4613    3.4165   -0.0804 C   0  0  0  0  0  0  0  0  0  0  0  0
   -5.5034    4.2676    0.1065 O   0  0  0  0  0  0  0  0  0  0  0  0
   -5.4627    5.0228   -0.4817 H   0  0  0  0  0  0  0  0  0  0  0  0
   -4.2954    2.3140    0.7833 C   0  0  0  0  0  0  0  0  0  0  0  0
   -4.9979    2.1653    1.5895 H   0  0  0  0  0  0  0  0  0  0  0  0
   -3.2169    1.4286    0.5967 C   0  0  0  0  0  0  0  0  0  0  0  0
   -3.0848    0.5870    1.2662 H   0  0  0  0  0  0  0  0  0  0  0  0
   -0.8664    0.0378    1.7736 C   0  0  0  0  0  0  0  0  0  0  0  0
    0.2529   -0.0672    2.2760 O   0  0  0  0  0  0  0  0  0  0  0  0
   -1.8947    0.5991    2.4221 N   0  0  0  0  0  0  0  0  0  0  0  0
   -2.7942    0.5936    1.9635 H   0  0  0  0  0  0  0  0  0  0  0  0
   -1.8170    1.1453    3.7750 C   0  0  0  0  0  0  0  0  0  0  0  0
   -0.9697    1.8290    3.8506 H   0  0  0  0  0  0  0  0  0  0  0  0
   -2.7354    1.6828    4.0167 H   0  0  0  0  0  0  0  0  0  0  0  0
   -1.6754    0.3334    4.4914 H   0  0  0  0  0  0  0  0  0  0  0  0
  5  6  2  0  0  0  0
  5  7  1  0  0  0  0
  2  3  1  0  0  0  0
  2  4  1  0  0  0  0
  2  5  1  0  0  0  0
  1  2  1  0  0  0  0
 26 27  2  0  0  0  0
 26 28  1  0  0  0  0
 24 25  1  0  0  0  0
 22 23  1  0  0  0  0
 22 24  2  0  0  0  0
 20 21  1  0  0  0  0
 19 20  1  0  0  0  0
 19 22  1  0  0  0  0
 17 18  1  0  0  0  0
 17 19  2  0  0  0  0
 15 16  1  0  0  0  0
 15 17  1  0  0  0  0
 14 15  2  0  0  0  0
 14 24  1  0  0  0  0
 11 12  1  0  0  0  0
 11 13  1  0  0  0  0
 11 14  1  0  0  0  0
  9 10  1  0  0  0  0
  9 11  1  0  0  0  0
  9 26  1  0  0  0  0
  7  8  1  0  0  0  0
  7  9  1  0  0  0  0
 30 31  1  0  0  0  0
 30 32  1  0  0  0  0
 30 33  1  0  0  0  0
 28 29  1  0  0  0  0
 28 30  1  0  0  0  0
M  END
$$$$
default_name
  -OEChem-02102213163D

 33 33  0     1  0  0  0  0  0999 V2000
   -4.0702   -3.8485    1.4554 H   0  0  0  0  0  0  0  0  0  0  0  0
   -4.0012   -2.9605    0.8284 C   0  0  0  0  0  0  0  0  0  0  0  0
   -4.7652   -2.2435    1.1234 H   0  0  0  0  0  0  0  0  0  0  0  0
   -4.1352   -3.2385   -0.2156 H   0  0  0  0  0  0  0  0  0  0  0  0
   -2.6362   -2.3395    1.0094 C   0  0  0  0  0  0  0  0  0  0  0  0
   -1.8292   -2.8395    1.7814 O   0  0  0  0  0  0  0  0  0  0  0  0
   -2.3832   -1.2445    0.2964 N   0  0  0  0  0  0  0  0  0  0  0  0
   -3.1102   -0.8685   -0.2946 H   0  0  0  0  0  0  0  0  0  0  0  0
   -1.1292   -0.4875    0.3524 C   0  0  1  0  0  0  0  0  0  0  0  0
   -0.3087   -1.1556    0.0882 H   0  0  0  0  0  0  0  0  0  0  0  0
   -1.1749    0.6534   -0.6787 C   0  0  0  0  0  0  0  0  0  0  0  0
   -0.2337    1.2033   -0.6408 H   0  0  0  0  0  0  0  0  0  0  0  0
   -1.2622    0.2235   -1.6779 H   0  0  0  0  0  0  0  0  0  0  0  0
   -2.3054    1.6395   -0.4559 C   0  0  0  0  0  0  0  0  0  0  0  0
   -2.6725    2.5426   -1.4736 C   0  0  0  0  0  0  0  0  0  0  0  0
   -2.1301    2.5527   -2.4100 H   0  0  0  0  0  0  0  0  0  0  0  0
   -3.7494    3.4288   -1.2768 C   0  0  0  0  0  0  0  0  0  0  0  0
   -4.0268    4.1201   -2.0577 H   0  0  0  0  0  0  0  0  0  0  0  0
   -4.4638    3.4088   -0.0591 C   0  0  0  0  0  0  0  0  0  0  0  0
   -5.5057    4.2574    0.1393 O   0  0  0  0  0  0  0  0  0  0  0  0
   -5.6036    4.8833   -0.5795 H   0  0  0  0  0  0  0  0  0  0  0  0
   -4.0982    2.5010    0.9563 C   0  0  0  0  0  0  0  0  0  0  0  0
   -4.6493    2.4983    1.8847 H   0  0  0  0  0  0  0  0  0  0  0  0
   -3.0184    1.6196    0.7584 C   0  0  0  0  0  0  0  0  0  0  0  0
   -2.7322    0.9288    1.5425 H   0  0  0  0  0  0  0  0  0  0  0  0
   -0.8664    0.0378    1.7736 C   0  0  0  0  0  0  0  0  0  0  0  0
    0.2529   -0.0672    2.2760 O   0  0  0  0  0  0  0  0  0  0  0  0
   -1.8947    0.5991    2.4221 N   0  0  0  0  0  0  0  0  0  0  0  0
   -2.7942    0.5936    1.9635 H   0  0  0  0  0  0  0  0  0  0  0  0
   -1.8170    1.1453    3.7750 C   0  0  0  0  0  0  0  0  0  0  0  0
   -0.9697    1.8290    3.8506 H   0  0  0  0  0  0  0  0  0  0  0  0
   -2.7354    1.6828    4.0167 H   0  0  0  0  0  0  0  0  0  0  0  0
   -1.6754    0.3334    4.4914 H   0  0  0  0  0  0  0  0  0  0  0  0
  5  6  2  0  0  0  0
  5  7  1  0  0  0  0
  2  3  1  0  0  0  0
  2  4  1  0  0  0  0
  2  5  1  0  0  0  0
  1  2  1  0  0  0  0
 26 27  2  0  0  0  0
 26 28  1  0  0  0  0
 24 25  1  0  0  0  0
 22 23  1  0  0  0  0
 22 24  2  0  0  0  0
 20 21  1  0  0  0  0
 19 20  1  0  0  0  0
 19 22  1  0  0  0  0
 17 18  1  0  0  0  0
 17 19  2  0  0  0  0
 15 16  1  0  0  0  0
 15 17  1  0  0  0  0
 14 15  2  0  0  0  0
 14 24  1  0  0  0  0
 11 12  1  0  0  0  0
 11 13  1  0  0  0  0
 11 14  1  0  0  0  0
  9 10  1  0  0  0  0
  9 11  1  0  0  0  0
  9 26  1  0  0  0  0
  7  8  1  0  0  0  0
  7  9  1  0  0  0  0
 30 31  1  0  0  0  0
 30 32  1  0  0  0  0
 30 33  1  0  0  0  0
 28 29  1  0  0  0  0
 28 30  1  0  0  0  0
M  END
$$$$
default_name
  -OEChem-02102213163D

 33 33  0     1  0  0  0  0  0999 V2000
   -4.0702   -3.8485    1.4554 H   0  0  0  0  0  0  0  0  0  0  0  0
   -4.0012   -2.9605    0.8284 C   0  0  0  0  0  0  0  0  0  0  0  0
   -4.7652   -2.2435    1.1234 H   0  0  0  0  0  0  0  0  0  0  0  0
   -4.1352   -3.2385   -0.2156 H   0  0  0  0  0  0  0  0  0  0  0  0
   -2.6362   -2.3395    1.0094 C   0  0  0  0  0  0  0  0  0  0  0  0
   -1.8292   -2.8395    1.7814 O   0  0  0  0  0  0  0  0  0  0  0  0
   -2.3832   -1.2445    0.2964 N   0  0  0  0  0  0  0  0  0  0  0  0
   -3.1102   -0.8685   -0.2946 H   0  0  0  0  0  0  0  0  0  0  0  0
   -1.1292   -0.4875    0.3524 C   0  0  1  0  0  0  0  0  0  0  0  0
   -0.3087   -1.1556    0.0882 H   0  0  0  0  0  0  0  0  0  0  0  0
   -1.1749    0.6534   -0.6787 C   0  0  0  0  0  0  0  0  0  0  0  0
   -0.2337    1.2033   -0.6408 H   0  0  0  0  0  0  0  0  0  0  0  0
   -1.2622    0.2235   -1.6779 H   0  0  0  0  0  0  0  0  0  0  0  0
   -2.3054    1.6395   -0.4559 C   0  0  0  0  0  0  0  0  0  0  0  0
   -2.8837    2.3173   -1.5479 C   0  0  0  0  0  0  0  0  0  0  0  0
   -2.5041    2.1551   -2.5482 H   0  0  0  0  0  0  0  0  0  0  0  0
   -3.9602    3.2015   -1.3405 C   0  0  0  0  0  0  0  0  0  0  0  0
   -4.3996    3.7201   -2.1787 H   0  0  0  0  0  0  0  0  0  0  0  0
   -4.4623    3.4055   -0.0367 C   0  0  0  0  0  0  0  0  0  0  0  0
   -5.5021    4.2539    0.1734 O   0  0  0  0  0  0  0  0  0  0  0  0
   -5.7509    4.7243   -0.6233 H   0  0  0  0  0  0  0  0  0  0  0  0
   -3.8856    2.7226    1.0542 C   0  0  0  0  0  0  0  0  0  0  0  0
   -4.2755    2.8902    2.0469 H   0  0  0  0  0  0  0  0  0  0  0  0
   -2.8067    1.8429    0.8443 C   0  0  0  0  0  0  0  0  0  0  0  0
   -2.3581    1.3257    1.6841 H   0  0  0  0  0  0  0  0  0  0  0  0
   -0.8664    0.0378    1.7736 C   0  0  0  0  0  0  0  0  0  0  0  0
    0.2529   -0.0672    2.2760 O   0  0  0  0  0  0  0  0  0  0  0  0
   -1.8947    0.5991    2.4221 N   0  0  0  0  0  0  0  0  0  0  0  0
   -2.7942    0.5936    1.9635 H   0  0  0  0  0  0  0  0  0  0  0  0
   -1.8170    1.1453    3.7750 C   0  0  0  0  0  0  0  0  0  0  0  0
   -0.9697    1.8290    3.8506 H   0  0  0  0  0  0  0  0  0  0  0  0
   -2.7354    1.6828    4.0167 H   0  0  0  0  0  0  0  0  0  0  0  0
   -1.6754    0.3334    4.4914 H   0  0  0  0  0  0  0  0  0  0  0  0
  5  6  2  0  0  0  0
  5  7  1  0  0  0  0
  2  3  1  0  0  0  0
  2  4  1  0  0  0  0
  2  5  1  0  0  0  0
  1  2  1  0  0  0  0
 26 27  2  0  0  0  0
 26 28  1  0  0  0  0
 24 25  1  0  0  0  0
 22 23  1  0  0  0  0
 22 24  2  0  0  0  0
 20 21  1  0  0  0  0
 19 20  1  0  0  0  0
 19 22  1  0  0  0  0
 17 18  1  0  0  0  0
 17 19  2  0  0  0  0
 15 16  1  0  0  0  0
 15 17  1  0  0  0  0
 14 15  2  0  0  0  0
 14 24  1  0  0  0  0
 11 12  1  0  0  0  0
 11 13  1  0  0  0  0
 11 14  1  0  0  0  0
  9 10  1  0  0  0  0
  9 11  1  0  0  0  0
  9 26  1  0  0  0  0
  7  8  1  0  0  0  0
  7  9  1  0  0  0  0
 30 31  1  0  0  0  0
 30 32  1  0  0  0  0
 30 33  1  0  0  0  0
 28 29  1  0  0  0  0
 28 30  1  0  0  0  0
M  END
$$$$
default_name
  -OEChem-02102213163D

 33 33  0     1  0  0  0  0  0999 V2000
   -4.0702   -3.8485    1.4554 H   0  0  0  0  0  0  0  0  0  0  0  0
   -4.0012   -2.9605    0.8284 C   0  0  0  0  0  0  0  0  0  0  0  0
   -4.7652   -2.2435    1.1234 H   0  0  0  0  0  0  0  0  0  0  0  0
   -4.1352   -3.2385   -0.2156 H   0  0  0  0  0  0  0  0  0  0  0  0
   -2.6362   -2.3395    1.0094 C   0  0  0  0  0  0  0  0  0  0  0  0
   -1.8292   -2.8395    1.7814 O   0  0  0  0  0  0  0  0  0  0  0  0
   -2.3832   -1.2445    0.2964 N   0  0  0  0  0  0  0  0  0  0  0  0
   -3.1102   -0.8685   -0.2946 H   0  0  0  0  0  0  0  0  0  0  0  0
   -1.1292   -0.4875    0.3524 C   0  0  1  0  0  0  0  0  0  0  0  0
   -0.3087   -1.1556    0.0882 H   0  0  0  0  0  0  0  0  0  0  0  0
   -1.1749    0.6534   -0.6787 C   0  0  0  0  0  0  0  0  0  0  0  0
   -0.2337    1.2033   -0.6408 H   0  0  0  0  0  0  0  0  0  0  0  0
   -1.2622    0.2235   -1.6779 H   0  0  0  0  0  0  0  0  0  0  0  0
   -2.3054    1.6395   -0.4559 C   0  0  0  0  0  0  0  0  0  0  0  0
   -3.0916    2.0773   -1.5406 C   0  0  0  0  0  0  0  0  0  0  0  0
   -2.8735    1.7302   -2.5421 H   0  0  0  0  0  0  0  0  0  0  0  0
   -4.1659    2.9617   -1.3226 C   0  0  0  0  0  0  0  0  0  0  0  0
   -4.7648    3.2961   -2.1557 H   0  0  0  0  0  0  0  0  0  0  0  0
   -4.4570    3.4066   -0.0146 C   0  0  0  0  0  0  0  0  0  0  0  0
   -5.4927    4.2572    0.2064 O   0  0  0  0  0  0  0  0  0  0  0  0
   -5.8945    4.5567   -0.6101 H   0  0  0  0  0  0  0  0  0  0  0  0
   -3.6723    2.9636    1.0703 C   0  0  0  0  0  0  0  0  0  0  0  0
   -3.9020    3.3143    2.0651 H   0  0  0  0  0  0  0  0  0  0  0  0
   -2.5963    2.0832    0.8486 C   0  0  0  0  0  0  0  0  0  0  0  0
   -1.9881    1.7506    1.6813 H   0  0  0  0  0  0  0  0  0  0  0  0
   -0.8664    0.0378    1.7736 C   0  0  0  0  0  0  0  0  0  0  0  0
    0.2529   -0.0672    2.2760 O   0  0  0  0  0  0  0  0  0  0  0  0
   -1.8947    0.5991    2.4221 N   0  0  0  0  0  0  0  0  0  0  0  0
   -2.7942    0.5936    1.9635 H   0  0  0  0  0  0  0  0  0  0  0  0
   -1.8170    1.1453    3.7750 C   0  0  0  0  0  0  0  0  0  0  0  0
   -0.9697    1.8290    3.8506 H   0  0  0  0  0  0  0  0  0  0  0  0
   -2.7354    1.6828    4.0167 H   0  0  0  0  0  0  0  0  0  0  0  0
   -1.6754    0.3334    4.4914 H   0  0  0  0  0  0  0  0  0  0  0  0
  5  6  2  0  0  0  0
  5  7  1  0  0  0  0
  2  3  1  0  0  0  0
  2  4  1  0  0  0  0
  2  5  1  0  0  0  0
  1  2  1  0  0  0  0
 26 27  2  0  0  0  0
 26 28  1  0  0  0  0
 24 25  1  0  0  0  0
 22 23  1  0  0  0  0
 22 24  2  0  0  0  0
 20 21  1  0  0  0  0
 19 20  1  0  0  0  0
 19 22  1  0  0  0  0
 17 18  1  0  0  0  0
 17 19  2  0  0  0  0
 15 16  1  0  0  0  0
 15 17  1  0  0  0  0
 14 15  2  0  0  0  0
 14 24  1  0  0  0  0
 11 12  1  0  0  0  0
 11 13  1  0  0  0  0
 11 14  1  0  0  0  0
  9 10  1  0  0  0  0
  9 11  1  0  0  0  0
  9 26  1  0  0  0  0
  7  8  1  0  0  0  0
  7  9  1  0  0  0  0
 30 31  1  0  0  0  0
 30 32  1  0  0  0  0
 30 33  1  0  0  0  0
 28 29  1  0  0  0  0
 28 30  1  0  0  0  0
M  END
$$$$
default_name
  -OEChem-02102213163D

 33 33  0     1  0  0  0  0  0999 V2000
   -4.0702   -3.8485    1.4554 H   0  0  0  0  0  0  0  0  0  0  0  0
   -4.0012   -2.9605    0.8284 C   0  0  0  0  0  0  0  0  0  0  0  0
   -4.7652   -2.2435    1.1234 H   0  0  0  0  0  0  0  0  0  0  0  0
   -4.1352   -3.2385   -0.2156 H   0  0  0  0  0  0  0  0  0  0  0  0
   -2.6362   -2.3395    1.0094 C   0  0  0  0  0  0  0  0  0  0  0  0
   -1.8292   -2.8395    1.7814 O   0  0  0  0  0  0  0  0  0  0  0  0
   -2.3832   -1.2445    0.2964 N   0  0  0  0  0  0  0  0  0  0  0  0
   -3.1102   -0.8685   -0.2946 H   0  0  0  0  0  0  0  0  0  0  0  0
   -1.1292   -0.4875    0.3524 C   0  0  1  0  0  0  0  0  0  0  0  0
   -0.3087   -1.1556    0.0882 H   0  0  0  0  0  0  0  0  0  0  0  0
   -1.1749    0.6534   -0.6787 C   0  0  0  0  0  0  0  0  0  0  0  0
   -0.2337    1.2033   -0.6408 H   0  0  0  0  0  0  0  0  0  0  0  0
   -1.2622    0.2235   -1.6779 H   0  0  0  0  0  0  0  0  0  0  0  0
   -2.3054    1.6395   -0.4559 C   0  0  0  0  0  0  0  0  0  0  0  0
   -3.2820    1.8390   -1.4522 C   0  0  0  0  0  0  0  0  0  0  0  0
   -3.2131    1.3069   -2.3920 H   0  0  0  0  0  0  0  0  0  0  0  0
   -4.3525    2.7256   -1.2245 C   0  0  0  0  0  0  0  0  0  0  0  0
   -5.0976    2.8772   -1.9902 H   0  0  0  0  0  0  0  0  0  0  0  0
   -4.4481    3.4122    0.0056 C   0  0  0  0  0  0  0  0  0  0  0  0
   -5.4782    4.2671    0.2361 O   0  0  0  0  0  0  0  0  0  0  0  0
   -6.0247    4.3919   -0.5410 H   0  0  0  0  0  0  0  0  0  0  0  0
   -3.4726    3.2076    1.0033 C   0  0  0  0  0  0  0  0  0  0  0  0
   -3.5543    3.7416    1.9380 H   0  0  0  0  0  0  0  0  0  0  0  0
   -2.4014    2.3241    0.7710 C   0  0  0  0  0  0  0  0  0  0  0  0
   -1.6473    2.1745    1.5344 H   0  0  0  0  0  0  0  0  0  0  0  0
   -0.8664    0.0378    1.7736 C   0  0  0  0  0  0  0  0  0  0  0  0
    0.2529   -0.0672    2.2760 O   0  0  0  0  0  0  0  0  0  0  0  0
   -1.8947    0.5991    2.4221 N   0  0  0  0  0  0  0  0  0  0  0  0
   -2.7942    0.5936    1.9635 H   0  0  0  0  0  0  0  0  0  0  0  0
   -1.8170    1.1453    3.7750 C   0  0  0  0  0  0  0  0  0  0  0  0
   -0.9697    1.8290    3.8506 H   0  0  0  0  0  0  0  0  0  0  0  0
   -2.7354    1.6828    4.0167 H   0  0  0  0  0  0  0  0  0  0  0  0
   -1.6754    0.3334    4.4914 H   0  0  0  0  0  0  0  0  0  0  0  0
  5  6  2  0  0  0  0
  5  7  1  0  0  0  0
  2  3  1  0  0  0  0
  2  4  1  0  0  0  0
  2  5  1  0  0  0  0
  1  2  1  0  0  0  0
 26 27  2  0  0  0  0
 26 28  1  0  0  0  0
 24 25  1  0  0  0  0
 22 23  1  0  0  0  0
 22 24  2  0  0  0  0
 20 21  1  0  0  0  0
 19 20  1  0  0  0  0
 19 22  1  0  0  0  0
 17 18  1  0  0  0  0
 17 19  2  0  0  0  0
 15 16  1  0  0  0  0
 15 17  1  0  0  0  0
 14 15  2  0  0  0  0
 14 24  1  0  0  0  0
 11 12  1  0  0  0  0
 11 13  1  0  0  0  0
 11 14  1  0  0  0  0
  9 10  1  0  0  0  0
  9 11  1  0  0  0  0
  9 26  1  0  0  0  0
  7  8  1  0  0  0  0
  7  9  1  0  0  0  0
 30 31  1  0  0  0  0
 30 32  1  0  0  0  0
 30 33  1  0  0  0  0
 28 29  1  0  0  0  0
 28 30  1  0  0  0  0
M  END
$$$$
default_name
  -OEChem-02102213163D

 33 33  0     1  0  0  0  0  0999 V2000
   -4.0702   -3.8485    1.4554 H   0  0  0  0  0  0  0  0  0  0  0  0
   -4.0012   -2.9605    0.8284 C   0  0  0  0  0  0  0  0  0  0  0  0
   -4.7652   -2.2435    1.1234 H   0  0  0  0  0  0  0  0  0  0  0  0
   -4.1352   -3.2385   -0.2156 H   0  0  0  0  0  0  0  0  0  0  0  0
   -2.6362   -2.3395    1.0094 C   0  0  0  0  0  0  0  0  0  0  0  0
   -1.8292   -2.8395    1.7814 O   0  0  0  0  0  0  0  0  0  0  0  0
   -2.3832   -1.2445    0.2964 N   0  0  0  0  0  0  0  0  0  0  0  0
   -3.1102   -0.8685   -0.2946 H   0  0  0  0  0  0  0  0  0  0  0  0
   -1.1292   -0.4875    0.3524 C   0  0  1  0  0  0  0  0  0  0  0  0
   -0.3087   -1.1556    0.0882 H   0  0  0  0  0  0  0  0  0  0  0  0
   -1.1749    0.6534   -0.6787 C   0  0  0  0  0  0  0  0  0  0  0  0
   -0.2337    1.2033   -0.6408 H   0  0  0  0  0  0  0  0  0  0  0  0
   -1.2622    0.2235   -1.6779 H   0  0  0  0  0  0  0  0  0  0  0  0
   -2.3054    1.6395   -0.4559 C   0  0  0  0  0  0  0  0  0  0  0  0
   -3.4421    1.6186   -1.2888 C   0  0  0  0  0  0  0  0  0  0  0  0
   -3.4998    0.9141   -2.1083 H   0  0  0  0  0  0  0  0  0  0  0  0
   -4.5072    2.5095   -1.0528 C   0  0  0  0  0  0  0  0  0  0  0  0
   -5.3753    2.4918   -1.6935 H   0  0  0  0  0  0  0  0  0  0  0  0
   -4.4364    3.4218    0.0226 C   0  0  0  0  0  0  0  0  0  0  0  0
   -5.4596    4.2830    0.2604 O   0  0  0  0  0  0  0  0  0  0  0  0
   -6.1324    4.2411   -0.4204 H   0  0  0  0  0  0  0  0  0  0  0  0
   -3.3004    3.4379    0.8580 C   0  0  0  0  0  0  0  0  0  0  0  0
   -3.2561    4.1431    1.6743 H   0  0  0  0  0  0  0  0  0  0  0  0
   -2.2354    2.5493    0.6167 C   0  0  0  0  0  0  0  0  0  0  0  0
   -1.3589    2.5686    1.2534 H   0  0  0  0  0  0  0  0  0  0  0  0
   -0.8664    0.0378    1.7736 C   0  0  0  0  0  0  0  0  0  0  0  0
    0.2529   -0.0672    2.2760 O   0  0  0  0  0  0  0  0  0  0  0  0
   -1.8947    0.5991    2.4221 N   0  0  0  0  0  0  0  0  0  0  0  0
   -2.7942    0.5936    1.9635 H   0  0  0  0  0  0  0  0  0  0  0  0
   -1.8170    1.1453    3.7750 C   0  0  0  0  0  0  0  0  0  0  0  0
   -0.9697    1.8290    3.8506 H   0  0  0  0  0  0  0  0  0  0  0  0
   -2.7354    1.6828    4.0167 H   0  0  0  0  0  0  0  0  0  0  0  0
   -1.6754    0.3334    4.4914 H   0  0  0  0  0  0  0  0  0  0  0  0
  5  6  2  0  0  0  0
  5  7  1  0  0  0  0
  2  3  1  0  0  0  0
  2  4  1  0  0  0  0
  2  5  1  0  0  0  0
  1  2  1  0  0  0  0
 26 27  2  0  0  0  0
 26 28  1  0  0  0  0
 24 25  1  0  0  0  0
 22 23  1  0  0  0  0
 22 24  2  0  0  0  0
 20 21  1  0  0  0  0
 19 20  1  0  0  0  0
 19 22  1  0  0  0  0
 17 18  1  0  0  0  0
 17 19  2  0  0  0  0
 15 16  1  0  0  0  0
 15 17  1  0  0  0  0
 14 15  2  0  0  0  0
 14 24  1  0  0  0  0
 11 12  1  0  0  0  0
 11 13  1  0  0  0  0
 11 14  1  0  0  0  0
  9 10  1  0  0  0  0
  9 11  1  0  0  0  0
  9 26  1  0  0  0  0
  7  8  1  0  0  0  0
  7  9  1  0  0  0  0
 30 31  1  0  0  0  0
 30 32  1  0  0  0  0
 30 33  1  0  0  0  0
 28 29  1  0  0  0  0
 28 30  1  0  0  0  0
M  END
$$$$
default_name
  -OEChem-02102213163D

 33 33  0     1  0  0  0  0  0999 V2000
   -4.0702   -3.8485    1.4554 H   0  0  0  0  0  0  0  0  0  0  0  0
   -4.0012   -2.9605    0.8284 C   0  0  0  0  0  0  0  0  0  0  0  0
   -4.7652   -2.2435    1.1234 H   0  0  0  0  0  0  0  0  0  0  0  0
   -4.1352   -3.2385   -0.2156 H   0  0  0  0  0  0  0  0  0  0  0  0
   -2.6362   -2.3395    1.0094 C   0  0  0  0  0  0  0  0  0  0  0  0
   -1.8292   -2.8395    1.7814 O   0  0  0  0  0  0  0  0  0  0  0  0
   -2.3832   -1.2445    0.2964 N   0  0  0  0  0  0  0  0  0  0  0  0
   -3.1102   -0.8685   -0.2946 H   0  0  0  0  0  0  0  0  0  0  0  0
   -1.1292   -0.4875    0.3524 C   0  0  1  0  0  0  0  0  0  0  0  0
   -0.3087   -1.1556    0.0882 H   0  0  0  0  0  0  0  0  0  0  0  0
   -1.1749    0.6534   -0.6787 C   0  0  0  0  0  0  0  0  0  0  0  0
   -0.2337    1.2033   -0.6408 H   0  0  0  0  0  0  0  0  0  0  0  0
   -1.2622    0.2235   -1.6779 H   0  0  0  0  0  0  0  0  0  0  0  0
   -2.3054    1.6395   -0.4559 C   0  0  0  0  0  0  0  0  0  0  0  0
   -3.5608    1.4312   -1.0616 C   0  0  0  0  0  0  0  0  0  0  0  0
   -3.7141    0.5785   -1.7101 H   0  0  0  0  0  0  0  0  0  0  0  0
   -4.6195    2.3279   -0.8192 C   0  0  0  0  0  0  0  0  0  0  0  0
   -5.5790    2.1662   -1.2859 H   0  0  0  0  0  0  0  0  0  0  0  0
   -4.4226    3.4347    0.0351 C   0  0  0  0  0  0  0  0  0  0  0  0
   -5.4381    4.3037    0.2776 O   0  0  0  0  0  0  0  0  0  0  0  0
   -6.2105    4.1146   -0.2568 H   0  0  0  0  0  0  0  0  0  0  0  0
   -3.1672    3.6389    0.6443 C   0  0  0  0  0  0  0  0  0  0  0  0
   -3.0277    4.4913    1.2920 H   0  0  0  0  0  0  0  0  0  0  0  0
   -2.1096    2.7433    0.3963 C   0  0  0  0  0  0  0  0  0  0  0  0
   -1.1426    2.9060    0.8573 H   0  0  0  0  0  0  0  0  0  0  0  0
   -0.8664    0.0378    1.7736 C   0  0  0  0  0  0  0  0  0  0  0  0
    0.2529   -0.0672    2.2760 O   0  0  0  0  0  0  0  0  0  0  0  0
   -1.8947    0.5991    2.4221 N   0  0  0  0  0  0  0  0  0  0  0  0
   -2.7942    0.5936    1.9635 H   0  0  0  0  0  0  0  0  0  0  0  0
   -1.8170    1.1453    3.7750 C   0  0  0  0  0  0  0  0  0  0  0  0
   -0.9697    1.8290    3.8506 H   0  0  0  0  0  0  0  0  0  0  0  0
   -2.7354    1.6828    4.0167 H   0  0  0  0  0  0  0  0  0  0  0  0
   -1.6754    0.3334    4.4914 H   0  0  0  0  0  0  0  0  0  0  0  0
  5  6  2  0  0  0  0
  5  7  1  0  0  0  0
  2  3  1  0  0  0  0
  2  4  1  0  0  0  0
  2  5  1  0  0  0  0
  1  2  1  0  0  0  0
 26 27  2  0  0  0  0
 26 28  1  0  0  0  0
 24 25  1  0  0  0  0
 22 23  1  0  0  0  0
 22 24  2  0  0  0  0
 20 21  1  0  0  0  0
 19 20  1  0  0  0  0
 19 22  1  0  0  0  0
 17 18  1  0  0  0  0
 17 19  2  0  0  0  0
 15 16  1  0  0  0  0
 15 17  1  0  0  0  0
 14 15  2  0  0  0  0
 14 24  1  0  0  0  0
 11 12  1  0  0  0  0
 11 13  1  0  0  0  0
 11 14  1  0  0  0  0
  9 10  1  0  0  0  0
  9 11  1  0  0  0  0
  9 26  1  0  0  0  0
  7  8  1  0  0  0  0
  7  9  1  0  0  0  0
 30 31  1  0  0  0  0
 30 32  1  0  0  0  0
 30 33  1  0  0  0  0
 28 29  1  0  0  0  0
 28 30  1  0  0  0  0
M  END
$$$$
default_name
  -OEChem-02102213163D

 33 33  0     1  0  0  0  0  0999 V2000
   -4.0702   -3.8485    1.4554 H   0  0  0  0  0  0  0  0  0  0  0  0
   -4.0012   -2.9605    0.8284 C   0  0  0  0  0  0  0  0  0  0  0  0
   -4.7652   -2.2435    1.1234 H   0  0  0  0  0  0  0  0  0  0  0  0
   -4.1352   -3.2385   -0.2156 H   0  0  0  0  0  0  0  0  0  0  0  0
   -2.6362   -2.3395    1.0094 C   0  0  0  0  0  0  0  0  0  0  0  0
   -1.8292   -2.8395    1.7814 O   0  0  0  0  0  0  0  0  0  0  0  0
   -2.3832   -1.2445    0.2964 N   0  0  0  0  0  0  0  0  0  0  0  0
   -3.1102   -0.8685   -0.2946 H   0  0  0  0  0  0  0  0  0  0  0  0
   -1.1292   -0.4875    0.3524 C   0  0  1  0  0  0  0  0  0  0  0  0
   -0.3087   -1.1556    0.0882 H   0  0  0  0  0  0  0  0  0  0  0  0
   -1.1749    0.6534   -0.6787 C   0  0  0  0  0  0  0  0  0  0  0  0
   -0.2337    1.2033   -0.6408 H   0  0  0  0  0  0  0  0  0  0  0  0
   -1.2622    0.2235   -1.6779 H   0  0  0  0  0  0  0  0  0  0  0  0
   -2.3054    1.6395   -0.4559 C   0  0  0  0  0  0  0  0  0  0  0  0
   -3.6301    1.2894   -0.7859 C   0  0  0  0  0  0  0  0  0  0  0  0
   -3.8413    0.3231   -1.2248 H   0  0  0  0  0  0  0  0  0  0  0  0
   -4.6818    2.1934   -0.5396 C   0  0  0  0  0  0  0  0  0  0  0  0
   -5.6947    1.9226   -0.7950 H   0  0  0  0  0  0  0  0  0  0  0  0
   -4.4077    3.4502    0.0424 C   0  0  0  0  0  0  0  0  0  0  0  0
   -5.4153    4.3278    0.2867 O   0  0  0  0  0  0  0  0  0  0  0  0
   -6.2536    4.0210   -0.0612 H   0  0  0  0  0  0  0  0  0  0  0  0
   -3.0821    3.7969    0.3766 C   0  0  0  0  0  0  0  0  0  0  0  0
   -2.8847    4.7626    0.8170 H   0  0  0  0  0  0  0  0  0  0  0  0
   -2.0325    2.8930    0.1248 C   0  0  0  0  0  0  0  0  0  0  0  0
   -1.0132    3.1638    0.3733 H   0  0  0  0  0  0  0  0  0  0  0  0
   -0.8664    0.0378    1.7736 C   0  0  0  0  0  0  0  0  0  0  0  0
    0.2529   -0.0672    2.2760 O   0  0  0  0  0  0  0  0  0  0  0  0
   -1.8947    0.5991    2.4221 N   0  0  0  0  0  0  0  0  0  0  0  0
   -2.7942    0.5936    1.9635 H   0  0  0  0  0  0  0  0  0  0  0  0
   -1.8170    1.1453    3.7750 C   0  0  0  0  0  0  0  0  0  0  0  0
   -0.9697    1.8290    3.8506 H   0  0  0  0  0  0  0  0  0  0  0  0
   -2.7354    1.6828    4.0167 H   0  0  0  0  0  0  0  0  0  0  0  0
   -1.6754    0.3334    4.4914 H   0  0  0  0  0  0  0  0  0  0  0  0
  5  6  2  0  0  0  0
  5  7  1  0  0  0  0
  2  3  1  0  0  0  0
  2  4  1  0  0  0  0
  2  5  1  0  0  0  0
  1  2  1  0  0  0  0
 26 27  2  0  0  0  0
 26 28  1  0  0  0  0
 24 25  1  0  0  0  0
 22 23  1  0  0  0  0
 22 24  2  0  0  0  0
 20 21  1  0  0  0  0
 19 20  1  0  0  0  0
 19 22  1  0  0  0  0
 17 18  1  0  0  0  0
 17 19  2  0  0  0  0
 15 16  1  0  0  0  0
 15 17  1  0  0  0  0
 14 15  2  0  0  0  0
 14 24  1  0  0  0  0
 11 12  1  0  0  0  0
 11 13  1  0  0  0  0
 11 14  1  0  0  0  0
  9 10  1  0  0  0  0
  9 11  1  0  0  0  0
  9 26  1  0  0  0  0
  7  8  1  0  0  0  0
  7  9  1  0  0  0  0
 30 31  1  0  0  0  0
 30 32  1  0  0  0  0
 30 33  1  0  0  0  0
 28 29  1  0  0  0  0
 28 30  1  0  0  0  0
M  END
$$$$
default_name
  -OEChem-02102213163D

 33 33  0     1  0  0  0  0  0999 V2000
   -4.0702   -3.8485    1.4554 H   0  0  0  0  0  0  0  0  0  0  0  0
   -4.0012   -2.9605    0.8284 C   0  0  0  0  0  0  0  0  0  0  0  0
   -4.7652   -2.2435    1.1234 H   0  0  0  0  0  0  0  0  0  0  0  0
   -4.1352   -3.2385   -0.2156 H   0  0  0  0  0  0  0  0  0  0  0  0
   -2.6362   -2.3395    1.0094 C   0  0  0  0  0  0  0  0  0  0  0  0
   -1.8292   -2.8395    1.7814 O   0  0  0  0  0  0  0  0  0  0  0  0
   -2.3832   -1.2445    0.2964 N   0  0  0  0  0  0  0  0  0  0  0  0
   -3.1102   -0.8685   -0.2946 H   0  0  0  0  0  0  0  0  0  0  0  0
   -1.1292   -0.4875    0.3524 C   0  0  1  0  0  0  0  0  0  0  0  0
   -0.3087   -1.1556    0.0882 H   0  0  0  0  0  0  0  0  0  0  0  0
   -1.1749    0.6534   -0.6787 C   0  0  0  0  0  0  0  0  0  0  0  0
   -0.2337    1.2033   -0.6408 H   0  0  0  0  0  0  0  0  0  0  0  0
   -1.2622    0.2235   -1.6779 H   0  0  0  0  0  0  0  0  0  0  0  0
   -2.3054    1.6395   -0.4559 C   0  0  0  0  0  0  0  0  0  0  0  0
   -3.6452    1.2031   -0.4807 C   0  0  0  0  0  0  0  0  0  0  0  0
   -3.8728    0.1651   -0.6853 H   0  0  0  0  0  0  0  0  0  0  0  0
   -4.6898    2.1149   -0.2331 C   0  0  0  0  0  0  0  0  0  0  0  0
   -5.7147    1.7776   -0.2544 H   0  0  0  0  0  0  0  0  0  0  0  0
   -4.3926    3.4672    0.0440 C   0  0  0  0  0  0  0  0  0  0  0  0
   -5.3926    4.3538    0.2870 O   0  0  0  0  0  0  0  0  0  0  0  0
   -6.2588    3.9667    0.1531 H   0  0  0  0  0  0  0  0  0  0  0  0
   -3.0510    3.9011    0.0732 C   0  0  0  0  0  0  0  0  0  0  0  0
   -2.8368    4.9384    0.2819 H   0  0  0  0  0  0  0  0  0  0  0  0
   -2.0094    2.9882   -0.1792 C   0  0  0  0  0  0  0  0  0  0  0  0
   -0.9794    3.3242   -0.1657 H   0  0  0  0  0  0  0  0  0  0  0  0
   -0.8664    0.0378    1.7736 C   0  0  0  0  0  0  0  0  0  0  0  0
    0.2529   -0.0672    2.2760 O   0  0  0  0  0  0  0  0  0  0  0  0
   -1.8947    0.5991    2.4221 N   0  0  0  0  0  0  0  0  0  0  0  0
   -2.7942    0.5936    1.9635 H   0  0  0  0  0  0  0  0  0  0  0  0
   -1.8170    1.1453    3.7750 C   0  0  0  0  0  0  0  0  0  0  0  0
   -0.9697    1.8290    3.8506 H   0  0  0  0  0  0  0  0  0  0  0  0
   -2.7354    1.6828    4.0167 H   0  0  0  0  0  0  0  0  0  0  0  0
   -1.6754    0.3334    4.4914 H   0  0  0  0  0  0  0  0  0  0  0  0
  5  6  2  0  0  0  0
  5  7  1  0  0  0  0
  2  3  1  0  0  0  0
  2  4  1  0  0  0  0
  2  5  1  0  0  0  0
  1  2  1  0  0  0  0
 26 27  2  0  0  0  0
 26 28  1  0  0  0  0
 24 25  1  0  0  0  0
 22 23  1  0  0  0  0
 22 24  2  0  0  0  0
 20 21  1  0  0  0  0
 19 20  1  0  0  0  0
 19 22  1  0  0  0  0
 17 18  1  0  0  0  0
 17 19  2  0  0  0  0
 15 16  1  0  0  0  0
 15 17  1  0  0  0  0
 14 15  2  0  0  0  0
 14 24  1  0  0  0  0
 11 12  1  0  0  0  0
 11 13  1  0  0  0  0
 11 14  1  0  0  0  0
  9 10  1  0  0  0  0
  9 11  1  0  0  0  0
  9 26  1  0  0  0  0
  7  8  1  0  0  0  0
  7  9  1  0  0  0  0
 30 31  1  0  0  0  0
 30 32  1  0  0  0  0
 30 33  1  0  0  0  0
 28 29  1  0  0  0  0
 28 30  1  0  0  0  0
M  END
$$$$
default_name
  -OEChem-02102213163D

 33 33  0     1  0  0  0  0  0999 V2000
   -4.0702   -3.8485    1.4554 H   0  0  0  0  0  0  0  0  0  0  0  0
   -4.0012   -2.9605    0.8284 C   0  0  0  0  0  0  0  0  0  0  0  0
   -4.7652   -2.2435    1.1234 H   0  0  0  0  0  0  0  0  0  0  0  0
   -4.1352   -3.2385   -0.2156 H   0  0  0  0  0  0  0  0  0  0  0  0
   -2.6362   -2.3395    1.0094 C   0  0  0  0  0  0  0  0  0  0  0  0
   -1.8292   -2.8395    1.7814 O   0  0  0  0  0  0  0  0  0  0  0  0
   -2.3832   -1.2445    0.2964 N   0  0  0  0  0  0  0  0  0  0  0  0
   -3.1102   -0.8685   -0.2946 H   0  0  0  0  0  0  0  0  0  0  0  0
   -1.1292   -0.4875    0.3524 C   0  0  1  0  0  0  0  0  0  0  0  0
   -0.3087   -1.1556    0.0882 H   0  0  0  0  0  0  0  0  0  0  0  0
   -1.1749    0.6534   -0.6787 C   0  0  0  0  0  0  0  0  0  0  0  0
   -0.2337    1.2033   -0.6408 H   0  0  0  0  0  0  0  0  0  0  0  0
   -1.2622    0.2235   -1.6779 H   0  0  0  0  0  0  0  0  0  0  0  0
   -2.3054    1.6395   -0.4559 C   0  0  0  0  0  0  0  0  0  0  0  0
   -3.6052    1.1780   -0.1666 C   0  0  0  0  0  0  0  0  0  0  0  0
   -3.8064    0.1154   -0.1283 H   0  0  0  0  0  0  0  0  0  0  0  0
   -4.6429    2.0980    0.0795 C   0  0  0  0  0  0  0  0  0  0  0  0
   -5.6374    1.7412    0.2991 H   0  0  0  0  0  0  0  0  0  0  0  0
   -4.3784    3.4844    0.0397 C   0  0  0  0  0  0  0  0  0  0  0  0
   -5.3716    4.3797    0.2784 O   0  0  0  0  0  0  0  0  0  0  0  0
   -6.2256    3.9554    0.3714 H   0  0  0  0  0  0  0  0  0  0  0  0
   -3.0760    3.9444   -0.2452 C   0  0  0  0  0  0  0  0  0  0  0  0
   -2.8872    5.0069   -0.2771 H   0  0  0  0  0  0  0  0  0  0  0  0
   -2.0419    3.0223   -0.4952 C   0  0  0  0  0  0  0  0  0  0  0  0
   -1.0436    3.3765   -0.7231 H   0  0  0  0  0  0  0  0  0  0  0  0
   -0.8664    0.0378    1.7736 C   0  0  0  0  0  0  0  0  0  0  0  0
    0.2529   -0.0672    2.2760 O   0  0  0  0  0  0  0  0  0  0  0  0
   -1.8947    0.5991    2.4221 N   0  0  0  0  0  0  0  0  0  0  0  0
   -2.7942    0.5936    1.9635 H   0  0  0  0  0  0  0  0  0  0  0  0
   -1.8170    1.1453    3.7750 C   0  0  0  0  0  0  0  0  0  0  0  0
   -0.9697    1.8290    3.8506 H   0  0  0  0  0  0  0  0  0  0  0  0
   -2.7354    1.6828    4.0167 H   0  0  0  0  0  0  0  0  0  0  0  0
   -1.6754    0.3334    4.4914 H   0  0  0  0  0  0  0  0  0  0  0  0
  5  6  2  0  0  0  0
  5  7  1  0  0  0  0
  2  3  1  0  0  0  0
  2  4  1  0  0  0  0
  2  5  1  0  0  0  0
  1  2  1  0  0  0  0
 26 27  2  0  0  0  0
 26 28  1  0  0  0  0
 24 25  1  0  0  0  0
 22 23  1  0  0  0  0
 22 24  2  0  0  0  0
 20 21  1  0  0  0  0
 19 20  1  0  0  0  0
 19 22  1  0  0  0  0
 17 18  1  0  0  0  0
 17 19  2  0  0  0  0
 15 16  1  0  0  0  0
 15 17  1  0  0  0  0
 14 15  2  0  0  0  0
 14 24  1  0  0  0  0
 11 12  1  0  0  0  0
 11 13  1  0  0  0  0
 11 14  1  0  0  0  0
  9 10  1  0  0  0  0
  9 11  1  0  0  0  0
  9 26  1  0  0  0  0
  7  8  1  0  0  0  0
  7  9  1  0  0  0  0
 30 31  1  0  0  0  0
 30 32  1  0  0  0  0
 30 33  1  0  0  0  0
 28 29  1  0  0  0  0
 28 30  1  0  0  0  0
M  END
$$$$
default_name
  -OEChem-02102213163D

 33 33  0     1  0  0  0  0  0999 V2000
   -4.0702   -3.8485    1.4554 H   0  0  0  0  0  0  0  0  0  0  0  0
   -4.0012   -2.9605    0.8284 C   0  0  0  0  0  0  0  0  0  0  0  0
   -4.7652   -2.2435    1.1234 H   0  0  0  0  0  0  0  0  0  0  0  0
   -4.1352   -3.2385   -0.2156 H   0  0  0  0  0  0  0  0  0  0  0  0
   -2.6362   -2.3395    1.0094 C   0  0  0  0  0  0  0  0  0  0  0  0
   -1.8292   -2.8395    1.7814 O   0  0  0  0  0  0  0  0  0  0  0  0
   -2.3832   -1.2445    0.2964 N   0  0  0  0  0  0  0  0  0  0  0  0
   -3.1102   -0.8685   -0.2946 H   0  0  0  0  0  0  0  0  0  0  0  0
   -1.1292   -0.4875    0.3524 C   0  0  1  0  0  0  0  0  0  0  0  0
   -0.3087   -1.1556    0.0882 H   0  0  0  0  0  0  0  0  0  0  0  0
   -1.1749    0.6534   -0.6787 C   0  0  0  0  0  0  0  0  0  0  0  0
   -0.2337    1.2033   -0.6408 H   0  0  0  0  0  0  0  0  0  0  0  0
   -1.2622    0.2235   -1.6779 H   0  0  0  0  0  0  0  0  0  0  0  0
   -2.3054    1.6395   -0.4559 C   0  0  0  0  0  0  0  0  0  0  0  0
   -3.5128    1.2159    0.1349 C   0  0  0  0  0  0  0  0  0  0  0  0
   -3.6466    0.1773    0.4080 H   0  0  0  0  0  0  0  0  0  0  0  0
   -4.5445    2.1438    0.3767 C   0  0  0  0  0  0  0  0  0  0  0  0
   -5.4683    1.8156    0.8278 H   0  0  0  0  0  0  0  0  0  0  0  0
   -4.3661    3.5008    0.0298 C   0  0  0  0  0  0  0  0  0  0  0  0
   -5.3538    4.4040    0.2616 O   0  0  0  0  0  0  0  0  0  0  0  0
   -6.1564    3.9879    0.5789 H   0  0  0  0  0  0  0  0  0  0  0  0
   -3.1553    3.9238   -0.5568 C   0  0  0  0  0  0  0  0  0  0  0  0
   -3.0326    4.9632   -0.8217 H   0  0  0  0  0  0  0  0  0  0  0  0
   -2.1278    2.9931   -0.8015 C   0  0  0  0  0  0  0  0  0  0  0  0
   -1.2014    3.3171   -1.2607 H   0  0  0  0  0  0  0  0  0  0  0  0
   -0.8664    0.0378    1.7736 C   0  0  0  0  0  0  0  0  0  0  0  0
    0.2529   -0.0672    2.2760 O   0  0  0  0  0  0  0  0  0  0  0  0
   -1.8947    0.5991    2.4221 N   0  0  0  0  0  0  0  0  0  0  0  0
   -2.7942    0.5936    1.9635 H   0  0  0  0  0  0  0  0  0  0  0  0
   -1.8170    1.1453    3.7750 C   0  0  0  0  0  0  0  0  0  0  0  0
   -0.9697    1.8290    3.8506 H   0  0  0  0  0  0  0  0  0  0  0  0
   -2.7354    1.6828    4.0167 H   0  0  0  0  0  0  0  0  0  0  0  0
   -1.6754    0.3334    4.4914 H   0  0  0  0  0  0  0  0  0  0  0  0
  5  6  2  0  0  0  0
  5  7  1  0  0  0  0
  2  3  1  0  0  0  0
  2  4  1  0  0  0  0
  2  5  1  0  0  0  0
  1  2  1  0  0  0  0
 26 27  2  0  0  0  0
 26 28  1  0  0  0  0
 24 25  1  0  0  0  0
 22 23  1  0  0  0  0
 22 24  2  0  0  0  0
 20 21  1  0  0  0  0
 19 20  1  0  0  0  0
 19 22  1  0  0  0  0
 17 18  1  0  0  0  0
 17 19  2  0  0  0  0
 15 16  1  0  0  0  0
 15 17  1  0  0  0  0
 14 15  2  0  0  0  0
 14 24  1  0  0  0  0
 11 12  1  0  0  0  0
 11 13  1  0  0  0  0
 11 14  1  0  0  0  0
  9 10  1  0  0  0  0
  9 11  1  0  0  0  0
  9 26  1  0  0  0  0
  7  8  1  0  0  0  0
  7  9  1  0  0  0  0
 30 31  1  0  0  0  0
 30 32  1  0  0  0  0
 30 33  1  0  0  0  0
 28 29  1  0  0  0  0
 28 30  1  0  0  0  0
M  END
$$$$
default_name
  -OEChem-02102213163D

 33 33  0     1  0  0  0  0  0999 V2000
   -4.0702   -3.8485    1.4554 H   0  0  0  0  0  0  0  0  0  0  0  0
   -4.0012   -2.9605    0.8284 C   0  0  0  0  0  0  0  0  0  0  0  0
   -4.7652   -2.2435    1.1234 H   0  0  0  0  0  0  0  0  0  0  0  0
   -4.1352   -3.2385   -0.2156 H   0  0  0  0  0  0  0  0  0  0  0  0
   -2.6362   -2.3395    1.0094 C   0  0  0  0  0  0  0  0  0  0  0  0
   -1.8292   -2.8395    1.7814 O   0  0  0  0  0  0  0  0  0  0  0  0
   -2.3832   -1.2445    0.2964 N   0  0  0  0  0  0  0  0  0  0  0  0
   -3.1102   -0.8685   -0.2946 H   0  0  0  0  0  0  0  0  0  0  0  0
   -1.1292   -0.4875    0.3524 C   0  0  1  0  0  0  0  0  0  0  0  0
   -0.3087   -1.1556    0.0882 H   0  0  0  0  0  0  0  0  0  0  0  0
   -1.1749    0.6534   -0.6787 C   0  0  0  0  0  0  0  0  0  0  0  0
   -0.2337    1.2033   -0.6408 H   0  0  0  0  0  0  0  0  0  0  0  0
   -1.2622    0.2235   -1.6779 H   0  0  0  0  0  0  0  0  0  0  0  0
   -2.3054    1.6395   -0.4559 C   0  0  0  0  0  0  0  0  0  0  0  0
   -3.3742    1.3141    0.4032 C   0  0  0  0  0  0  0  0  0  0  0  0
   -3.4044    0.3468    0.8873 H   0  0  0  0  0  0  0  0  0  0  0  0
   -4.4011    2.2491    0.6384 C   0  0  0  0  0  0  0  0  0  0  0  0
   -5.2188    1.9960    1.2957 H   0  0  0  0  0  0  0  0  0  0  0  0
   -4.3565    3.5151    0.0150 C   0  0  0  0  0  0  0  0  0  0  0  0
   -5.3403    4.4248    0.2377 O   0  0  0  0  0  0  0  0  0  0  0  0
   -6.0559    4.0619    0.7614 H   0  0  0  0  0  0  0  0  0  0  0  0
   -3.2837    3.8408   -0.8405 C   0  0  0  0  0  0  0  0  0  0  0  0
   -3.2631    4.8104   -1.3148 H   0  0  0  0  0  0  0  0  0  0  0  0
   -2.2612    2.9025   -1.0773 C   0  0  0  0  0  0  0  0  0  0  0  0
   -1.4421    3.1499   -1.7420 H   0  0  0  0  0  0  0  0  0  0  0  0
   -0.8664    0.0378    1.7736 C   0  0  0  0  0  0  0  0  0  0  0  0
    0.2529   -0.0672    2.2760 O   0  0  0  0  0  0  0  0  0  0  0  0
   -1.8947    0.5991    2.4221 N   0  0  0  0  0  0  0  0  0  0  0  0
   -2.7942    0.5936    1.9635 H   0  0  0  0  0  0  0  0  0  0  0  0
   -1.8170    1.1453    3.7750 C   0  0  0  0  0  0  0  0  0  0  0  0
   -0.9697    1.8290    3.8506 H   0  0  0  0  0  0  0  0  0  0  0  0
   -2.7354    1.6828    4.0167 H   0  0  0  0  0  0  0  0  0  0  0  0
   -1.6754    0.3334    4.4914 H   0  0  0  0  0  0  0  0  0  0  0  0
  5  6  2  0  0  0  0
  5  7  1  0  0  0  0
  2  3  1  0  0  0  0
  2  4  1  0  0  0  0
  2  5  1  0  0  0  0
  1  2  1  0  0  0  0
 26 27  2  0  0  0  0
 26 28  1  0  0  0  0
 24 25  1  0  0  0  0
 22 23  1  0  0  0  0
 22 24  2  0  0  0  0
 20 21  1  0  0  0  0
 19 20  1  0  0  0  0
 19 22  1  0  0  0  0
 17 18  1  0  0  0  0
 17 19  2  0  0  0  0
 15 16  1  0  0  0  0
 15 17  1  0  0  0  0
 14 15  2  0  0  0  0
 14 24  1  0  0  0  0
 11 12  1  0  0  0  0
 11 13  1  0  0  0  0
 11 14  1  0  0  0  0
  9 10  1  0  0  0  0
  9 11  1  0  0  0  0
  9 26  1  0  0  0  0
  7  8  1  0  0  0  0
  7  9  1  0  0  0  0
 30 31  1  0  0  0  0
 30 32  1  0  0  0  0
 30 33  1  0  0  0  0
 28 29  1  0  0  0  0
 28 30  1  0  0  0  0
M  END
$$$$
default_name
  -OEChem-02102213163D

 33 33  0     1  0  0  0  0  0999 V2000
   -4.0702   -3.8485    1.4554 H   0  0  0  0  0  0  0  0  0  0  0  0
   -4.0012   -2.9605    0.8284 C   0  0  0  0  0  0  0  0  0  0  0  0
   -4.7652   -2.2435    1.1234 H   0  0  0  0  0  0  0  0  0  0  0  0
   -4.1352   -3.2385   -0.2156 H   0  0  0  0  0  0  0  0  0  0  0  0
   -2.6362   -2.3395    1.0094 C   0  0  0  0  0  0  0  0  0  0  0  0
   -1.8292   -2.8395    1.7814 O   0  0  0  0  0  0  0  0  0  0  0  0
   -2.3832   -1.2445    0.2964 N   0  0  0  0  0  0  0  0  0  0  0  0
   -3.1102   -0.8685   -0.2946 H   0  0  0  0  0  0  0  0  0  0  0  0
   -1.1292   -0.4875    0.3524 C   0  0  1  0  0  0  0  0  0  0  0  0
   -0.3087   -1.1556    0.0882 H   0  0  0  0  0  0  0  0  0  0  0  0
   -1.1749    0.6534   -0.6787 C   0  0  0  0  0  0  0  0  0  0  0  0
   -0.2337    1.2033   -0.6408 H   0  0  0  0  0  0  0  0  0  0  0  0
   -1.2622    0.2235   -1.6779 H   0  0  0  0  0  0  0  0  0  0  0  0
   -2.3054    1.6395   -0.4559 C   0  0  0  0  0  0  0  0  0  0  0  0
   -3.1989    1.4661    0.6201 C   0  0  0  0  0  0  0  0  0  0  0  0
   -3.0963    0.6121    1.2767 H   0  0  0  0  0  0  0  0  0  0  0  0
   -4.2225    2.4067    0.8468 C   0  0  0  0  0  0  0  0  0  0  0  0
   -4.9059    2.2700    1.6708 H   0  0  0  0  0  0  0  0  0  0  0  0
   -4.3502    3.5265   -0.0037 C   0  0  0  0  0  0  0  0  0  0  0  0
   -5.3322    4.4408    0.2083 O   0  0  0  0  0  0  0  0  0  0  0  0
   -5.9309    4.1724    0.9064 H   0  0  0  0  0  0  0  0  0  0  0  0
   -3.4522    3.7010   -1.0770 C   0  0  0  0  0  0  0  0  0  0  0  0
   -3.5628    4.5590   -1.7229 H   0  0  0  0  0  0  0  0  0  0  0  0
   -2.4330    2.7567   -1.3037 C   0  0  0  0  0  0  0  0  0  0  0  0
   -1.7491    2.8865   -2.1341 H   0  0  0  0  0  0  0  0  0  0  0  0
   -0.8664    0.0378    1.7736 C   0  0  0  0  0  0  0  0  0  0  0  0
    0.2529   -0.0672    2.2760 O   0  0  0  0  0  0  0  0  0  0  0  0
   -1.8947    0.5991    2.4221 N   0  0  0  0  0  0  0  0  0  0  0  0
   -2.7942    0.5936    1.9635 H   0  0  0  0  0  0  0  0  0  0  0  0
   -1.8170    1.1453    3.7750 C   0  0  0  0  0  0  0  0  0  0  0  0
   -0.9697    1.8290    3.8506 H   0  0  0  0  0  0  0  0  0  0  0  0
   -2.7354    1.6828    4.0167 H   0  0  0  0  0  0  0  0  0  0  0  0
   -1.6754    0.3334    4.4914 H   0  0  0  0  0  0  0  0  0  0  0  0
  5  6  2  0  0  0  0
  5  7  1  0  0  0  0
  2  3  1  0  0  0  0
  2  4  1  0  0  0  0
  2  5  1  0  0  0  0
  1  2  1  0  0  0  0
 26 27  2  0  0  0  0
 26 28  1  0  0  0  0
 24 25  1  0  0  0  0
 22 23  1  0  0  0  0
 22 24  2  0  0  0  0
 20 21  1  0  0  0  0
 19 20  1  0  0  0  0
 19 22  1  0  0  0  0
 17 18  1  0  0  0  0
 17 19  2  0  0  0  0
 15 16  1  0  0  0  0
 15 17  1  0  0  0  0
 14 15  2  0  0  0  0
 14 24  1  0  0  0  0
 11 12  1  0  0  0  0
 11 13  1  0  0  0  0
 11 14  1  0  0  0  0
  9 10  1  0  0  0  0
  9 11  1  0  0  0  0
  9 26  1  0  0  0  0
  7  8  1  0  0  0  0
  7  9  1  0  0  0  0
 30 31  1  0  0  0  0
 30 32  1  0  0  0  0
 30 33  1  0  0  0  0
 28 29  1  0  0  0  0
 28 30  1  0  0  0  0
M  END
$$$$
default_name
  -OEChem-02102213163D

 33 33  0     1  0  0  0  0  0999 V2000
   -4.0702   -3.8485    1.4554 H   0  0  0  0  0  0  0  0  0  0  0  0
   -4.0012   -2.9605    0.8284 C   0  0  0  0  0  0  0  0  0  0  0  0
   -4.7652   -2.2435    1.1234 H   0  0  0  0  0  0  0  0  0  0  0  0
   -4.1352   -3.2385   -0.2156 H   0  0  0  0  0  0  0  0  0  0  0  0
   -2.6362   -2.3395    1.0094 C   0  0  0  0  0  0  0  0  0  0  0  0
   -1.8292   -2.8395    1.7814 O   0  0  0  0  0  0  0  0  0  0  0  0
   -2.3832   -1.2445    0.2964 N   0  0  0  0  0  0  0  0  0  0  0  0
   -3.1102   -0.8685   -0.2946 H   0  0  0  0  0  0  0  0  0  0  0  0
   -1.1292   -0.4875    0.3524 C   0  0  1  0  0  0  0  0  0  0  0  0
   -0.3087   -1.1556    0.0882 H   0  0  0  0  0  0  0  0  0  0  0  0
   -1.1749    0.6534   -0.6787 C   0  0  0  0  0  0  0  0  0  0  0  0
   -0.2337    1.2033   -0.6408 H   0  0  0  0  0  0  0  0  0  0  0  0
   -1.2622    0.2235   -1.6779 H   0  0  0  0  0  0  0  0  0  0  0  0
   -2.3054    1.6395   -0.4559 C   0  0  0  0  0  0  0  0  0  0  0  0
   -2.9989    1.6614    0.7708 C   0  0  0  0  0  0  0  0  0  0  0  0
   -2.7432    0.9552    1.5499 H   0  0  0  0  0  0  0  0  0  0  0  0
   -4.0209    2.6060    0.9876 C   0  0  0  0  0  0  0  0  0  0  0  0
   -4.5509    2.6189    1.9276 H   0  0  0  0  0  0  0  0  0  0  0  0
   -4.3477    3.5342   -0.0249 C   0  0  0  0  0  0  0  0  0  0  0  0
   -5.3298    4.4510    0.1754 O   0  0  0  0  0  0  0  0  0  0  0  0
   -5.7900    4.3119    1.0042 H   0  0  0  0  0  0  0  0  0  0  0  0
   -3.6494    3.5139   -1.2500 C   0  0  0  0  0  0  0  0  0  0  0  0
   -3.9115    4.2259   -2.0181 H   0  0  0  0  0  0  0  0  0  0  0  0
   -2.6315    2.5656   -1.4654 C   0  0  0  0  0  0  0  0  0  0  0  0
   -2.1017    2.5447   -2.4104 H   0  0  0  0  0  0  0  0  0  0  0  0
   -0.8664    0.0378    1.7736 C   0  0  0  0  0  0  0  0  0  0  0  0
    0.2529   -0.0672    2.2760 O   0  0  0  0  0  0  0  0  0  0  0  0
   -1.8947    0.5991    2.4221 N   0  0  0  0  0  0  0  0  0  0  0  0
   -2.7942    0.5936    1.9635 H   0  0  0  0  0  0  0  0  0  0  0  0
   -1.8170    1.1453    3.7750 C   0  0  0  0  0  0  0  0  0  0  0  0
   -0.9697    1.8290    3.8506 H   0  0  0  0  0  0  0  0  0  0  0  0
   -2.7354    1.6828    4.0167 H   0  0  0  0  0  0  0  0  0  0  0  0
   -1.6754    0.3334    4.4914 H   0  0  0  0  0  0  0  0  0  0  0  0
  5  6  2  0  0  0  0
  5  7  1  0  0  0  0
  2  3  1  0  0  0  0
  2  4  1  0  0  0  0
  2  5  1  0  0  0  0
  1  2  1  0  0  0  0
 26 27  2  0  0  0  0
 26 28  1  0  0  0  0
 24 25  1  0  0  0  0
 22 23  1  0  0  0  0
 22 24  2  0  0  0  0
 20 21  1  0  0  0  0
 19 20  1  0  0  0  0
 19 22  1  0  0  0  0
 17 18  1  0  0  0  0
 17 19  2  0  0  0  0
 15 16  1  0  0  0  0
 15 17  1  0  0  0  0
 14 15  2  0  0  0  0
 14 24  1  0  0  0  0
 11 12  1  0  0  0  0
 11 13  1  0  0  0  0
 11 14  1  0  0  0  0
  9 10  1  0  0  0  0
  9 11  1  0  0  0  0
  9 26  1  0  0  0  0
  7  8  1  0  0  0  0
  7  9  1  0  0  0  0
 30 31  1  0  0  0  0
 30 32  1  0  0  0  0
 30 33  1  0  0  0  0
 28 29  1  0  0  0  0
 28 30  1  0  0  0  0
M  END
$$$$
default_name
  -OEChem-02102213163D

 33 33  0     1  0  0  0  0  0999 V2000
   -4.0702   -3.8485    1.4554 H   0  0  0  0  0  0  0  0  0  0  0  0
   -4.0012   -2.9605    0.8284 C   0  0  0  0  0  0  0  0  0  0  0  0
   -4.7652   -2.2435    1.1234 H   0  0  0  0  0  0  0  0  0  0  0  0
   -4.1352   -3.2385   -0.2156 H   0  0  0  0  0  0  0  0  0  0  0  0
   -2.6362   -2.3395    1.0094 C   0  0  0  0  0  0  0  0  0  0  0  0
   -1.8292   -2.8395    1.7814 O   0  0  0  0  0  0  0  0  0  0  0  0
   -2.3832   -1.2445    0.2964 N   0  0  0  0  0  0  0  0  0  0  0  0
   -3.1102   -0.8685   -0.2946 H   0  0  0  0  0  0  0  0  0  0  0  0
   -1.1292   -0.4875    0.3524 C   0  0  1  0  0  0  0  0  0  0  0  0
   -0.3087   -1.1556    0.0882 H   0  0  0  0  0  0  0  0  0  0  0  0
   -1.1749    0.6534   -0.6787 C   0  0  0  0  0  0  0  0  0  0  0  0
   -0.2337    1.2033   -0.6408 H   0  0  0  0  0  0  0  0  0  0  0  0
   -1.2622    0.2235   -1.6779 H   0  0  0  0  0  0  0  0  0  0  0  0
   -2.3054    1.6395   -0.4559 C   0  0  0  0  0  0  0  0  0  0  0  0
   -2.7877    1.8867    0.8451 C   0  0  0  0  0  0  0  0  0  0  0  0
   -2.3692    1.3527    1.6881 H   0  0  0  0  0  0  0  0  0  0  0  0
   -3.8101    2.8333    1.0513 C   0  0  0  0  0  0  0  0  0  0  0  0
   -4.1781    3.0189    2.0486 H   0  0  0  0  0  0  0  0  0  0  0  0
   -4.3492    3.5375   -0.0474 C   0  0  0  0  0  0  0  0  0  0  0  0
   -5.3334    4.4545    0.1414 O   0  0  0  0  0  0  0  0  0  0  0  0
   -5.6427    4.4708    1.0480 H   0  0  0  0  0  0  0  0  0  0  0  0
   -3.8620    3.2924   -1.3479 C   0  0  0  0  0  0  0  0  0  0  0  0
   -4.2853    3.8340   -2.1804 H   0  0  0  0  0  0  0  0  0  0  0  0
   -2.8431    2.3423   -1.5513 C   0  0  0  0  0  0  0  0  0  0  0  0
   -2.4758    2.1478   -2.5519 H   0  0  0  0  0  0  0  0  0  0  0  0
   -0.8664    0.0378    1.7736 C   0  0  0  0  0  0  0  0  0  0  0  0
    0.2529   -0.0672    2.2760 O   0  0  0  0  0  0  0  0  0  0  0  0
   -1.8947    0.5991    2.4221 N   0  0  0  0  0  0  0  0  0  0  0  0
   -2.7942    0.5936    1.9635 H   0  0  0  0  0  0  0  0  0  0  0  0
   -1.8170    1.1453    3.7750 C   0  0  0  0  0  0  0  0  0  0  0  0
   -0.9697    1.8290    3.8506 H   0  0  0  0  0  0  0  0  0  0  0  0
   -2.7354    1.6828    4.0167 H   0  0  0  0  0  0  0  0  0  0  0  0
   -1.6754    0.3334    4.4914 H   0  0  0  0  0  0  0  0  0  0  0  0
  5  6  2  0  0  0  0
  5  7  1  0  0  0  0
  2  3  1  0  0  0  0
  2  4  1  0  0  0  0
  2  5  1  0  0  0  0
  1  2  1  0  0  0  0
 26 27  2  0  0  0  0
 26 28  1  0  0  0  0
 24 25  1  0  0  0  0
 22 23  1  0  0  0  0
 22 24  2  0  0  0  0
 20 21  1  0  0  0  0
 19 20  1  0  0  0  0
 19 22  1  0  0  0  0
 17 18  1  0  0  0  0
 17 19  2  0  0  0  0
 15 16  1  0  0  0  0
 15 17  1  0  0  0  0
 14 15  2  0  0  0  0
 14 24  1  0  0  0  0
 11 12  1  0  0  0  0
 11 13  1  0  0  0  0
 11 14  1  0  0  0  0
  9 10  1  0  0  0  0
  9 11  1  0  0  0  0
  9 26  1  0  0  0  0
  7  8  1  0  0  0  0
  7  9  1  0  0  0  0
 30 31  1  0  0  0  0
 30 32  1  0  0  0  0
 30 33  1  0  0  0  0
 28 29  1  0  0  0  0
 28 30  1  0  0  0  0
M  END
$$$$
default_name
  -OEChem-02102213163D

 33 33  0     1  0  0  0  0  0999 V2000
   -4.0702   -3.8485    1.4554 H   0  0  0  0  0  0  0  0  0  0  0  0
   -4.0012   -2.9605    0.8284 C   0  0  0  0  0  0  0  0  0  0  0  0
   -4.7652   -2.2435    1.1234 H   0  0  0  0  0  0  0  0  0  0  0  0
   -4.1352   -3.2385   -0.2156 H   0  0  0  0  0  0  0  0  0  0  0  0
   -2.6362   -2.3395    1.0094 C   0  0  0  0  0  0  0  0  0  0  0  0
   -1.8292   -2.8395    1.7814 O   0  0  0  0  0  0  0  0  0  0  0  0
   -2.3832   -1.2445    0.2964 N   0  0  0  0  0  0  0  0  0  0  0  0
   -3.1102   -0.8685   -0.2946 H   0  0  0  0  0  0  0  0  0  0  0  0
   -1.1292   -0.4875    0.3524 C   0  0  1  0  0  0  0  0  0  0  0  0
   -0.3087   -1.1556    0.0882 H   0  0  0  0  0  0  0  0  0  0  0  0
   -1.1749    0.6534   -0.6787 C   0  0  0  0  0  0  0  0  0  0  0  0
   -0.2337    1.2033   -0.6408 H   0  0  0  0  0  0  0  0  0  0  0  0
   -1.2622    0.2235   -1.6779 H   0  0  0  0  0  0  0  0  0  0  0  0
   -2.3054    1.6395   -0.4559 C   0  0  0  0  0  0  0  0  0  0  0  0
   -2.5798    2.1267    0.8377 C   0  0  0  0  0  0  0  0  0  0  0  0
   -1.9998    1.7776    1.6820 H   0  0  0  0  0  0  0  0  0  0  0  0
   -3.6044    3.0731    1.0334 C   0  0  0  0  0  0  0  0  0  0  0  0
   -3.8129    3.4429    2.0256 H   0  0  0  0  0  0  0  0  0  0  0  0
   -4.3546    3.5364   -0.0694 C   0  0  0  0  0  0  0  0  0  0  0  0
   -5.3428    4.4512    0.1084 O   0  0  0  0  0  0  0  0  0  0  0  0
   -5.4991    4.6385    1.0349 H   0  0  0  0  0  0  0  0  0  0  0  0
   -4.0753    3.0514   -1.3639 C   0  0  0  0  0  0  0  0  0  0  0  0
   -4.6587    3.4100   -2.1986 H   0  0  0  0  0  0  0  0  0  0  0  0
   -3.0536    2.1020   -1.5556 C   0  0  0  0  0  0  0  0  0  0  0  0
   -2.8458    1.7229   -2.5492 H   0  0  0  0  0  0  0  0  0  0  0  0
   -0.8664    0.0378    1.7736 C   0  0  0  0  0  0  0  0  0  0  0  0
    0.2529   -0.0672    2.2760 O   0  0  0  0  0  0  0  0  0  0  0  0
   -1.8947    0.5991    2.4221 N   0  0  0  0  0  0  0  0  0  0  0  0
   -2.7942    0.5936    1.9635 H   0  0  0  0  0  0  0  0  0  0  0  0
   -1.8170    1.1453    3.7750 C   0  0  0  0  0  0  0  0  0  0  0  0
   -0.9697    1.8290    3.8506 H   0  0  0  0  0  0  0  0  0  0  0  0
   -2.7354    1.6828    4.0167 H   0  0  0  0  0  0  0  0  0  0  0  0
   -1.6754    0.3334    4.4914 H   0  0  0  0  0  0  0  0  0  0  0  0
  5  6  2  0  0  0  0
  5  7  1  0  0  0  0
  2  3  1  0  0  0  0
  2  4  1  0  0  0  0
  2  5  1  0  0  0  0
  1  2  1  0  0  0  0
 26 27  2  0  0  0  0
 26 28  1  0  0  0  0
 24 25  1  0  0  0  0
 22 23  1  0  0  0  0
 22 24  2  0  0  0  0
 20 21  1  0  0  0  0
 19 20  1  0  0  0  0
 19 22  1  0  0  0  0
 17 18  1  0  0  0  0
 17 19  2  0  0  0  0
 15 16  1  0  0  0  0
 15 17  1  0  0  0  0
 14 15  2  0  0  0  0
 14 24  1  0  0  0  0
 11 12  1  0  0  0  0
 11 13  1  0  0  0  0
 11 14  1  0  0  0  0
  9 10  1  0  0  0  0
  9 11  1  0  0  0  0
  9 26  1  0  0  0  0
  7  8  1  0  0  0  0
  7  9  1  0  0  0  0
 30 31  1  0  0  0  0
 30 32  1  0  0  0  0
 30 33  1  0  0  0  0
 28 29  1  0  0  0  0
 28 30  1  0  0  0  0
M  END
$$$$
default_name
  -OEChem-02102213163D

 33 33  0     1  0  0  0  0  0999 V2000
   -4.0702   -3.8485    1.4554 H   0  0  0  0  0  0  0  0  0  0  0  0
   -4.0012   -2.9605    0.8284 C   0  0  0  0  0  0  0  0  0  0  0  0
   -4.7652   -2.2435    1.1234 H   0  0  0  0  0  0  0  0  0  0  0  0
   -4.1352   -3.2385   -0.2156 H   0  0  0  0  0  0  0  0  0  0  0  0
   -2.6362   -2.3395    1.0094 C   0  0  0  0  0  0  0  0  0  0  0  0
   -1.8292   -2.8395    1.7814 O   0  0  0  0  0  0  0  0  0  0  0  0
   -2.3832   -1.2445    0.2964 N   0  0  0  0  0  0  0  0  0  0  0  0
   -3.1102   -0.8685   -0.2946 H   0  0  0  0  0  0  0  0  0  0  0  0
   -1.1292   -0.4875    0.3524 C   0  0  1  0  0  0  0  0  0  0  0  0
   -0.3087   -1.1556    0.0882 H   0  0  0  0  0  0  0  0  0  0  0  0
   -1.1749    0.6534   -0.6787 C   0  0  0  0  0  0  0  0  0  0  0  0
   -0.2337    1.2033   -0.6408 H   0  0  0  0  0  0  0  0  0  0  0  0
   -1.2622    0.2235   -1.6779 H   0  0  0  0  0  0  0  0  0  0  0  0
   -2.3054    1.6395   -0.4559 C   0  0  0  0  0  0  0  0  0  0  0  0
   -2.3894    2.3650    0.7494 C   0  0  0  0  0  0  0  0  0  0  0  0
   -1.6601    2.2009    1.5319 H   0  0  0  0  0  0  0  0  0  0  0  0
   -3.4179    3.3092    0.9353 C   0  0  0  0  0  0  0  0  0  0  0  0
   -3.4801    3.8619    1.8601 H   0  0  0  0  0  0  0  0  0  0  0  0
   -4.3634    3.5308   -0.0896 C   0  0  0  0  0  0  0  0  0  0  0  0
   -5.3573    4.4413    0.0787 O   0  0  0  0  0  0  0  0  0  0  0  0
   -5.3690    4.8033    0.9657 H   0  0  0  0  0  0  0  0  0  0  0  0
   -4.2750    2.8074   -1.2970 C   0  0  0  0  0  0  0  0  0  0  0  0
   -5.0064    2.9826   -2.0715 H   0  0  0  0  0  0  0  0  0  0  0  0
   -3.2485    1.8611   -1.4780 C   0  0  0  0  0  0  0  0  0  0  0  0
   -3.1866    1.2990   -2.4023 H   0  0  0  0  0  0  0  0  0  0  0  0
   -0.8664    0.0378    1.7736 C   0  0  0  0  0  0  0  0  0  0  0  0
    0.2529   -0.0672    2.2760 O   0  0  0  0  0  0  0  0  0  0  0  0
   -1.8947    0.5991    2.4221 N   0  0  0  0  0  0  0  0  0  0  0  0
   -2.7942    0.5936    1.9635 H   0  0  0  0  0  0  0  0  0  0  0  0
   -1.8170    1.1453    3.7750 C   0  0  0  0  0  0  0  0  0  0  0  0
   -0.9697    1.8290    3.8506 H   0  0  0  0  0  0  0  0  0  0  0  0
   -2.7354    1.6828    4.0167 H   0  0  0  0  0  0  0  0  0  0  0  0
   -1.6754    0.3334    4.4914 H   0  0  0  0  0  0  0  0  0  0  0  0
  5  6  2  0  0  0  0
  5  7  1  0  0  0  0
  2  3  1  0  0  0  0
  2  4  1  0  0  0  0
  2  5  1  0  0  0  0
  1  2  1  0  0  0  0
 26 27  2  0  0  0  0
 26 28  1  0  0  0  0
 24 25  1  0  0  0  0
 22 23  1  0  0  0  0
 22 24  2  0  0  0  0
 20 21  1  0  0  0  0
 19 20  1  0  0  0  0
 19 22  1  0  0  0  0
 17 18  1  0  0  0  0
 17 19  2  0  0  0  0
 15 16  1  0  0  0  0
 15 17  1  0  0  0  0
 14 15  2  0  0  0  0
 14 24  1  0  0  0  0
 11 12  1  0  0  0  0
 11 13  1  0  0  0  0
 11 14  1  0  0  0  0
  9 10  1  0  0  0  0
  9 11  1  0  0  0  0
  9 26  1  0  0  0  0
  7  8  1  0  0  0  0
  7  9  1  0  0  0  0
 30 31  1  0  0  0  0
 30 32  1  0  0  0  0
 30 33  1  0  0  0  0
 28 29  1  0  0  0  0
 28 30  1  0  0  0  0
M  END
$$$$
default_name
  -OEChem-02102213163D

 33 33  0     1  0  0  0  0  0999 V2000
   -4.0702   -3.8485    1.4554 H   0  0  0  0  0  0  0  0  0  0  0  0
   -4.0012   -2.9605    0.8284 C   0  0  0  0  0  0  0  0  0  0  0  0
   -4.7652   -2.2435    1.1234 H   0  0  0  0  0  0  0  0  0  0  0  0
   -4.1352   -3.2385   -0.2156 H   0  0  0  0  0  0  0  0  0  0  0  0
   -2.6362   -2.3395    1.0094 C   0  0  0  0  0  0  0  0  0  0  0  0
   -1.8292   -2.8395    1.7814 O   0  0  0  0  0  0  0  0  0  0  0  0
   -2.3832   -1.2445    0.2964 N   0  0  0  0  0  0  0  0  0  0  0  0
   -3.1102   -0.8685   -0.2946 H   0  0  0  0  0  0  0  0  0  0  0  0
   -1.1292   -0.4875    0.3524 C   0  0  1  0  0  0  0  0  0  0  0  0
   -0.3087   -1.1556    0.0882 H   0  0  0  0  0  0  0  0  0  0  0  0
   -1.1749    0.6534   -0.6787 C   0  0  0  0  0  0  0  0  0  0  0  0
   -0.2337    1.2033   -0.6408 H   0  0  0  0  0  0  0  0  0  0  0  0
   -1.2622    0.2235   -1.6779 H   0  0  0  0  0  0  0  0  0  0  0  0
   -2.3054    1.6395   -0.4559 C   0  0  0  0  0  0  0  0  0  0  0  0
   -2.2293    2.5854    0.5860 C   0  0  0  0  0  0  0  0  0  0  0  0
   -1.3734    2.5937    1.2482 H   0  0  0  0  0  0  0  0  0  0  0  0
   -3.2632    3.5253    0.7636 C   0  0  0  0  0  0  0  0  0  0  0  0
   -3.2024    4.2473    1.5634 H   0  0  0  0  0  0  0  0  0  0  0  0
   -4.3751    3.5212   -0.1066 C   0  0  0  0  0  0  0  0  0  0  0  0
   -5.3759    4.4254    0.0544 O   0  0  0  0  0  0  0  0  0  0  0  0
   -5.2612    4.9541    0.8452 H   0  0  0  0  0  0  0  0  0  0  0  0
   -4.4472    2.5771   -1.1517 C   0  0  0  0  0  0  0  0  0  0  0  0
   -5.3046    2.5812   -1.8078 H   0  0  0  0  0  0  0  0  0  0  0  0
   -3.4144    1.6359   -1.3237 C   0  0  0  0  0  0  0  0  0  0  0  0
   -3.4750    0.9049   -2.1212 H   0  0  0  0  0  0  0  0  0  0  0  0
   -0.8664    0.0378    1.7736 C   0  0  0  0  0  0  0  0  0  0  0  0
    0.2529   -0.0672    2.2760 O   0  0  0  0  0  0  0  0  0  0  0  0
   -1.8947    0.5991    2.4221 N   0  0  0  0  0  0  0  0  0  0  0  0
   -2.7942    0.5936    1.9635 H   0  0  0  0  0  0  0  0  0  0  0  0
   -1.8170    1.1453    3.7750 C   0  0  0  0  0  0  0  0  0  0  0  0
   -0.9697    1.8290    3.8506 H   0  0  0  0  0  0  0  0  0  0  0  0
   -2.7354    1.6828    4.0167 H   0  0  0  0  0  0  0  0  0  0  0  0
   -1.6754    0.3334    4.4914 H   0  0  0  0  0  0  0  0  0  0  0  0
  5  6  2  0  0  0  0
  5  7  1  0  0  0  0
  2  3  1  0  0  0  0
  2  4  1  0  0  0  0
  2  5  1  0  0  0  0
  1  2  1  0  0  0  0
 26 27  2  0  0  0  0
 26 28  1  0  0  0  0
 24 25  1  0  0  0  0
 22 23  1  0  0  0  0
 22 24  2  0  0  0  0
 20 21  1  0  0  0  0
 19 20  1  0  0  0  0
 19 22  1  0  0  0  0
 17 18  1  0  0  0  0
 17 19  2  0  0  0  0
 15 16  1  0  0  0  0
 15 17  1  0  0  0  0
 14 15  2  0  0  0  0
 14 24  1  0  0  0  0
 11 12  1  0  0  0  0
 11 13  1  0  0  0  0
 11 14  1  0  0  0  0
  9 10  1  0  0  0  0
  9 11  1  0  0  0  0
  9 26  1  0  0  0  0
  7  8  1  0  0  0  0
  7  9  1  0  0  0  0
 30 31  1  0  0  0  0
 30 32  1  0  0  0  0
 30 33  1  0  0  0  0
 28 29  1  0  0  0  0
 28 30  1  0  0  0  0
M  END
$$$$
default_name
  -OEChem-02102213163D

 33 33  0     1  0  0  0  0  0999 V2000
   -4.0702   -3.8485    1.4554 H   0  0  0  0  0  0  0  0  0  0  0  0
   -4.0012   -2.9605    0.8284 C   0  0  0  0  0  0  0  0  0  0  0  0
   -4.7652   -2.2435    1.1234 H   0  0  0  0  0  0  0  0  0  0  0  0
   -4.1352   -3.2385   -0.2156 H   0  0  0  0  0  0  0  0  0  0  0  0
   -2.6362   -2.3395    1.0094 C   0  0  0  0  0  0  0  0  0  0  0  0
   -1.8292   -2.8395    1.7814 O   0  0  0  0  0  0  0  0  0  0  0  0
   -2.3832   -1.2445    0.2964 N   0  0  0  0  0  0  0  0  0  0  0  0
   -3.1102   -0.8685   -0.2946 H   0  0  0  0  0  0  0  0  0  0  0  0
   -1.1292   -0.4875    0.3524 C   0  0  1  0  0  0  0  0  0  0  0  0
   -0.3087   -1.1556    0.0882 H   0  0  0  0  0  0  0  0  0  0  0  0
   -1.1749    0.6534   -0.6787 C   0  0  0  0  0  0  0  0  0  0  0  0
   -0.2337    1.2033   -0.6408 H   0  0  0  0  0  0  0  0  0  0  0  0
   -1.2622    0.2235   -1.6779 H   0  0  0  0  0  0  0  0  0  0  0  0
   -2.3054    1.6395   -0.4559 C   0  0  0  0  0  0  0  0  0  0  0  0
   -2.1106    2.7729    0.3588 C   0  0  0  0  0  0  0  0  0  0  0  0
   -1.1592    2.9293    0.8501 H   0  0  0  0  0  0  0  0  0  0  0  0
   -3.1509    3.7069    0.5300 C   0  0  0  0  0  0  0  0  0  0  0  0
   -2.9987    4.5728    1.1558 H   0  0  0  0  0  0  0  0  0  0  0  0
   -4.3889    3.5082   -0.1192 C   0  0  0  0  0  0  0  0  0  0  0  0
   -5.3974    4.4047    0.0372 O   0  0  0  0  0  0  0  0  0  0  0  0
   -5.1831    5.0806    0.6816 H   0  0  0  0  0  0  0  0  0  0  0  0
   -4.5804    2.3761   -0.9379 C   0  0  0  0  0  0  0  0  0  0  0  0
   -5.5330    2.2329   -1.4254 H   0  0  0  0  0  0  0  0  0  0  0  0
   -3.5403    1.4419   -1.1034 C   0  0  0  0  0  0  0  0  0  0  0  0
   -3.6913    0.5675   -1.7252 H   0  0  0  0  0  0  0  0  0  0  0  0
   -0.8664    0.0378    1.7736 C   0  0  0  0  0  0  0  0  0  0  0  0
    0.2529   -0.0672    2.2760 O   0  0  0  0  0  0  0  0  0  0  0  0
   -1.8947    0.5991    2.4221 N   0  0  0  0  0  0  0  0  0  0  0  0
   -2.7942    0.5936    1.9635 H   0  0  0  0  0  0  0  0  0  0  0  0
   -1.8170    1.1453    3.7750 C   0  0  0  0  0  0  0  0  0  0  0  0
   -0.9697    1.8290    3.8506 H   0  0  0  0  0  0  0  0  0  0  0  0
   -2.7354    1.6828    4.0167 H   0  0  0  0  0  0  0  0  0  0  0  0
   -1.6754    0.3334    4.4914 H   0  0  0  0  0  0  0  0  0  0  0  0
  5  6  2  0  0  0  0
  5  7  1  0  0  0  0
  2  3  1  0  0  0  0
  2  4  1  0  0  0  0
  2  5  1  0  0  0  0
  1  2  1  0  0  0  0
 26 27  2  0  0  0  0
 26 28  1  0  0  0  0
 24 25  1  0  0  0  0
 22 23  1  0  0  0  0
 22 24  2  0  0  0  0
 20 21  1  0  0  0  0
 19 20  1  0  0  0  0
 19 22  1  0  0  0  0
 17 18  1  0  0  0  0
 17 19  2  0  0  0  0
 15 16  1  0  0  0  0
 15 17  1  0  0  0  0
 14 15  2  0  0  0  0
 14 24  1  0  0  0  0
 11 12  1  0  0  0  0
 11 13  1  0  0  0  0
 11 14  1  0  0  0  0
  9 10  1  0  0  0  0
  9 11  1  0  0  0  0
  9 26  1  0  0  0  0
  7  8  1  0  0  0  0
  7  9  1  0  0  0  0
 30 31  1  0  0  0  0
 30 32  1  0  0  0  0
 30 33  1  0  0  0  0
 28 29  1  0  0  0  0
 28 30  1  0  0  0  0
M  END
$$$$
default_name
  -OEChem-02102213163D

 33 33  0     1  0  0  0  0  0999 V2000
   -4.0702   -3.8485    1.4554 H   0  0  0  0  0  0  0  0  0  0  0  0
   -4.0012   -2.9605    0.8284 C   0  0  0  0  0  0  0  0  0  0  0  0
   -4.7652   -2.2435    1.1234 H   0  0  0  0  0  0  0  0  0  0  0  0
   -4.1352   -3.2385   -0.2156 H   0  0  0  0  0  0  0  0  0  0  0  0
   -2.6362   -2.3395    1.0094 C   0  0  0  0  0  0  0  0  0  0  0  0
   -1.8292   -2.8395    1.7814 O   0  0  0  0  0  0  0  0  0  0  0  0
   -2.3832   -1.2445    0.2964 N   0  0  0  0  0  0  0  0  0  0  0  0
   -3.1102   -0.8685   -0.2946 H   0  0  0  0  0  0  0  0  0  0  0  0
   -1.1292   -0.4875    0.3524 C   0  0  1  0  0  0  0  0  0  0  0  0
   -0.3087   -1.1556    0.0882 H   0  0  0  0  0  0  0  0  0  0  0  0
   -1.1749    0.6534   -0.6787 C   0  0  0  0  0  0  0  0  0  0  0  0
   -0.2337    1.2033   -0.6408 H   0  0  0  0  0  0  0  0  0  0  0  0
   -1.2622    0.2235   -1.6779 H   0  0  0  0  0  0  0  0  0  0  0  0
   -2.3054    1.6395   -0.4559 C   0  0  0  0  0  0  0  0  0  0  0  0
   -2.0413    2.9146    0.0831 C   0  0  0  0  0  0  0  0  0  0  0  0
   -1.0320    3.1848    0.3647 H   0  0  0  0  0  0  0  0  0  0  0  0
   -3.0886    3.8415    0.2504 C   0  0  0  0  0  0  0  0  0  0  0  0
   -2.8830    4.8164    0.6649 H   0  0  0  0  0  0  0  0  0  0  0  0
   -4.4039    3.4928   -0.1265 C   0  0  0  0  0  0  0  0  0  0  0  0
   -5.4202    4.3806    0.0281 O   0  0  0  0  0  0  0  0  0  0  0  0
   -5.1400    5.1742    0.4859 H   0  0  0  0  0  0  0  0  0  0  0  0
   -4.6655    2.2181   -0.6703 C   0  0  0  0  0  0  0  0  0  0  0  0
   -5.6761    1.9617   -0.9505 H   0  0  0  0  0  0  0  0  0  0  0  0
   -3.6173    1.2922   -0.8319 C   0  0  0  0  0  0  0  0  0  0  0  0
   -3.8207    0.3098   -1.2411 H   0  0  0  0  0  0  0  0  0  0  0  0
   -0.8664    0.0378    1.7736 C   0  0  0  0  0  0  0  0  0  0  0  0
    0.2529   -0.0672    2.2760 O   0  0  0  0  0  0  0  0  0  0  0  0
   -1.8947    0.5991    2.4221 N   0  0  0  0  0  0  0  0  0  0  0  0
   -2.7942    0.5936    1.9635 H   0  0  0  0  0  0  0  0  0  0  0  0
   -1.8170    1.1453    3.7750 C   0  0  0  0  0  0  0  0  0  0  0  0
   -0.9697    1.8290    3.8506 H   0  0  0  0  0  0  0  0  0  0  0  0
   -2.7354    1.6828    4.0167 H   0  0  0  0  0  0  0  0  0  0  0  0
   -1.6754    0.3334    4.4914 H   0  0  0  0  0  0  0  0  0  0  0  0
  5  6  2  0  0  0  0
  5  7  1  0  0  0  0
  2  3  1  0  0  0  0
  2  4  1  0  0  0  0
  2  5  1  0  0  0  0
  1  2  1  0  0  0  0
 26 27  2  0  0  0  0
 26 28  1  0  0  0  0
 24 25  1  0  0  0  0
 22 23  1  0  0  0  0
 22 24  2  0  0  0  0
 20 21  1  0  0  0  0
 19 20  1  0  0  0  0
 19 22  1  0  0  0  0
 17 18  1  0  0  0  0
 17 19  2  0  0  0  0
 15 16  1  0  0  0  0
 15 17  1  0  0  0  0
 14 15  2  0  0  0  0
 14 24  1  0  0  0  0
 11 12  1  0  0  0  0
 11 13  1  0  0  0  0
 11 14  1  0  0  0  0
  9 10  1  0  0  0  0
  9 11  1  0  0  0  0
  9 26  1  0  0  0  0
  7  8  1  0  0  0  0
  7  9  1  0  0  0  0
 30 31  1  0  0  0  0
 30 32  1  0  0  0  0
 30 33  1  0  0  0  0
 28 29  1  0  0  0  0
 28 30  1  0  0  0  0
M  END
$$$$
default_name
  -OEChem-02102213163D

 33 33  0     1  0  0  0  0  0999 V2000
   -4.0702   -3.8485    1.4554 H   0  0  0  0  0  0  0  0  0  0  0  0
   -4.0012   -2.9605    0.8284 C   0  0  0  0  0  0  0  0  0  0  0  0
   -4.7652   -2.2435    1.1234 H   0  0  0  0  0  0  0  0  0  0  0  0
   -4.1352   -3.2385   -0.2156 H   0  0  0  0  0  0  0  0  0  0  0  0
   -2.6362   -2.3395    1.0094 C   0  0  0  0  0  0  0  0  0  0  0  0
   -1.8292   -2.8395    1.7814 O   0  0  0  0  0  0  0  0  0  0  0  0
   -2.3832   -1.2445    0.2964 N   0  0  0  0  0  0  0  0  0  0  0  0
   -3.1102   -0.8685   -0.2946 H   0  0  0  0  0  0  0  0  0  0  0  0
   -1.1292   -0.4875    0.3524 C   0  0  1  0  0  0  0  0  0  0  0  0
   -0.3087   -1.1556    0.0882 H   0  0  0  0  0  0  0  0  0  0  0  0
   -1.1749    0.6534   -0.6787 C   0  0  0  0  0  0  0  0  0  0  0  0
   -0.2337    1.2033   -0.6408 H   0  0  0  0  0  0  0  0  0  0  0  0
   -1.2622    0.2235   -1.6779 H   0  0  0  0  0  0  0  0  0  0  0  0
   -2.3054    1.6395   -0.4559 C   0  0  0  0  0  0  0  0  0  0  0  0
   -2.0261    3.0009   -0.2221 C   0  0  0  0  0  0  0  0  0  0  0  0
   -1.0005    3.3428   -0.1748 H   0  0  0  0  0  0  0  0  0  0  0  0
   -3.0806    3.9199   -0.0561 C   0  0  0  0  0  0  0  0  0  0  0  0
   -2.8631    4.9614    0.1243 H   0  0  0  0  0  0  0  0  0  0  0  0
   -4.4189    3.4758   -0.1280 C   0  0  0  0  0  0  0  0  0  0  0  0
   -5.4429    4.3546    0.0278 O   0  0  0  0  0  0  0  0  0  0  0  0
   -5.1349    5.2285    0.2717 H   0  0  0  0  0  0  0  0  0  0  0  0
   -4.6966    2.1139   -0.3669 C   0  0  0  0  0  0  0  0  0  0  0  0
   -5.7240    1.7858   -0.4153 H   0  0  0  0  0  0  0  0  0  0  0  0
   -3.6404    1.1971   -0.5278 C   0  0  0  0  0  0  0  0  0  0  0  0
   -3.8544    0.1493   -0.7021 H   0  0  0  0  0  0  0  0  0  0  0  0
   -0.8664    0.0378    1.7736 C   0  0  0  0  0  0  0  0  0  0  0  0
    0.2529   -0.0672    2.2760 O   0  0  0  0  0  0  0  0  0  0  0  0
   -1.8947    0.5991    2.4221 N   0  0  0  0  0  0  0  0  0  0  0  0
   -2.7942    0.5936    1.9635 H   0  0  0  0  0  0  0  0  0  0  0  0
   -1.8170    1.1453    3.7750 C   0  0  0  0  0  0  0  0  0  0  0  0
   -0.9697    1.8290    3.8506 H   0  0  0  0  0  0  0  0  0  0  0  0
   -2.7354    1.6828    4.0167 H   0  0  0  0  0  0  0  0  0  0  0  0
   -1.6754    0.3334    4.4914 H   0  0  0  0  0  0  0  0  0  0  0  0
  5  6  2  0  0  0  0
  5  7  1  0  0  0  0
  2  3  1  0  0  0  0
  2  4  1  0  0  0  0
  2  5  1  0  0  0  0
  1  2  1  0  0  0  0
 26 27  2  0  0  0  0
 26 28  1  0  0  0  0
 24 25  1  0  0  0  0
 22 23  1  0  0  0  0
 22 24  2  0  0  0  0
 20 21  1  0  0  0  0
 19 20  1  0  0  0  0
 19 22  1  0  0  0  0
 17 18  1  0  0  0  0
 17 19  2  0  0  0  0
 15 16  1  0  0  0  0
 15 17  1  0  0  0  0
 14 15  2  0  0  0  0
 14 24  1  0  0  0  0
 11 12  1  0  0  0  0
 11 13  1  0  0  0  0
 11 14  1  0  0  0  0
  9 10  1  0  0  0  0
  9 11  1  0  0  0  0
  9 26  1  0  0  0  0
  7  8  1  0  0  0  0
  7  9  1  0  0  0  0
 30 31  1  0  0  0  0
 30 32  1  0  0  0  0
 30 33  1  0  0  0  0
 28 29  1  0  0  0  0
 28 30  1  0  0  0  0
M  END
$$$$
default_name
  -OEChem-02102213163D

 33 33  0     1  0  0  0  0  0999 V2000
   -4.0702   -3.8485    1.4554 H   0  0  0  0  0  0  0  0  0  0  0  0
   -4.0012   -2.9605    0.8284 C   0  0  0  0  0  0  0  0  0  0  0  0
   -4.7652   -2.2435    1.1234 H   0  0  0  0  0  0  0  0  0  0  0  0
   -4.1352   -3.2385   -0.2156 H   0  0  0  0  0  0  0  0  0  0  0  0
   -2.6362   -2.3395    1.0094 C   0  0  0  0  0  0  0  0  0  0  0  0
   -1.8292   -2.8395    1.7814 O   0  0  0  0  0  0  0  0  0  0  0  0
   -2.3832   -1.2445    0.2964 N   0  0  0  0  0  0  0  0  0  0  0  0
   -3.1102   -0.8685   -0.2946 H   0  0  0  0  0  0  0  0  0  0  0  0
   -1.1292   -0.4875    0.3524 C   0  0  1  0  0  0  0  0  0  0  0  0
   -0.3087   -1.1556    0.0882 H   0  0  0  0  0  0  0  0  0  0  0  0
   -1.1749    0.6534   -0.6787 C   0  0  0  0  0  0  0  0  0  0  0  0
   -0.2337    1.2033   -0.6408 H   0  0  0  0  0  0  0  0  0  0  0  0
   -1.2622    0.2235   -1.6779 H   0  0  0  0  0  0  0  0  0  0  0  0
   -2.3054    1.6395   -0.4559 C   0  0  0  0  0  0  0  0  0  0  0  0
   -2.0661    3.0260   -0.5362 C   0  0  0  0  0  0  0  0  0  0  0  0
   -1.0669    3.3925   -0.7317 H   0  0  0  0  0  0  0  0  0  0  0  0
   -3.1274    3.9368   -0.3687 C   0  0  0  0  0  0  0  0  0  0  0  0
   -2.9403    4.9979   -0.4292 H   0  0  0  0  0  0  0  0  0  0  0  0
   -4.4331    3.4586   -0.1237 C   0  0  0  0  0  0  0  0  0  0  0  0
   -5.4639    4.3287    0.0364 O   0  0  0  0  0  0  0  0  0  0  0  0
   -5.1680    5.2398    0.0534 H   0  0  0  0  0  0  0  0  0  0  0  0
   -4.6716    2.0706   -0.0485 C   0  0  0  0  0  0  0  0  0  0  0  0
   -5.6735    1.7174    0.1436 H   0  0  0  0  0  0  0  0  0  0  0  0
   -3.6079    1.1629   -0.2119 C   0  0  0  0  0  0  0  0  0  0  0  0
   -3.7902    0.0970   -0.1448 H   0  0  0  0  0  0  0  0  0  0  0  0
   -0.8664    0.0378    1.7736 C   0  0  0  0  0  0  0  0  0  0  0  0
    0.2529   -0.0672    2.2760 O   0  0  0  0  0  0  0  0  0  0  0  0
   -1.8947    0.5991    2.4221 N   0  0  0  0  0  0  0  0  0  0  0  0
   -2.7942    0.5936    1.9635 H   0  0  0  0  0  0  0  0  0  0  0  0
   -1.8170    1.1453    3.7750 C   0  0  0  0  0  0  0  0  0  0  0  0
   -0.9697    1.8290    3.8506 H   0  0  0  0  0  0  0  0  0  0  0  0
   -2.7354    1.6828    4.0167 H   0  0  0  0  0  0  0  0  0  0  0  0
   -1.6754    0.3334    4.4914 H   0  0  0  0  0  0  0  0  0  0  0  0
  5  6  2  0  0  0  0
  5  7  1  0  0  0  0
  2  3  1  0  0  0  0
  2  4  1  0  0  0  0
  2  5  1  0  0  0  0
  1  2  1  0  0  0  0
 26 27  2  0  0  0  0
 26 28  1  0  0  0  0
 24 25  1  0  0  0  0
 22 23  1  0  0  0  0
 22 24  2  0  0  0  0
 20 21  1  0  0  0  0
 19 20  1  0  0  0  0
 19 22  1  0  0  0  0
 17 18  1  0  0  0  0
 17 19  2  0  0  0  0
 15 16  1  0  0  0  0
 15 17  1  0  0  0  0
 14 15  2  0  0  0  0
 14 24  1  0  0  0  0
 11 12  1  0  0  0  0
 11 13  1  0  0  0  0
 11 14  1  0  0  0  0
  9 10  1  0  0  0  0
  9 11  1  0  0  0  0
  9 26  1  0  0  0  0
  7  8  1  0  0  0  0
  7  9  1  0  0  0  0
 30 31  1  0  0  0  0
 30 32  1  0  0  0  0
 30 33  1  0  0  0  0
 28 29  1  0  0  0  0
 28 30  1  0  0  0  0
M  END
$$$$
default_name
  -OEChem-02102213163D

 33 33  0     1  0  0  0  0  0999 V2000
   -4.0702   -3.8485    1.4554 H   0  0  0  0  0  0  0  0  0  0  0  0
   -4.0012   -2.9605    0.8284 C   0  0  0  0  0  0  0  0  0  0  0  0
   -4.7652   -2.2435    1.1234 H   0  0  0  0  0  0  0  0  0  0  0  0
   -4.1352   -3.2385   -0.2156 H   0  0  0  0  0  0  0  0  0  0  0  0
   -2.6362   -2.3395    1.0094 C   0  0  0  0  0  0  0  0  0  0  0  0
   -1.8292   -2.8395    1.7814 O   0  0  0  0  0  0  0  0  0  0  0  0
   -2.3832   -1.2445    0.2964 N   0  0  0  0  0  0  0  0  0  0  0  0
   -3.1102   -0.8685   -0.2946 H   0  0  0  0  0  0  0  0  0  0  0  0
   -1.1292   -0.4875    0.3524 C   0  0  1  0  0  0  0  0  0  0  0  0
   -0.3087   -1.1556    0.0882 H   0  0  0  0  0  0  0  0  0  0  0  0
   -1.1749    0.6534   -0.6787 C   0  0  0  0  0  0  0  0  0  0  0  0
   -0.2337    1.2033   -0.6408 H   0  0  0  0  0  0  0  0  0  0  0  0
   -1.2622    0.2235   -1.6779 H   0  0  0  0  0  0  0  0  0  0  0  0
   -2.3054    1.6395   -0.4559 C   0  0  0  0  0  0  0  0  0  0  0  0
   -2.1586    2.9881   -0.8377 C   0  0  0  0  0  0  0  0  0  0  0  0
   -1.2266    3.3305   -1.2681 H   0  0  0  0  0  0  0  0  0  0  0  0
   -3.2259    3.8910   -0.6659 C   0  0  0  0  0  0  0  0  0  0  0  0
   -3.1094    4.9234   -0.9579 H   0  0  0  0  0  0  0  0  0  0  0  0
   -4.4455    3.4422   -0.1138 C   0  0  0  0  0  0  0  0  0  0  0  0
   -5.4817    4.3044    0.0532 O   0  0  0  0  0  0  0  0  0  0  0  0
   -5.2372    5.2073   -0.1541 H   0  0  0  0  0  0  0  0  0  0  0  0
   -4.5923    2.0912    0.2631 C   0  0  0  0  0  0  0  0  0  0  0  0
   -5.5281    1.7611    0.6882 H   0  0  0  0  0  0  0  0  0  0  0  0
   -3.5221    1.1922    0.0944 C   0  0  0  0  0  0  0  0  0  0  0  0
   -3.6324    0.1564    0.3928 H   0  0  0  0  0  0  0  0  0  0  0  0
   -0.8664    0.0378    1.7736 C   0  0  0  0  0  0  0  0  0  0  0  0
    0.2529   -0.0672    2.2760 O   0  0  0  0  0  0  0  0  0  0  0  0
   -1.8947    0.5991    2.4221 N   0  0  0  0  0  0  0  0  0  0  0  0
   -2.7942    0.5936    1.9635 H   0  0  0  0  0  0  0  0  0  0  0  0
   -1.8170    1.1453    3.7750 C   0  0  0  0  0  0  0  0  0  0  0  0
   -0.9697    1.8290    3.8506 H   0  0  0  0  0  0  0  0  0  0  0  0
   -2.7354    1.6828    4.0167 H   0  0  0  0  0  0  0  0  0  0  0  0
   -1.6754    0.3334    4.4914 H   0  0  0  0  0  0  0  0  0  0  0  0
  5  6  2  0  0  0  0
  5  7  1  0  0  0  0
  2  3  1  0  0  0  0
  2  4  1  0  0  0  0
  2  5  1  0  0  0  0
  1  2  1  0  0  0  0
 26 27  2  0  0  0  0
 26 28  1  0  0  0  0
 24 25  1  0  0  0  0
 22 23  1  0  0  0  0
 22 24  2  0  0  0  0
 20 21  1  0  0  0  0
 19 20  1  0  0  0  0
 19 22  1  0  0  0  0
 17 18  1  0  0  0  0
 17 19  2  0  0  0  0
 15 16  1  0  0  0  0
 15 17  1  0  0  0  0
 14 15  2  0  0  0  0
 14 24  1  0  0  0  0
 11 12  1  0  0  0  0
 11 13  1  0  0  0  0
 11 14  1  0  0  0  0
  9 10  1  0  0  0  0
  9 11  1  0  0  0  0
  9 26  1  0  0  0  0
  7  8  1  0  0  0  0
  7  9  1  0  0  0  0
 30 31  1  0  0  0  0
 30 32  1  0  0  0  0
 30 33  1  0  0  0  0
 28 29  1  0  0  0  0
 28 30  1  0  0  0  0
M  END
$$$$
default_name
  -OEChem-02102213163D

 33 33  0     1  0  0  0  0  0999 V2000
   -4.0702   -3.8485    1.4554 H   0  0  0  0  0  0  0  0  0  0  0  0
   -4.0012   -2.9605    0.8284 C   0  0  0  0  0  0  0  0  0  0  0  0
   -4.7652   -2.2435    1.1234 H   0  0  0  0  0  0  0  0  0  0  0  0
   -4.1352   -3.2385   -0.2156 H   0  0  0  0  0  0  0  0  0  0  0  0
   -2.6362   -2.3395    1.0094 C   0  0  0  0  0  0  0  0  0  0  0  0
   -1.8292   -2.8395    1.7814 O   0  0  0  0  0  0  0  0  0  0  0  0
   -2.3832   -1.2445    0.2964 N   0  0  0  0  0  0  0  0  0  0  0  0
   -3.1102   -0.8685   -0.2946 H   0  0  0  0  0  0  0  0  0  0  0  0
   -1.1292   -0.4875    0.3524 C   0  0  1  0  0  0  0  0  0  0  0  0
   -0.3087   -1.1556    0.0882 H   0  0  0  0  0  0  0  0  0  0  0  0
   -1.1749    0.6534   -0.6787 C   0  0  0  0  0  0  0  0  0  0  0  0
   -0.2337    1.2033   -0.6408 H   0  0  0  0  0  0  0  0  0  0  0  0
   -1.2622    0.2235   -1.6779 H   0  0  0  0  0  0  0  0  0  0  0  0
   -2.3054    1.6395   -0.4559 C   0  0  0  0  0  0  0  0  0  0  0  0
   -2.2972    2.8899   -1.1060 C   0  0  0  0  0  0  0  0  0  0  0  0
   -1.4688    3.1611   -1.7473 H   0  0  0  0  0  0  0  0  0  0  0  0
   -3.3693    3.7858   -0.9277 C   0  0  0  0  0  0  0  0  0  0  0  0
   -3.3590    4.7430   -1.4258 H   0  0  0  0  0  0  0  0  0  0  0  0
   -4.4551    3.4279   -0.0990 C   0  0  0  0  0  0  0  0  0  0  0  0
   -5.4952    4.2836    0.0771 O   0  0  0  0  0  0  0  0  0  0  0  0
   -5.3377    5.1333   -0.3366 H   0  0  0  0  0  0  0  0  0  0  0  0
   -4.4639    2.1742    0.5468 C   0  0  0  0  0  0  0  0  0  0  0  0
   -5.2977    1.9138    1.1814 H   0  0  0  0  0  0  0  0  0  0  0  0
   -3.3887    1.2828    0.3702 C   0  0  0  0  0  0  0  0  0  0  0  0
   -3.3918    0.3236    0.8741 H   0  0  0  0  0  0  0  0  0  0  0  0
   -0.8664    0.0378    1.7736 C   0  0  0  0  0  0  0  0  0  0  0  0
    0.2529   -0.0672    2.2760 O   0  0  0  0  0  0  0  0  0  0  0  0
   -1.8947    0.5991    2.4221 N   0  0  0  0  0  0  0  0  0  0  0  0
   -2.7942    0.5936    1.9635 H   0  0  0  0  0  0  0  0  0  0  0  0
   -1.8170    1.1453    3.7750 C   0  0  0  0  0  0  0  0  0  0  0  0
   -0.9697    1.8290    3.8506 H   0  0  0  0  0  0  0  0  0  0  0  0
   -2.7354    1.6828    4.0167 H   0  0  0  0  0  0  0  0  0  0  0  0
   -1.6754    0.3334    4.4914 H   0  0  0  0  0  0  0  0  0  0  0  0
  5  6  2  0  0  0  0
  5  7  1  0  0  0  0
  2  3  1  0  0  0  0
  2  4  1  0  0  0  0
  2  5  1  0  0  0  0
  1  2  1  0  0  0  0
 26 27  2  0  0  0  0
 26 28  1  0  0  0  0
 24 25  1  0  0  0  0
 22 23  1  0  0  0  0
 22 24  2  0  0  0  0
 20 21  1  0  0  0  0
 19 20  1  0  0  0  0
 19 22  1  0  0  0  0
 17 18  1  0  0  0  0
 17 19  2  0  0  0  0
 15 16  1  0  0  0  0
 15 17  1  0  0  0  0
 14 15  2  0  0  0  0
 14 24  1  0  0  0  0
 11 12  1  0  0  0  0
 11 13  1  0  0  0  0
 11 14  1  0  0  0  0
  9 10  1  0  0  0  0
  9 11  1  0  0  0  0
  9 26  1  0  0  0  0
  7  8  1  0  0  0  0
  7  9  1  0  0  0  0
 30 31  1  0  0  0  0
 30 32  1  0  0  0  0
 30 33  1  0  0  0  0
 28 29  1  0  0  0  0
 28 30  1  0  0  0  0
M  END
$$$$
default_name
  -OEChem-02102213163D

 33 33  0     1  0  0  0  0  0999 V2000
   -4.0702   -3.8485    1.4554 H   0  0  0  0  0  0  0  0  0  0  0  0
   -4.0012   -2.9605    0.8284 C   0  0  0  0  0  0  0  0  0  0  0  0
   -4.7652   -2.2435    1.1234 H   0  0  0  0  0  0  0  0  0  0  0  0
   -4.1352   -3.2385   -0.2156 H   0  0  0  0  0  0  0  0  0  0  0  0
   -2.6362   -2.3395    1.0094 C   0  0  0  0  0  0  0  0  0  0  0  0
   -1.8292   -2.8395    1.7814 O   0  0  0  0  0  0  0  0  0  0  0  0
   -2.3832   -1.2445    0.2964 N   0  0  0  0  0  0  0  0  0  0  0  0
   -3.1102   -0.8685   -0.2946 H   0  0  0  0  0  0  0  0  0  0  0  0
   -1.1292   -0.4875    0.3524 C   0  0  1  0  0  0  0  0  0  0  0  0
   -0.3087   -1.1556    0.0882 H   0  0  0  0  0  0  0  0  0  0  0  0
   -1.1749    0.6534   -0.6787 C   0  0  0  0  0  0  0  0  0  0  0  0
   -0.1634    1.0305   -0.8350 H   0  0  0  0  0  0  0  0  0  0  0  0
   -1.5260    0.2545   -1.6318 H   0  0  0  0  0  0  0  0  0  0  0  0
   -2.0537    1.8192   -0.2682 C   0  0  0  0  0  0  0  0  0  0  0  0
   -2.1924    2.9379   -1.1140 C   0  0  0  0  0  0  0  0  0  0  0  0
   -1.6501    2.9798   -2.0495 H   0  0  0  0  0  0  0  0  0  0  0  0
   -3.0414    4.0001   -0.7468 C   0  0  0  0  0  0  0  0  0  0  0  0
   -3.1440    4.8559   -1.3962 H   0  0  0  0  0  0  0  0  0  0  0  0
   -3.7570    3.9411    0.4689 C   0  0  0  0  0  0  0  0  0  0  0  0
   -4.5806    4.9589    0.8306 O   0  0  0  0  0  0  0  0  0  0  0  0
   -4.5242    5.7009    0.2271 H   0  0  0  0  0  0  0  0  0  0  0  0
   -3.6208    2.8186    1.3118 C   0  0  0  0  0  0  0  0  0  0  0  0
   -4.1698    2.7871    2.2409 H   0  0  0  0  0  0  0  0  0  0  0  0
   -2.7679    1.7606    0.9442 C   0  0  0  0  0  0  0  0  0  0  0  0
   -2.6566    0.9028    1.5967 H   0  0  0  0  0  0  0  0  0  0  0  0
   -0.8664    0.0378    1.7736 C   0  0  0  0  0  0  0  0  0  0  0  0
    0.2529   -0.0672    2.2760 O   0  0  0  0  0  0  0  0  0  0  0  0
   -1.8947    0.5991    2.4221 N   0  0  0  0  0  0  0  0  0  0  0  0
   -2.7942    0.5936    1.9635 H   0  0  0  0  0  0  0  0  0  0  0  0
   -1.8170    1.1453    3.7750 C   0  0  0  0  0  0  0  0  0  0  0  0
   -0.9697    1.8290    3.8506 H   0  0  0  0  0  0  0  0  0  0  0  0
   -2.7354    1.6828    4.0167 H   0  0  0  0  0  0  0  0  0  0  0  0
   -1.6754    0.3334    4.4914 H   0  0  0  0  0  0  0  0  0  0  0  0
  5  6  2  0  0  0  0
  5  7  1  0  0  0  0
  2  3  1  0  0  0  0
  2  4  1  0  0  0  0
  2  5  1  0  0  0  0
  1  2  1  0  0  0  0
 26 27  2  0  0  0  0
 26 28  1  0  0  0  0
 24 25  1  0  0  0  0
 22 23  1  0  0  0  0
 22 24  2  0  0  0  0
 20 21  1  0  0  0  0
 19 20  1  0  0  0  0
 19 22  1  0  0  0  0
 17 18  1  0  0  0  0
 17 19  2  0  0  0  0
 15 16  1  0  0  0  0
 15 17  1  0  0  0  0
 14 15  2  0  0  0  0
 14 24  1  0  0  0  0
 11 12  1  0  0  0  0
 11 13  1  0  0  0  0
 11 14  1  0  0  0  0
  9 10  1  0  0  0  0
  9 11  1  0  0  0  0
  9 26  1  0  0  0  0
  7  8  1  0  0  0  0
  7  9  1  0  0  0  0
 30 31  1  0  0  0  0
 30 32  1  0  0  0  0
 30 33  1  0  0  0  0
 28 29  1  0  0  0  0
 28 30  1  0  0  0  0
M  END
$$$$
default_name
  -OEChem-02102213163D

 33 33  0     1  0  0  0  0  0999 V2000
   -4.0702   -3.8485    1.4554 H   0  0  0  0  0  0  0  0  0  0  0  0
   -4.0012   -2.9605    0.8284 C   0  0  0  0  0  0  0  0  0  0  0  0
   -4.7652   -2.2435    1.1234 H   0  0  0  0  0  0  0  0  0  0  0  0
   -4.1352   -3.2385   -0.2156 H   0  0  0  0  0  0  0  0  0  0  0  0
   -2.6362   -2.3395    1.0094 C   0  0  0  0  0  0  0  0  0  0  0  0
   -1.8292   -2.8395    1.7814 O   0  0  0  0  0  0  0  0  0  0  0  0
   -2.3832   -1.2445    0.2964 N   0  0  0  0  0  0  0  0  0  0  0  0
   -3.1102   -0.8685   -0.2946 H   0  0  0  0  0  0  0  0  0  0  0  0
   -1.1292   -0.4875    0.3524 C   0  0  1  0  0  0  0  0  0  0  0  0
   -0.3087   -1.1556    0.0882 H   0  0  0  0  0  0  0  0  0  0  0  0
   -1.1749    0.6534   -0.6787 C   0  0  0  0  0  0  0  0  0  0  0  0
   -0.1634    1.0305   -0.8350 H   0  0  0  0  0  0  0  0  0  0  0  0
   -1.5260    0.2545   -1.6318 H   0  0  0  0  0  0  0  0  0  0  0  0
   -2.0537    1.8192   -0.2682 C   0  0  0  0  0  0  0  0  0  0  0  0
   -2.4484    2.7819   -1.2188 C   0  0  0  0  0  0  0  0  0  0  0  0
   -2.1030    2.7059   -2.2416 H   0  0  0  0  0  0  0  0  0  0  0  0
   -3.2976    3.8403   -0.8416 C   0  0  0  0  0  0  0  0  0  0  0  0
   -3.5966    4.5766   -1.5718 H   0  0  0  0  0  0  0  0  0  0  0  0
   -3.7566    3.9338    0.4904 C   0  0  0  0  0  0  0  0  0  0  0  0
   -4.5783    4.9491    0.8635 O   0  0  0  0  0  0  0  0  0  0  0  0
   -4.7032    5.5890    0.1616 H   0  0  0  0  0  0  0  0  0  0  0  0
   -3.3646    2.9668    1.4393 C   0  0  0  0  0  0  0  0  0  0  0  0
   -3.7186    3.0516    2.4557 H   0  0  0  0  0  0  0  0  0  0  0  0
   -2.5120    1.9127    1.0602 C   0  0  0  0  0  0  0  0  0  0  0  0
   -2.2038    1.1754    1.7919 H   0  0  0  0  0  0  0  0  0  0  0  0
   -0.8664    0.0378    1.7736 C   0  0  0  0  0  0  0  0  0  0  0  0
    0.2529   -0.0672    2.2760 O   0  0  0  0  0  0  0  0  0  0  0  0
   -1.8947    0.5991    2.4221 N   0  0  0  0  0  0  0  0  0  0  0  0
   -2.7942    0.5936    1.9635 H   0  0  0  0  0  0  0  0  0  0  0  0
   -1.8170    1.1453    3.7750 C   0  0  0  0  0  0  0  0  0  0  0  0
   -0.9697    1.8290    3.8506 H   0  0  0  0  0  0  0  0  0  0  0  0
   -2.7354    1.6828    4.0167 H   0  0  0  0  0  0  0  0  0  0  0  0
   -1.6754    0.3334    4.4914 H   0  0  0  0  0  0  0  0  0  0  0  0
  5  6  2  0  0  0  0
  5  7  1  0  0  0  0
  2  3  1  0  0  0  0
  2  4  1  0  0  0  0
  2  5  1  0  0  0  0
  1  2  1  0  0  0  0
 26 27  2  0  0  0  0
 26 28  1  0  0  0  0
 24 25  1  0  0  0  0
 22 23  1  0  0  0  0
 22 24  2  0  0  0  0
 20 21  1  0  0  0  0
 19 20  1  0  0  0  0
 19 22  1  0  0  0  0
 17 18  1  0  0  0  0
 17 19  2  0  0  0  0
 15 16  1  0  0  0  0
 15 17  1  0  0  0  0
 14 15  2  0  0  0  0
 14 24  1  0  0  0  0
 11 12  1  0  0  0  0
 11 13  1  0  0  0  0
 11 14  1  0  0  0  0
  9 10  1  0  0  0  0
  9 11  1  0  0  0  0
  9 26  1  0  0  0  0
  7  8  1  0  0  0  0
  7  9  1  0  0  0  0
 30 31  1  0  0  0  0
 30 32  1  0  0  0  0
 30 33  1  0  0  0  0
 28 29  1  0  0  0  0
 28 30  1  0  0  0  0
M  END
$$$$
default_name
  -OEChem-02102213163D

 33 33  0     1  0  0  0  0  0999 V2000
   -4.0702   -3.8485    1.4554 H   0  0  0  0  0  0  0  0  0  0  0  0
   -4.0012   -2.9605    0.8284 C   0  0  0  0  0  0  0  0  0  0  0  0
   -4.7652   -2.2435    1.1234 H   0  0  0  0  0  0  0  0  0  0  0  0
   -4.1352   -3.2385   -0.2156 H   0  0  0  0  0  0  0  0  0  0  0  0
   -2.6362   -2.3395    1.0094 C   0  0  0  0  0  0  0  0  0  0  0  0
   -1.8292   -2.8395    1.7814 O   0  0  0  0  0  0  0  0  0  0  0  0
   -2.3832   -1.2445    0.2964 N   0  0  0  0  0  0  0  0  0  0  0  0
   -3.1102   -0.8685   -0.2946 H   0  0  0  0  0  0  0  0  0  0  0  0
   -1.1292   -0.4875    0.3524 C   0  0  1  0  0  0  0  0  0  0  0  0
   -0.3087   -1.1556    0.0882 H   0  0  0  0  0  0  0  0  0  0  0  0
   -1.1749    0.6534   -0.6787 C   0  0  0  0  0  0  0  0  0  0  0  0
   -0.1634    1.0305   -0.8350 H   0  0  0  0  0  0  0  0  0  0  0  0
   -1.5260    0.2545   -1.6318 H   0  0  0  0  0  0  0  0  0  0  0  0
   -2.0537    1.8192   -0.2682 C   0  0  0  0  0  0  0  0  0  0  0  0
   -2.7056    2.5975   -1.2457 C   0  0  0  0  0  0  0  0  0  0  0  0
   -2.5596    2.3809   -2.2959 H   0  0  0  0  0  0  0  0  0  0  0  0
   -3.5528    3.6538   -0.8581 C   0  0  0  0  0  0  0  0  0  0  0  0
   -4.0491    4.2487   -1.6094 H   0  0  0  0  0  0  0  0  0  0  0  0
   -3.7514    3.9300    0.5123 C   0  0  0  0  0  0  0  0  0  0  0  0
   -4.5688    4.9446    0.8964 O   0  0  0  0  0  0  0  0  0  0  0  0
   -4.8814    5.4586    0.1506 H   0  0  0  0  0  0  0  0  0  0  0  0
   -3.1022    3.1471    1.4892 C   0  0  0  0  0  0  0  0  0  0  0  0
   -3.2586    3.3709    2.5337 H   0  0  0  0  0  0  0  0  0  0  0  0
   -2.2524    2.0949    1.0985 C   0  0  0  0  0  0  0  0  0  0  0  0
   -1.7466    1.4997    1.8495 H   0  0  0  0  0  0  0  0  0  0  0  0
   -0.8664    0.0378    1.7736 C   0  0  0  0  0  0  0  0  0  0  0  0
    0.2529   -0.0672    2.2760 O   0  0  0  0  0  0  0  0  0  0  0  0
   -1.8947    0.5991    2.4221 N   0  0  0  0  0  0  0  0  0  0  0  0
   -2.7942    0.5936    1.9635 H   0  0  0  0  0  0  0  0  0  0  0  0
   -1.8170    1.1453    3.7750 C   0  0  0  0  0  0  0  0  0  0  0  0
   -0.9697    1.8290    3.8506 H   0  0  0  0  0  0  0  0  0  0  0  0
   -2.7354    1.6828    4.0167 H   0  0  0  0  0  0  0  0  0  0  0  0
   -1.6754    0.3334    4.4914 H   0  0  0  0  0  0  0  0  0  0  0  0
  5  6  2  0  0  0  0
  5  7  1  0  0  0  0
  2  3  1  0  0  0  0
  2  4  1  0  0  0  0
  2  5  1  0  0  0  0
  1  2  1  0  0  0  0
 26 27  2  0  0  0  0
 26 28  1  0  0  0  0
 24 25  1  0  0  0  0
 22 23  1  0  0  0  0
 22 24  2  0  0  0  0
 20 21  1  0  0  0  0
 19 20  1  0  0  0  0
 19 22  1  0  0  0  0
 17 18  1  0  0  0  0
 17 19  2  0  0  0  0
 15 16  1  0  0  0  0
 15 17  1  0  0  0  0
 14 15  2  0  0  0  0
 14 24  1  0  0  0  0
 11 12  1  0  0  0  0
 11 13  1  0  0  0  0
 11 14  1  0  0  0  0
  9 10  1  0  0  0  0
  9 11  1  0  0  0  0
  9 26  1  0  0  0  0
  7  8  1  0  0  0  0
  7  9  1  0  0  0  0
 30 31  1  0  0  0  0
 30 32  1  0  0  0  0
 30 33  1  0  0  0  0
 28 29  1  0  0  0  0
 28 30  1  0  0  0  0
M  END
$$$$
default_name
  -OEChem-02102213163D

 33 33  0     1  0  0  0  0  0999 V2000
   -4.0702   -3.8485    1.4554 H   0  0  0  0  0  0  0  0  0  0  0  0
   -4.0012   -2.9605    0.8284 C   0  0  0  0  0  0  0  0  0  0  0  0
   -4.7652   -2.2435    1.1234 H   0  0  0  0  0  0  0  0  0  0  0  0
   -4.1352   -3.2385   -0.2156 H   0  0  0  0  0  0  0  0  0  0  0  0
   -2.6362   -2.3395    1.0094 C   0  0  0  0  0  0  0  0  0  0  0  0
   -1.8292   -2.8395    1.7814 O   0  0  0  0  0  0  0  0  0  0  0  0
   -2.3832   -1.2445    0.2964 N   0  0  0  0  0  0  0  0  0  0  0  0
   -3.1102   -0.8685   -0.2946 H   0  0  0  0  0  0  0  0  0  0  0  0
   -1.1292   -0.4875    0.3524 C   0  0  1  0  0  0  0  0  0  0  0  0
   -0.3087   -1.1556    0.0882 H   0  0  0  0  0  0  0  0  0  0  0  0
   -1.1749    0.6534   -0.6787 C   0  0  0  0  0  0  0  0  0  0  0  0
   -0.1634    1.0305   -0.8350 H   0  0  0  0  0  0  0  0  0  0  0  0
   -1.5260    0.2545   -1.6318 H   0  0  0  0  0  0  0  0  0  0  0  0
   -2.0537    1.8192   -0.2682 C   0  0  0  0  0  0  0  0  0  0  0  0
   -2.9464    2.3973   -1.1929 C   0  0  0  0  0  0  0  0  0  0  0  0
   -2.9886    2.0268   -2.2088 H   0  0  0  0  0  0  0  0  0  0  0  0
   -3.7895    3.4533   -0.7953 C   0  0  0  0  0  0  0  0  0  0  0  0
   -4.4707    3.8947   -1.5065 H   0  0  0  0  0  0  0  0  0  0  0  0
   -3.7418    3.9300    0.5329 C   0  0  0  0  0  0  0  0  0  0  0  0
   -4.5528    4.9459    0.9269 O   0  0  0  0  0  0  0  0  0  0  0  0
   -5.0465    5.3184    0.1951 H   0  0  0  0  0  0  0  0  0  0  0  0
   -2.8514    3.3470    1.4582 C   0  0  0  0  0  0  0  0  0  0  0  0
   -2.8211    3.7232    2.4697 H   0  0  0  0  0  0  0  0  0  0  0  0
   -2.0068    2.2948    1.0565 C   0  0  0  0  0  0  0  0  0  0  0  0
   -1.3163    1.8536    1.7655 H   0  0  0  0  0  0  0  0  0  0  0  0
   -0.8664    0.0378    1.7736 C   0  0  0  0  0  0  0  0  0  0  0  0
    0.2529   -0.0672    2.2760 O   0  0  0  0  0  0  0  0  0  0  0  0
   -1.8947    0.5991    2.4221 N   0  0  0  0  0  0  0  0  0  0  0  0
   -2.7942    0.5936    1.9635 H   0  0  0  0  0  0  0  0  0  0  0  0
   -1.8170    1.1453    3.7750 C   0  0  0  0  0  0  0  0  0  0  0  0
   -0.9697    1.8290    3.8506 H   0  0  0  0  0  0  0  0  0  0  0  0
   -2.7354    1.6828    4.0167 H   0  0  0  0  0  0  0  0  0  0  0  0
   -1.6754    0.3334    4.4914 H   0  0  0  0  0  0  0  0  0  0  0  0
  5  6  2  0  0  0  0
  5  7  1  0  0  0  0
  2  3  1  0  0  0  0
  2  4  1  0  0  0  0
  2  5  1  0  0  0  0
  1  2  1  0  0  0  0
 26 27  2  0  0  0  0
 26 28  1  0  0  0  0
 24 25  1  0  0  0  0
 22 23  1  0  0  0  0
 22 24  2  0  0  0  0
 20 21  1  0  0  0  0
 19 20  1  0  0  0  0
 19 22  1  0  0  0  0
 17 18  1  0  0  0  0
 17 19  2  0  0  0  0
 15 16  1  0  0  0  0
 15 17  1  0  0  0  0
 14 15  2  0  0  0  0
 14 24  1  0  0  0  0
 11 12  1  0  0  0  0
 11 13  1  0  0  0  0
 11 14  1  0  0  0  0
  9 10  1  0  0  0  0
  9 11  1  0  0  0  0
  9 26  1  0  0  0  0
  7  8  1  0  0  0  0
  7  9  1  0  0  0  0
 30 31  1  0  0  0  0
 30 32  1  0  0  0  0
 30 33  1  0  0  0  0
 28 29  1  0  0  0  0
 28 30  1  0  0  0  0
M  END
$$$$
default_name
  -OEChem-02102213163D

 33 33  0     1  0  0  0  0  0999 V2000
   -4.0702   -3.8485    1.4554 H   0  0  0  0  0  0  0  0  0  0  0  0
   -4.0012   -2.9605    0.8284 C   0  0  0  0  0  0  0  0  0  0  0  0
   -4.7652   -2.2435    1.1234 H   0  0  0  0  0  0  0  0  0  0  0  0
   -4.1352   -3.2385   -0.2156 H   0  0  0  0  0  0  0  0  0  0  0  0
   -2.6362   -2.3395    1.0094 C   0  0  0  0  0  0  0  0  0  0  0  0
   -1.8292   -2.8395    1.7814 O   0  0  0  0  0  0  0  0  0  0  0  0
   -2.3832   -1.2445    0.2964 N   0  0  0  0  0  0  0  0  0  0  0  0
   -3.1102   -0.8685   -0.2946 H   0  0  0  0  0  0  0  0  0  0  0  0
   -1.1292   -0.4875    0.3524 C   0  0  1  0  0  0  0  0  0  0  0  0
   -0.3087   -1.1556    0.0882 H   0  0  0  0  0  0  0  0  0  0  0  0
   -1.1749    0.6534   -0.6787 C   0  0  0  0  0  0  0  0  0  0  0  0
   -0.1634    1.0305   -0.8350 H   0  0  0  0  0  0  0  0  0  0  0  0
   -1.5260    0.2545   -1.6318 H   0  0  0  0  0  0  0  0  0  0  0  0
   -2.0537    1.8192   -0.2682 C   0  0  0  0  0  0  0  0  0  0  0  0
   -3.1545    2.1950   -1.0639 C   0  0  0  0  0  0  0  0  0  0  0  0
   -3.3609    1.6678   -1.9861 H   0  0  0  0  0  0  0  0  0  0  0  0
   -3.9915    3.2525   -0.6575 C   0  0  0  0  0  0  0  0  0  0  0  0
   -4.8327    3.5386   -1.2701 H   0  0  0  0  0  0  0  0  0  0  0  0
   -3.7285    3.9337    0.5509 C   0  0  0  0  0  0  0  0  0  0  0  0
   -4.5314    4.9529    0.9530 O   0  0  0  0  0  0  0  0  0  0  0  0
   -5.1874    5.1782    0.2920 H   0  0  0  0  0  0  0  0  0  0  0  0
   -2.6293    3.5531    1.3483 C   0  0  0  0  0  0  0  0  0  0  0  0
   -2.4360    4.0846    2.2680 H   0  0  0  0  0  0  0  0  0  0  0  0
   -1.7919    2.4988    0.9372 C   0  0  0  0  0  0  0  0  0  0  0  0
   -0.9422    2.2130    1.5458 H   0  0  0  0  0  0  0  0  0  0  0  0
   -0.8664    0.0378    1.7736 C   0  0  0  0  0  0  0  0  0  0  0  0
    0.2529   -0.0672    2.2760 O   0  0  0  0  0  0  0  0  0  0  0  0
   -1.8947    0.5991    2.4221 N   0  0  0  0  0  0  0  0  0  0  0  0
   -2.7942    0.5936    1.9635 H   0  0  0  0  0  0  0  0  0  0  0  0
   -1.8170    1.1453    3.7750 C   0  0  0  0  0  0  0  0  0  0  0  0
   -0.9697    1.8290    3.8506 H   0  0  0  0  0  0  0  0  0  0  0  0
   -2.7354    1.6828    4.0167 H   0  0  0  0  0  0  0  0  0  0  0  0
   -1.6754    0.3334    4.4914 H   0  0  0  0  0  0  0  0  0  0  0  0
  5  6  2  0  0  0  0
  5  7  1  0  0  0  0
  2  3  1  0  0  0  0
  2  4  1  0  0  0  0
  2  5  1  0  0  0  0
  1  2  1  0  0  0  0
 26 27  2  0  0  0  0
 26 28  1  0  0  0  0
 24 25  1  0  0  0  0
 22 23  1  0  0  0  0
 22 24  2  0  0  0  0
 20 21  1  0  0  0  0
 19 20  1  0  0  0  0
 19 22  1  0  0  0  0
 17 18  1  0  0  0  0
 17 19  2  0  0  0  0
 15 16  1  0  0  0  0
 15 17  1  0  0  0  0
 14 15  2  0  0  0  0
 14 24  1  0  0  0  0
 11 12  1  0  0  0  0
 11 13  1  0  0  0  0
 11 14  1  0  0  0  0
  9 10  1  0  0  0  0
  9 11  1  0  0  0  0
  9 26  1  0  0  0  0
  7  8  1  0  0  0  0
  7  9  1  0  0  0  0
 30 31  1  0  0  0  0
 30 32  1  0  0  0  0
 30 33  1  0  0  0  0
 28 29  1  0  0  0  0
 28 30  1  0  0  0  0
M  END
$$$$
default_name
  -OEChem-02102213163D

 33 33  0     1  0  0  0  0  0999 V2000
   -4.0702   -3.8485    1.4554 H   0  0  0  0  0  0  0  0  0  0  0  0
   -4.0012   -2.9605    0.8284 C   0  0  0  0  0  0  0  0  0  0  0  0
   -4.7652   -2.2435    1.1234 H   0  0  0  0  0  0  0  0  0  0  0  0
   -4.1352   -3.2385   -0.2156 H   0  0  0  0  0  0  0  0  0  0  0  0
   -2.6362   -2.3395    1.0094 C   0  0  0  0  0  0  0  0  0  0  0  0
   -1.8292   -2.8395    1.7814 O   0  0  0  0  0  0  0  0  0  0  0  0
   -2.3832   -1.2445    0.2964 N   0  0  0  0  0  0  0  0  0  0  0  0
   -3.1102   -0.8685   -0.2946 H   0  0  0  0  0  0  0  0  0  0  0  0
   -1.1292   -0.4875    0.3524 C   0  0  1  0  0  0  0  0  0  0  0  0
   -0.3087   -1.1556    0.0882 H   0  0  0  0  0  0  0  0  0  0  0  0
   -1.1749    0.6534   -0.6787 C   0  0  0  0  0  0  0  0  0  0  0  0
   -0.1634    1.0305   -0.8350 H   0  0  0  0  0  0  0  0  0  0  0  0
   -1.5260    0.2545   -1.6318 H   0  0  0  0  0  0  0  0  0  0  0  0
   -2.0537    1.8192   -0.2682 C   0  0  0  0  0  0  0  0  0  0  0  0
   -3.3157    2.0044   -0.8675 C   0  0  0  0  0  0  0  0  0  0  0  0
   -3.6510    1.3284   -1.6432 H   0  0  0  0  0  0  0  0  0  0  0  0
   -4.1452    3.0650   -0.4541 C   0  0  0  0  0  0  0  0  0  0  0  0
   -5.1103    3.2047   -0.9164 H   0  0  0  0  0  0  0  0  0  0  0  0
   -3.7122    3.9410    0.5650 C   0  0  0  0  0  0  0  0  0  0  0  0
   -4.5060    4.9650    0.9728 O   0  0  0  0  0  0  0  0  0  0  0  0
   -5.2943    5.0473    0.4345 H   0  0  0  0  0  0  0  0  0  0  0  0
   -2.4511    3.7513    1.1671 C   0  0  0  0  0  0  0  0  0  0  0  0
   -2.1294    4.4304    1.9423 H   0  0  0  0  0  0  0  0  0  0  0  0
   -1.6224    2.6930    0.7485 C   0  0  0  0  0  0  0  0  0  0  0  0
   -0.6497    2.5534    1.2051 H   0  0  0  0  0  0  0  0  0  0  0  0
   -0.8664    0.0378    1.7736 C   0  0  0  0  0  0  0  0  0  0  0  0
    0.2529   -0.0672    2.2760 O   0  0  0  0  0  0  0  0  0  0  0  0
   -1.8947    0.5991    2.4221 N   0  0  0  0  0  0  0  0  0  0  0  0
   -2.7942    0.5936    1.9635 H   0  0  0  0  0  0  0  0  0  0  0  0
   -1.8170    1.1453    3.7750 C   0  0  0  0  0  0  0  0  0  0  0  0
   -0.9697    1.8290    3.8506 H   0  0  0  0  0  0  0  0  0  0  0  0
   -2.7354    1.6828    4.0167 H   0  0  0  0  0  0  0  0  0  0  0  0
   -1.6754    0.3334    4.4914 H   0  0  0  0  0  0  0  0  0  0  0  0
  5  6  2  0  0  0  0
  5  7  1  0  0  0  0
  2  3  1  0  0  0  0
  2  4  1  0  0  0  0
  2  5  1  0  0  0  0
  1  2  1  0  0  0  0
 26 27  2  0  0  0  0
 26 28  1  0  0  0  0
 24 25  1  0  0  0  0
 22 23  1  0  0  0  0
 22 24  2  0  0  0  0
 20 21  1  0  0  0  0
 19 20  1  0  0  0  0
 19 22  1  0  0  0  0
 17 18  1  0  0  0  0
 17 19  2  0  0  0  0
 15 16  1  0  0  0  0
 15 17  1  0  0  0  0
 14 15  2  0  0  0  0
 14 24  1  0  0  0  0
 11 12  1  0  0  0  0
 11 13  1  0  0  0  0
 11 14  1  0  0  0  0
  9 10  1  0  0  0  0
  9 11  1  0  0  0  0
  9 26  1  0  0  0  0
  7  8  1  0  0  0  0
  7  9  1  0  0  0  0
 30 31  1  0  0  0  0
 30 32  1  0  0  0  0
 30 33  1  0  0  0  0
 28 29  1  0  0  0  0
 28 30  1  0  0  0  0
M  END
$$$$
default_name
  -OEChem-02102213163D

 33 33  0     1  0  0  0  0  0999 V2000
   -4.0702   -3.8485    1.4554 H   0  0  0  0  0  0  0  0  0  0  0  0
   -4.0012   -2.9605    0.8284 C   0  0  0  0  0  0  0  0  0  0  0  0
   -4.7652   -2.2435    1.1234 H   0  0  0  0  0  0  0  0  0  0  0  0
   -4.1352   -3.2385   -0.2156 H   0  0  0  0  0  0  0  0  0  0  0  0
   -2.6362   -2.3395    1.0094 C   0  0  0  0  0  0  0  0  0  0  0  0
   -1.8292   -2.8395    1.7814 O   0  0  0  0  0  0  0  0  0  0  0  0
   -2.3832   -1.2445    0.2964 N   0  0  0  0  0  0  0  0  0  0  0  0
   -3.1102   -0.8685   -0.2946 H   0  0  0  0  0  0  0  0  0  0  0  0
   -1.1292   -0.4875    0.3524 C   0  0  1  0  0  0  0  0  0  0  0  0
   -0.3087   -1.1556    0.0882 H   0  0  0  0  0  0  0  0  0  0  0  0
   -1.1749    0.6534   -0.6787 C   0  0  0  0  0  0  0  0  0  0  0  0
   -0.1634    1.0305   -0.8350 H   0  0  0  0  0  0  0  0  0  0  0  0
   -1.5260    0.2545   -1.6318 H   0  0  0  0  0  0  0  0  0  0  0  0
   -2.0537    1.8192   -0.2682 C   0  0  0  0  0  0  0  0  0  0  0  0
   -3.4190    1.8384   -0.6172 C   0  0  0  0  0  0  0  0  0  0  0  0
   -3.8393    1.0316   -1.2033 H   0  0  0  0  0  0  0  0  0  0  0  0
   -4.2401    2.9036   -0.1990 C   0  0  0  0  0  0  0  0  0  0  0  0
   -5.2848    2.9158   -0.4694 H   0  0  0  0  0  0  0  0  0  0  0  0
   -3.6942    3.9513    0.5744 C   0  0  0  0  0  0  0  0  0  0  0  0
   -4.4784    4.9815    0.9852 O   0  0  0  0  0  0  0  0  0  0  0  0
   -5.3601    4.9349    0.6132 H   0  0  0  0  0  0  0  0  0  0  0  0
   -2.3289    3.9280    0.9269 C   0  0  0  0  0  0  0  0  0  0  0  0
   -1.9222    4.7370    1.5149 H   0  0  0  0  0  0  0  0  0  0  0  0
   -1.5098    2.8642    0.5034 C   0  0  0  0  0  0  0  0  0  0  0  0
   -0.4588    2.8517    0.7669 H   0  0  0  0  0  0  0  0  0  0  0  0
   -0.8664    0.0378    1.7736 C   0  0  0  0  0  0  0  0  0  0  0  0
    0.2529   -0.0672    2.2760 O   0  0  0  0  0  0  0  0  0  0  0  0
   -1.8947    0.5991    2.4221 N   0  0  0  0  0  0  0  0  0  0  0  0
   -2.7942    0.5936    1.9635 H   0  0  0  0  0  0  0  0  0  0  0  0
   -1.8170    1.1453    3.7750 C   0  0  0  0  0  0  0  0  0  0  0  0
   -0.9697    1.8290    3.8506 H   0  0  0  0  0  0  0  0  0  0  0  0
   -2.7354    1.6828    4.0167 H   0  0  0  0  0  0  0  0  0  0  0  0
   -1.6754    0.3334    4.4914 H   0  0  0  0  0  0  0  0  0  0  0  0
  5  6  2  0  0  0  0
  5  7  1  0  0  0  0
  2  3  1  0  0  0  0
  2  4  1  0  0  0  0
  2  5  1  0  0  0  0
  1  2  1  0  0  0  0
 26 27  2  0  0  0  0
 26 28  1  0  0  0  0
 24 25  1  0  0  0  0
 22 23  1  0  0  0  0
 22 24  2  0  0  0  0
 20 21  1  0  0  0  0
 19 20  1  0  0  0  0
 19 22  1  0  0  0  0
 17 18  1  0  0  0  0
 17 19  2  0  0  0  0
 15 16  1  0  0  0  0
 15 17  1  0  0  0  0
 14 15  2  0  0  0  0
 14 24  1  0  0  0  0
 11 12  1  0  0  0  0
 11 13  1  0  0  0  0
 11 14  1  0  0  0  0
  9 10  1  0  0  0  0
  9 11  1  0  0  0  0
  9 26  1  0  0  0  0
  7  8  1  0  0  0  0
  7  9  1  0  0  0  0
 30 31  1  0  0  0  0
 30 32  1  0  0  0  0
 30 33  1  0  0  0  0
 28 29  1  0  0  0  0
 28 30  1  0  0  0  0
M  END
$$$$
default_name
  -OEChem-02102213163D

 33 33  0     1  0  0  0  0  0999 V2000
   -4.0702   -3.8485    1.4554 H   0  0  0  0  0  0  0  0  0  0  0  0
   -4.0012   -2.9605    0.8284 C   0  0  0  0  0  0  0  0  0  0  0  0
   -4.7652   -2.2435    1.1234 H   0  0  0  0  0  0  0  0  0  0  0  0
   -4.1352   -3.2385   -0.2156 H   0  0  0  0  0  0  0  0  0  0  0  0
   -2.6362   -2.3395    1.0094 C   0  0  0  0  0  0  0  0  0  0  0  0
   -1.8292   -2.8395    1.7814 O   0  0  0  0  0  0  0  0  0  0  0  0
   -2.3832   -1.2445    0.2964 N   0  0  0  0  0  0  0  0  0  0  0  0
   -3.1102   -0.8685   -0.2946 H   0  0  0  0  0  0  0  0  0  0  0  0
   -1.1292   -0.4875    0.3524 C   0  0  1  0  0  0  0  0  0  0  0  0
   -0.3087   -1.1556    0.0882 H   0  0  0  0  0  0  0  0  0  0  0  0
   -1.1749    0.6534   -0.6787 C   0  0  0  0  0  0  0  0  0  0  0  0
   -0.1634    1.0305   -0.8350 H   0  0  0  0  0  0  0  0  0  0  0  0
   -1.5260    0.2545   -1.6318 H   0  0  0  0  0  0  0  0  0  0  0  0
   -2.0537    1.8192   -0.2682 C   0  0  0  0  0  0  0  0  0  0  0  0
   -3.4573    1.7084   -0.3300 C   0  0  0  0  0  0  0  0  0  0  0  0
   -3.9128    0.7977   -0.6964 H   0  0  0  0  0  0  0  0  0  0  0  0
   -4.2696    2.7794    0.0906 C   0  0  0  0  0  0  0  0  0  0  0  0
   -5.3441    2.6916    0.0404 H   0  0  0  0  0  0  0  0  0  0  0  0
   -3.6757    3.9639    0.5783 C   0  0  0  0  0  0  0  0  0  0  0  0
   -4.4504    5.0012    0.9891 O   0  0  0  0  0  0  0  0  0  0  0  0
   -5.3802    4.8484    0.8157 H   0  0  0  0  0  0  0  0  0  0  0  0
   -2.2710    4.0712    0.6441 C   0  0  0  0  0  0  0  0  0  0  0  0
   -1.8287    4.9836    1.0148 H   0  0  0  0  0  0  0  0  0  0  0  0
   -1.4618    3.0007    0.2186 C   0  0  0  0  0  0  0  0  0  0  0  0
   -0.3825    3.0874    0.2608 H   0  0  0  0  0  0  0  0  0  0  0  0
   -0.8664    0.0378    1.7736 C   0  0  0  0  0  0  0  0  0  0  0  0
    0.2529   -0.0672    2.2760 O   0  0  0  0  0  0  0  0  0  0  0  0
   -1.8947    0.5991    2.4221 N   0  0  0  0  0  0  0  0  0  0  0  0
   -2.7942    0.5936    1.9635 H   0  0  0  0  0  0  0  0  0  0  0  0
   -1.8170    1.1453    3.7750 C   0  0  0  0  0  0  0  0  0  0  0  0
   -0.9697    1.8290    3.8506 H   0  0  0  0  0  0  0  0  0  0  0  0
   -2.7354    1.6828    4.0167 H   0  0  0  0  0  0  0  0  0  0  0  0
   -1.6754    0.3334    4.4914 H   0  0  0  0  0  0  0  0  0  0  0  0
  5  6  2  0  0  0  0
  5  7  1  0  0  0  0
  2  3  1  0  0  0  0
  2  4  1  0  0  0  0
  2  5  1  0  0  0  0
  1  2  1  0  0  0  0
 26 27  2  0  0  0  0
 26 28  1  0  0  0  0
 24 25  1  0  0  0  0
 22 23  1  0  0  0  0
 22 24  2  0  0  0  0
 20 21  1  0  0  0  0
 19 20  1  0  0  0  0
 19 22  1  0  0  0  0
 17 18  1  0  0  0  0
 17 19  2  0  0  0  0
 15 16  1  0  0  0  0
 15 17  1  0  0  0  0
 14 15  2  0  0  0  0
 14 24  1  0  0  0  0
 11 12  1  0  0  0  0
 11 13  1  0  0  0  0
 11 14  1  0  0  0  0
  9 10  1  0  0  0  0
  9 11  1  0  0  0  0
  9 26  1  0  0  0  0
  7  8  1  0  0  0  0
  7  9  1  0  0  0  0
 30 31  1  0  0  0  0
 30 32  1  0  0  0  0
 30 33  1  0  0  0  0
 28 29  1  0  0  0  0
 28 30  1  0  0  0  0
M  END
$$$$
default_name
  -OEChem-02102213163D

 33 33  0     1  0  0  0  0  0999 V2000
   -4.0702   -3.8485    1.4554 H   0  0  0  0  0  0  0  0  0  0  0  0
   -4.0012   -2.9605    0.8284 C   0  0  0  0  0  0  0  0  0  0  0  0
   -4.7652   -2.2435    1.1234 H   0  0  0  0  0  0  0  0  0  0  0  0
   -4.1352   -3.2385   -0.2156 H   0  0  0  0  0  0  0  0  0  0  0  0
   -2.6362   -2.3395    1.0094 C   0  0  0  0  0  0  0  0  0  0  0  0
   -1.8292   -2.8395    1.7814 O   0  0  0  0  0  0  0  0  0  0  0  0
   -2.3832   -1.2445    0.2964 N   0  0  0  0  0  0  0  0  0  0  0  0
   -3.1102   -0.8685   -0.2946 H   0  0  0  0  0  0  0  0  0  0  0  0
   -1.1292   -0.4875    0.3524 C   0  0  1  0  0  0  0  0  0  0  0  0
   -0.3087   -1.1556    0.0882 H   0  0  0  0  0  0  0  0  0  0  0  0
   -1.1749    0.6534   -0.6787 C   0  0  0  0  0  0  0  0  0  0  0  0
   -0.1634    1.0305   -0.8350 H   0  0  0  0  0  0  0  0  0  0  0  0
   -1.5260    0.2545   -1.6318 H   0  0  0  0  0  0  0  0  0  0  0  0
   -2.0537    1.8192   -0.2682 C   0  0  0  0  0  0  0  0  0  0  0  0
   -3.4281    1.6232   -0.0255 C   0  0  0  0  0  0  0  0  0  0  0  0
   -3.8665    0.6426   -0.1571 H   0  0  0  0  0  0  0  0  0  0  0  0
   -4.2319    2.7007    0.3948 C   0  0  0  0  0  0  0  0  0  0  0  0
   -5.2842    2.5473    0.5782 H   0  0  0  0  0  0  0  0  0  0  0  0
   -3.6579    3.9779    0.5765 C   0  0  0  0  0  0  0  0  0  0  0  0
   -4.4239    5.0228    0.9844 O   0  0  0  0  0  0  0  0  0  0  0  0
   -5.3533    4.7939    1.0282 H   0  0  0  0  0  0  0  0  0  0  0  0
   -2.2814    4.1711    0.3379 C   0  0  0  0  0  0  0  0  0  0  0  0
   -1.8551    5.1533    0.4762 H   0  0  0  0  0  0  0  0  0  0  0  0
   -1.4816    3.0931   -0.0865 C   0  0  0  0  0  0  0  0  0  0  0  0
   -0.4260    3.2445   -0.2785 H   0  0  0  0  0  0  0  0  0  0  0  0
   -0.8664    0.0378    1.7736 C   0  0  0  0  0  0  0  0  0  0  0  0
    0.2529   -0.0672    2.2760 O   0  0  0  0  0  0  0  0  0  0  0  0
   -1.8947    0.5991    2.4221 N   0  0  0  0  0  0  0  0  0  0  0  0
   -2.7942    0.5936    1.9635 H   0  0  0  0  0  0  0  0  0  0  0  0
   -1.8170    1.1453    3.7750 C   0  0  0  0  0  0  0  0  0  0  0  0
   -0.9697    1.8290    3.8506 H   0  0  0  0  0  0  0  0  0  0  0  0
   -2.7354    1.6828    4.0167 H   0  0  0  0  0  0  0  0  0  0  0  0
   -1.6754    0.3334    4.4914 H   0  0  0  0  0  0  0  0  0  0  0  0
  5  6  2  0  0  0  0
  5  7  1  0  0  0  0
  2  3  1  0  0  0  0
  2  4  1  0  0  0  0
  2  5  1  0  0  0  0
  1  2  1  0  0  0  0
 26 27  2  0  0  0  0
 26 28  1  0  0  0  0
 24 25  1  0  0  0  0
 22 23  1  0  0  0  0
 22 24  2  0  0  0  0
 20 21  1  0  0  0  0
 19 20  1  0  0  0  0
 19 22  1  0  0  0  0
 17 18  1  0  0  0  0
 17 19  2  0  0  0  0
 15 16  1  0  0  0  0
 15 17  1  0  0  0  0
 14 15  2  0  0  0  0
 14 24  1  0  0  0  0
 11 12  1  0  0  0  0
 11 13  1  0  0  0  0
 11 14  1  0  0  0  0
  9 10  1  0  0  0  0
  9 11  1  0  0  0  0
  9 26  1  0  0  0  0
  7  8  1  0  0  0  0
  7  9  1  0  0  0  0
 30 31  1  0  0  0  0
 30 32  1  0  0  0  0
 30 33  1  0  0  0  0
 28 29  1  0  0  0  0
 28 30  1  0  0  0  0
M  END
$$$$
default_name
  -OEChem-02102213163D

 33 33  0     1  0  0  0  0  0999 V2000
   -4.0702   -3.8485    1.4554 H   0  0  0  0  0  0  0  0  0  0  0  0
   -4.0012   -2.9605    0.8284 C   0  0  0  0  0  0  0  0  0  0  0  0
   -4.7652   -2.2435    1.1234 H   0  0  0  0  0  0  0  0  0  0  0  0
   -4.1352   -3.2385   -0.2156 H   0  0  0  0  0  0  0  0  0  0  0  0
   -2.6362   -2.3395    1.0094 C   0  0  0  0  0  0  0  0  0  0  0  0
   -1.8292   -2.8395    1.7814 O   0  0  0  0  0  0  0  0  0  0  0  0
   -2.3832   -1.2445    0.2964 N   0  0  0  0  0  0  0  0  0  0  0  0
   -3.1102   -0.8685   -0.2946 H   0  0  0  0  0  0  0  0  0  0  0  0
   -1.1292   -0.4875    0.3524 C   0  0  1  0  0  0  0  0  0  0  0  0
   -0.3087   -1.1556    0.0882 H   0  0  0  0  0  0  0  0  0  0  0  0
   -1.1749    0.6534   -0.6787 C   0  0  0  0  0  0  0  0  0  0  0  0
   -0.1634    1.0305   -0.8350 H   0  0  0  0  0  0  0  0  0  0  0  0
   -1.5260    0.2545   -1.6318 H   0  0  0  0  0  0  0  0  0  0  0  0
   -2.0537    1.8192   -0.2682 C   0  0  0  0  0  0  0  0  0  0  0  0
   -3.3333    1.5886    0.2757 C   0  0  0  0  0  0  0  0  0  0  0  0
   -3.7037    0.5770    0.3779 H   0  0  0  0  0  0  0  0  0  0  0  0
   -4.1294    2.6730    0.6929 C   0  0  0  0  0  0  0  0  0  0  0  0
   -5.1093    2.4928    1.1075 H   0  0  0  0  0  0  0  0  0  0  0  0
   -3.6421    3.9924    0.5692 C   0  0  0  0  0  0  0  0  0  0  0  0
   -4.4009    5.0448    0.9714 O   0  0  0  0  0  0  0  0  0  0  0  0
   -5.2811    4.7749    1.2364 H   0  0  0  0  0  0  0  0  0  0  0  0
   -2.3594    4.2211    0.0293 C   0  0  0  0  0  0  0  0  0  0  0  0
   -1.9997    5.2347   -0.0643 H   0  0  0  0  0  0  0  0  0  0  0  0
   -1.5680    3.1353   -0.3911 C   0  0  0  0  0  0  0  0  0  0  0  0
   -0.5864    3.3123   -0.8144 H   0  0  0  0  0  0  0  0  0  0  0  0
   -0.8664    0.0378    1.7736 C   0  0  0  0  0  0  0  0  0  0  0  0
    0.2529   -0.0672    2.2760 O   0  0  0  0  0  0  0  0  0  0  0  0
   -1.8947    0.5991    2.4221 N   0  0  0  0  0  0  0  0  0  0  0  0
   -2.7942    0.5936    1.9635 H   0  0  0  0  0  0  0  0  0  0  0  0
   -1.8170    1.1453    3.7750 C   0  0  0  0  0  0  0  0  0  0  0  0
   -0.9697    1.8290    3.8506 H   0  0  0  0  0  0  0  0  0  0  0  0
   -2.7354    1.6828    4.0167 H   0  0  0  0  0  0  0  0  0  0  0  0
   -1.6754    0.3334    4.4914 H   0  0  0  0  0  0  0  0  0  0  0  0
  5  6  2  0  0  0  0
  5  7  1  0  0  0  0
  2  3  1  0  0  0  0
  2  4  1  0  0  0  0
  2  5  1  0  0  0  0
  1  2  1  0  0  0  0
 26 27  2  0  0  0  0
 26 28  1  0  0  0  0
 24 25  1  0  0  0  0
 22 23  1  0  0  0  0
 22 24  2  0  0  0  0
 20 21  1  0  0  0  0
 19 20  1  0  0  0  0
 19 22  1  0  0  0  0
 17 18  1  0  0  0  0
 17 19  2  0  0  0  0
 15 16  1  0  0  0  0
 15 17  1  0  0  0  0
 14 15  2  0  0  0  0
 14 24  1  0  0  0  0
 11 12  1  0  0  0  0
 11 13  1  0  0  0  0
 11 14  1  0  0  0  0
  9 10  1  0  0  0  0
  9 11  1  0  0  0  0
  9 26  1  0  0  0  0
  7  8  1  0  0  0  0
  7  9  1  0  0  0  0
 30 31  1  0  0  0  0
 30 32  1  0  0  0  0
 30 33  1  0  0  0  0
 28 29  1  0  0  0  0
 28 30  1  0  0  0  0
M  END
$$$$
default_name
  -OEChem-02102213163D

 33 33  0     1  0  0  0  0  0999 V2000
   -4.0702   -3.8485    1.4554 H   0  0  0  0  0  0  0  0  0  0  0  0
   -4.0012   -2.9605    0.8284 C   0  0  0  0  0  0  0  0  0  0  0  0
   -4.7652   -2.2435    1.1234 H   0  0  0  0  0  0  0  0  0  0  0  0
   -4.1352   -3.2385   -0.2156 H   0  0  0  0  0  0  0  0  0  0  0  0
   -2.6362   -2.3395    1.0094 C   0  0  0  0  0  0  0  0  0  0  0  0
   -1.8292   -2.8395    1.7814 O   0  0  0  0  0  0  0  0  0  0  0  0
   -2.3832   -1.2445    0.2964 N   0  0  0  0  0  0  0  0  0  0  0  0
   -3.1102   -0.8685   -0.2946 H   0  0  0  0  0  0  0  0  0  0  0  0
   -1.1292   -0.4875    0.3524 C   0  0  1  0  0  0  0  0  0  0  0  0
   -0.3087   -1.1556    0.0882 H   0  0  0  0  0  0  0  0  0  0  0  0
   -1.1749    0.6534   -0.6787 C   0  0  0  0  0  0  0  0  0  0  0  0
   -0.1634    1.0305   -0.8350 H   0  0  0  0  0  0  0  0  0  0  0  0
   -1.5260    0.2545   -1.6318 H   0  0  0  0  0  0  0  0  0  0  0  0
   -2.0537    1.8192   -0.2682 C   0  0  0  0  0  0  0  0  0  0  0  0
   -3.1794    1.6070    0.5529 C   0  0  0  0  0  0  0  0  0  0  0  0
   -3.4354    0.6052    0.8721 H   0  0  0  0  0  0  0  0  0  0  0  0
   -3.9691    2.6982    0.9647 C   0  0  0  0  0  0  0  0  0  0  0  0
   -4.8312    2.5318    1.5921 H   0  0  0  0  0  0  0  0  0  0  0  0
   -3.6292    4.0065    0.5567 C   0  0  0  0  0  0  0  0  0  0  0  0
   -4.3827    5.0657    0.9509 O   0  0  0  0  0  0  0  0  0  0  0  0
   -5.1687    4.7929    1.4259 H   0  0  0  0  0  0  0  0  0  0  0  0
   -2.4996    4.2175   -0.2609 C   0  0  0  0  0  0  0  0  0  0  0  0
   -2.2526    5.2221   -0.5698 H   0  0  0  0  0  0  0  0  0  0  0  0
   -1.7150    3.1243   -0.6745 C   0  0  0  0  0  0  0  0  0  0  0  0
   -0.8526    3.2862   -1.3103 H   0  0  0  0  0  0  0  0  0  0  0  0
   -0.8664    0.0378    1.7736 C   0  0  0  0  0  0  0  0  0  0  0  0
    0.2529   -0.0672    2.2760 O   0  0  0  0  0  0  0  0  0  0  0  0
   -1.8947    0.5991    2.4221 N   0  0  0  0  0  0  0  0  0  0  0  0
   -2.7942    0.5936    1.9635 H   0  0  0  0  0  0  0  0  0  0  0  0
   -1.8170    1.1453    3.7750 C   0  0  0  0  0  0  0  0  0  0  0  0
   -0.9697    1.8290    3.8506 H   0  0  0  0  0  0  0  0  0  0  0  0
   -2.7354    1.6828    4.0167 H   0  0  0  0  0  0  0  0  0  0  0  0
   -1.6754    0.3334    4.4914 H   0  0  0  0  0  0  0  0  0  0  0  0
  5  6  2  0  0  0  0
  5  7  1  0  0  0  0
  2  3  1  0  0  0  0
  2  4  1  0  0  0  0
  2  5  1  0  0  0  0
  1  2  1  0  0  0  0
 26 27  2  0  0  0  0
 26 28  1  0  0  0  0
 24 25  1  0  0  0  0
 22 23  1  0  0  0  0
 22 24  2  0  0  0  0
 20 21  1  0  0  0  0
 19 20  1  0  0  0  0
 19 22  1  0  0  0  0
 17 18  1  0  0  0  0
 17 19  2  0  0  0  0
 15 16  1  0  0  0  0
 15 17  1  0  0  0  0
 14 15  2  0  0  0  0
 14 24  1  0  0  0  0
 11 12  1  0  0  0  0
 11 13  1  0  0  0  0
 11 14  1  0  0  0  0
  9 10  1  0  0  0  0
  9 11  1  0  0  0  0
  9 26  1  0  0  0  0
  7  8  1  0  0  0  0
  7  9  1  0  0  0  0
 30 31  1  0  0  0  0
 30 32  1  0  0  0  0
 30 33  1  0  0  0  0
 28 29  1  0  0  0  0
 28 30  1  0  0  0  0
M  END
$$$$
default_name
  -OEChem-02102213163D

 33 33  0     1  0  0  0  0  0999 V2000
   -4.0702   -3.8485    1.4554 H   0  0  0  0  0  0  0  0  0  0  0  0
   -4.0012   -2.9605    0.8284 C   0  0  0  0  0  0  0  0  0  0  0  0
   -4.7652   -2.2435    1.1234 H   0  0  0  0  0  0  0  0  0  0  0  0
   -4.1352   -3.2385   -0.2156 H   0  0  0  0  0  0  0  0  0  0  0  0
   -2.6362   -2.3395    1.0094 C   0  0  0  0  0  0  0  0  0  0  0  0
   -1.8292   -2.8395    1.7814 O   0  0  0  0  0  0  0  0  0  0  0  0
   -2.3832   -1.2445    0.2964 N   0  0  0  0  0  0  0  0  0  0  0  0
   -3.1102   -0.8685   -0.2946 H   0  0  0  0  0  0  0  0  0  0  0  0
   -1.1292   -0.4875    0.3524 C   0  0  1  0  0  0  0  0  0  0  0  0
   -0.3087   -1.1556    0.0882 H   0  0  0  0  0  0  0  0  0  0  0  0
   -1.1749    0.6534   -0.6787 C   0  0  0  0  0  0  0  0  0  0  0  0
   -0.1634    1.0305   -0.8350 H   0  0  0  0  0  0  0  0  0  0  0  0
   -1.5260    0.2545   -1.6318 H   0  0  0  0  0  0  0  0  0  0  0  0
   -2.0537    1.8192   -0.2682 C   0  0  0  0  0  0  0  0  0  0  0  0
   -2.9768    1.6771    0.7873 C   0  0  0  0  0  0  0  0  0  0  0  0
   -3.0799    0.7254    1.2918 H   0  0  0  0  0  0  0  0  0  0  0  0
   -3.7619    2.7744    1.1915 C   0  0  0  0  0  0  0  0  0  0  0  0
   -4.4689    2.6616    1.9990 H   0  0  0  0  0  0  0  0  0  0  0  0
   -3.6203    4.0191    0.5400 C   0  0  0  0  0  0  0  0  0  0  0  0
   -4.3707    5.0841    0.9243 O   0  0  0  0  0  0  0  0  0  0  0  0
   -5.0237    4.8466    1.5839 H   0  0  0  0  0  0  0  0  0  0  0  0
   -2.6926    4.1608   -0.5127 C   0  0  0  0  0  0  0  0  0  0  0  0
   -2.5966    5.1163   -1.0059 H   0  0  0  0  0  0  0  0  0  0  0  0
   -1.9126    3.0609   -0.9174 C   0  0  0  0  0  0  0  0  0  0  0  0
   -1.2066    3.1680   -1.7324 H   0  0  0  0  0  0  0  0  0  0  0  0
   -0.8664    0.0378    1.7736 C   0  0  0  0  0  0  0  0  0  0  0  0
    0.2529   -0.0672    2.2760 O   0  0  0  0  0  0  0  0  0  0  0  0
   -1.8947    0.5991    2.4221 N   0  0  0  0  0  0  0  0  0  0  0  0
   -2.7942    0.5936    1.9635 H   0  0  0  0  0  0  0  0  0  0  0  0
   -1.8170    1.1453    3.7750 C   0  0  0  0  0  0  0  0  0  0  0  0
   -0.9697    1.8290    3.8506 H   0  0  0  0  0  0  0  0  0  0  0  0
   -2.7354    1.6828    4.0167 H   0  0  0  0  0  0  0  0  0  0  0  0
   -1.6754    0.3334    4.4914 H   0  0  0  0  0  0  0  0  0  0  0  0
  5  6  2  0  0  0  0
  5  7  1  0  0  0  0
  2  3  1  0  0  0  0
  2  4  1  0  0  0  0
  2  5  1  0  0  0  0
  1  2  1  0  0  0  0
 26 27  2  0  0  0  0
 26 28  1  0  0  0  0
 24 25  1  0  0  0  0
 22 23  1  0  0  0  0
 22 24  2  0  0  0  0
 20 21  1  0  0  0  0
 19 20  1  0  0  0  0
 19 22  1  0  0  0  0
 17 18  1  0  0  0  0
 17 19  2  0  0  0  0
 15 16  1  0  0  0  0
 15 17  1  0  0  0  0
 14 15  2  0  0  0  0
 14 24  1  0  0  0  0
 11 12  1  0  0  0  0
 11 13  1  0  0  0  0
 11 14  1  0  0  0  0
  9 10  1  0  0  0  0
  9 11  1  0  0  0  0
  9 26  1  0  0  0  0
  7  8  1  0  0  0  0
  7  9  1  0  0  0  0
 30 31  1  0  0  0  0
 30 32  1  0  0  0  0
 30 33  1  0  0  0  0
 28 29  1  0  0  0  0
 28 30  1  0  0  0  0
M  END
$$$$
default_name
  -OEChem-02102213163D

 33 33  0     1  0  0  0  0  0999 V2000
   -4.0702   -3.8485    1.4554 H   0  0  0  0  0  0  0  0  0  0  0  0
   -4.0012   -2.9605    0.8284 C   0  0  0  0  0  0  0  0  0  0  0  0
   -4.7652   -2.2435    1.1234 H   0  0  0  0  0  0  0  0  0  0  0  0
   -4.1352   -3.2385   -0.2156 H   0  0  0  0  0  0  0  0  0  0  0  0
   -2.6362   -2.3395    1.0094 C   0  0  0  0  0  0  0  0  0  0  0  0
   -1.8292   -2.8395    1.7814 O   0  0  0  0  0  0  0  0  0  0  0  0
   -2.3832   -1.2445    0.2964 N   0  0  0  0  0  0  0  0  0  0  0  0
   -3.1102   -0.8685   -0.2946 H   0  0  0  0  0  0  0  0  0  0  0  0
   -1.1292   -0.4875    0.3524 C   0  0  1  0  0  0  0  0  0  0  0  0
   -0.3087   -1.1556    0.0882 H   0  0  0  0  0  0  0  0  0  0  0  0
   -1.1749    0.6534   -0.6787 C   0  0  0  0  0  0  0  0  0  0  0  0
   -0.1634    1.0305   -0.8350 H   0  0  0  0  0  0  0  0  0  0  0  0
   -1.5260    0.2545   -1.6318 H   0  0  0  0  0  0  0  0  0  0  0  0
   -2.0537    1.8192   -0.2682 C   0  0  0  0  0  0  0  0  0  0  0  0
   -2.7395    1.7942    0.9628 C   0  0  0  0  0  0  0  0  0  0  0  0
   -2.6614    0.9293    1.6085 H   0  0  0  0  0  0  0  0  0  0  0  0
   -3.5221    2.8966    1.3579 C   0  0  0  0  0  0  0  0  0  0  0  0
   -4.0471    2.8734    2.3005 H   0  0  0  0  0  0  0  0  0  0  0  0
   -3.6159    4.0294    0.5202 C   0  0  0  0  0  0  0  0  0  0  0  0
   -4.3657    5.0988    0.8935 O   0  0  0  0  0  0  0  0  0  0  0  0
   -4.8559    4.9323    1.6997 H   0  0  0  0  0  0  0  0  0  0  0  0
   -2.9250    4.0547   -0.7090 C   0  0  0  0  0  0  0  0  0  0  0  0
   -3.0082    4.9247   -1.3428 H   0  0  0  0  0  0  0  0  0  0  0  0
   -2.1473    2.9493   -1.1032 C   0  0  0  0  0  0  0  0  0  0  0  0
   -1.6243    2.9657   -2.0519 H   0  0  0  0  0  0  0  0  0  0  0  0
   -0.8664    0.0378    1.7736 C   0  0  0  0  0  0  0  0  0  0  0  0
    0.2529   -0.0672    2.2760 O   0  0  0  0  0  0  0  0  0  0  0  0
   -1.8947    0.5991    2.4221 N   0  0  0  0  0  0  0  0  0  0  0  0
   -2.7942    0.5936    1.9635 H   0  0  0  0  0  0  0  0  0  0  0  0
   -1.8170    1.1453    3.7750 C   0  0  0  0  0  0  0  0  0  0  0  0
   -0.9697    1.8290    3.8506 H   0  0  0  0  0  0  0  0  0  0  0  0
   -2.7354    1.6828    4.0167 H   0  0  0  0  0  0  0  0  0  0  0  0
   -1.6754    0.3334    4.4914 H   0  0  0  0  0  0  0  0  0  0  0  0
  5  6  2  0  0  0  0
  5  7  1  0  0  0  0
  2  3  1  0  0  0  0
  2  4  1  0  0  0  0
  2  5  1  0  0  0  0
  1  2  1  0  0  0  0
 26 27  2  0  0  0  0
 26 28  1  0  0  0  0
 24 25  1  0  0  0  0
 22 23  1  0  0  0  0
 22 24  2  0  0  0  0
 20 21  1  0  0  0  0
 19 20  1  0  0  0  0
 19 22  1  0  0  0  0
 17 18  1  0  0  0  0
 17 19  2  0  0  0  0
 15 16  1  0  0  0  0
 15 17  1  0  0  0  0
 14 15  2  0  0  0  0
 14 24  1  0  0  0  0
 11 12  1  0  0  0  0
 11 13  1  0  0  0  0
 11 14  1  0  0  0  0
  9 10  1  0  0  0  0
  9 11  1  0  0  0  0
  9 26  1  0  0  0  0
  7  8  1  0  0  0  0
  7  9  1  0  0  0  0
 30 31  1  0  0  0  0
 30 32  1  0  0  0  0
 30 33  1  0  0  0  0
 28 29  1  0  0  0  0
 28 30  1  0  0  0  0
M  END
$$$$
default_name
  -OEChem-02102213163D

 33 33  0     1  0  0  0  0  0999 V2000
   -4.0702   -3.8485    1.4554 H   0  0  0  0  0  0  0  0  0  0  0  0
   -4.0012   -2.9605    0.8284 C   0  0  0  0  0  0  0  0  0  0  0  0
   -4.7652   -2.2435    1.1234 H   0  0  0  0  0  0  0  0  0  0  0  0
   -4.1352   -3.2385   -0.2156 H   0  0  0  0  0  0  0  0  0  0  0  0
   -2.6362   -2.3395    1.0094 C   0  0  0  0  0  0  0  0  0  0  0  0
   -1.8292   -2.8395    1.7814 O   0  0  0  0  0  0  0  0  0  0  0  0
   -2.3832   -1.2445    0.2964 N   0  0  0  0  0  0  0  0  0  0  0  0
   -3.1102   -0.8685   -0.2946 H   0  0  0  0  0  0  0  0  0  0  0  0
   -1.1292   -0.4875    0.3524 C   0  0  1  0  0  0  0  0  0  0  0  0
   -0.3087   -1.1556    0.0882 H   0  0  0  0  0  0  0  0  0  0  0  0
   -1.1749    0.6534   -0.6787 C   0  0  0  0  0  0  0  0  0  0  0  0
   -0.1634    1.0305   -0.8350 H   0  0  0  0  0  0  0  0  0  0  0  0
   -1.5260    0.2545   -1.6318 H   0  0  0  0  0  0  0  0  0  0  0  0
   -2.0537    1.8192   -0.2682 C   0  0  0  0  0  0  0  0  0  0  0  0
   -2.4835    1.9503    1.0676 C   0  0  0  0  0  0  0  0  0  0  0  0
   -2.2084    1.2031    1.8006 H   0  0  0  0  0  0  0  0  0  0  0  0
   -3.2659    3.0564    1.4526 C   0  0  0  0  0  0  0  0  0  0  0  0
   -3.5945    3.1528    2.4760 H   0  0  0  0  0  0  0  0  0  0  0  0
   -3.6163    4.0367    0.4987 C   0  0  0  0  0  0  0  0  0  0  0  0
   -4.3680    5.1086    0.8606 O   0  0  0  0  0  0  0  0  0  0  0  0
   -4.6769    5.0442    1.7652 H   0  0  0  0  0  0  0  0  0  0  0  0
   -3.1812    3.9064   -0.8365 C   0  0  0  0  0  0  0  0  0  0  0  0
   -3.4593    4.6602   -1.5576 H   0  0  0  0  0  0  0  0  0  0  0  0
   -2.4032    2.7973   -1.2192 C   0  0  0  0  0  0  0  0  0  0  0  0
   -2.0771    2.6931   -2.2472 H   0  0  0  0  0  0  0  0  0  0  0  0
   -0.8664    0.0378    1.7736 C   0  0  0  0  0  0  0  0  0  0  0  0
    0.2529   -0.0672    2.2760 O   0  0  0  0  0  0  0  0  0  0  0  0
   -1.8947    0.5991    2.4221 N   0  0  0  0  0  0  0  0  0  0  0  0
   -2.7942    0.5936    1.9635 H   0  0  0  0  0  0  0  0  0  0  0  0
   -1.8170    1.1453    3.7750 C   0  0  0  0  0  0  0  0  0  0  0  0
   -0.9697    1.8290    3.8506 H   0  0  0  0  0  0  0  0  0  0  0  0
   -2.7354    1.6828    4.0167 H   0  0  0  0  0  0  0  0  0  0  0  0
   -1.6754    0.3334    4.4914 H   0  0  0  0  0  0  0  0  0  0  0  0
  5  6  2  0  0  0  0
  5  7  1  0  0  0  0
  2  3  1  0  0  0  0
  2  4  1  0  0  0  0
  2  5  1  0  0  0  0
  1  2  1  0  0  0  0
 26 27  2  0  0  0  0
 26 28  1  0  0  0  0
 24 25  1  0  0  0  0
 22 23  1  0  0  0  0
 22 24  2  0  0  0  0
 20 21  1  0  0  0  0
 19 20  1  0  0  0  0
 19 22  1  0  0  0  0
 17 18  1  0  0  0  0
 17 19  2  0  0  0  0
 15 16  1  0  0  0  0
 15 17  1  0  0  0  0
 14 15  2  0  0  0  0
 14 24  1  0  0  0  0
 11 12  1  0  0  0  0
 11 13  1  0  0  0  0
 11 14  1  0  0  0  0
  9 10  1  0  0  0  0
  9 11  1  0  0  0  0
  9 26  1  0  0  0  0
  7  8  1  0  0  0  0
  7  9  1  0  0  0  0
 30 31  1  0  0  0  0
 30 32  1  0  0  0  0
 30 33  1  0  0  0  0
 28 29  1  0  0  0  0
 28 30  1  0  0  0  0
M  END
$$$$
default_name
  -OEChem-02102213163D

 33 33  0     1  0  0  0  0  0999 V2000
   -4.0702   -3.8485    1.4554 H   0  0  0  0  0  0  0  0  0  0  0  0
   -4.0012   -2.9605    0.8284 C   0  0  0  0  0  0  0  0  0  0  0  0
   -4.7652   -2.2435    1.1234 H   0  0  0  0  0  0  0  0  0  0  0  0
   -4.1352   -3.2385   -0.2156 H   0  0  0  0  0  0  0  0  0  0  0  0
   -2.6362   -2.3395    1.0094 C   0  0  0  0  0  0  0  0  0  0  0  0
   -1.8292   -2.8395    1.7814 O   0  0  0  0  0  0  0  0  0  0  0  0
   -2.3832   -1.2445    0.2964 N   0  0  0  0  0  0  0  0  0  0  0  0
   -3.1102   -0.8685   -0.2946 H   0  0  0  0  0  0  0  0  0  0  0  0
   -1.1292   -0.4875    0.3524 C   0  0  1  0  0  0  0  0  0  0  0  0
   -0.3087   -1.1556    0.0882 H   0  0  0  0  0  0  0  0  0  0  0  0
   -1.1749    0.6534   -0.6787 C   0  0  0  0  0  0  0  0  0  0  0  0
   -0.1634    1.0305   -0.8350 H   0  0  0  0  0  0  0  0  0  0  0  0
   -1.5260    0.2545   -1.6318 H   0  0  0  0  0  0  0  0  0  0  0  0
   -2.0537    1.8192   -0.2682 C   0  0  0  0  0  0  0  0  0  0  0  0
   -2.2263    2.1347    1.0945 C   0  0  0  0  0  0  0  0  0  0  0  0
   -1.7519    1.5282    1.8549 H   0  0  0  0  0  0  0  0  0  0  0  0
   -3.0107    3.2429    1.4691 C   0  0  0  0  0  0  0  0  0  0  0  0
   -3.1420    3.4806    2.5136 H   0  0  0  0  0  0  0  0  0  0  0  0
   -3.6215    4.0405    0.4769 C   0  0  0  0  0  0  0  0  0  0  0  0
   -4.3774    5.1131    0.8277 O   0  0  0  0  0  0  0  0  0  0  0  0
   -4.4987    5.1747    1.7761 H   0  0  0  0  0  0  0  0  0  0  0  0
   -3.4437    3.7262   -0.8864 C   0  0  0  0  0  0  0  0  0  0  0  0
   -3.9193    4.3410   -1.6356 H   0  0  0  0  0  0  0  0  0  0  0  0
   -2.6628    2.6151   -1.2575 C   0  0  0  0  0  0  0  0  0  0  0  0
   -2.5342    2.3688   -2.3048 H   0  0  0  0  0  0  0  0  0  0  0  0
   -0.8664    0.0378    1.7736 C   0  0  0  0  0  0  0  0  0  0  0  0
    0.2529   -0.0672    2.2760 O   0  0  0  0  0  0  0  0  0  0  0  0
   -1.8947    0.5991    2.4221 N   0  0  0  0  0  0  0  0  0  0  0  0
   -2.7942    0.5936    1.9635 H   0  0  0  0  0  0  0  0  0  0  0  0
   -1.8170    1.1453    3.7750 C   0  0  0  0  0  0  0  0  0  0  0  0
   -0.9697    1.8290    3.8506 H   0  0  0  0  0  0  0  0  0  0  0  0
   -2.7354    1.6828    4.0167 H   0  0  0  0  0  0  0  0  0  0  0  0
   -1.6754    0.3334    4.4914 H   0  0  0  0  0  0  0  0  0  0  0  0
  5  6  2  0  0  0  0
  5  7  1  0  0  0  0
  2  3  1  0  0  0  0
  2  4  1  0  0  0  0
  2  5  1  0  0  0  0
  1  2  1  0  0  0  0
 26 27  2  0  0  0  0
 26 28  1  0  0  0  0
 24 25  1  0  0  0  0
 22 23  1  0  0  0  0
 22 24  2  0  0  0  0
 20 21  1  0  0  0  0
 19 20  1  0  0  0  0
 19 22  1  0  0  0  0
 17 18  1  0  0  0  0
 17 19  2  0  0  0  0
 15 16  1  0  0  0  0
 15 17  1  0  0  0  0
 14 15  2  0  0  0  0
 14 24  1  0  0  0  0
 11 12  1  0  0  0  0
 11 13  1  0  0  0  0
 11 14  1  0  0  0  0
  9 10  1  0  0  0  0
  9 11  1  0  0  0  0
  9 26  1  0  0  0  0
  7  8  1  0  0  0  0
  7  9  1  0  0  0  0
 30 31  1  0  0  0  0
 30 32  1  0  0  0  0
 30 33  1  0  0  0  0
 28 29  1  0  0  0  0
 28 30  1  0  0  0  0
M  END
$$$$
default_name
  -OEChem-02102213163D

 33 33  0     1  0  0  0  0  0999 V2000
   -4.0702   -3.8485    1.4554 H   0  0  0  0  0  0  0  0  0  0  0  0
   -4.0012   -2.9605    0.8284 C   0  0  0  0  0  0  0  0  0  0  0  0
   -4.7652   -2.2435    1.1234 H   0  0  0  0  0  0  0  0  0  0  0  0
   -4.1352   -3.2385   -0.2156 H   0  0  0  0  0  0  0  0  0  0  0  0
   -2.6362   -2.3395    1.0094 C   0  0  0  0  0  0  0  0  0  0  0  0
   -1.8292   -2.8395    1.7814 O   0  0  0  0  0  0  0  0  0  0  0  0
   -2.3832   -1.2445    0.2964 N   0  0  0  0  0  0  0  0  0  0  0  0
   -3.1102   -0.8685   -0.2946 H   0  0  0  0  0  0  0  0  0  0  0  0
   -1.1292   -0.4875    0.3524 C   0  0  1  0  0  0  0  0  0  0  0  0
   -0.3087   -1.1556    0.0882 H   0  0  0  0  0  0  0  0  0  0  0  0
   -1.1749    0.6534   -0.6787 C   0  0  0  0  0  0  0  0  0  0  0  0
   -0.1634    1.0305   -0.8350 H   0  0  0  0  0  0  0  0  0  0  0  0
   -1.5260    0.2545   -1.6318 H   0  0  0  0  0  0  0  0  0  0  0  0
   -2.0537    1.8192   -0.2682 C   0  0  0  0  0  0  0  0  0  0  0  0
   -1.9855    2.3349    1.0417 C   0  0  0  0  0  0  0  0  0  0  0  0
   -1.3228    1.8822    1.7678 H   0  0  0  0  0  0  0  0  0  0  0  0
   -2.7741    3.4434    1.4064 C   0  0  0  0  0  0  0  0  0  0  0  0
   -2.7204    3.8347    2.4107 H   0  0  0  0  0  0  0  0  0  0  0  0
   -3.6311    4.0405    0.4563 C   0  0  0  0  0  0  0  0  0  0  0  0
   -4.3934    5.1117    0.7972 O   0  0  0  0  0  0  0  0  0  0  0  0
   -4.3336    5.3148    1.7317 H   0  0  0  0  0  0  0  0  0  0  0  0
   -3.6945    3.5262   -0.8554 C   0  0  0  0  0  0  0  0  0  0  0  0
   -4.3568    3.9886   -1.5716 H   0  0  0  0  0  0  0  0  0  0  0  0
   -2.9084    2.4152   -1.2155 C   0  0  0  0  0  0  0  0  0  0  0  0
   -2.9645    2.0149   -2.2208 H   0  0  0  0  0  0  0  0  0  0  0  0
   -0.8664    0.0378    1.7736 C   0  0  0  0  0  0  0  0  0  0  0  0
    0.2529   -0.0672    2.2760 O   0  0  0  0  0  0  0  0  0  0  0  0
   -1.8947    0.5991    2.4221 N   0  0  0  0  0  0  0  0  0  0  0  0
   -2.7942    0.5936    1.9635 H   0  0  0  0  0  0  0  0  0  0  0  0
   -1.8170    1.1453    3.7750 C   0  0  0  0  0  0  0  0  0  0  0  0
   -0.9697    1.8290    3.8506 H   0  0  0  0  0  0  0  0  0  0  0  0
   -2.7354    1.6828    4.0167 H   0  0  0  0  0  0  0  0  0  0  0  0
   -1.6754    0.3334    4.4914 H   0  0  0  0  0  0  0  0  0  0  0  0
  5  6  2  0  0  0  0
  5  7  1  0  0  0  0
  2  3  1  0  0  0  0
  2  4  1  0  0  0  0
  2  5  1  0  0  0  0
  1  2  1  0  0  0  0
 26 27  2  0  0  0  0
 26 28  1  0  0  0  0
 24 25  1  0  0  0  0
 22 23  1  0  0  0  0
 22 24  2  0  0  0  0
 20 21  1  0  0  0  0
 19 20  1  0  0  0  0
 19 22  1  0  0  0  0
 17 18  1  0  0  0  0
 17 19  2  0  0  0  0
 15 16  1  0  0  0  0
 15 17  1  0  0  0  0
 14 15  2  0  0  0  0
 14 24  1  0  0  0  0
 11 12  1  0  0  0  0
 11 13  1  0  0  0  0
 11 14  1  0  0  0  0
  9 10  1  0  0  0  0
  9 11  1  0  0  0  0
  9 26  1  0  0  0  0
  7  8  1  0  0  0  0
  7  9  1  0  0  0  0
 30 31  1  0  0  0  0
 30 32  1  0  0  0  0
 30 33  1  0  0  0  0
 28 29  1  0  0  0  0
 28 30  1  0  0  0  0
M  END
$$$$
default_name
  -OEChem-02102213163D

 33 33  0     1  0  0  0  0  0999 V2000
   -4.0702   -3.8485    1.4554 H   0  0  0  0  0  0  0  0  0  0  0  0
   -4.0012   -2.9605    0.8284 C   0  0  0  0  0  0  0  0  0  0  0  0
   -4.7652   -2.2435    1.1234 H   0  0  0  0  0  0  0  0  0  0  0  0
   -4.1352   -3.2385   -0.2156 H   0  0  0  0  0  0  0  0  0  0  0  0
   -2.6362   -2.3395    1.0094 C   0  0  0  0  0  0  0  0  0  0  0  0
   -1.8292   -2.8395    1.7814 O   0  0  0  0  0  0  0  0  0  0  0  0
   -2.3832   -1.2445    0.2964 N   0  0  0  0  0  0  0  0  0  0  0  0
   -3.1102   -0.8685   -0.2946 H   0  0  0  0  0  0  0  0  0  0  0  0
   -1.1292   -0.4875    0.3524 C   0  0  1  0  0  0  0  0  0  0  0  0
   -0.3087   -1.1556    0.0882 H   0  0  0  0  0  0  0  0  0  0  0  0
   -1.1749    0.6534   -0.6787 C   0  0  0  0  0  0  0  0  0  0  0  0
   -0.1634    1.0305   -0.8350 H   0  0  0  0  0  0  0  0  0  0  0  0
   -1.5260    0.2545   -1.6318 H   0  0  0  0  0  0  0  0  0  0  0  0
   -2.0537    1.8192   -0.2682 C   0  0  0  0  0  0  0  0  0  0  0  0
   -1.7773    2.5371    0.9127 C   0  0  0  0  0  0  0  0  0  0  0  0
   -0.9506    2.2413    1.5451 H   0  0  0  0  0  0  0  0  0  0  0  0
   -2.5720    3.6443    1.2686 C   0  0  0  0  0  0  0  0  0  0  0  0
   -2.3585    4.1907    2.1743 H   0  0  0  0  0  0  0  0  0  0  0  0
   -3.6444    4.0367    0.4383 C   0  0  0  0  0  0  0  0  0  0  0  0
   -4.4149    5.1048    0.7712 O   0  0  0  0  0  0  0  0  0  0  0  0
   -4.1927    5.4551    1.6348 H   0  0  0  0  0  0  0  0  0  0  0  0
   -3.9165    3.3202   -0.7455 C   0  0  0  0  0  0  0  0  0  0  0  0
   -4.7420    3.6273   -1.3699 H   0  0  0  0  0  0  0  0  0  0  0  0
   -3.1233    2.2112   -1.0962 C   0  0  0  0  0  0  0  0  0  0  0  0
   -3.3386    1.6555   -2.0011 H   0  0  0  0  0  0  0  0  0  0  0  0
   -0.8664    0.0378    1.7736 C   0  0  0  0  0  0  0  0  0  0  0  0
    0.2529   -0.0672    2.2760 O   0  0  0  0  0  0  0  0  0  0  0  0
   -1.8947    0.5991    2.4221 N   0  0  0  0  0  0  0  0  0  0  0  0
   -2.7942    0.5936    1.9635 H   0  0  0  0  0  0  0  0  0  0  0  0
   -1.8170    1.1453    3.7750 C   0  0  0  0  0  0  0  0  0  0  0  0
   -0.9697    1.8290    3.8506 H   0  0  0  0  0  0  0  0  0  0  0  0
   -2.7354    1.6828    4.0167 H   0  0  0  0  0  0  0  0  0  0  0  0
   -1.6754    0.3334    4.4914 H   0  0  0  0  0  0  0  0  0  0  0  0
  5  6  2  0  0  0  0
  5  7  1  0  0  0  0
  2  3  1  0  0  0  0
  2  4  1  0  0  0  0
  2  5  1  0  0  0  0
  1  2  1  0  0  0  0
 26 27  2  0  0  0  0
 26 28  1  0  0  0  0
 24 25  1  0  0  0  0
 22 23  1  0  0  0  0
 22 24  2  0  0  0  0
 20 21  1  0  0  0  0
 19 20  1  0  0  0  0
 19 22  1  0  0  0  0
 17 18  1  0  0  0  0
 17 19  2  0  0  0  0
 15 16  1  0  0  0  0
 15 17  1  0  0  0  0
 14 15  2  0  0  0  0
 14 24  1  0  0  0  0
 11 12  1  0  0  0  0
 11 13  1  0  0  0  0
 11 14  1  0  0  0  0
  9 10  1  0  0  0  0
  9 11  1  0  0  0  0
  9 26  1  0  0  0  0
  7  8  1  0  0  0  0
  7  9  1  0  0  0  0
 30 31  1  0  0  0  0
 30 32  1  0  0  0  0
 30 33  1  0  0  0  0
 28 29  1  0  0  0  0
 28 30  1  0  0  0  0
M  END
$$$$
default_name
  -OEChem-02102213163D

 33 33  0     1  0  0  0  0  0999 V2000
   -4.0702   -3.8485    1.4554 H   0  0  0  0  0  0  0  0  0  0  0  0
   -4.0012   -2.9605    0.8284 C   0  0  0  0  0  0  0  0  0  0  0  0
   -4.7652   -2.2435    1.1234 H   0  0  0  0  0  0  0  0  0  0  0  0
   -4.1352   -3.2385   -0.2156 H   0  0  0  0  0  0  0  0  0  0  0  0
   -2.6362   -2.3395    1.0094 C   0  0  0  0  0  0  0  0  0  0  0  0
   -1.8292   -2.8395    1.7814 O   0  0  0  0  0  0  0  0  0  0  0  0
   -2.3832   -1.2445    0.2964 N   0  0  0  0  0  0  0  0  0  0  0  0
   -3.1102   -0.8685   -0.2946 H   0  0  0  0  0  0  0  0  0  0  0  0
   -1.1292   -0.4875    0.3524 C   0  0  1  0  0  0  0  0  0  0  0  0
   -0.3087   -1.1556    0.0882 H   0  0  0  0  0  0  0  0  0  0  0  0
   -1.1749    0.6534   -0.6787 C   0  0  0  0  0  0  0  0  0  0  0  0
   -0.1634    1.0305   -0.8350 H   0  0  0  0  0  0  0  0  0  0  0  0
   -1.5260    0.2545   -1.6318 H   0  0  0  0  0  0  0  0  0  0  0  0
   -2.0537    1.8192   -0.2682 C   0  0  0  0  0  0  0  0  0  0  0  0
   -1.6162    2.7278    0.7164 C   0  0  0  0  0  0  0  0  0  0  0  0
   -0.6604    2.5807    1.2022 H   0  0  0  0  0  0  0  0  0  0  0  0
   -2.4183    3.8318    1.0652 C   0  0  0  0  0  0  0  0  0  0  0  0
   -2.0808    4.5246    1.8206 H   0  0  0  0  0  0  0  0  0  0  0  0
   -3.6607    4.0295    0.4241 C   0  0  0  0  0  0  0  0  0  0  0  0
   -4.4403    5.0926    0.7513 O   0  0  0  0  0  0  0  0  0  0  0  0
   -4.0858    5.5859    1.4922 H   0  0  0  0  0  0  0  0  0  0  0  0
   -4.0947    3.1220   -0.5644 C   0  0  0  0  0  0  0  0  0  0  0  0
   -5.0486    3.2815   -1.0442 H   0  0  0  0  0  0  0  0  0  0  0  0
   -3.2928    2.0170   -0.9075 C   0  0  0  0  0  0  0  0  0  0  0  0
   -3.6311    1.3151   -1.6604 H   0  0  0  0  0  0  0  0  0  0  0  0
   -0.8664    0.0378    1.7736 C   0  0  0  0  0  0  0  0  0  0  0  0
    0.2529   -0.0672    2.2760 O   0  0  0  0  0  0  0  0  0  0  0  0
   -1.8947    0.5991    2.4221 N   0  0  0  0  0  0  0  0  0  0  0  0
   -2.7942    0.5936    1.9635 H   0  0  0  0  0  0  0  0  0  0  0  0
   -1.8170    1.1453    3.7750 C   0  0  0  0  0  0  0  0  0  0  0  0
   -0.9697    1.8290    3.8506 H   0  0  0  0  0  0  0  0  0  0  0  0
   -2.7354    1.6828    4.0167 H   0  0  0  0  0  0  0  0  0  0  0  0
   -1.6754    0.3334    4.4914 H   0  0  0  0  0  0  0  0  0  0  0  0
  5  6  2  0  0  0  0
  5  7  1  0  0  0  0
  2  3  1  0  0  0  0
  2  4  1  0  0  0  0
  2  5  1  0  0  0  0
  1  2  1  0  0  0  0
 26 27  2  0  0  0  0
 26 28  1  0  0  0  0
 24 25  1  0  0  0  0
 22 23  1  0  0  0  0
 22 24  2  0  0  0  0
 20 21  1  0  0  0  0
 19 20  1  0  0  0  0
 19 22  1  0  0  0  0
 17 18  1  0  0  0  0
 17 19  2  0  0  0  0
 15 16  1  0  0  0  0
 15 17  1  0  0  0  0
 14 15  2  0  0  0  0
 14 24  1  0  0  0  0
 11 12  1  0  0  0  0
 11 13  1  0  0  0  0
 11 14  1  0  0  0  0
  9 10  1  0  0  0  0
  9 11  1  0  0  0  0
  9 26  1  0  0  0  0
  7  8  1  0  0  0  0
  7  9  1  0  0  0  0
 30 31  1  0  0  0  0
 30 32  1  0  0  0  0
 30 33  1  0  0  0  0
 28 29  1  0  0  0  0
 28 30  1  0  0  0  0
M  END
$$$$
default_name
  -OEChem-02102213163D

 33 33  0     1  0  0  0  0  0999 V2000
   -4.0702   -3.8485    1.4554 H   0  0  0  0  0  0  0  0  0  0  0  0
   -4.0012   -2.9605    0.8284 C   0  0  0  0  0  0  0  0  0  0  0  0
   -4.7652   -2.2435    1.1234 H   0  0  0  0  0  0  0  0  0  0  0  0
   -4.1352   -3.2385   -0.2156 H   0  0  0  0  0  0  0  0  0  0  0  0
   -2.6362   -2.3395    1.0094 C   0  0  0  0  0  0  0  0  0  0  0  0
   -1.8292   -2.8395    1.7814 O   0  0  0  0  0  0  0  0  0  0  0  0
   -2.3832   -1.2445    0.2964 N   0  0  0  0  0  0  0  0  0  0  0  0
   -3.1102   -0.8685   -0.2946 H   0  0  0  0  0  0  0  0  0  0  0  0
   -1.1292   -0.4875    0.3524 C   0  0  1  0  0  0  0  0  0  0  0  0
   -0.3087   -1.1556    0.0882 H   0  0  0  0  0  0  0  0  0  0  0  0
   -1.1749    0.6534   -0.6787 C   0  0  0  0  0  0  0  0  0  0  0  0
   -0.1634    1.0305   -0.8350 H   0  0  0  0  0  0  0  0  0  0  0  0
   -1.5260    0.2545   -1.6318 H   0  0  0  0  0  0  0  0  0  0  0  0
   -2.0537    1.8192   -0.2682 C   0  0  0  0  0  0  0  0  0  0  0  0
   -1.5129    2.8938    0.4661 C   0  0  0  0  0  0  0  0  0  0  0  0
   -0.4722    2.8775    0.7623 H   0  0  0  0  0  0  0  0  0  0  0  0
   -2.3234    3.9931    0.8100 C   0  0  0  0  0  0  0  0  0  0  0  0
   -1.9064    4.8135    1.3736 H   0  0  0  0  0  0  0  0  0  0  0  0
   -3.6787    4.0192    0.4147 C   0  0  0  0  0  0  0  0  0  0  0  0
   -4.4679    5.0762    0.7389 O   0  0  0  0  0  0  0  0  0  0  0  0
   -4.0200    5.6984    1.3136 H   0  0  0  0  0  0  0  0  0  0  0  0
   -4.2169    2.9453   -0.3242 C   0  0  0  0  0  0  0  0  0  0  0  0
   -5.2557    2.9748   -0.6168 H   0  0  0  0  0  0  0  0  0  0  0  0
   -3.4054    1.8458   -0.6624 C   0  0  0  0  0  0  0  0  0  0  0  0
   -3.8220    1.0169   -1.2221 H   0  0  0  0  0  0  0  0  0  0  0  0
   -0.8664    0.0378    1.7736 C   0  0  0  0  0  0  0  0  0  0  0  0
    0.2529   -0.0672    2.2760 O   0  0  0  0  0  0  0  0  0  0  0  0
   -1.8947    0.5991    2.4221 N   0  0  0  0  0  0  0  0  0  0  0  0
   -2.7942    0.5936    1.9635 H   0  0  0  0  0  0  0  0  0  0  0  0
   -1.8170    1.1453    3.7750 C   0  0  0  0  0  0  0  0  0  0  0  0
   -0.9697    1.8290    3.8506 H   0  0  0  0  0  0  0  0  0  0  0  0
   -2.7354    1.6828    4.0167 H   0  0  0  0  0  0  0  0  0  0  0  0
   -1.6754    0.3334    4.4914 H   0  0  0  0  0  0  0  0  0  0  0  0
  5  6  2  0  0  0  0
  5  7  1  0  0  0  0
  2  3  1  0  0  0  0
  2  4  1  0  0  0  0
  2  5  1  0  0  0  0
  1  2  1  0  0  0  0
 26 27  2  0  0  0  0
 26 28  1  0  0  0  0
 24 25  1  0  0  0  0
 22 23  1  0  0  0  0
 22 24  2  0  0  0  0
 20 21  1  0  0  0  0
 19 20  1  0  0  0  0
 19 22  1  0  0  0  0
 17 18  1  0  0  0  0
 17 19  2  0  0  0  0
 15 16  1  0  0  0  0
 15 17  1  0  0  0  0
 14 15  2  0  0  0  0
 14 24  1  0  0  0  0
 11 12  1  0  0  0  0
 11 13  1  0  0  0  0
 11 14  1  0  0  0  0
  9 10  1  0  0  0  0
  9 11  1  0  0  0  0
  9 26  1  0  0  0  0
  7  8  1  0  0  0  0
  7  9  1  0  0  0  0
 30 31  1  0  0  0  0
 30 32  1  0  0  0  0
 30 33  1  0  0  0  0
 28 29  1  0  0  0  0
 28 30  1  0  0  0  0
M  END
$$$$
default_name
  -OEChem-02102213163D

 33 33  0     1  0  0  0  0  0999 V2000
   -4.0702   -3.8485    1.4554 H   0  0  0  0  0  0  0  0  0  0  0  0
   -4.0012   -2.9605    0.8284 C   0  0  0  0  0  0  0  0  0  0  0  0
   -4.7652   -2.2435    1.1234 H   0  0  0  0  0  0  0  0  0  0  0  0
   -4.1352   -3.2385   -0.2156 H   0  0  0  0  0  0  0  0  0  0  0  0
   -2.6362   -2.3395    1.0094 C   0  0  0  0  0  0  0  0  0  0  0  0
   -1.8292   -2.8395    1.7814 O   0  0  0  0  0  0  0  0  0  0  0  0
   -2.3832   -1.2445    0.2964 N   0  0  0  0  0  0  0  0  0  0  0  0
   -3.1102   -0.8685   -0.2946 H   0  0  0  0  0  0  0  0  0  0  0  0
   -1.1292   -0.4875    0.3524 C   0  0  1  0  0  0  0  0  0  0  0  0
   -0.3087   -1.1556    0.0882 H   0  0  0  0  0  0  0  0  0  0  0  0
   -1.1749    0.6534   -0.6787 C   0  0  0  0  0  0  0  0  0  0  0  0
   -0.1634    1.0305   -0.8350 H   0  0  0  0  0  0  0  0  0  0  0  0
   -1.5260    0.2545   -1.6318 H   0  0  0  0  0  0  0  0  0  0  0  0
   -2.0537    1.8192   -0.2682 C   0  0  0  0  0  0  0  0  0  0  0  0
   -1.4746    3.0238    0.1789 C   0  0  0  0  0  0  0  0  0  0  0  0
   -0.3987    3.1114    0.2554 H   0  0  0  0  0  0  0  0  0  0  0  0
   -2.2939    4.1174    0.5204 C   0  0  0  0  0  0  0  0  0  0  0  0
   -1.8471    5.0377    0.8638 H   0  0  0  0  0  0  0  0  0  0  0  0
   -3.6972    4.0066    0.4108 C   0  0  0  0  0  0  0  0  0  0  0  0
   -4.4959    5.0564    0.7350 O   0  0  0  0  0  0  0  0  0  0  0  0
   -3.9999    5.7848    1.1111 H   0  0  0  0  0  0  0  0  0  0  0  0
   -4.2748    2.8021   -0.0413 C   0  0  0  0  0  0  0  0  0  0  0  0
   -5.3492    2.7282   -0.1167 H   0  0  0  0  0  0  0  0  0  0  0  0
   -3.4534    1.7093   -0.3776 C   0  0  0  0  0  0  0  0  0  0  0  0
   -3.8983    0.7811   -0.7161 H   0  0  0  0  0  0  0  0  0  0  0  0
   -0.8664    0.0378    1.7736 C   0  0  0  0  0  0  0  0  0  0  0  0
    0.2529   -0.0672    2.2760 O   0  0  0  0  0  0  0  0  0  0  0  0
   -1.8947    0.5991    2.4221 N   0  0  0  0  0  0  0  0  0  0  0  0
   -2.7942    0.5936    1.9635 H   0  0  0  0  0  0  0  0  0  0  0  0
   -1.8170    1.1453    3.7750 C   0  0  0  0  0  0  0  0  0  0  0  0
   -0.9697    1.8290    3.8506 H   0  0  0  0  0  0  0  0  0  0  0  0
   -2.7354    1.6828    4.0167 H   0  0  0  0  0  0  0  0  0  0  0  0
   -1.6754    0.3334    4.4914 H   0  0  0  0  0  0  0  0  0  0  0  0
  5  6  2  0  0  0  0
  5  7  1  0  0  0  0
  2  3  1  0  0  0  0
  2  4  1  0  0  0  0
  2  5  1  0  0  0  0
  1  2  1  0  0  0  0
 26 27  2  0  0  0  0
 26 28  1  0  0  0  0
 24 25  1  0  0  0  0
 22 23  1  0  0  0  0
 22 24  2  0  0  0  0
 20 21  1  0  0  0  0
 19 20  1  0  0  0  0
 19 22  1  0  0  0  0
 17 18  1  0  0  0  0
 17 19  2  0  0  0  0
 15 16  1  0  0  0  0
 15 17  1  0  0  0  0
 14 15  2  0  0  0  0
 14 24  1  0  0  0  0
 11 12  1  0  0  0  0
 11 13  1  0  0  0  0
 11 14  1  0  0  0  0
  9 10  1  0  0  0  0
  9 11  1  0  0  0  0
  9 26  1  0  0  0  0
  7  8  1  0  0  0  0
  7  9  1  0  0  0  0
 30 31  1  0  0  0  0
 30 32  1  0  0  0  0
 30 33  1  0  0  0  0
 28 29  1  0  0  0  0
 28 30  1  0  0  0  0
M  END
$$$$
default_name
  -OEChem-02102213163D

 33 33  0     1  0  0  0  0  0999 V2000
   -4.0702   -3.8485    1.4554 H   0  0  0  0  0  0  0  0  0  0  0  0
   -4.0012   -2.9605    0.8284 C   0  0  0  0  0  0  0  0  0  0  0  0
   -4.7652   -2.2435    1.1234 H   0  0  0  0  0  0  0  0  0  0  0  0
   -4.1352   -3.2385   -0.2156 H   0  0  0  0  0  0  0  0  0  0  0  0
   -2.6362   -2.3395    1.0094 C   0  0  0  0  0  0  0  0  0  0  0  0
   -1.8292   -2.8395    1.7814 O   0  0  0  0  0  0  0  0  0  0  0  0
   -2.3832   -1.2445    0.2964 N   0  0  0  0  0  0  0  0  0  0  0  0
   -3.1102   -0.8685   -0.2946 H   0  0  0  0  0  0  0  0  0  0  0  0
   -1.1292   -0.4875    0.3524 C   0  0  1  0  0  0  0  0  0  0  0  0
   -0.3087   -1.1556    0.0882 H   0  0  0  0  0  0  0  0  0  0  0  0
   -1.1749    0.6534   -0.6787 C   0  0  0  0  0  0  0  0  0  0  0  0
   -0.1634    1.0305   -0.8350 H   0  0  0  0  0  0  0  0  0  0  0  0
   -1.5260    0.2545   -1.6318 H   0  0  0  0  0  0  0  0  0  0  0  0
   -2.0537    1.8192   -0.2682 C   0  0  0  0  0  0  0  0  0  0  0  0
   -1.5038    3.1090   -0.1257 C   0  0  0  0  0  0  0  0  0  0  0  0
   -0.4449    3.2665   -0.2839 H   0  0  0  0  0  0  0  0  0  0  0  0
   -2.3317    4.1960    0.2162 C   0  0  0  0  0  0  0  0  0  0  0  0
   -1.9069    5.1820    0.3260 H   0  0  0  0  0  0  0  0  0  0  0  0
   -3.7150    3.9926    0.4126 C   0  0  0  0  0  0  0  0  0  0  0  0
   -4.5223    5.0349    0.7397 O   0  0  0  0  0  0  0  0  0  0  0  0
   -4.0269    5.8394    0.8985 H   0  0  0  0  0  0  0  0  0  0  0  0
   -4.2644    2.7021    0.2648 C   0  0  0  0  0  0  0  0  0  0  0  0
   -5.3228    2.5585    0.4219 H   0  0  0  0  0  0  0  0  0  0  0  0
   -3.4335    1.6168   -0.0725 C   0  0  0  0  0  0  0  0  0  0  0  0
   -3.8548    0.6240   -0.1768 H   0  0  0  0  0  0  0  0  0  0  0  0
   -0.8664    0.0378    1.7736 C   0  0  0  0  0  0  0  0  0  0  0  0
    0.2529   -0.0672    2.2760 O   0  0  0  0  0  0  0  0  0  0  0  0
   -1.8947    0.5991    2.4221 N   0  0  0  0  0  0  0  0  0  0  0  0
   -2.7942    0.5936    1.9635 H   0  0  0  0  0  0  0  0  0  0  0  0
   -1.8170    1.1453    3.7750 C   0  0  0  0  0  0  0  0  0  0  0  0
   -0.9697    1.8290    3.8506 H   0  0  0  0  0  0  0  0  0  0  0  0
   -2.7354    1.6828    4.0167 H   0  0  0  0  0  0  0  0  0  0  0  0
   -1.6754    0.3334    4.4914 H   0  0  0  0  0  0  0  0  0  0  0  0
  5  6  2  0  0  0  0
  5  7  1  0  0  0  0
  2  3  1  0  0  0  0
  2  4  1  0  0  0  0
  2  5  1  0  0  0  0
  1  2  1  0  0  0  0
 26 27  2  0  0  0  0
 26 28  1  0  0  0  0
 24 25  1  0  0  0  0
 22 23  1  0  0  0  0
 22 24  2  0  0  0  0
 20 21  1  0  0  0  0
 19 20  1  0  0  0  0
 19 22  1  0  0  0  0
 17 18  1  0  0  0  0
 17 19  2  0  0  0  0
 15 16  1  0  0  0  0
 15 17  1  0  0  0  0
 14 15  2  0  0  0  0
 14 24  1  0  0  0  0
 11 12  1  0  0  0  0
 11 13  1  0  0  0  0
 11 14  1  0  0  0  0
  9 10  1  0  0  0  0
  9 11  1  0  0  0  0
  9 26  1  0  0  0  0
  7  8  1  0  0  0  0
  7  9  1  0  0  0  0
 30 31  1  0  0  0  0
 30 32  1  0  0  0  0
 30 33  1  0  0  0  0
 28 29  1  0  0  0  0
 28 30  1  0  0  0  0
M  END
$$$$
default_name
  -OEChem-02102213163D

 33 33  0     1  0  0  0  0  0999 V2000
   -4.0702   -3.8485    1.4554 H   0  0  0  0  0  0  0  0  0  0  0  0
   -4.0012   -2.9605    0.8284 C   0  0  0  0  0  0  0  0  0  0  0  0
   -4.7652   -2.2435    1.1234 H   0  0  0  0  0  0  0  0  0  0  0  0
   -4.1352   -3.2385   -0.2156 H   0  0  0  0  0  0  0  0  0  0  0  0
   -2.6362   -2.3395    1.0094 C   0  0  0  0  0  0  0  0  0  0  0  0
   -1.8292   -2.8395    1.7814 O   0  0  0  0  0  0  0  0  0  0  0  0
   -2.3832   -1.2445    0.2964 N   0  0  0  0  0  0  0  0  0  0  0  0
   -3.1102   -0.8685   -0.2946 H   0  0  0  0  0  0  0  0  0  0  0  0
   -1.1292   -0.4875    0.3524 C   0  0  1  0  0  0  0  0  0  0  0  0
   -0.3087   -1.1556    0.0882 H   0  0  0  0  0  0  0  0  0  0  0  0
   -1.1749    0.6534   -0.6787 C   0  0  0  0  0  0  0  0  0  0  0  0
   -0.1634    1.0305   -0.8350 H   0  0  0  0  0  0  0  0  0  0  0  0
   -1.5260    0.2545   -1.6318 H   0  0  0  0  0  0  0  0  0  0  0  0
   -2.0537    1.8192   -0.2682 C   0  0  0  0  0  0  0  0  0  0  0  0
   -1.5986    3.1436   -0.4268 C   0  0  0  0  0  0  0  0  0  0  0  0
   -0.6077    3.3321   -0.8189 H   0  0  0  0  0  0  0  0  0  0  0  0
   -2.4342    4.2237   -0.0819 C   0  0  0  0  0  0  0  0  0  0  0  0
   -2.0818    5.2365   -0.2033 H   0  0  0  0  0  0  0  0  0  0  0  0
   -3.7308    3.9780    0.4200 C   0  0  0  0  0  0  0  0  0  0  0  0
   -4.5454    5.0129    0.7528 O   0  0  0  0  0  0  0  0  0  0  0  0
   -4.0990    5.8583    0.6904 H   0  0  0  0  0  0  0  0  0  0  0  0
   -4.1864    2.6522    0.5735 C   0  0  0  0  0  0  0  0  0  0  0  0
   -5.1782    2.4772    0.9624 H   0  0  0  0  0  0  0  0  0  0  0  0
   -3.3472    1.5747    0.2322 C   0  0  0  0  0  0  0  0  0  0  0  0
   -3.6945    0.5562    0.3591 H   0  0  0  0  0  0  0  0  0  0  0  0
   -0.8664    0.0378    1.7736 C   0  0  0  0  0  0  0  0  0  0  0  0
    0.2529   -0.0672    2.2760 O   0  0  0  0  0  0  0  0  0  0  0  0
   -1.8947    0.5991    2.4221 N   0  0  0  0  0  0  0  0  0  0  0  0
   -2.7942    0.5936    1.9635 H   0  0  0  0  0  0  0  0  0  0  0  0
   -1.8170    1.1453    3.7750 C   0  0  0  0  0  0  0  0  0  0  0  0
   -0.9697    1.8290    3.8506 H   0  0  0  0  0  0  0  0  0  0  0  0
   -2.7354    1.6828    4.0167 H   0  0  0  0  0  0  0  0  0  0  0  0
   -1.6754    0.3334    4.4914 H   0  0  0  0  0  0  0  0  0  0  0  0
  5  6  2  0  0  0  0
  5  7  1  0  0  0  0
  2  3  1  0  0  0  0
  2  4  1  0  0  0  0
  2  5  1  0  0  0  0
  1  2  1  0  0  0  0
 26 27  2  0  0  0  0
 26 28  1  0  0  0  0
 24 25  1  0  0  0  0
 22 23  1  0  0  0  0
 22 24  2  0  0  0  0
 20 21  1  0  0  0  0
 19 20  1  0  0  0  0
 19 22  1  0  0  0  0
 17 18  1  0  0  0  0
 17 19  2  0  0  0  0
 15 16  1  0  0  0  0
 15 17  1  0  0  0  0
 14 15  2  0  0  0  0
 14 24  1  0  0  0  0
 11 12  1  0  0  0  0
 11 13  1  0  0  0  0
 11 14  1  0  0  0  0
  9 10  1  0  0  0  0
  9 11  1  0  0  0  0
  9 26  1  0  0  0  0
  7  8  1  0  0  0  0
  7  9  1  0  0  0  0
 30 31  1  0  0  0  0
 30 32  1  0  0  0  0
 30 33  1  0  0  0  0
 28 29  1  0  0  0  0
 28 30  1  0  0  0  0
M  END
$$$$
default_name
  -OEChem-02102213163D

 33 33  0     1  0  0  0  0  0999 V2000
   -4.0702   -3.8485    1.4554 H   0  0  0  0  0  0  0  0  0  0  0  0
   -4.0012   -2.9605    0.8284 C   0  0  0  0  0  0  0  0  0  0  0  0
   -4.7652   -2.2435    1.1234 H   0  0  0  0  0  0  0  0  0  0  0  0
   -4.1352   -3.2385   -0.2156 H   0  0  0  0  0  0  0  0  0  0  0  0
   -2.6362   -2.3395    1.0094 C   0  0  0  0  0  0  0  0  0  0  0  0
   -1.8292   -2.8395    1.7814 O   0  0  0  0  0  0  0  0  0  0  0  0
   -2.3832   -1.2445    0.2964 N   0  0  0  0  0  0  0  0  0  0  0  0
   -3.1102   -0.8685   -0.2946 H   0  0  0  0  0  0  0  0  0  0  0  0
   -1.1292   -0.4875    0.3524 C   0  0  1  0  0  0  0  0  0  0  0  0
   -0.3087   -1.1556    0.0882 H   0  0  0  0  0  0  0  0  0  0  0  0
   -1.1749    0.6534   -0.6787 C   0  0  0  0  0  0  0  0  0  0  0  0
   -0.1634    1.0305   -0.8350 H   0  0  0  0  0  0  0  0  0  0  0  0
   -1.5260    0.2545   -1.6318 H   0  0  0  0  0  0  0  0  0  0  0  0
   -2.0537    1.8192   -0.2682 C   0  0  0  0  0  0  0  0  0  0  0  0
   -1.7525    3.1252   -0.7041 C   0  0  0  0  0  0  0  0  0  0  0  0
   -0.8760    3.3039   -1.3131 H   0  0  0  0  0  0  0  0  0  0  0  0
   -2.5945    4.1986   -0.3536 C   0  0  0  0  0  0  0  0  0  0  0  0
   -2.3599    5.1975   -0.6878 H   0  0  0  0  0  0  0  0  0  0  0  0
   -3.7437    3.9640    0.4324 C   0  0  0  0  0  0  0  0  0  0  0  0
   -4.5636    4.9919    0.7733 O   0  0  0  0  0  0  0  0  0  0  0  0
   -4.2114    5.8403    0.5009 H   0  0  0  0  0  0  0  0  0  0  0  0
   -4.0462    2.6558    0.8636 C   0  0  0  0  0  0  0  0  0  0  0  0
   -4.9254    2.4898    1.4679 H   0  0  0  0  0  0  0  0  0  0  0  0
   -3.2002    1.5857    0.5156 C   0  0  0  0  0  0  0  0  0  0  0  0
   -3.4282    0.5823    0.8550 H   0  0  0  0  0  0  0  0  0  0  0  0
   -0.8664    0.0378    1.7736 C   0  0  0  0  0  0  0  0  0  0  0  0
    0.2529   -0.0672    2.2760 O   0  0  0  0  0  0  0  0  0  0  0  0
   -1.8947    0.5991    2.4221 N   0  0  0  0  0  0  0  0  0  0  0  0
   -2.7942    0.5936    1.9635 H   0  0  0  0  0  0  0  0  0  0  0  0
   -1.8170    1.1453    3.7750 C   0  0  0  0  0  0  0  0  0  0  0  0
   -0.9697    1.8290    3.8506 H   0  0  0  0  0  0  0  0  0  0  0  0
   -2.7354    1.6828    4.0167 H   0  0  0  0  0  0  0  0  0  0  0  0
   -1.6754    0.3334    4.4914 H   0  0  0  0  0  0  0  0  0  0  0  0
  5  6  2  0  0  0  0
  5  7  1  0  0  0  0
  2  3  1  0  0  0  0
  2  4  1  0  0  0  0
  2  5  1  0  0  0  0
  1  2  1  0  0  0  0
 26 27  2  0  0  0  0
 26 28  1  0  0  0  0
 24 25  1  0  0  0  0
 22 23  1  0  0  0  0
 22 24  2  0  0  0  0
 20 21  1  0  0  0  0
 19 20  1  0  0  0  0
 19 22  1  0  0  0  0
 17 18  1  0  0  0  0
 17 19  2  0  0  0  0
 15 16  1  0  0  0  0
 15 17  1  0  0  0  0
 14 15  2  0  0  0  0
 14 24  1  0  0  0  0
 11 12  1  0  0  0  0
 11 13  1  0  0  0  0
 11 14  1  0  0  0  0
  9 10  1  0  0  0  0
  9 11  1  0  0  0  0
  9 26  1  0  0  0  0
  7  8  1  0  0  0  0
  7  9  1  0  0  0  0
 30 31  1  0  0  0  0
 30 32  1  0  0  0  0
 30 33  1  0  0  0  0
 28 29  1  0  0  0  0
 28 30  1  0  0  0  0
M  END
$$$$
default_name
  -OEChem-02102213163D

 33 33  0     1  0  0  0  0  0999 V2000
   -4.0702   -3.8485    1.4554 H   0  0  0  0  0  0  0  0  0  0  0  0
   -4.0012   -2.9605    0.8284 C   0  0  0  0  0  0  0  0  0  0  0  0
   -4.7652   -2.2435    1.1234 H   0  0  0  0  0  0  0  0  0  0  0  0
   -4.1352   -3.2385   -0.2156 H   0  0  0  0  0  0  0  0  0  0  0  0
   -2.6362   -2.3395    1.0094 C   0  0  0  0  0  0  0  0  0  0  0  0
   -1.8292   -2.8395    1.7814 O   0  0  0  0  0  0  0  0  0  0  0  0
   -2.3832   -1.2445    0.2964 N   0  0  0  0  0  0  0  0  0  0  0  0
   -3.1102   -0.8685   -0.2946 H   0  0  0  0  0  0  0  0  0  0  0  0
   -1.1292   -0.4875    0.3524 C   0  0  1  0  0  0  0  0  0  0  0  0
   -0.3087   -1.1556    0.0882 H   0  0  0  0  0  0  0  0  0  0  0  0
   -1.1749    0.6534   -0.6787 C   0  0  0  0  0  0  0  0  0  0  0  0
   -0.1634    1.0305   -0.8350 H   0  0  0  0  0  0  0  0  0  0  0  0
   -1.5260    0.2545   -1.6318 H   0  0  0  0  0  0  0  0  0  0  0  0
   -2.0537    1.8192   -0.2682 C   0  0  0  0  0  0  0  0  0  0  0  0
   -1.9550    3.0550   -0.9384 C   0  0  0  0  0  0  0  0  0  0  0  0
   -1.2316    3.1837   -1.7328 H   0  0  0  0  0  0  0  0  0  0  0  0
   -2.8016    4.1223   -0.5804 C   0  0  0  0  0  0  0  0  0  0  0  0
   -2.7222    5.0677   -1.0947 H   0  0  0  0  0  0  0  0  0  0  0  0
   -3.7526    3.9514    0.4491 C   0  0  0  0  0  0  0  0  0  0  0  0
   -4.5756    4.9735    0.7998 O   0  0  0  0  0  0  0  0  0  0  0  0
   -4.3564    5.7866    0.3428 H   0  0  0  0  0  0  0  0  0  0  0  0
   -3.8533    2.7125    1.1155 C   0  0  0  0  0  0  0  0  0  0  0  0
   -4.5814    2.5955    1.9039 H   0  0  0  0  0  0  0  0  0  0  0  0
   -3.0026    1.6491    0.7584 C   0  0  0  0  0  0  0  0  0  0  0  0
   -3.0742    0.7005    1.2771 H   0  0  0  0  0  0  0  0  0  0  0  0
   -0.8664    0.0378    1.7736 C   0  0  0  0  0  0  0  0  0  0  0  0
    0.2529   -0.0672    2.2760 O   0  0  0  0  0  0  0  0  0  0  0  0
   -1.8947    0.5991    2.4221 N   0  0  0  0  0  0  0  0  0  0  0  0
   -2.7942    0.5936    1.9635 H   0  0  0  0  0  0  0  0  0  0  0  0
   -1.8170    1.1453    3.7750 C   0  0  0  0  0  0  0  0  0  0  0  0
   -0.9697    1.8290    3.8506 H   0  0  0  0  0  0  0  0  0  0  0  0
   -2.7354    1.6828    4.0167 H   0  0  0  0  0  0  0  0  0  0  0  0
   -1.6754    0.3334    4.4914 H   0  0  0  0  0  0  0  0  0  0  0  0
  5  6  2  0  0  0  0
  5  7  1  0  0  0  0
  2  3  1  0  0  0  0
  2  4  1  0  0  0  0
  2  5  1  0  0  0  0
  1  2  1  0  0  0  0
 26 27  2  0  0  0  0
 26 28  1  0  0  0  0
 24 25  1  0  0  0  0
 22 23  1  0  0  0  0
 22 24  2  0  0  0  0
 20 21  1  0  0  0  0
 19 20  1  0  0  0  0
 19 22  1  0  0  0  0
 17 18  1  0  0  0  0
 17 19  2  0  0  0  0
 15 16  1  0  0  0  0
 15 17  1  0  0  0  0
 14 15  2  0  0  0  0
 14 24  1  0  0  0  0
 11 12  1  0  0  0  0
 11 13  1  0  0  0  0
 11 14  1  0  0  0  0
  9 10  1  0  0  0  0
  9 11  1  0  0  0  0
  9 26  1  0  0  0  0
  7  8  1  0  0  0  0
  7  9  1  0  0  0  0
 30 31  1  0  0  0  0
 30 32  1  0  0  0  0
 30 33  1  0  0  0  0
 28 29  1  0  0  0  0
 28 30  1  0  0  0  0
M  END
$$$$
default_name
  -OEChem-02102213163D

 33 33  0     1  0  0  0  0  0999 V2000
   -4.0702   -3.8485    1.4554 H   0  0  0  0  0  0  0  0  0  0  0  0
   -4.0012   -2.9605    0.8284 C   0  0  0  0  0  0  0  0  0  0  0  0
   -4.7652   -2.2435    1.1234 H   0  0  0  0  0  0  0  0  0  0  0  0
   -4.1352   -3.2385   -0.2156 H   0  0  0  0  0  0  0  0  0  0  0  0
   -2.6362   -2.3395    1.0094 C   0  0  0  0  0  0  0  0  0  0  0  0
   -1.8292   -2.8395    1.7814 O   0  0  0  0  0  0  0  0  0  0  0  0
   -2.3832   -1.2445    0.2964 N   0  0  0  0  0  0  0  0  0  0  0  0
   -3.1102   -0.8685   -0.2946 H   0  0  0  0  0  0  0  0  0  0  0  0
   -1.1292   -0.4875    0.3524 C   0  0  1  0  0  0  0  0  0  0  0  0
   -0.3087   -1.1556    0.0882 H   0  0  0  0  0  0  0  0  0  0  0  0
   -1.1749    0.6534   -0.6787 C   0  0  0  0  0  0  0  0  0  0  0  0
   -0.1629    0.8500   -1.0348 H   0  0  0  0  0  0  0  0  0  0  0  0
   -1.7665    0.3306   -1.5370 H   0  0  0  0  0  0  0  0  0  0  0  0
   -1.7434    1.9506   -0.1365 C   0  0  0  0  0  0  0  0  0  0  0  0
   -1.8471    3.0842   -0.9675 C   0  0  0  0  0  0  0  0  0  0  0  0
   -1.4962    3.0395   -1.9902 H   0  0  0  0  0  0  0  0  0  0  0  0
   -2.4130    4.2746   -0.4710 C   0  0  0  0  0  0  0  0  0  0  0  0
   -2.4894    5.1411   -1.1096 H   0  0  0  0  0  0  0  0  0  0  0  0
   -2.8803    4.3299    0.8603 C   0  0  0  0  0  0  0  0  0  0  0  0
   -3.4303    5.4722    1.3476 O   0  0  0  0  0  0  0  0  0  0  0  0
   -3.3639    6.1986    0.7264 H   0  0  0  0  0  0  0  0  0  0  0  0
   -2.7802    3.1931    1.6889 C   0  0  0  0  0  0  0  0  0  0  0  0
   -3.1370    3.2492    2.7063 H   0  0  0  0  0  0  0  0  0  0  0  0
   -2.2098    2.0061    1.1911 C   0  0  0  0  0  0  0  0  0  0  0  0
   -2.1248    1.1360    1.8312 H   0  0  0  0  0  0  0  0  0  0  0  0
   -0.8664    0.0378    1.7736 C   0  0  0  0  0  0  0  0  0  0  0  0
    0.2529   -0.0672    2.2760 O   0  0  0  0  0  0  0  0  0  0  0  0
   -1.8947    0.5991    2.4221 N   0  0  0  0  0  0  0  0  0  0  0  0
   -2.7942    0.5936    1.9635 H   0  0  0  0  0  0  0  0  0  0  0  0
   -1.8170    1.1453    3.7750 C   0  0  0  0  0  0  0  0  0  0  0  0
   -0.9697    1.8290    3.8506 H   0  0  0  0  0  0  0  0  0  0  0  0
   -2.7354    1.6828    4.0167 H   0  0  0  0  0  0  0  0  0  0  0  0
   -1.6754    0.3334    4.4914 H   0  0  0  0  0  0  0  0  0  0  0  0
  5  6  2  0  0  0  0
  5  7  1  0  0  0  0
  2  3  1  0  0  0  0
  2  4  1  0  0  0  0
  2  5  1  0  0  0  0
  1  2  1  0  0  0  0
 26 27  2  0  0  0  0
 26 28  1  0  0  0  0
 24 25  1  0  0  0  0
 22 23  1  0  0  0  0
 22 24  2  0  0  0  0
 20 21  1  0  0  0  0
 19 20  1  0  0  0  0
 19 22  1  0  0  0  0
 17 18  1  0  0  0  0
 17 19  2  0  0  0  0
 15 16  1  0  0  0  0
 15 17  1  0  0  0  0
 14 15  2  0  0  0  0
 14 24  1  0  0  0  0
 11 12  1  0  0  0  0
 11 13  1  0  0  0  0
 11 14  1  0  0  0  0
  9 10  1  0  0  0  0
  9 11  1  0  0  0  0
  9 26  1  0  0  0  0
  7  8  1  0  0  0  0
  7  9  1  0  0  0  0
 30 31  1  0  0  0  0
 30 32  1  0  0  0  0
 30 33  1  0  0  0  0
 28 29  1  0  0  0  0
 28 30  1  0  0  0  0
M  END
$$$$
default_name
  -OEChem-02102213163D

 33 33  0     1  0  0  0  0  0999 V2000
   -4.0702   -3.8485    1.4554 H   0  0  0  0  0  0  0  0  0  0  0  0
   -4.0012   -2.9605    0.8284 C   0  0  0  0  0  0  0  0  0  0  0  0
   -4.7652   -2.2435    1.1234 H   0  0  0  0  0  0  0  0  0  0  0  0
   -4.1352   -3.2385   -0.2156 H   0  0  0  0  0  0  0  0  0  0  0  0
   -2.6362   -2.3395    1.0094 C   0  0  0  0  0  0  0  0  0  0  0  0
   -1.8292   -2.8395    1.7814 O   0  0  0  0  0  0  0  0  0  0  0  0
   -2.3832   -1.2445    0.2964 N   0  0  0  0  0  0  0  0  0  0  0  0
   -3.1102   -0.8685   -0.2946 H   0  0  0  0  0  0  0  0  0  0  0  0
   -1.1292   -0.4875    0.3524 C   0  0  1  0  0  0  0  0  0  0  0  0
   -0.3087   -1.1556    0.0882 H   0  0  0  0  0  0  0  0  0  0  0  0
   -1.1749    0.6534   -0.6787 C   0  0  0  0  0  0  0  0  0  0  0  0
   -0.1629    0.8500   -1.0348 H   0  0  0  0  0  0  0  0  0  0  0  0
   -1.7665    0.3306   -1.5370 H   0  0  0  0  0  0  0  0  0  0  0  0
   -1.7434    1.9506   -0.1365 C   0  0  0  0  0  0  0  0  0  0  0  0
   -2.1415    2.9761   -1.0175 C   0  0  0  0  0  0  0  0  0  0  0  0
   -2.0180    2.8506   -2.0853 H   0  0  0  0  0  0  0  0  0  0  0  0
   -2.7064    4.1627   -0.5110 C   0  0  0  0  0  0  0  0  0  0  0  0
   -3.0086    4.9465   -1.1884 H   0  0  0  0  0  0  0  0  0  0  0  0
   -2.8770    4.3224    0.8815 C   0  0  0  0  0  0  0  0  0  0  0  0
   -3.4235    5.4618    1.3797 O   0  0  0  0  0  0  0  0  0  0  0  0
   -3.5689    6.1202    0.6991 H   0  0  0  0  0  0  0  0  0  0  0  0
   -2.4826    3.2932    1.7613 C   0  0  0  0  0  0  0  0  0  0  0  0
   -2.6141    3.4290    2.8243 H   0  0  0  0  0  0  0  0  0  0  0  0
   -1.9140    2.1102    1.2522 C   0  0  0  0  0  0  0  0  0  0  0  0
   -1.6027    1.3237    1.9294 H   0  0  0  0  0  0  0  0  0  0  0  0
   -0.8664    0.0378    1.7736 C   0  0  0  0  0  0  0  0  0  0  0  0
    0.2529   -0.0672    2.2760 O   0  0  0  0  0  0  0  0  0  0  0  0
   -1.8947    0.5991    2.4221 N   0  0  0  0  0  0  0  0  0  0  0  0
   -2.7942    0.5936    1.9635 H   0  0  0  0  0  0  0  0  0  0  0  0
   -1.8170    1.1453    3.7750 C   0  0  0  0  0  0  0  0  0  0  0  0
   -0.9697    1.8290    3.8506 H   0  0  0  0  0  0  0  0  0  0  0  0
   -2.7354    1.6828    4.0167 H   0  0  0  0  0  0  0  0  0  0  0  0
   -1.6754    0.3334    4.4914 H   0  0  0  0  0  0  0  0  0  0  0  0
  5  6  2  0  0  0  0
  5  7  1  0  0  0  0
  2  3  1  0  0  0  0
  2  4  1  0  0  0  0
  2  5  1  0  0  0  0
  1  2  1  0  0  0  0
 26 27  2  0  0  0  0
 26 28  1  0  0  0  0
 24 25  1  0  0  0  0
 22 23  1  0  0  0  0
 22 24  2  0  0  0  0
 20 21  1  0  0  0  0
 19 20  1  0  0  0  0
 19 22  1  0  0  0  0
 17 18  1  0  0  0  0
 17 19  2  0  0  0  0
 15 16  1  0  0  0  0
 15 17  1  0  0  0  0
 14 15  2  0  0  0  0
 14 24  1  0  0  0  0
 11 12  1  0  0  0  0
 11 13  1  0  0  0  0
 11 14  1  0  0  0  0
  9 10  1  0  0  0  0
  9 11  1  0  0  0  0
  9 26  1  0  0  0  0
  7  8  1  0  0  0  0
  7  9  1  0  0  0  0
 30 31  1  0  0  0  0
 30 32  1  0  0  0  0
 30 33  1  0  0  0  0
 28 29  1  0  0  0  0
 28 30  1  0  0  0  0
M  END
$$$$
default_name
  -OEChem-02102213163D

 33 33  0     1  0  0  0  0  0999 V2000
   -4.0702   -3.8485    1.4554 H   0  0  0  0  0  0  0  0  0  0  0  0
   -4.0012   -2.9605    0.8284 C   0  0  0  0  0  0  0  0  0  0  0  0
   -4.7652   -2.2435    1.1234 H   0  0  0  0  0  0  0  0  0  0  0  0
   -4.1352   -3.2385   -0.2156 H   0  0  0  0  0  0  0  0  0  0  0  0
   -2.6362   -2.3395    1.0094 C   0  0  0  0  0  0  0  0  0  0  0  0
   -1.8292   -2.8395    1.7814 O   0  0  0  0  0  0  0  0  0  0  0  0
   -2.3832   -1.2445    0.2964 N   0  0  0  0  0  0  0  0  0  0  0  0
   -3.1102   -0.8685   -0.2946 H   0  0  0  0  0  0  0  0  0  0  0  0
   -1.1292   -0.4875    0.3524 C   0  0  1  0  0  0  0  0  0  0  0  0
   -0.3087   -1.1556    0.0882 H   0  0  0  0  0  0  0  0  0  0  0  0
   -1.1749    0.6534   -0.6787 C   0  0  0  0  0  0  0  0  0  0  0  0
   -0.1629    0.8500   -1.0348 H   0  0  0  0  0  0  0  0  0  0  0  0
   -1.7665    0.3306   -1.5370 H   0  0  0  0  0  0  0  0  0  0  0  0
   -1.7434    1.9506   -0.1365 C   0  0  0  0  0  0  0  0  0  0  0  0
   -2.4269    2.8396   -0.9902 C   0  0  0  0  0  0  0  0  0  0  0  0
   -2.5256    2.6106   -2.0432 H   0  0  0  0  0  0  0  0  0  0  0  0
   -2.9882    4.0237   -0.4738 C   0  0  0  0  0  0  0  0  0  0  0  0
   -3.5096    4.7029   -1.1307 H   0  0  0  0  0  0  0  0  0  0  0  0
   -2.8685    4.3176    0.9020 C   0  0  0  0  0  0  0  0  0  0  0  0
   -3.4088    5.4555    1.4103 O   0  0  0  0  0  0  0  0  0  0  0  0
   -3.7656    6.0229    0.7257 H   0  0  0  0  0  0  0  0  0  0  0  0
   -2.1883    3.4245    1.7557 C   0  0  0  0  0  0  0  0  0  0  0  0
   -2.0996    3.6625    2.8050 H   0  0  0  0  0  0  0  0  0  0  0  0
   -1.6244    2.2440    1.2357 C   0  0  0  0  0  0  0  0  0  0  0  0
   -1.0941    1.5629    1.8905 H   0  0  0  0  0  0  0  0  0  0  0  0
   -0.8664    0.0378    1.7736 C   0  0  0  0  0  0  0  0  0  0  0  0
    0.2529   -0.0672    2.2760 O   0  0  0  0  0  0  0  0  0  0  0  0
   -1.8947    0.5991    2.4221 N   0  0  0  0  0  0  0  0  0  0  0  0
   -2.7942    0.5936    1.9635 H   0  0  0  0  0  0  0  0  0  0  0  0
   -1.8170    1.1453    3.7750 C   0  0  0  0  0  0  0  0  0  0  0  0
   -0.9697    1.8290    3.8506 H   0  0  0  0  0  0  0  0  0  0  0  0
   -2.7354    1.6828    4.0167 H   0  0  0  0  0  0  0  0  0  0  0  0
   -1.6754    0.3334    4.4914 H   0  0  0  0  0  0  0  0  0  0  0  0
  5  6  2  0  0  0  0
  5  7  1  0  0  0  0
  2  3  1  0  0  0  0
  2  4  1  0  0  0  0
  2  5  1  0  0  0  0
  1  2  1  0  0  0  0
 26 27  2  0  0  0  0
 26 28  1  0  0  0  0
 24 25  1  0  0  0  0
 22 23  1  0  0  0  0
 22 24  2  0  0  0  0
 20 21  1  0  0  0  0
 19 20  1  0  0  0  0
 19 22  1  0  0  0  0
 17 18  1  0  0  0  0
 17 19  2  0  0  0  0
 15 16  1  0  0  0  0
 15 17  1  0  0  0  0
 14 15  2  0  0  0  0
 14 24  1  0  0  0  0
 11 12  1  0  0  0  0
 11 13  1  0  0  0  0
 11 14  1  0  0  0  0
  9 10  1  0  0  0  0
  9 11  1  0  0  0  0
  9 26  1  0  0  0  0
  7  8  1  0  0  0  0
  7  9  1  0  0  0  0
 30 31  1  0  0  0  0
 30 32  1  0  0  0  0
 30 33  1  0  0  0  0
 28 29  1  0  0  0  0
 28 30  1  0  0  0  0
M  END
$$$$
default_name
  -OEChem-02102213163D

 33 33  0     1  0  0  0  0  0999 V2000
   -4.0702   -3.8485    1.4554 H   0  0  0  0  0  0  0  0  0  0  0  0
   -4.0012   -2.9605    0.8284 C   0  0  0  0  0  0  0  0  0  0  0  0
   -4.7652   -2.2435    1.1234 H   0  0  0  0  0  0  0  0  0  0  0  0
   -4.1352   -3.2385   -0.2156 H   0  0  0  0  0  0  0  0  0  0  0  0
   -2.6362   -2.3395    1.0094 C   0  0  0  0  0  0  0  0  0  0  0  0
   -1.8292   -2.8395    1.7814 O   0  0  0  0  0  0  0  0  0  0  0  0
   -2.3832   -1.2445    0.2964 N   0  0  0  0  0  0  0  0  0  0  0  0
   -3.1102   -0.8685   -0.2946 H   0  0  0  0  0  0  0  0  0  0  0  0
   -1.1292   -0.4875    0.3524 C   0  0  1  0  0  0  0  0  0  0  0  0
   -0.3087   -1.1556    0.0882 H   0  0  0  0  0  0  0  0  0  0  0  0
   -1.1749    0.6534   -0.6787 C   0  0  0  0  0  0  0  0  0  0  0  0
   -0.1629    0.8500   -1.0348 H   0  0  0  0  0  0  0  0  0  0  0  0
   -1.7665    0.3306   -1.5370 H   0  0  0  0  0  0  0  0  0  0  0  0
   -1.7434    1.9506   -0.1365 C   0  0  0  0  0  0  0  0  0  0  0  0
   -2.6840    2.6839   -0.8873 C   0  0  0  0  0  0  0  0  0  0  0  0
   -2.9844    2.3359   -1.8670 H   0  0  0  0  0  0  0  0  0  0  0  0
   -3.2394    3.8669   -0.3620 C   0  0  0  0  0  0  0  0  0  0  0  0
   -3.9582    4.4268   -0.9404 H   0  0  0  0  0  0  0  0  0  0  0  0
   -2.8552    4.3157    0.9204 C   0  0  0  0  0  0  0  0  0  0  0  0
   -3.3872    5.4537    1.4371 O   0  0  0  0  0  0  0  0  0  0  0  0
   -3.9407    5.9133    0.8043 H   0  0  0  0  0  0  0  0  0  0  0  0
   -1.9175    3.5780    1.6724 C   0  0  0  0  0  0  0  0  0  0  0  0
   -1.6285    3.9338    2.6499 H   0  0  0  0  0  0  0  0  0  0  0  0
   -1.3608    2.3985    1.1427 C   0  0  0  0  0  0  0  0  0  0  0  0
   -0.6335    1.8372    1.7172 H   0  0  0  0  0  0  0  0  0  0  0  0
   -0.8664    0.0378    1.7736 C   0  0  0  0  0  0  0  0  0  0  0  0
    0.2529   -0.0672    2.2760 O   0  0  0  0  0  0  0  0  0  0  0  0
   -1.8947    0.5991    2.4221 N   0  0  0  0  0  0  0  0  0  0  0  0
   -2.7942    0.5936    1.9635 H   0  0  0  0  0  0  0  0  0  0  0  0
   -1.8170    1.1453    3.7750 C   0  0  0  0  0  0  0  0  0  0  0  0
   -0.9697    1.8290    3.8506 H   0  0  0  0  0  0  0  0  0  0  0  0
   -2.7354    1.6828    4.0167 H   0  0  0  0  0  0  0  0  0  0  0  0
   -1.6754    0.3334    4.4914 H   0  0  0  0  0  0  0  0  0  0  0  0
  5  6  2  0  0  0  0
  5  7  1  0  0  0  0
  2  3  1  0  0  0  0
  2  4  1  0  0  0  0
  2  5  1  0  0  0  0
  1  2  1  0  0  0  0
 26 27  2  0  0  0  0
 26 28  1  0  0  0  0
 24 25  1  0  0  0  0
 22 23  1  0  0  0  0
 22 24  2  0  0  0  0
 20 21  1  0  0  0  0
 19 20  1  0  0  0  0
 19 22  1  0  0  0  0
 17 18  1  0  0  0  0
 17 19  2  0  0  0  0
 15 16  1  0  0  0  0
 15 17  1  0  0  0  0
 14 15  2  0  0  0  0
 14 24  1  0  0  0  0
 11 12  1  0  0  0  0
 11 13  1  0  0  0  0
 11 14  1  0  0  0  0
  9 10  1  0  0  0  0
  9 11  1  0  0  0  0
  9 26  1  0  0  0  0
  7  8  1  0  0  0  0
  7  9  1  0  0  0  0
 30 31  1  0  0  0  0
 30 32  1  0  0  0  0
 30 33  1  0  0  0  0
 28 29  1  0  0  0  0
 28 30  1  0  0  0  0
M  END
$$$$
default_name
  -OEChem-02102213163D

 33 33  0     1  0  0  0  0  0999 V2000
   -4.0702   -3.8485    1.4554 H   0  0  0  0  0  0  0  0  0  0  0  0
   -4.0012   -2.9605    0.8284 C   0  0  0  0  0  0  0  0  0  0  0  0
   -4.7652   -2.2435    1.1234 H   0  0  0  0  0  0  0  0  0  0  0  0
   -4.1352   -3.2385   -0.2156 H   0  0  0  0  0  0  0  0  0  0  0  0
   -2.6362   -2.3395    1.0094 C   0  0  0  0  0  0  0  0  0  0  0  0
   -1.8292   -2.8395    1.7814 O   0  0  0  0  0  0  0  0  0  0  0  0
   -2.3832   -1.2445    0.2964 N   0  0  0  0  0  0  0  0  0  0  0  0
   -3.1102   -0.8685   -0.2946 H   0  0  0  0  0  0  0  0  0  0  0  0
   -1.1292   -0.4875    0.3524 C   0  0  1  0  0  0  0  0  0  0  0  0
   -0.3087   -1.1556    0.0882 H   0  0  0  0  0  0  0  0  0  0  0  0
   -1.1749    0.6534   -0.6787 C   0  0  0  0  0  0  0  0  0  0  0  0
   -0.1629    0.8500   -1.0348 H   0  0  0  0  0  0  0  0  0  0  0  0
   -1.7665    0.3306   -1.5370 H   0  0  0  0  0  0  0  0  0  0  0  0
   -1.7434    1.9506   -0.1365 C   0  0  0  0  0  0  0  0  0  0  0  0
   -2.8951    2.5198   -0.7160 C   0  0  0  0  0  0  0  0  0  0  0  0
   -3.3631    2.0452   -1.5685 H   0  0  0  0  0  0  0  0  0  0  0  0
   -3.4427    3.7031   -0.1832 C   0  0  0  0  0  0  0  0  0  0  0  0
   -4.3238    4.1370   -0.6305 H   0  0  0  0  0  0  0  0  0  0  0  0
   -2.8382    4.3169    0.9354 C   0  0  0  0  0  0  0  0  0  0  0  0
   -3.3603    5.4566    1.4584 O   0  0  0  0  0  0  0  0  0  0  0  0
   -4.0824    5.7988    0.9297 H   0  0  0  0  0  0  0  0  0  0  0  0
   -1.6886    3.7433    1.5170 C   0  0  0  0  0  0  0  0  0  0  0  0
   -1.2329    4.2244    2.3694 H   0  0  0  0  0  0  0  0  0  0  0  0
   -1.1409    2.5630    0.9794 C   0  0  0  0  0  0  0  0  0  0  0  0
   -0.2523    2.1280    1.4211 H   0  0  0  0  0  0  0  0  0  0  0  0
   -0.8664    0.0378    1.7736 C   0  0  0  0  0  0  0  0  0  0  0  0
    0.2529   -0.0672    2.2760 O   0  0  0  0  0  0  0  0  0  0  0  0
   -1.8947    0.5991    2.4221 N   0  0  0  0  0  0  0  0  0  0  0  0
   -2.7942    0.5936    1.9635 H   0  0  0  0  0  0  0  0  0  0  0  0
   -1.8170    1.1453    3.7750 C   0  0  0  0  0  0  0  0  0  0  0  0
   -0.9697    1.8290    3.8506 H   0  0  0  0  0  0  0  0  0  0  0  0
   -2.7354    1.6828    4.0167 H   0  0  0  0  0  0  0  0  0  0  0  0
   -1.6754    0.3334    4.4914 H   0  0  0  0  0  0  0  0  0  0  0  0
  5  6  2  0  0  0  0
  5  7  1  0  0  0  0
  2  3  1  0  0  0  0
  2  4  1  0  0  0  0
  2  5  1  0  0  0  0
  1  2  1  0  0  0  0
 26 27  2  0  0  0  0
 26 28  1  0  0  0  0
 24 25  1  0  0  0  0
 22 23  1  0  0  0  0
 22 24  2  0  0  0  0
 20 21  1  0  0  0  0
 19 20  1  0  0  0  0
 19 22  1  0  0  0  0
 17 18  1  0  0  0  0
 17 19  2  0  0  0  0
 15 16  1  0  0  0  0
 15 17  1  0  0  0  0
 14 15  2  0  0  0  0
 14 24  1  0  0  0  0
 11 12  1  0  0  0  0
 11 13  1  0  0  0  0
 11 14  1  0  0  0  0
  9 10  1  0  0  0  0
  9 11  1  0  0  0  0
  9 26  1  0  0  0  0
  7  8  1  0  0  0  0
  7  9  1  0  0  0  0
 30 31  1  0  0  0  0
 30 32  1  0  0  0  0
 30 33  1  0  0  0  0
 28 29  1  0  0  0  0
 28 30  1  0  0  0  0
M  END
$$$$
default_name
  -OEChem-02102213163D

 33 33  0     1  0  0  0  0  0999 V2000
   -4.0702   -3.8485    1.4554 H   0  0  0  0  0  0  0  0  0  0  0  0
   -4.0012   -2.9605    0.8284 C   0  0  0  0  0  0  0  0  0  0  0  0
   -4.7652   -2.2435    1.1234 H   0  0  0  0  0  0  0  0  0  0  0  0
   -4.1352   -3.2385   -0.2156 H   0  0  0  0  0  0  0  0  0  0  0  0
   -2.6362   -2.3395    1.0094 C   0  0  0  0  0  0  0  0  0  0  0  0
   -1.8292   -2.8395    1.7814 O   0  0  0  0  0  0  0  0  0  0  0  0
   -2.3832   -1.2445    0.2964 N   0  0  0  0  0  0  0  0  0  0  0  0
   -3.1102   -0.8685   -0.2946 H   0  0  0  0  0  0  0  0  0  0  0  0
   -1.1292   -0.4875    0.3524 C   0  0  1  0  0  0  0  0  0  0  0  0
   -0.3087   -1.1556    0.0882 H   0  0  0  0  0  0  0  0  0  0  0  0
   -1.1749    0.6534   -0.6787 C   0  0  0  0  0  0  0  0  0  0  0  0
   -0.1629    0.8500   -1.0348 H   0  0  0  0  0  0  0  0  0  0  0  0
   -1.7665    0.3306   -1.5370 H   0  0  0  0  0  0  0  0  0  0  0  0
   -1.7434    1.9506   -0.1365 C   0  0  0  0  0  0  0  0  0  0  0  0
   -3.0459    2.3584   -0.4878 C   0  0  0  0  0  0  0  0  0  0  0  0
   -3.6359    1.7583   -1.1681 H   0  0  0  0  0  0  0  0  0  0  0  0
   -3.5844    3.5434    0.0504 C   0  0  0  0  0  0  0  0  0  0  0  0
   -4.5815    3.8534   -0.2221 H   0  0  0  0  0  0  0  0  0  0  0  0
   -2.8185    4.3211    0.9460 C   0  0  0  0  0  0  0  0  0  0  0  0
   -3.3299    5.4640    1.4728 O   0  0  0  0  0  0  0  0  0  0  0  0
   -4.1808    5.6873    1.0933 H   0  0  0  0  0  0  0  0  0  0  0  0
   -1.5171    3.9090    1.3003 C   0  0  0  0  0  0  0  0  0  0  0  0
   -0.9397    4.5145    1.9826 H   0  0  0  0  0  0  0  0  0  0  0  0
   -0.9800    2.7265    0.7571 C   0  0  0  0  0  0  0  0  0  0  0  0
    0.0234    2.4154    1.0225 H   0  0  0  0  0  0  0  0  0  0  0  0
   -0.8664    0.0378    1.7736 C   0  0  0  0  0  0  0  0  0  0  0  0
    0.2529   -0.0672    2.2760 O   0  0  0  0  0  0  0  0  0  0  0  0
   -1.8947    0.5991    2.4221 N   0  0  0  0  0  0  0  0  0  0  0  0
   -2.7942    0.5936    1.9635 H   0  0  0  0  0  0  0  0  0  0  0  0
   -1.8170    1.1453    3.7750 C   0  0  0  0  0  0  0  0  0  0  0  0
   -0.9697    1.8290    3.8506 H   0  0  0  0  0  0  0  0  0  0  0  0
   -2.7354    1.6828    4.0167 H   0  0  0  0  0  0  0  0  0  0  0  0
   -1.6754    0.3334    4.4914 H   0  0  0  0  0  0  0  0  0  0  0  0
  5  6  2  0  0  0  0
  5  7  1  0  0  0  0
  2  3  1  0  0  0  0
  2  4  1  0  0  0  0
  2  5  1  0  0  0  0
  1  2  1  0  0  0  0
 26 27  2  0  0  0  0
 26 28  1  0  0  0  0
 24 25  1  0  0  0  0
 22 23  1  0  0  0  0
 22 24  2  0  0  0  0
 20 21  1  0  0  0  0
 19 20  1  0  0  0  0
 19 22  1  0  0  0  0
 17 18  1  0  0  0  0
 17 19  2  0  0  0  0
 15 16  1  0  0  0  0
 15 17  1  0  0  0  0
 14 15  2  0  0  0  0
 14 24  1  0  0  0  0
 11 12  1  0  0  0  0
 11 13  1  0  0  0  0
 11 14  1  0  0  0  0
  9 10  1  0  0  0  0
  9 11  1  0  0  0  0
  9 26  1  0  0  0  0
  7  8  1  0  0  0  0
  7  9  1  0  0  0  0
 30 31  1  0  0  0  0
 30 32  1  0  0  0  0
 30 33  1  0  0  0  0
 28 29  1  0  0  0  0
 28 30  1  0  0  0  0
M  END
$$$$
default_name
  -OEChem-02102213163D

 33 33  0     1  0  0  0  0  0999 V2000
   -4.0702   -3.8485    1.4554 H   0  0  0  0  0  0  0  0  0  0  0  0
   -4.0012   -2.9605    0.8284 C   0  0  0  0  0  0  0  0  0  0  0  0
   -4.7652   -2.2435    1.1234 H   0  0  0  0  0  0  0  0  0  0  0  0
   -4.1352   -3.2385   -0.2156 H   0  0  0  0  0  0  0  0  0  0  0  0
   -2.6362   -2.3395    1.0094 C   0  0  0  0  0  0  0  0  0  0  0  0
   -1.8292   -2.8395    1.7814 O   0  0  0  0  0  0  0  0  0  0  0  0
   -2.3832   -1.2445    0.2964 N   0  0  0  0  0  0  0  0  0  0  0  0
   -3.1102   -0.8685   -0.2946 H   0  0  0  0  0  0  0  0  0  0  0  0
   -1.1292   -0.4875    0.3524 C   0  0  1  0  0  0  0  0  0  0  0  0
   -0.3087   -1.1556    0.0882 H   0  0  0  0  0  0  0  0  0  0  0  0
   -1.1749    0.6534   -0.6787 C   0  0  0  0  0  0  0  0  0  0  0  0
   -0.1629    0.8500   -1.0348 H   0  0  0  0  0  0  0  0  0  0  0  0
   -1.7665    0.3306   -1.5370 H   0  0  0  0  0  0  0  0  0  0  0  0
   -1.7434    1.9506   -0.1365 C   0  0  0  0  0  0  0  0  0  0  0  0
   -3.1261    2.2106   -0.2184 C   0  0  0  0  0  0  0  0  0  0  0  0
   -3.7843    1.4948   -0.6932 H   0  0  0  0  0  0  0  0  0  0  0  0
   -3.6547    3.3986    0.3229 C   0  0  0  0  0  0  0  0  0  0  0  0
   -4.7138    3.5952    0.2570 H   0  0  0  0  0  0  0  0  0  0  0  0
   -2.7975    4.3280    0.9515 C   0  0  0  0  0  0  0  0  0  0  0  0
   -3.2979    5.4753    1.4792 O   0  0  0  0  0  0  0  0  0  0  0  0
   -4.2293    5.5864    1.2839 H   0  0  0  0  0  0  0  0  0  0  0  0
   -1.4148    4.0639    1.0369 C   0  0  0  0  0  0  0  0  0  0  0  0
   -0.7690    4.7843    1.5161 H   0  0  0  0  0  0  0  0  0  0  0  0
   -0.8889    2.8777    0.4909 C   0  0  0  0  0  0  0  0  0  0  0  0
    0.1749    2.6798    0.5486 H   0  0  0  0  0  0  0  0  0  0  0  0
   -0.8664    0.0378    1.7736 C   0  0  0  0  0  0  0  0  0  0  0  0
    0.2529   -0.0672    2.2760 O   0  0  0  0  0  0  0  0  0  0  0  0
   -1.8947    0.5991    2.4221 N   0  0  0  0  0  0  0  0  0  0  0  0
   -2.7942    0.5936    1.9635 H   0  0  0  0  0  0  0  0  0  0  0  0
   -1.8170    1.1453    3.7750 C   0  0  0  0  0  0  0  0  0  0  0  0
   -0.9697    1.8290    3.8506 H   0  0  0  0  0  0  0  0  0  0  0  0
   -2.7354    1.6828    4.0167 H   0  0  0  0  0  0  0  0  0  0  0  0
   -1.6754    0.3334    4.4914 H   0  0  0  0  0  0  0  0  0  0  0  0
  5  6  2  0  0  0  0
  5  7  1  0  0  0  0
  2  3  1  0  0  0  0
  2  4  1  0  0  0  0
  2  5  1  0  0  0  0
  1  2  1  0  0  0  0
 26 27  2  0  0  0  0
 26 28  1  0  0  0  0
 24 25  1  0  0  0  0
 22 23  1  0  0  0  0
 22 24  2  0  0  0  0
 20 21  1  0  0  0  0
 19 20  1  0  0  0  0
 19 22  1  0  0  0  0
 17 18  1  0  0  0  0
 17 19  2  0  0  0  0
 15 16  1  0  0  0  0
 15 17  1  0  0  0  0
 14 15  2  0  0  0  0
 14 24  1  0  0  0  0
 11 12  1  0  0  0  0
 11 13  1  0  0  0  0
 11 14  1  0  0  0  0
  9 10  1  0  0  0  0
  9 11  1  0  0  0  0
  9 26  1  0  0  0  0
  7  8  1  0  0  0  0
  7  9  1  0  0  0  0
 30 31  1  0  0  0  0
 30 32  1  0  0  0  0
 30 33  1  0  0  0  0
 28 29  1  0  0  0  0
 28 30  1  0  0  0  0
M  END
$$$$
default_name
  -OEChem-02102213163D

 33 33  0     1  0  0  0  0  0999 V2000
   -4.0702   -3.8485    1.4554 H   0  0  0  0  0  0  0  0  0  0  0  0
   -4.0012   -2.9605    0.8284 C   0  0  0  0  0  0  0  0  0  0  0  0
   -4.7652   -2.2435    1.1234 H   0  0  0  0  0  0  0  0  0  0  0  0
   -4.1352   -3.2385   -0.2156 H   0  0  0  0  0  0  0  0  0  0  0  0
   -2.6362   -2.3395    1.0094 C   0  0  0  0  0  0  0  0  0  0  0  0
   -1.8292   -2.8395    1.7814 O   0  0  0  0  0  0  0  0  0  0  0  0
   -2.3832   -1.2445    0.2964 N   0  0  0  0  0  0  0  0  0  0  0  0
   -3.1102   -0.8685   -0.2946 H   0  0  0  0  0  0  0  0  0  0  0  0
   -1.1292   -0.4875    0.3524 C   0  0  1  0  0  0  0  0  0  0  0  0
   -0.3087   -1.1556    0.0882 H   0  0  0  0  0  0  0  0  0  0  0  0
   -1.1749    0.6534   -0.6787 C   0  0  0  0  0  0  0  0  0  0  0  0
   -0.1629    0.8500   -1.0348 H   0  0  0  0  0  0  0  0  0  0  0  0
   -1.7665    0.3306   -1.5370 H   0  0  0  0  0  0  0  0  0  0  0  0
   -1.7434    1.9506   -0.1365 C   0  0  0  0  0  0  0  0  0  0  0  0
   -3.1303    2.0866    0.0740 C   0  0  0  0  0  0  0  0  0  0  0  0
   -3.7981    1.2726   -0.1760 H   0  0  0  0  0  0  0  0  0  0  0  0
   -3.6490    3.2788    0.6157 C   0  0  0  0  0  0  0  0  0  0  0  0
   -4.7116    3.3800    0.7741 H   0  0  0  0  0  0  0  0  0  0  0  0
   -2.7767    4.3371    0.9515 C   0  0  0  0  0  0  0  0  0  0  0  0
   -3.2667    5.4898    1.4772 O   0  0  0  0  0  0  0  0  0  0  0  0
   -4.2247    5.5029    1.4886 H   0  0  0  0  0  0  0  0  0  0  0  0
   -1.3887    4.1975    0.7448 C   0  0  0  0  0  0  0  0  0  0  0  0
   -0.7324    5.0154    1.0014 H   0  0  0  0  0  0  0  0  0  0  0  0
   -0.8738    3.0063    0.1988 C   0  0  0  0  0  0  0  0  0  0  0  0
    0.1918    2.9033    0.0317 H   0  0  0  0  0  0  0  0  0  0  0  0
   -0.8664    0.0378    1.7736 C   0  0  0  0  0  0  0  0  0  0  0  0
    0.2529   -0.0672    2.2760 O   0  0  0  0  0  0  0  0  0  0  0  0
   -1.8947    0.5991    2.4221 N   0  0  0  0  0  0  0  0  0  0  0  0
   -2.7942    0.5936    1.9635 H   0  0  0  0  0  0  0  0  0  0  0  0
   -1.8170    1.1453    3.7750 C   0  0  0  0  0  0  0  0  0  0  0  0
   -0.9697    1.8290    3.8506 H   0  0  0  0  0  0  0  0  0  0  0  0
   -2.7354    1.6828    4.0167 H   0  0  0  0  0  0  0  0  0  0  0  0
   -1.6754    0.3334    4.4914 H   0  0  0  0  0  0  0  0  0  0  0  0
  5  6  2  0  0  0  0
  5  7  1  0  0  0  0
  2  3  1  0  0  0  0
  2  4  1  0  0  0  0
  2  5  1  0  0  0  0
  1  2  1  0  0  0  0
 26 27  2  0  0  0  0
 26 28  1  0  0  0  0
 24 25  1  0  0  0  0
 22 23  1  0  0  0  0
 22 24  2  0  0  0  0
 20 21  1  0  0  0  0
 19 20  1  0  0  0  0
 19 22  1  0  0  0  0
 17 18  1  0  0  0  0
 17 19  2  0  0  0  0
 15 16  1  0  0  0  0
 15 17  1  0  0  0  0
 14 15  2  0  0  0  0
 14 24  1  0  0  0  0
 11 12  1  0  0  0  0
 11 13  1  0  0  0  0
 11 14  1  0  0  0  0
  9 10  1  0  0  0  0
  9 11  1  0  0  0  0
  9 26  1  0  0  0  0
  7  8  1  0  0  0  0
  7  9  1  0  0  0  0
 30 31  1  0  0  0  0
 30 32  1  0  0  0  0
 30 33  1  0  0  0  0
 28 29  1  0  0  0  0
 28 30  1  0  0  0  0
M  END
$$$$
default_name
  -OEChem-02102213163D

 33 33  0     1  0  0  0  0  0999 V2000
   -4.0702   -3.8485    1.4554 H   0  0  0  0  0  0  0  0  0  0  0  0
   -4.0012   -2.9605    0.8284 C   0  0  0  0  0  0  0  0  0  0  0  0
   -4.7652   -2.2435    1.1234 H   0  0  0  0  0  0  0  0  0  0  0  0
   -4.1352   -3.2385   -0.2156 H   0  0  0  0  0  0  0  0  0  0  0  0
   -2.6362   -2.3395    1.0094 C   0  0  0  0  0  0  0  0  0  0  0  0
   -1.8292   -2.8395    1.7814 O   0  0  0  0  0  0  0  0  0  0  0  0
   -2.3832   -1.2445    0.2964 N   0  0  0  0  0  0  0  0  0  0  0  0
   -3.1102   -0.8685   -0.2946 H   0  0  0  0  0  0  0  0  0  0  0  0
   -1.1292   -0.4875    0.3524 C   0  0  1  0  0  0  0  0  0  0  0  0
   -0.3087   -1.1556    0.0882 H   0  0  0  0  0  0  0  0  0  0  0  0
   -1.1749    0.6534   -0.6787 C   0  0  0  0  0  0  0  0  0  0  0  0
   -0.1629    0.8500   -1.0348 H   0  0  0  0  0  0  0  0  0  0  0  0
   -1.7665    0.3306   -1.5370 H   0  0  0  0  0  0  0  0  0  0  0  0
   -1.7434    1.9506   -0.1365 C   0  0  0  0  0  0  0  0  0  0  0  0
   -3.0581    1.9948    0.3693 C   0  0  0  0  0  0  0  0  0  0  0  0
   -3.6763    1.1069    0.3481 H   0  0  0  0  0  0  0  0  0  0  0  0
   -3.5675    3.1920    0.9089 C   0  0  0  0  0  0  0  0  0  0  0  0
   -4.5751    3.2225    1.2939 H   0  0  0  0  0  0  0  0  0  0  0  0
   -2.7575    4.3479    0.9460 C   0  0  0  0  0  0  0  0  0  0  0  0
   -3.2384    5.5065    1.4670 O   0  0  0  0  0  0  0  0  0  0  0  0
   -4.1672    5.4425    1.6934 H   0  0  0  0  0  0  0  0  0  0  0  0
   -1.4404    4.3006    0.4439 C   0  0  0  0  0  0  0  0  0  0  0  0
   -0.8324    5.1922    0.4738 H   0  0  0  0  0  0  0  0  0  0  0  0
   -0.9358    3.1037   -0.0990 C   0  0  0  0  0  0  0  0  0  0  0  0
    0.0730    3.0706   -0.4931 H   0  0  0  0  0  0  0  0  0  0  0  0
   -0.8664    0.0378    1.7736 C   0  0  0  0  0  0  0  0  0  0  0  0
    0.2529   -0.0672    2.2760 O   0  0  0  0  0  0  0  0  0  0  0  0
   -1.8947    0.5991    2.4221 N   0  0  0  0  0  0  0  0  0  0  0  0
   -2.7942    0.5936    1.9635 H   0  0  0  0  0  0  0  0  0  0  0  0
   -1.8170    1.1453    3.7750 C   0  0  0  0  0  0  0  0  0  0  0  0
   -0.9697    1.8290    3.8506 H   0  0  0  0  0  0  0  0  0  0  0  0
   -2.7354    1.6828    4.0167 H   0  0  0  0  0  0  0  0  0  0  0  0
   -1.6754    0.3334    4.4914 H   0  0  0  0  0  0  0  0  0  0  0  0
  5  6  2  0  0  0  0
  5  7  1  0  0  0  0
  2  3  1  0  0  0  0
  2  4  1  0  0  0  0
  2  5  1  0  0  0  0
  1  2  1  0  0  0  0
 26 27  2  0  0  0  0
 26 28  1  0  0  0  0
 24 25  1  0  0  0  0
 22 23  1  0  0  0  0
 22 24  2  0  0  0  0
 20 21  1  0  0  0  0
 19 20  1  0  0  0  0
 19 22  1  0  0  0  0
 17 18  1  0  0  0  0
 17 19  2  0  0  0  0
 15 16  1  0  0  0  0
 15 17  1  0  0  0  0
 14 15  2  0  0  0  0
 14 24  1  0  0  0  0
 11 12  1  0  0  0  0
 11 13  1  0  0  0  0
 11 14  1  0  0  0  0
  9 10  1  0  0  0  0
  9 11  1  0  0  0  0
  9 26  1  0  0  0  0
  7  8  1  0  0  0  0
  7  9  1  0  0  0  0
 30 31  1  0  0  0  0
 30 32  1  0  0  0  0
 30 33  1  0  0  0  0
 28 29  1  0  0  0  0
 28 30  1  0  0  0  0
M  END
$$$$
default_name
  -OEChem-02102213163D

 33 33  0     1  0  0  0  0  0999 V2000
   -4.0702   -3.8485    1.4554 H   0  0  0  0  0  0  0  0  0  0  0  0
   -4.0012   -2.9605    0.8284 C   0  0  0  0  0  0  0  0  0  0  0  0
   -4.7652   -2.2435    1.1234 H   0  0  0  0  0  0  0  0  0  0  0  0
   -4.1352   -3.2385   -0.2156 H   0  0  0  0  0  0  0  0  0  0  0  0
   -2.6362   -2.3395    1.0094 C   0  0  0  0  0  0  0  0  0  0  0  0
   -1.8292   -2.8395    1.7814 O   0  0  0  0  0  0  0  0  0  0  0  0
   -2.3832   -1.2445    0.2964 N   0  0  0  0  0  0  0  0  0  0  0  0
   -3.1102   -0.8685   -0.2946 H   0  0  0  0  0  0  0  0  0  0  0  0
   -1.1292   -0.4875    0.3524 C   0  0  1  0  0  0  0  0  0  0  0  0
   -0.3087   -1.1556    0.0882 H   0  0  0  0  0  0  0  0  0  0  0  0
   -1.1749    0.6534   -0.6787 C   0  0  0  0  0  0  0  0  0  0  0  0
   -0.1629    0.8500   -1.0348 H   0  0  0  0  0  0  0  0  0  0  0  0
   -1.7665    0.3306   -1.5370 H   0  0  0  0  0  0  0  0  0  0  0  0
   -1.7434    1.9506   -0.1365 C   0  0  0  0  0  0  0  0  0  0  0  0
   -2.9145    1.9414    0.6475 C   0  0  0  0  0  0  0  0  0  0  0  0
   -3.4273    1.0089    0.8436 H   0  0  0  0  0  0  0  0  0  0  0  0
   -3.4158    3.1441    1.1825 C   0  0  0  0  0  0  0  0  0  0  0  0
   -4.3136    3.1335    1.7811 H   0  0  0  0  0  0  0  0  0  0  0  0
   -2.7411    4.3595    0.9354 C   0  0  0  0  0  0  0  0  0  0  0  0
   -3.2148    5.5242    1.4492 O   0  0  0  0  0  0  0  0  0  0  0  0
   -4.0607    5.4094    1.8843 H   0  0  0  0  0  0  0  0  0  0  0  0
   -1.5666    4.3662    0.1547 C   0  0  0  0  0  0  0  0  0  0  0  0
   -1.0621    5.3024   -0.0309 H   0  0  0  0  0  0  0  0  0  0  0  0
   -1.0706    3.1631   -0.3825 C   0  0  0  0  0  0  0  0  0  0  0  0
   -0.1733    3.1703   -0.9899 H   0  0  0  0  0  0  0  0  0  0  0  0
   -0.8664    0.0378    1.7736 C   0  0  0  0  0  0  0  0  0  0  0  0
    0.2529   -0.0672    2.2760 O   0  0  0  0  0  0  0  0  0  0  0  0
   -1.8947    0.5991    2.4221 N   0  0  0  0  0  0  0  0  0  0  0  0
   -2.7942    0.5936    1.9635 H   0  0  0  0  0  0  0  0  0  0  0  0
   -1.8170    1.1453    3.7750 C   0  0  0  0  0  0  0  0  0  0  0  0
   -0.9697    1.8290    3.8506 H   0  0  0  0  0  0  0  0  0  0  0  0
   -2.7354    1.6828    4.0167 H   0  0  0  0  0  0  0  0  0  0  0  0
   -1.6754    0.3334    4.4914 H   0  0  0  0  0  0  0  0  0  0  0  0
  5  6  2  0  0  0  0
  5  7  1  0  0  0  0
  2  3  1  0  0  0  0
  2  4  1  0  0  0  0
  2  5  1  0  0  0  0
  1  2  1  0  0  0  0
 26 27  2  0  0  0  0
 26 28  1  0  0  0  0
 24 25  1  0  0  0  0
 22 23  1  0  0  0  0
 22 24  2  0  0  0  0
 20 21  1  0  0  0  0
 19 20  1  0  0  0  0
 19 22  1  0  0  0  0
 17 18  1  0  0  0  0
 17 19  2  0  0  0  0
 15 16  1  0  0  0  0
 15 17  1  0  0  0  0
 14 15  2  0  0  0  0
 14 24  1  0  0  0  0
 11 12  1  0  0  0  0
 11 13  1  0  0  0  0
 11 14  1  0  0  0  0
  9 10  1  0  0  0  0
  9 11  1  0  0  0  0
  9 26  1  0  0  0  0
  7  8  1  0  0  0  0
  7  9  1  0  0  0  0
 30 31  1  0  0  0  0
 30 32  1  0  0  0  0
 30 33  1  0  0  0  0
 28 29  1  0  0  0  0
 28 30  1  0  0  0  0
M  END
$$$$
default_name
  -OEChem-02102213163D

 33 33  0     1  0  0  0  0  0999 V2000
   -4.0702   -3.8485    1.4554 H   0  0  0  0  0  0  0  0  0  0  0  0
   -4.0012   -2.9605    0.8284 C   0  0  0  0  0  0  0  0  0  0  0  0
   -4.7652   -2.2435    1.1234 H   0  0  0  0  0  0  0  0  0  0  0  0
   -4.1352   -3.2385   -0.2156 H   0  0  0  0  0  0  0  0  0  0  0  0
   -2.6362   -2.3395    1.0094 C   0  0  0  0  0  0  0  0  0  0  0  0
   -1.8292   -2.8395    1.7814 O   0  0  0  0  0  0  0  0  0  0  0  0
   -2.3832   -1.2445    0.2964 N   0  0  0  0  0  0  0  0  0  0  0  0
   -3.1102   -0.8685   -0.2946 H   0  0  0  0  0  0  0  0  0  0  0  0
   -1.1292   -0.4875    0.3524 C   0  0  1  0  0  0  0  0  0  0  0  0
   -0.3087   -1.1556    0.0882 H   0  0  0  0  0  0  0  0  0  0  0  0
   -1.1749    0.6534   -0.6787 C   0  0  0  0  0  0  0  0  0  0  0  0
   -0.1629    0.8500   -1.0348 H   0  0  0  0  0  0  0  0  0  0  0  0
   -1.7665    0.3306   -1.5370 H   0  0  0  0  0  0  0  0  0  0  0  0
   -1.7434    1.9506   -0.1365 C   0  0  0  0  0  0  0  0  0  0  0  0
   -2.7092    1.9302    0.8897 C   0  0  0  0  0  0  0  0  0  0  0  0
   -3.0681    0.9854    1.2765 H   0  0  0  0  0  0  0  0  0  0  0  0
   -3.2043    3.1384    1.4179 C   0  0  0  0  0  0  0  0  0  0  0  0
   -3.9450    3.1190    2.2025 H   0  0  0  0  0  0  0  0  0  0  0  0
   -2.7286    4.3712    0.9204 C   0  0  0  0  0  0  0  0  0  0  0  0
   -3.1976    5.5418    1.4251 O   0  0  0  0  0  0  0  0  0  0  0  0
   -3.9125    5.4057    2.0483 H   0  0  0  0  0  0  0  0  0  0  0  0
   -1.7585    4.3898   -0.1031 C   0  0  0  0  0  0  0  0  0  0  0  0
   -1.4059    5.3387   -0.4782 H   0  0  0  0  0  0  0  0  0  0  0  0
   -1.2690    3.1805   -0.6322 C   0  0  0  0  0  0  0  0  0  0  0  0
   -0.5305    3.1956   -1.4249 H   0  0  0  0  0  0  0  0  0  0  0  0
   -0.8664    0.0378    1.7736 C   0  0  0  0  0  0  0  0  0  0  0  0
    0.2529   -0.0672    2.2760 O   0  0  0  0  0  0  0  0  0  0  0  0
   -1.8947    0.5991    2.4221 N   0  0  0  0  0  0  0  0  0  0  0  0
   -2.7942    0.5936    1.9635 H   0  0  0  0  0  0  0  0  0  0  0  0
   -1.8170    1.1453    3.7750 C   0  0  0  0  0  0  0  0  0  0  0  0
   -0.9697    1.8290    3.8506 H   0  0  0  0  0  0  0  0  0  0  0  0
   -2.7354    1.6828    4.0167 H   0  0  0  0  0  0  0  0  0  0  0  0
   -1.6754    0.3334    4.4914 H   0  0  0  0  0  0  0  0  0  0  0  0
  5  6  2  0  0  0  0
  5  7  1  0  0  0  0
  2  3  1  0  0  0  0
  2  4  1  0  0  0  0
  2  5  1  0  0  0  0
  1  2  1  0  0  0  0
 26 27  2  0  0  0  0
 26 28  1  0  0  0  0
 24 25  1  0  0  0  0
 22 23  1  0  0  0  0
 22 24  2  0  0  0  0
 20 21  1  0  0  0  0
 19 20  1  0  0  0  0
 19 22  1  0  0  0  0
 17 18  1  0  0  0  0
 17 19  2  0  0  0  0
 15 16  1  0  0  0  0
 15 17  1  0  0  0  0
 14 15  2  0  0  0  0
 14 24  1  0  0  0  0
 11 12  1  0  0  0  0
 11 13  1  0  0  0  0
 11 14  1  0  0  0  0
  9 10  1  0  0  0  0
  9 11  1  0  0  0  0
  9 26  1  0  0  0  0
  7  8  1  0  0  0  0
  7  9  1  0  0  0  0
 30 31  1  0  0  0  0
 30 32  1  0  0  0  0
 30 33  1  0  0  0  0
 28 29  1  0  0  0  0
 28 30  1  0  0  0  0
M  END
$$$$
default_name
  -OEChem-02102213163D

 33 33  0     1  0  0  0  0  0999 V2000
   -4.0702   -3.8485    1.4554 H   0  0  0  0  0  0  0  0  0  0  0  0
   -4.0012   -2.9605    0.8284 C   0  0  0  0  0  0  0  0  0  0  0  0
   -4.7652   -2.2435    1.1234 H   0  0  0  0  0  0  0  0  0  0  0  0
   -4.1352   -3.2385   -0.2156 H   0  0  0  0  0  0  0  0  0  0  0  0
   -2.6362   -2.3395    1.0094 C   0  0  0  0  0  0  0  0  0  0  0  0
   -1.8292   -2.8395    1.7814 O   0  0  0  0  0  0  0  0  0  0  0  0
   -2.3832   -1.2445    0.2964 N   0  0  0  0  0  0  0  0  0  0  0  0
   -3.1102   -0.8685   -0.2946 H   0  0  0  0  0  0  0  0  0  0  0  0
   -1.1292   -0.4875    0.3524 C   0  0  1  0  0  0  0  0  0  0  0  0
   -0.3087   -1.1556    0.0882 H   0  0  0  0  0  0  0  0  0  0  0  0
   -1.1749    0.6534   -0.6787 C   0  0  0  0  0  0  0  0  0  0  0  0
   -0.1629    0.8500   -1.0348 H   0  0  0  0  0  0  0  0  0  0  0  0
   -1.7665    0.3306   -1.5370 H   0  0  0  0  0  0  0  0  0  0  0  0
   -1.7434    1.9506   -0.1365 C   0  0  0  0  0  0  0  0  0  0  0  0
   -2.4563    1.9618    1.0792 C   0  0  0  0  0  0  0  0  0  0  0  0
   -2.6231    1.0379    1.6174 H   0  0  0  0  0  0  0  0  0  0  0  0
   -2.9474    3.1753    1.5989 C   0  0  0  0  0  0  0  0  0  0  0  0
   -3.4942    3.1799    2.5293 H   0  0  0  0  0  0  0  0  0  0  0  0
   -2.7211    4.3822    0.9020 C   0  0  0  0  0  0  0  0  0  0  0  0
   -3.1879    5.5581    1.3963 O   0  0  0  0  0  0  0  0  0  0  0  0
   -3.7327    5.4319    2.1743 H   0  0  0  0  0  0  0  0  0  0  0  0
   -2.0032    4.3698   -0.3119 C   0  0  0  0  0  0  0  0  0  0  0  0
   -1.8404    5.2986   -0.8377 H   0  0  0  0  0  0  0  0  0  0  0  0
   -1.5176    3.1547   -0.8311 C   0  0  0  0  0  0  0  0  0  0  0  0
   -0.9742    3.1447   -1.7685 H   0  0  0  0  0  0  0  0  0  0  0  0
   -0.8664    0.0378    1.7736 C   0  0  0  0  0  0  0  0  0  0  0  0
    0.2529   -0.0672    2.2760 O   0  0  0  0  0  0  0  0  0  0  0  0
   -1.8947    0.5991    2.4221 N   0  0  0  0  0  0  0  0  0  0  0  0
   -2.7942    0.5936    1.9635 H   0  0  0  0  0  0  0  0  0  0  0  0
   -1.8170    1.1453    3.7750 C   0  0  0  0  0  0  0  0  0  0  0  0
   -0.9697    1.8290    3.8506 H   0  0  0  0  0  0  0  0  0  0  0  0
   -2.7354    1.6828    4.0167 H   0  0  0  0  0  0  0  0  0  0  0  0
   -1.6754    0.3334    4.4914 H   0  0  0  0  0  0  0  0  0  0  0  0
  5  6  2  0  0  0  0
  5  7  1  0  0  0  0
  2  3  1  0  0  0  0
  2  4  1  0  0  0  0
  2  5  1  0  0  0  0
  1  2  1  0  0  0  0
 26 27  2  0  0  0  0
 26 28  1  0  0  0  0
 24 25  1  0  0  0  0
 22 23  1  0  0  0  0
 22 24  2  0  0  0  0
 20 21  1  0  0  0  0
 19 20  1  0  0  0  0
 19 22  1  0  0  0  0
 17 18  1  0  0  0  0
 17 19  2  0  0  0  0
 15 16  1  0  0  0  0
 15 17  1  0  0  0  0
 14 15  2  0  0  0  0
 14 24  1  0  0  0  0
 11 12  1  0  0  0  0
 11 13  1  0  0  0  0
 11 14  1  0  0  0  0
  9 10  1  0  0  0  0
  9 11  1  0  0  0  0
  9 26  1  0  0  0  0
  7  8  1  0  0  0  0
  7  9  1  0  0  0  0
 30 31  1  0  0  0  0
 30 32  1  0  0  0  0
 30 33  1  0  0  0  0
 28 29  1  0  0  0  0
 28 30  1  0  0  0  0
M  END
$$$$
default_name
  -OEChem-02102213163D

 33 33  0     1  0  0  0  0  0999 V2000
   -4.0702   -3.8485    1.4554 H   0  0  0  0  0  0  0  0  0  0  0  0
   -4.0012   -2.9605    0.8284 C   0  0  0  0  0  0  0  0  0  0  0  0
   -4.7652   -2.2435    1.1234 H   0  0  0  0  0  0  0  0  0  0  0  0
   -4.1352   -3.2385   -0.2156 H   0  0  0  0  0  0  0  0  0  0  0  0
   -2.6362   -2.3395    1.0094 C   0  0  0  0  0  0  0  0  0  0  0  0
   -1.8292   -2.8395    1.7814 O   0  0  0  0  0  0  0  0  0  0  0  0
   -2.3832   -1.2445    0.2964 N   0  0  0  0  0  0  0  0  0  0  0  0
   -3.1102   -0.8685   -0.2946 H   0  0  0  0  0  0  0  0  0  0  0  0
   -1.1292   -0.4875    0.3524 C   0  0  1  0  0  0  0  0  0  0  0  0
   -0.3087   -1.1556    0.0882 H   0  0  0  0  0  0  0  0  0  0  0  0
   -1.1749    0.6534   -0.6787 C   0  0  0  0  0  0  0  0  0  0  0  0
   -0.1629    0.8500   -1.0348 H   0  0  0  0  0  0  0  0  0  0  0  0
   -1.7665    0.3306   -1.5370 H   0  0  0  0  0  0  0  0  0  0  0  0
   -1.7434    1.9506   -0.1365 C   0  0  0  0  0  0  0  0  0  0  0  0
   -2.1730    2.0341    1.2032 C   0  0  0  0  0  0  0  0  0  0  0  0
   -2.1226    1.1629    1.8431 H   0  0  0  0  0  0  0  0  0  0  0  0
   -2.6625    3.2523    1.7133 C   0  0  0  0  0  0  0  0  0  0  0  0
   -2.9921    3.3122    2.7392 H   0  0  0  0  0  0  0  0  0  0  0  0
   -2.7188    4.3918    0.8815 C   0  0  0  0  0  0  0  0  0  0  0  0
   -3.1865    5.5719    1.3648 O   0  0  0  0  0  0  0  0  0  0  0  0
   -3.5335    5.4860    2.2537 H   0  0  0  0  0  0  0  0  0  0  0  0
   -2.2839    4.3077   -0.4575 C   0  0  0  0  0  0  0  0  0  0  0  0
   -2.3360    5.1847   -1.0849 H   0  0  0  0  0  0  0  0  0  0  0  0
   -1.7994    3.0875   -0.9658 C   0  0  0  0  0  0  0  0  0  0  0  0
   -1.4741    3.0212   -1.9972 H   0  0  0  0  0  0  0  0  0  0  0  0
   -0.8664    0.0378    1.7736 C   0  0  0  0  0  0  0  0  0  0  0  0
    0.2529   -0.0672    2.2760 O   0  0  0  0  0  0  0  0  0  0  0  0
   -1.8947    0.5991    2.4221 N   0  0  0  0  0  0  0  0  0  0  0  0
   -2.7942    0.5936    1.9635 H   0  0  0  0  0  0  0  0  0  0  0  0
   -1.8170    1.1453    3.7750 C   0  0  0  0  0  0  0  0  0  0  0  0
   -0.9697    1.8290    3.8506 H   0  0  0  0  0  0  0  0  0  0  0  0
   -2.7354    1.6828    4.0167 H   0  0  0  0  0  0  0  0  0  0  0  0
   -1.6754    0.3334    4.4914 H   0  0  0  0  0  0  0  0  0  0  0  0
  5  6  2  0  0  0  0
  5  7  1  0  0  0  0
  2  3  1  0  0  0  0
  2  4  1  0  0  0  0
  2  5  1  0  0  0  0
  1  2  1  0  0  0  0
 26 27  2  0  0  0  0
 26 28  1  0  0  0  0
 24 25  1  0  0  0  0
 22 23  1  0  0  0  0
 22 24  2  0  0  0  0
 20 21  1  0  0  0  0
 19 20  1  0  0  0  0
 19 22  1  0  0  0  0
 17 18  1  0  0  0  0
 17 19  2  0  0  0  0
 15 16  1  0  0  0  0
 15 17  1  0  0  0  0
 14 15  2  0  0  0  0
 14 24  1  0  0  0  0
 11 12  1  0  0  0  0
 11 13  1  0  0  0  0
 11 14  1  0  0  0  0
  9 10  1  0  0  0  0
  9 11  1  0  0  0  0
  9 26  1  0  0  0  0
  7  8  1  0  0  0  0
  7  9  1  0  0  0  0
 30 31  1  0  0  0  0
 30 32  1  0  0  0  0
 30 33  1  0  0  0  0
 28 29  1  0  0  0  0
 28 30  1  0  0  0  0
M  END
$$$$
default_name
  -OEChem-02102213163D

 33 33  0     1  0  0  0  0  0999 V2000
   -4.0702   -3.8485    1.4554 H   0  0  0  0  0  0  0  0  0  0  0  0
   -4.0012   -2.9605    0.8284 C   0  0  0  0  0  0  0  0  0  0  0  0
   -4.7652   -2.2435    1.1234 H   0  0  0  0  0  0  0  0  0  0  0  0
   -4.1352   -3.2385   -0.2156 H   0  0  0  0  0  0  0  0  0  0  0  0
   -2.6362   -2.3395    1.0094 C   0  0  0  0  0  0  0  0  0  0  0  0
   -1.8292   -2.8395    1.7814 O   0  0  0  0  0  0  0  0  0  0  0  0
   -2.3832   -1.2445    0.2964 N   0  0  0  0  0  0  0  0  0  0  0  0
   -3.1102   -0.8685   -0.2946 H   0  0  0  0  0  0  0  0  0  0  0  0
   -1.1292   -0.4875    0.3524 C   0  0  1  0  0  0  0  0  0  0  0  0
   -0.3087   -1.1556    0.0882 H   0  0  0  0  0  0  0  0  0  0  0  0
   -1.1749    0.6534   -0.6787 C   0  0  0  0  0  0  0  0  0  0  0  0
   -0.1629    0.8500   -1.0348 H   0  0  0  0  0  0  0  0  0  0  0  0
   -1.7665    0.3306   -1.5370 H   0  0  0  0  0  0  0  0  0  0  0  0
   -1.7434    1.9506   -0.1365 C   0  0  0  0  0  0  0  0  0  0  0  0
   -1.8786    2.1422    1.2532 C   0  0  0  0  0  0  0  0  0  0  0  0
   -1.6008    1.3518    1.9382 H   0  0  0  0  0  0  0  0  0  0  0  0
   -2.3692    3.3641    1.7533 C   0  0  0  0  0  0  0  0  0  0  0  0
   -2.4729    3.5068    2.8180 H   0  0  0  0  0  0  0  0  0  0  0  0
   -2.7221    4.3992    0.8602 C   0  0  0  0  0  0  0  0  0  0  0  0
   -3.1934    5.5823    1.3327 O   0  0  0  0  0  0  0  0  0  0  0  0
   -3.3286    5.5643    2.2810 H   0  0  0  0  0  0  0  0  0  0  0  0
   -2.5815    4.2075   -0.5299 C   0  0  0  0  0  0  0  0  0  0  0  0
   -2.8589    5.0049   -1.2028 H   0  0  0  0  0  0  0  0  0  0  0  0
   -2.0952    2.9834   -1.0269 C   0  0  0  0  0  0  0  0  0  0  0  0
   -1.9962    2.8335   -2.0954 H   0  0  0  0  0  0  0  0  0  0  0  0
   -0.8664    0.0378    1.7736 C   0  0  0  0  0  0  0  0  0  0  0  0
    0.2529   -0.0672    2.2760 O   0  0  0  0  0  0  0  0  0  0  0  0
   -1.8947    0.5991    2.4221 N   0  0  0  0  0  0  0  0  0  0  0  0
   -2.7942    0.5936    1.9635 H   0  0  0  0  0  0  0  0  0  0  0  0
   -1.8170    1.1453    3.7750 C   0  0  0  0  0  0  0  0  0  0  0  0
   -0.9697    1.8290    3.8506 H   0  0  0  0  0  0  0  0  0  0  0  0
   -2.7354    1.6828    4.0167 H   0  0  0  0  0  0  0  0  0  0  0  0
   -1.6754    0.3334    4.4914 H   0  0  0  0  0  0  0  0  0  0  0  0
  5  6  2  0  0  0  0
  5  7  1  0  0  0  0
  2  3  1  0  0  0  0
  2  4  1  0  0  0  0
  2  5  1  0  0  0  0
  1  2  1  0  0  0  0
 26 27  2  0  0  0  0
 26 28  1  0  0  0  0
 24 25  1  0  0  0  0
 22 23  1  0  0  0  0
 22 24  2  0  0  0  0
 20 21  1  0  0  0  0
 19 20  1  0  0  0  0
 19 22  1  0  0  0  0
 17 18  1  0  0  0  0
 17 19  2  0  0  0  0
 15 16  1  0  0  0  0
 15 17  1  0  0  0  0
 14 15  2  0  0  0  0
 14 24  1  0  0  0  0
 11 12  1  0  0  0  0
 11 13  1  0  0  0  0
 11 14  1  0  0  0  0
  9 10  1  0  0  0  0
  9 11  1  0  0  0  0
  9 26  1  0  0  0  0
  7  8  1  0  0  0  0
  7  9  1  0  0  0  0
 30 31  1  0  0  0  0
 30 32  1  0  0  0  0
 30 33  1  0  0  0  0
 28 29  1  0  0  0  0
 28 30  1  0  0  0  0
M  END
$$$$
default_name
  -OEChem-02102213163D

 33 33  0     1  0  0  0  0  0999 V2000
   -4.0702   -3.8485    1.4554 H   0  0  0  0  0  0  0  0  0  0  0  0
   -4.0012   -2.9605    0.8284 C   0  0  0  0  0  0  0  0  0  0  0  0
   -4.7652   -2.2435    1.1234 H   0  0  0  0  0  0  0  0  0  0  0  0
   -4.1352   -3.2385   -0.2156 H   0  0  0  0  0  0  0  0  0  0  0  0
   -2.6362   -2.3395    1.0094 C   0  0  0  0  0  0  0  0  0  0  0  0
   -1.8292   -2.8395    1.7814 O   0  0  0  0  0  0  0  0  0  0  0  0
   -2.3832   -1.2445    0.2964 N   0  0  0  0  0  0  0  0  0  0  0  0
   -3.1102   -0.8685   -0.2946 H   0  0  0  0  0  0  0  0  0  0  0  0
   -1.1292   -0.4875    0.3524 C   0  0  1  0  0  0  0  0  0  0  0  0
   -0.3087   -1.1556    0.0882 H   0  0  0  0  0  0  0  0  0  0  0  0
   -1.1749    0.6534   -0.6787 C   0  0  0  0  0  0  0  0  0  0  0  0
   -0.1629    0.8500   -1.0348 H   0  0  0  0  0  0  0  0  0  0  0  0
   -1.7665    0.3306   -1.5370 H   0  0  0  0  0  0  0  0  0  0  0  0
   -1.7434    1.9506   -0.1365 C   0  0  0  0  0  0  0  0  0  0  0  0
   -1.5931    2.2787    1.2259 C   0  0  0  0  0  0  0  0  0  0  0  0
   -1.0932    1.5918    1.8961 H   0  0  0  0  0  0  0  0  0  0  0  0
   -2.0873    3.5032    1.7162 C   0  0  0  0  0  0  0  0  0  0  0  0
   -1.9719    3.7505    2.7603 H   0  0  0  0  0  0  0  0  0  0  0  0
   -2.7306    4.4040    0.8397 C   0  0  0  0  0  0  0  0  0  0  0  0
   -3.2081    5.5886    1.3022 O   0  0  0  0  0  0  0  0  0  0  0  0
   -3.1319    5.6617    2.2544 H   0  0  0  0  0  0  0  0  0  0  0  0
   -2.8757    4.0762   -0.5243 C   0  0  0  0  0  0  0  0  0  0  0  0
   -3.3734    4.7714   -1.1836 H   0  0  0  0  0  0  0  0  0  0  0  0
   -2.3848    2.8496   -1.0104 C   0  0  0  0  0  0  0  0  0  0  0  0
   -2.5049    2.5944   -2.0565 H   0  0  0  0  0  0  0  0  0  0  0  0
   -0.8664    0.0378    1.7736 C   0  0  0  0  0  0  0  0  0  0  0  0
    0.2529   -0.0672    2.2760 O   0  0  0  0  0  0  0  0  0  0  0  0
   -1.8947    0.5991    2.4221 N   0  0  0  0  0  0  0  0  0  0  0  0
   -2.7942    0.5936    1.9635 H   0  0  0  0  0  0  0  0  0  0  0  0
   -1.8170    1.1453    3.7750 C   0  0  0  0  0  0  0  0  0  0  0  0
   -0.9697    1.8290    3.8506 H   0  0  0  0  0  0  0  0  0  0  0  0
   -2.7354    1.6828    4.0167 H   0  0  0  0  0  0  0  0  0  0  0  0
   -1.6754    0.3334    4.4914 H   0  0  0  0  0  0  0  0  0  0  0  0
  5  6  2  0  0  0  0
  5  7  1  0  0  0  0
  2  3  1  0  0  0  0
  2  4  1  0  0  0  0
  2  5  1  0  0  0  0
  1  2  1  0  0  0  0
 26 27  2  0  0  0  0
 26 28  1  0  0  0  0
 24 25  1  0  0  0  0
 22 23  1  0  0  0  0
 22 24  2  0  0  0  0
 20 21  1  0  0  0  0
 19 20  1  0  0  0  0
 19 22  1  0  0  0  0
 17 18  1  0  0  0  0
 17 19  2  0  0  0  0
 15 16  1  0  0  0  0
 15 17  1  0  0  0  0
 14 15  2  0  0  0  0
 14 24  1  0  0  0  0
 11 12  1  0  0  0  0
 11 13  1  0  0  0  0
 11 14  1  0  0  0  0
  9 10  1  0  0  0  0
  9 11  1  0  0  0  0
  9 26  1  0  0  0  0
  7  8  1  0  0  0  0
  7  9  1  0  0  0  0
 30 31  1  0  0  0  0
 30 32  1  0  0  0  0
 30 33  1  0  0  0  0
 28 29  1  0  0  0  0
 28 30  1  0  0  0  0
M  END
$$$$
default_name
  -OEChem-02102213163D

 33 33  0     1  0  0  0  0  0999 V2000
   -4.0702   -3.8485    1.4554 H   0  0  0  0  0  0  0  0  0  0  0  0
   -4.0012   -2.9605    0.8284 C   0  0  0  0  0  0  0  0  0  0  0  0
   -4.7652   -2.2435    1.1234 H   0  0  0  0  0  0  0  0  0  0  0  0
   -4.1352   -3.2385   -0.2156 H   0  0  0  0  0  0  0  0  0  0  0  0
   -2.6362   -2.3395    1.0094 C   0  0  0  0  0  0  0  0  0  0  0  0
   -1.8292   -2.8395    1.7814 O   0  0  0  0  0  0  0  0  0  0  0  0
   -2.3832   -1.2445    0.2964 N   0  0  0  0  0  0  0  0  0  0  0  0
   -3.1102   -0.8685   -0.2946 H   0  0  0  0  0  0  0  0  0  0  0  0
   -1.1292   -0.4875    0.3524 C   0  0  1  0  0  0  0  0  0  0  0  0
   -0.3087   -1.1556    0.0882 H   0  0  0  0  0  0  0  0  0  0  0  0
   -1.1749    0.6534   -0.6787 C   0  0  0  0  0  0  0  0  0  0  0  0
   -0.1629    0.8500   -1.0348 H   0  0  0  0  0  0  0  0  0  0  0  0
   -1.7665    0.3306   -1.5370 H   0  0  0  0  0  0  0  0  0  0  0  0
   -1.7434    1.9506   -0.1365 C   0  0  0  0  0  0  0  0  0  0  0  0
   -1.3361    2.4344    1.1230 C   0  0  0  0  0  0  0  0  0  0  0  0
   -0.6344    1.8665    1.7199 H   0  0  0  0  0  0  0  0  0  0  0  0
   -1.8362    3.6599    1.6044 C   0  0  0  0  0  0  0  0  0  0  0  0
   -1.5233    4.0266    2.5700 H   0  0  0  0  0  0  0  0  0  0  0  0
   -2.7439    4.4059    0.8213 C   0  0  0  0  0  0  0  0  0  0  0  0
   -3.2296    5.5904    1.2753 O   0  0  0  0  0  0  0  0  0  0  0  0
   -2.9567    5.7713    2.1758 H   0  0  0  0  0  0  0  0  0  0  0  0
   -3.1466    3.9227   -0.4409 C   0  0  0  0  0  0  0  0  0  0  0  0
   -3.8445    4.5001   -1.0284 H   0  0  0  0  0  0  0  0  0  0  0  0
   -2.6485    2.6951   -0.9173 C   0  0  0  0  0  0  0  0  0  0  0  0
   -2.9655    2.3201   -1.8831 H   0  0  0  0  0  0  0  0  0  0  0  0
   -0.8664    0.0378    1.7736 C   0  0  0  0  0  0  0  0  0  0  0  0
    0.2529   -0.0672    2.2760 O   0  0  0  0  0  0  0  0  0  0  0  0
   -1.8947    0.5991    2.4221 N   0  0  0  0  0  0  0  0  0  0  0  0
   -2.7942    0.5936    1.9635 H   0  0  0  0  0  0  0  0  0  0  0  0
   -1.8170    1.1453    3.7750 C   0  0  0  0  0  0  0  0  0  0  0  0
   -0.9697    1.8290    3.8506 H   0  0  0  0  0  0  0  0  0  0  0  0
   -2.7354    1.6828    4.0167 H   0  0  0  0  0  0  0  0  0  0  0  0
   -1.6754    0.3334    4.4914 H   0  0  0  0  0  0  0  0  0  0  0  0
  5  6  2  0  0  0  0
  5  7  1  0  0  0  0
  2  3  1  0  0  0  0
  2  4  1  0  0  0  0
  2  5  1  0  0  0  0
  1  2  1  0  0  0  0
 26 27  2  0  0  0  0
 26 28  1  0  0  0  0
 24 25  1  0  0  0  0
 22 23  1  0  0  0  0
 22 24  2  0  0  0  0
 20 21  1  0  0  0  0
 19 20  1  0  0  0  0
 19 22  1  0  0  0  0
 17 18  1  0  0  0  0
 17 19  2  0  0  0  0
 15 16  1  0  0  0  0
 15 17  1  0  0  0  0
 14 15  2  0  0  0  0
 14 24  1  0  0  0  0
 11 12  1  0  0  0  0
 11 13  1  0  0  0  0
 11 14  1  0  0  0  0
  9 10  1  0  0  0  0
  9 11  1  0  0  0  0
  9 26  1  0  0  0  0
  7  8  1  0  0  0  0
  7  9  1  0  0  0  0
 30 31  1  0  0  0  0
 30 32  1  0  0  0  0
 30 33  1  0  0  0  0
 28 29  1  0  0  0  0
 28 30  1  0  0  0  0
M  END
$$$$
default_name
  -OEChem-02102213163D

 33 33  0     1  0  0  0  0  0999 V2000
   -4.0702   -3.8485    1.4554 H   0  0  0  0  0  0  0  0  0  0  0  0
   -4.0012   -2.9605    0.8284 C   0  0  0  0  0  0  0  0  0  0  0  0
   -4.7652   -2.2435    1.1234 H   0  0  0  0  0  0  0  0  0  0  0  0
   -4.1352   -3.2385   -0.2156 H   0  0  0  0  0  0  0  0  0  0  0  0
   -2.6362   -2.3395    1.0094 C   0  0  0  0  0  0  0  0  0  0  0  0
   -1.8292   -2.8395    1.7814 O   0  0  0  0  0  0  0  0  0  0  0  0
   -2.3832   -1.2445    0.2964 N   0  0  0  0  0  0  0  0  0  0  0  0
   -3.1102   -0.8685   -0.2946 H   0  0  0  0  0  0  0  0  0  0  0  0
   -1.1292   -0.4875    0.3524 C   0  0  1  0  0  0  0  0  0  0  0  0
   -0.3087   -1.1556    0.0882 H   0  0  0  0  0  0  0  0  0  0  0  0
   -1.1749    0.6534   -0.6787 C   0  0  0  0  0  0  0  0  0  0  0  0
   -0.1629    0.8500   -1.0348 H   0  0  0  0  0  0  0  0  0  0  0  0
   -1.7665    0.3306   -1.5370 H   0  0  0  0  0  0  0  0  0  0  0  0
   -1.7434    1.9506   -0.1365 C   0  0  0  0  0  0  0  0  0  0  0  0
   -1.1250    2.5985    0.9517 C   0  0  0  0  0  0  0  0  0  0  0  0
   -0.2556    2.1573    1.4214 H   0  0  0  0  0  0  0  0  0  0  0  0
   -1.6328    3.8238    1.4256 C   0  0  0  0  0  0  0  0  0  0  0  0
   -1.1577    4.3163    2.2600 H   0  0  0  0  0  0  0  0  0  0  0  0
   -2.7609    4.4047    0.8063 C   0  0  0  0  0  0  0  0  0  0  0  0
   -3.2565    5.5875    1.2540 O   0  0  0  0  0  0  0  0  0  0  0  0
   -2.8151    5.8858    2.0503 H   0  0  0  0  0  0  0  0  0  0  0  0
   -3.3755    3.7575   -0.2856 C   0  0  0  0  0  0  0  0  0  0  0  0
   -4.2401    4.2095   -0.7479 H   0  0  0  0  0  0  0  0  0  0  0  0
   -2.8683    2.5306   -0.7540 C   0  0  0  0  0  0  0  0  0  0  0  0
   -3.3466    2.0293   -1.5871 H   0  0  0  0  0  0  0  0  0  0  0  0
   -0.8664    0.0378    1.7736 C   0  0  0  0  0  0  0  0  0  0  0  0
    0.2529   -0.0672    2.2760 O   0  0  0  0  0  0  0  0  0  0  0  0
   -1.8947    0.5991    2.4221 N   0  0  0  0  0  0  0  0  0  0  0  0
   -2.7942    0.5936    1.9635 H   0  0  0  0  0  0  0  0  0  0  0  0
   -1.8170    1.1453    3.7750 C   0  0  0  0  0  0  0  0  0  0  0  0
   -0.9697    1.8290    3.8506 H   0  0  0  0  0  0  0  0  0  0  0  0
   -2.7354    1.6828    4.0167 H   0  0  0  0  0  0  0  0  0  0  0  0
   -1.6754    0.3334    4.4914 H   0  0  0  0  0  0  0  0  0  0  0  0
  5  6  2  0  0  0  0
  5  7  1  0  0  0  0
  2  3  1  0  0  0  0
  2  4  1  0  0  0  0
  2  5  1  0  0  0  0
  1  2  1  0  0  0  0
 26 27  2  0  0  0  0
 26 28  1  0  0  0  0
 24 25  1  0  0  0  0
 22 23  1  0  0  0  0
 22 24  2  0  0  0  0
 20 21  1  0  0  0  0
 19 20  1  0  0  0  0
 19 22  1  0  0  0  0
 17 18  1  0  0  0  0
 17 19  2  0  0  0  0
 15 16  1  0  0  0  0
 15 17  1  0  0  0  0
 14 15  2  0  0  0  0
 14 24  1  0  0  0  0
 11 12  1  0  0  0  0
 11 13  1  0  0  0  0
 11 14  1  0  0  0  0
  9 10  1  0  0  0  0
  9 11  1  0  0  0  0
  9 26  1  0  0  0  0
  7  8  1  0  0  0  0
  7  9  1  0  0  0  0
 30 31  1  0  0  0  0
 30 32  1  0  0  0  0
 30 33  1  0  0  0  0
 28 29  1  0  0  0  0
 28 30  1  0  0  0  0
M  END
$$$$
default_name
  -OEChem-02102213163D

 33 33  0     1  0  0  0  0  0999 V2000
   -4.0702   -3.8485    1.4554 H   0  0  0  0  0  0  0  0  0  0  0  0
   -4.0012   -2.9605    0.8284 C   0  0  0  0  0  0  0  0  0  0  0  0
   -4.7652   -2.2435    1.1234 H   0  0  0  0  0  0  0  0  0  0  0  0
   -4.1352   -3.2385   -0.2156 H   0  0  0  0  0  0  0  0  0  0  0  0
   -2.6362   -2.3395    1.0094 C   0  0  0  0  0  0  0  0  0  0  0  0
   -1.8292   -2.8395    1.7814 O   0  0  0  0  0  0  0  0  0  0  0  0
   -2.3832   -1.2445    0.2964 N   0  0  0  0  0  0  0  0  0  0  0  0
   -3.1102   -0.8685   -0.2946 H   0  0  0  0  0  0  0  0  0  0  0  0
   -1.1292   -0.4875    0.3524 C   0  0  1  0  0  0  0  0  0  0  0  0
   -0.3087   -1.1556    0.0882 H   0  0  0  0  0  0  0  0  0  0  0  0
   -1.1749    0.6534   -0.6787 C   0  0  0  0  0  0  0  0  0  0  0  0
   -0.1629    0.8500   -1.0348 H   0  0  0  0  0  0  0  0  0  0  0  0
   -1.7665    0.3306   -1.5370 H   0  0  0  0  0  0  0  0  0  0  0  0
   -1.7434    1.9506   -0.1365 C   0  0  0  0  0  0  0  0  0  0  0  0
   -0.9742    2.7599    0.7235 C   0  0  0  0  0  0  0  0  0  0  0  0
    0.0172    2.4441    1.0210 H   0  0  0  0  0  0  0  0  0  0  0  0
   -1.4912    3.9835    1.1920 C   0  0  0  0  0  0  0  0  0  0  0  0
   -0.9000    4.5999    1.8516 H   0  0  0  0  0  0  0  0  0  0  0  0
   -2.7806    4.4005    0.7957 C   0  0  0  0  0  0  0  0  0  0  0  0
   -3.2870    5.5802    1.2396 O   0  0  0  0  0  0  0  0  0  0  0  0
   -2.7167    5.9973    1.8868 H   0  0  0  0  0  0  0  0  0  0  0  0
   -3.5470    3.5918   -0.0688 C   0  0  0  0  0  0  0  0  0  0  0  0
   -4.5332    3.9194   -0.3612 H   0  0  0  0  0  0  0  0  0  0  0  0
   -3.0293    2.3671   -0.5317 C   0  0  0  0  0  0  0  0  0  0  0  0
   -3.6223    1.7419   -1.1885 H   0  0  0  0  0  0  0  0  0  0  0  0
   -0.8664    0.0378    1.7736 C   0  0  0  0  0  0  0  0  0  0  0  0
    0.2529   -0.0672    2.2760 O   0  0  0  0  0  0  0  0  0  0  0  0
   -1.8947    0.5991    2.4221 N   0  0  0  0  0  0  0  0  0  0  0  0
   -2.7942    0.5936    1.9635 H   0  0  0  0  0  0  0  0  0  0  0  0
   -1.8170    1.1453    3.7750 C   0  0  0  0  0  0  0  0  0  0  0  0
   -0.9697    1.8290    3.8506 H   0  0  0  0  0  0  0  0  0  0  0  0
   -2.7354    1.6828    4.0167 H   0  0  0  0  0  0  0  0  0  0  0  0
   -1.6754    0.3334    4.4914 H   0  0  0  0  0  0  0  0  0  0  0  0
  5  6  2  0  0  0  0
  5  7  1  0  0  0  0
  2  3  1  0  0  0  0
  2  4  1  0  0  0  0
  2  5  1  0  0  0  0
  1  2  1  0  0  0  0
 26 27  2  0  0  0  0
 26 28  1  0  0  0  0
 24 25  1  0  0  0  0
 22 23  1  0  0  0  0
 22 24  2  0  0  0  0
 20 21  1  0  0  0  0
 19 20  1  0  0  0  0
 19 22  1  0  0  0  0
 17 18  1  0  0  0  0
 17 19  2  0  0  0  0
 15 16  1  0  0  0  0
 15 17  1  0  0  0  0
 14 15  2  0  0  0  0
 14 24  1  0  0  0  0
 11 12  1  0  0  0  0
 11 13  1  0  0  0  0
 11 14  1  0  0  0  0
  9 10  1  0  0  0  0
  9 11  1  0  0  0  0
  9 26  1  0  0  0  0
  7  8  1  0  0  0  0
  7  9  1  0  0  0  0
 30 31  1  0  0  0  0
 30 32  1  0  0  0  0
 30 33  1  0  0  0  0
 28 29  1  0  0  0  0
 28 30  1  0  0  0  0
M  END
$$$$
default_name
  -OEChem-02102213163D

 33 33  0     1  0  0  0  0  0999 V2000
   -4.0702   -3.8485    1.4554 H   0  0  0  0  0  0  0  0  0  0  0  0
   -4.0012   -2.9605    0.8284 C   0  0  0  0  0  0  0  0  0  0  0  0
   -4.7652   -2.2435    1.1234 H   0  0  0  0  0  0  0  0  0  0  0  0
   -4.1352   -3.2385   -0.2156 H   0  0  0  0  0  0  0  0  0  0  0  0
   -2.6362   -2.3395    1.0094 C   0  0  0  0  0  0  0  0  0  0  0  0
   -1.8292   -2.8395    1.7814 O   0  0  0  0  0  0  0  0  0  0  0  0
   -2.3832   -1.2445    0.2964 N   0  0  0  0  0  0  0  0  0  0  0  0
   -3.1102   -0.8685   -0.2946 H   0  0  0  0  0  0  0  0  0  0  0  0
   -1.1292   -0.4875    0.3524 C   0  0  1  0  0  0  0  0  0  0  0  0
   -0.3087   -1.1556    0.0882 H   0  0  0  0  0  0  0  0  0  0  0  0
   -1.1749    0.6534   -0.6787 C   0  0  0  0  0  0  0  0  0  0  0  0
   -0.1629    0.8500   -1.0348 H   0  0  0  0  0  0  0  0  0  0  0  0
   -1.7665    0.3306   -1.5370 H   0  0  0  0  0  0  0  0  0  0  0  0
   -1.7434    1.9506   -0.1365 C   0  0  0  0  0  0  0  0  0  0  0  0
   -0.8940    2.9077    0.4541 C   0  0  0  0  0  0  0  0  0  0  0  0
    0.1656    2.7077    0.5461 H   0  0  0  0  0  0  0  0  0  0  0  0
   -1.4208    4.1282    0.9195 C   0  0  0  0  0  0  0  0  0  0  0  0
   -0.7677    4.8581    1.3726 H   0  0  0  0  0  0  0  0  0  0  0  0
   -2.8015    4.3937    0.7902 C   0  0  0  0  0  0  0  0  0  0  0  0
   -3.3189    5.5689    1.2332 O   0  0  0  0  0  0  0  0  0  0  0  0
   -2.6681    6.0982    1.6961 H   0  0  0  0  0  0  0  0  0  0  0  0
   -3.6493    3.4368    0.1946 C   0  0  0  0  0  0  0  0  0  0  0  0
   -4.7039    3.6496    0.1054 H   0  0  0  0  0  0  0  0  0  0  0  0
   -3.1204    2.2159   -0.2655 C   0  0  0  0  0  0  0  0  0  0  0  0
   -3.7738    1.4775   -0.7146 H   0  0  0  0  0  0  0  0  0  0  0  0
   -0.8664    0.0378    1.7736 C   0  0  0  0  0  0  0  0  0  0  0  0
    0.2529   -0.0672    2.2760 O   0  0  0  0  0  0  0  0  0  0  0  0
   -1.8947    0.5991    2.4221 N   0  0  0  0  0  0  0  0  0  0  0  0
   -2.7942    0.5936    1.9635 H   0  0  0  0  0  0  0  0  0  0  0  0
   -1.8170    1.1453    3.7750 C   0  0  0  0  0  0  0  0  0  0  0  0
   -0.9697    1.8290    3.8506 H   0  0  0  0  0  0  0  0  0  0  0  0
   -2.7354    1.6828    4.0167 H   0  0  0  0  0  0  0  0  0  0  0  0
   -1.6754    0.3334    4.4914 H   0  0  0  0  0  0  0  0  0  0  0  0
  5  6  2  0  0  0  0
  5  7  1  0  0  0  0
  2  3  1  0  0  0  0
  2  4  1  0  0  0  0
  2  5  1  0  0  0  0
  1  2  1  0  0  0  0
 26 27  2  0  0  0  0
 26 28  1  0  0  0  0
 24 25  1  0  0  0  0
 22 23  1  0  0  0  0
 22 24  2  0  0  0  0
 20 21  1  0  0  0  0
 19 20  1  0  0  0  0
 19 22  1  0  0  0  0
 17 18  1  0  0  0  0
 17 19  2  0  0  0  0
 15 16  1  0  0  0  0
 15 17  1  0  0  0  0
 14 15  2  0  0  0  0
 14 24  1  0  0  0  0
 11 12  1  0  0  0  0
 11 13  1  0  0  0  0
 11 14  1  0  0  0  0
  9 10  1  0  0  0  0
  9 11  1  0  0  0  0
  9 26  1  0  0  0  0
  7  8  1  0  0  0  0
  7  9  1  0  0  0  0
 30 31  1  0  0  0  0
 30 32  1  0  0  0  0
 30 33  1  0  0  0  0
 28 29  1  0  0  0  0
 28 30  1  0  0  0  0
M  END
$$$$
default_name
  -OEChem-02102213163D

 33 33  0     1  0  0  0  0  0999 V2000
   -4.0702   -3.8485    1.4554 H   0  0  0  0  0  0  0  0  0  0  0  0
   -4.0012   -2.9605    0.8284 C   0  0  0  0  0  0  0  0  0  0  0  0
   -4.7652   -2.2435    1.1234 H   0  0  0  0  0  0  0  0  0  0  0  0
   -4.1352   -3.2385   -0.2156 H   0  0  0  0  0  0  0  0  0  0  0  0
   -2.6362   -2.3395    1.0094 C   0  0  0  0  0  0  0  0  0  0  0  0
   -1.8292   -2.8395    1.7814 O   0  0  0  0  0  0  0  0  0  0  0  0
   -2.3832   -1.2445    0.2964 N   0  0  0  0  0  0  0  0  0  0  0  0
   -3.1102   -0.8685   -0.2946 H   0  0  0  0  0  0  0  0  0  0  0  0
   -1.1292   -0.4875    0.3524 C   0  0  1  0  0  0  0  0  0  0  0  0
   -0.3087   -1.1556    0.0882 H   0  0  0  0  0  0  0  0  0  0  0  0
   -1.1749    0.6534   -0.6787 C   0  0  0  0  0  0  0  0  0  0  0  0
   -0.1629    0.8500   -1.0348 H   0  0  0  0  0  0  0  0  0  0  0  0
   -1.7665    0.3306   -1.5370 H   0  0  0  0  0  0  0  0  0  0  0  0
   -1.7434    1.9506   -0.1365 C   0  0  0  0  0  0  0  0  0  0  0  0
   -0.8898    3.0317    0.1617 C   0  0  0  0  0  0  0  0  0  0  0  0
    0.1793    2.9299    0.0289 H   0  0  0  0  0  0  0  0  0  0  0  0
   -1.4266    4.2481    0.6266 C   0  0  0  0  0  0  0  0  0  0  0  0
   -0.7699    5.0733    0.8555 H   0  0  0  0  0  0  0  0  0  0  0  0
   -2.8224    4.3845    0.7902 C   0  0  0  0  0  0  0  0  0  0  0  0
   -3.3501    5.5544    1.2352 O   0  0  0  0  0  0  0  0  0  0  0  0
   -2.6728    6.1817    1.4915 H   0  0  0  0  0  0  0  0  0  0  0  0
   -3.6754    3.3033    0.4867 C   0  0  0  0  0  0  0  0  0  0  0  0
   -4.7406    3.4184    0.6200 H   0  0  0  0  0  0  0  0  0  0  0  0
   -3.1355    2.0873    0.0265 C   0  0  0  0  0  0  0  0  0  0  0  0
   -3.7908    1.2540   -0.1977 H   0  0  0  0  0  0  0  0  0  0  0  0
   -0.8664    0.0378    1.7736 C   0  0  0  0  0  0  0  0  0  0  0  0
    0.2529   -0.0672    2.2760 O   0  0  0  0  0  0  0  0  0  0  0  0
   -1.8947    0.5991    2.4221 N   0  0  0  0  0  0  0  0  0  0  0  0
   -2.7942    0.5936    1.9635 H   0  0  0  0  0  0  0  0  0  0  0  0
   -1.8170    1.1453    3.7750 C   0  0  0  0  0  0  0  0  0  0  0  0
   -0.9697    1.8290    3.8506 H   0  0  0  0  0  0  0  0  0  0  0  0
   -2.7354    1.6828    4.0167 H   0  0  0  0  0  0  0  0  0  0  0  0
   -1.6754    0.3334    4.4914 H   0  0  0  0  0  0  0  0  0  0  0  0
  5  6  2  0  0  0  0
  5  7  1  0  0  0  0
  2  3  1  0  0  0  0
  2  4  1  0  0  0  0
  2  5  1  0  0  0  0
  1  2  1  0  0  0  0
 26 27  2  0  0  0  0
 26 28  1  0  0  0  0
 24 25  1  0  0  0  0
 22 23  1  0  0  0  0
 22 24  2  0  0  0  0
 20 21  1  0  0  0  0
 19 20  1  0  0  0  0
 19 22  1  0  0  0  0
 17 18  1  0  0  0  0
 17 19  2  0  0  0  0
 15 16  1  0  0  0  0
 15 17  1  0  0  0  0
 14 15  2  0  0  0  0
 14 24  1  0  0  0  0
 11 12  1  0  0  0  0
 11 13  1  0  0  0  0
 11 14  1  0  0  0  0
  9 10  1  0  0  0  0
  9 11  1  0  0  0  0
  9 26  1  0  0  0  0
  7  8  1  0  0  0  0
  7  9  1  0  0  0  0
 30 31  1  0  0  0  0
 30 32  1  0  0  0  0
 30 33  1  0  0  0  0
 28 29  1  0  0  0  0
 28 30  1  0  0  0  0
M  END
$$$$
default_name
  -OEChem-02102213163D

 33 33  0     1  0  0  0  0  0999 V2000
   -4.0702   -3.8485    1.4554 H   0  0  0  0  0  0  0  0  0  0  0  0
   -4.0012   -2.9605    0.8284 C   0  0  0  0  0  0  0  0  0  0  0  0
   -4.7652   -2.2435    1.1234 H   0  0  0  0  0  0  0  0  0  0  0  0
   -4.1352   -3.2385   -0.2156 H   0  0  0  0  0  0  0  0  0  0  0  0
   -2.6362   -2.3395    1.0094 C   0  0  0  0  0  0  0  0  0  0  0  0
   -1.8292   -2.8395    1.7814 O   0  0  0  0  0  0  0  0  0  0  0  0
   -2.3832   -1.2445    0.2964 N   0  0  0  0  0  0  0  0  0  0  0  0
   -3.1102   -0.8685   -0.2946 H   0  0  0  0  0  0  0  0  0  0  0  0
   -1.1292   -0.4875    0.3524 C   0  0  1  0  0  0  0  0  0  0  0  0
   -0.3087   -1.1556    0.0882 H   0  0  0  0  0  0  0  0  0  0  0  0
   -1.1749    0.6534   -0.6787 C   0  0  0  0  0  0  0  0  0  0  0  0
   -0.1629    0.8500   -1.0348 H   0  0  0  0  0  0  0  0  0  0  0  0
   -1.7665    0.3306   -1.5370 H   0  0  0  0  0  0  0  0  0  0  0  0
   -1.7434    1.9506   -0.1365 C   0  0  0  0  0  0  0  0  0  0  0  0
   -0.9620    3.1235   -0.1337 C   0  0  0  0  0  0  0  0  0  0  0  0
    0.0576    3.0956   -0.4953 H   0  0  0  0  0  0  0  0  0  0  0  0
   -1.5081    4.3349    0.3334 C   0  0  0  0  0  0  0  0  0  0  0  0
   -0.9064    5.2308    0.3356 H   0  0  0  0  0  0  0  0  0  0  0  0
   -2.8416    4.3738    0.7957 C   0  0  0  0  0  0  0  0  0  0  0  0
   -3.3785    5.5377    1.2454 O   0  0  0  0  0  0  0  0  0  0  0  0
   -2.7303    6.2421    1.2867 H   0  0  0  0  0  0  0  0  0  0  0  0
   -3.6237    3.2002    0.7876 C   0  0  0  0  0  0  0  0  0  0  0  0
   -4.6406    3.2417    1.1477 H   0  0  0  0  0  0  0  0  0  0  0  0
   -3.0735    1.9899    0.3244 C   0  0  0  0  0  0  0  0  0  0  0  0
   -3.6720    1.0867    0.3271 H   0  0  0  0  0  0  0  0  0  0  0  0
   -0.8664    0.0378    1.7736 C   0  0  0  0  0  0  0  0  0  0  0  0
    0.2529   -0.0672    2.2760 O   0  0  0  0  0  0  0  0  0  0  0  0
   -1.8947    0.5991    2.4221 N   0  0  0  0  0  0  0  0  0  0  0  0
   -2.7942    0.5936    1.9635 H   0  0  0  0  0  0  0  0  0  0  0  0
   -1.8170    1.1453    3.7750 C   0  0  0  0  0  0  0  0  0  0  0  0
   -0.9697    1.8290    3.8506 H   0  0  0  0  0  0  0  0  0  0  0  0
   -2.7354    1.6828    4.0167 H   0  0  0  0  0  0  0  0  0  0  0  0
   -1.6754    0.3334    4.4914 H   0  0  0  0  0  0  0  0  0  0  0  0
  5  6  2  0  0  0  0
  5  7  1  0  0  0  0
  2  3  1  0  0  0  0
  2  4  1  0  0  0  0
  2  5  1  0  0  0  0
  1  2  1  0  0  0  0
 26 27  2  0  0  0  0
 26 28  1  0  0  0  0
 24 25  1  0  0  0  0
 22 23  1  0  0  0  0
 22 24  2  0  0  0  0
 20 21  1  0  0  0  0
 19 20  1  0  0  0  0
 19 22  1  0  0  0  0
 17 18  1  0  0  0  0
 17 19  2  0  0  0  0
 15 16  1  0  0  0  0
 15 17  1  0  0  0  0
 14 15  2  0  0  0  0
 14 24  1  0  0  0  0
 11 12  1  0  0  0  0
 11 13  1  0  0  0  0
 11 14  1  0  0  0  0
  9 10  1  0  0  0  0
  9 11  1  0  0  0  0
  9 26  1  0  0  0  0
  7  8  1  0  0  0  0
  7  9  1  0  0  0  0
 30 31  1  0  0  0  0
 30 32  1  0  0  0  0
 30 33  1  0  0  0  0
 28 29  1  0  0  0  0
 28 30  1  0  0  0  0
M  END
$$$$
default_name
  -OEChem-02102213163D

 33 33  0     1  0  0  0  0  0999 V2000
   -4.0702   -3.8485    1.4554 H   0  0  0  0  0  0  0  0  0  0  0  0
   -4.0012   -2.9605    0.8284 C   0  0  0  0  0  0  0  0  0  0  0  0
   -4.7652   -2.2435    1.1234 H   0  0  0  0  0  0  0  0  0  0  0  0
   -4.1352   -3.2385   -0.2156 H   0  0  0  0  0  0  0  0  0  0  0  0
   -2.6362   -2.3395    1.0094 C   0  0  0  0  0  0  0  0  0  0  0  0
   -1.8292   -2.8395    1.7814 O   0  0  0  0  0  0  0  0  0  0  0  0
   -2.3832   -1.2445    0.2964 N   0  0  0  0  0  0  0  0  0  0  0  0
   -3.1102   -0.8685   -0.2946 H   0  0  0  0  0  0  0  0  0  0  0  0
   -1.1292   -0.4875    0.3524 C   0  0  1  0  0  0  0  0  0  0  0  0
   -0.3087   -1.1556    0.0882 H   0  0  0  0  0  0  0  0  0  0  0  0
   -1.1749    0.6534   -0.6787 C   0  0  0  0  0  0  0  0  0  0  0  0
   -0.1629    0.8500   -1.0348 H   0  0  0  0  0  0  0  0  0  0  0  0
   -1.7665    0.3306   -1.5370 H   0  0  0  0  0  0  0  0  0  0  0  0
   -1.7434    1.9506   -0.1365 C   0  0  0  0  0  0  0  0  0  0  0  0
   -1.1056    3.1769   -0.4119 C   0  0  0  0  0  0  0  0  0  0  0  0
   -0.1914    3.1935   -0.9907 H   0  0  0  0  0  0  0  0  0  0  0  0
   -1.6597    4.3828    0.0598 C   0  0  0  0  0  0  0  0  0  0  0  0
   -1.1679    5.3198   -0.1516 H   0  0  0  0  0  0  0  0  0  0  0  0
   -2.8580    4.3622    0.8063 C   0  0  0  0  0  0  0  0  0  0  0  0
   -3.4020    5.5199    1.2632 O   0  0  0  0  0  0  0  0  0  0  0  0
   -2.8368    6.2752    1.0958 H   0  0  0  0  0  0  0  0  0  0  0  0
   -3.4975    3.1346    1.0768 C   0  0  0  0  0  0  0  0  0  0  0  0
   -4.4109    3.1314    1.6524 H   0  0  0  0  0  0  0  0  0  0  0  0
   -2.9387    1.9305    0.6078 C   0  0  0  0  0  0  0  0  0  0  0  0
   -3.4256    0.9870    0.8239 H   0  0  0  0  0  0  0  0  0  0  0  0
   -0.8664    0.0378    1.7736 C   0  0  0  0  0  0  0  0  0  0  0  0
    0.2529   -0.0672    2.2760 O   0  0  0  0  0  0  0  0  0  0  0  0
   -1.8947    0.5991    2.4221 N   0  0  0  0  0  0  0  0  0  0  0  0
   -2.7942    0.5936    1.9635 H   0  0  0  0  0  0  0  0  0  0  0  0
   -1.8170    1.1453    3.7750 C   0  0  0  0  0  0  0  0  0  0  0  0
   -0.9697    1.8290    3.8506 H   0  0  0  0  0  0  0  0  0  0  0  0
   -2.7354    1.6828    4.0167 H   0  0  0  0  0  0  0  0  0  0  0  0
   -1.6754    0.3334    4.4914 H   0  0  0  0  0  0  0  0  0  0  0  0
  5  6  2  0  0  0  0
  5  7  1  0  0  0  0
  2  3  1  0  0  0  0
  2  4  1  0  0  0  0
  2  5  1  0  0  0  0
  1  2  1  0  0  0  0
 26 27  2  0  0  0  0
 26 28  1  0  0  0  0
 24 25  1  0  0  0  0
 22 23  1  0  0  0  0
 22 24  2  0  0  0  0
 20 21  1  0  0  0  0
 19 20  1  0  0  0  0
 19 22  1  0  0  0  0
 17 18  1  0  0  0  0
 17 19  2  0  0  0  0
 15 16  1  0  0  0  0
 15 17  1  0  0  0  0
 14 15  2  0  0  0  0
 14 24  1  0  0  0  0
 11 12  1  0  0  0  0
 11 13  1  0  0  0  0
 11 14  1  0  0  0  0
  9 10  1  0  0  0  0
  9 11  1  0  0  0  0
  9 26  1  0  0  0  0
  7  8  1  0  0  0  0
  7  9  1  0  0  0  0
 30 31  1  0  0  0  0
 30 32  1  0  0  0  0
 30 33  1  0  0  0  0
 28 29  1  0  0  0  0
 28 30  1  0  0  0  0
M  END
$$$$
default_name
  -OEChem-02102213163D

 33 33  0     1  0  0  0  0  0999 V2000
   -4.0702   -3.8485    1.4554 H   0  0  0  0  0  0  0  0  0  0  0  0
   -4.0012   -2.9605    0.8284 C   0  0  0  0  0  0  0  0  0  0  0  0
   -4.7652   -2.2435    1.1234 H   0  0  0  0  0  0  0  0  0  0  0  0
   -4.1352   -3.2385   -0.2156 H   0  0  0  0  0  0  0  0  0  0  0  0
   -2.6362   -2.3395    1.0094 C   0  0  0  0  0  0  0  0  0  0  0  0
   -1.8292   -2.8395    1.7814 O   0  0  0  0  0  0  0  0  0  0  0  0
   -2.3832   -1.2445    0.2964 N   0  0  0  0  0  0  0  0  0  0  0  0
   -3.1102   -0.8685   -0.2946 H   0  0  0  0  0  0  0  0  0  0  0  0
   -1.1292   -0.4875    0.3524 C   0  0  1  0  0  0  0  0  0  0  0  0
   -0.3087   -1.1556    0.0882 H   0  0  0  0  0  0  0  0  0  0  0  0
   -1.1749    0.6534   -0.6787 C   0  0  0  0  0  0  0  0  0  0  0  0
   -0.1629    0.8500   -1.0348 H   0  0  0  0  0  0  0  0  0  0  0  0
   -1.7665    0.3306   -1.5370 H   0  0  0  0  0  0  0  0  0  0  0  0
   -1.7434    1.9506   -0.1365 C   0  0  0  0  0  0  0  0  0  0  0  0
   -1.3109    3.1881   -0.6540 C   0  0  0  0  0  0  0  0  0  0  0  0
   -0.5507    3.2171   -1.4236 H   0  0  0  0  0  0  0  0  0  0  0  0
   -1.8713    4.3885   -0.1755 C   0  0  0  0  0  0  0  0  0  0  0  0
   -1.5366    5.3343   -0.5729 H   0  0  0  0  0  0  0  0  0  0  0  0
   -2.8705    4.3504    0.8214 C   0  0  0  0  0  0  0  0  0  0  0  0
   -3.4193    5.5023    1.2873 O   0  0  0  0  0  0  0  0  0  0  0  0
   -2.9850    6.2788    0.9317 H   0  0  0  0  0  0  0  0  0  0  0  0
   -3.3056    3.1110    1.3345 C   0  0  0  0  0  0  0  0  0  0  0  0
   -4.0671    3.0951    2.0997 H   0  0  0  0  0  0  0  0  0  0  0  0
   -2.7402    1.9131    0.8575 C   0  0  0  0  0  0  0  0  0  0  0  0
   -3.0684    0.9617    1.2589 H   0  0  0  0  0  0  0  0  0  0  0  0
   -0.8664    0.0378    1.7736 C   0  0  0  0  0  0  0  0  0  0  0  0
    0.2529   -0.0672    2.2760 O   0  0  0  0  0  0  0  0  0  0  0  0
   -1.8947    0.5991    2.4221 N   0  0  0  0  0  0  0  0  0  0  0  0
   -2.7942    0.5936    1.9635 H   0  0  0  0  0  0  0  0  0  0  0  0
   -1.8170    1.1453    3.7750 C   0  0  0  0  0  0  0  0  0  0  0  0
   -0.9697    1.8290    3.8506 H   0  0  0  0  0  0  0  0  0  0  0  0
   -2.7354    1.6828    4.0167 H   0  0  0  0  0  0  0  0  0  0  0  0
   -1.6754    0.3334    4.4914 H   0  0  0  0  0  0  0  0  0  0  0  0
  5  6  2  0  0  0  0
  5  7  1  0  0  0  0
  2  3  1  0  0  0  0
  2  4  1  0  0  0  0
  2  5  1  0  0  0  0
  1  2  1  0  0  0  0
 26 27  2  0  0  0  0
 26 28  1  0  0  0  0
 24 25  1  0  0  0  0
 22 23  1  0  0  0  0
 22 24  2  0  0  0  0
 20 21  1  0  0  0  0
 19 20  1  0  0  0  0
 19 22  1  0  0  0  0
 17 18  1  0  0  0  0
 17 19  2  0  0  0  0
 15 16  1  0  0  0  0
 15 17  1  0  0  0  0
 14 15  2  0  0  0  0
 14 24  1  0  0  0  0
 11 12  1  0  0  0  0
 11 13  1  0  0  0  0
 11 14  1  0  0  0  0
  9 10  1  0  0  0  0
  9 11  1  0  0  0  0
  9 26  1  0  0  0  0
  7  8  1  0  0  0  0
  7  9  1  0  0  0  0
 30 31  1  0  0  0  0
 30 32  1  0  0  0  0
 30 33  1  0  0  0  0
 28 29  1  0  0  0  0
 28 30  1  0  0  0  0
M  END
$$$$
default_name
  -OEChem-02102213163D

 33 33  0     1  0  0  0  0  0999 V2000
   -4.0702   -3.8485    1.4554 H   0  0  0  0  0  0  0  0  0  0  0  0
   -4.0012   -2.9605    0.8284 C   0  0  0  0  0  0  0  0  0  0  0  0
   -4.7652   -2.2435    1.1234 H   0  0  0  0  0  0  0  0  0  0  0  0
   -4.1352   -3.2385   -0.2156 H   0  0  0  0  0  0  0  0  0  0  0  0
   -2.6362   -2.3395    1.0094 C   0  0  0  0  0  0  0  0  0  0  0  0
   -1.8292   -2.8395    1.7814 O   0  0  0  0  0  0  0  0  0  0  0  0
   -2.3832   -1.2445    0.2964 N   0  0  0  0  0  0  0  0  0  0  0  0
   -3.1102   -0.8685   -0.2946 H   0  0  0  0  0  0  0  0  0  0  0  0
   -1.1292   -0.4875    0.3524 C   0  0  1  0  0  0  0  0  0  0  0  0
   -0.3087   -1.1556    0.0882 H   0  0  0  0  0  0  0  0  0  0  0  0
   -1.1749    0.6534   -0.6787 C   0  0  0  0  0  0  0  0  0  0  0  0
   -0.1629    0.8500   -1.0348 H   0  0  0  0  0  0  0  0  0  0  0  0
   -1.7665    0.3306   -1.5370 H   0  0  0  0  0  0  0  0  0  0  0  0
   -1.7434    1.9506   -0.1365 C   0  0  0  0  0  0  0  0  0  0  0  0
   -1.5637    3.1565   -0.8435 C   0  0  0  0  0  0  0  0  0  0  0  0
   -0.9957    3.1645   -1.7645 H   0  0  0  0  0  0  0  0  0  0  0  0
   -2.1282    4.3516   -0.3566 C   0  0  0  0  0  0  0  0  0  0  0  0
   -1.9873    5.2734   -0.8997 H   0  0  0  0  0  0  0  0  0  0  0  0
   -2.8780    4.3394    0.8397 C   0  0  0  0  0  0  0  0  0  0  0  0
   -3.4289    5.4860    1.3161 O   0  0  0  0  0  0  0  0  0  0  0  0
   -3.1648    6.2527    0.8058 H   0  0  0  0  0  0  0  0  0  0  0  0
   -3.0609    3.1309    1.5433 C   0  0  0  0  0  0  0  0  0  0  0  0
   -3.6326    3.1353    2.4592 H   0  0  0  0  0  0  0  0  0  0  0  0
   -2.4916    1.9389    1.0565 C   0  0  0  0  0  0  0  0  0  0  0  0
   -2.6247    1.0126    1.6025 H   0  0  0  0  0  0  0  0  0  0  0  0
   -0.8664    0.0378    1.7736 C   0  0  0  0  0  0  0  0  0  0  0  0
    0.2529   -0.0672    2.2760 O   0  0  0  0  0  0  0  0  0  0  0  0
   -1.8947    0.5991    2.4221 N   0  0  0  0  0  0  0  0  0  0  0  0
   -2.7942    0.5936    1.9635 H   0  0  0  0  0  0  0  0  0  0  0  0
   -1.8170    1.1453    3.7750 C   0  0  0  0  0  0  0  0  0  0  0  0
   -0.9697    1.8290    3.8506 H   0  0  0  0  0  0  0  0  0  0  0  0
   -2.7354    1.6828    4.0167 H   0  0  0  0  0  0  0  0  0  0  0  0
   -1.6754    0.3334    4.4914 H   0  0  0  0  0  0  0  0  0  0  0  0
  5  6  2  0  0  0  0
  5  7  1  0  0  0  0
  2  3  1  0  0  0  0
  2  4  1  0  0  0  0
  2  5  1  0  0  0  0
  1  2  1  0  0  0  0
 26 27  2  0  0  0  0
 26 28  1  0  0  0  0
 24 25  1  0  0  0  0
 22 23  1  0  0  0  0
 22 24  2  0  0  0  0
 20 21  1  0  0  0  0
 19 20  1  0  0  0  0
 19 22  1  0  0  0  0
 17 18  1  0  0  0  0
 17 19  2  0  0  0  0
 15 16  1  0  0  0  0
 15 17  1  0  0  0  0
 14 15  2  0  0  0  0
 14 24  1  0  0  0  0
 11 12  1  0  0  0  0
 11 13  1  0  0  0  0
 11 14  1  0  0  0  0
  9 10  1  0  0  0  0
  9 11  1  0  0  0  0
  9 26  1  0  0  0  0
  7  8  1  0  0  0  0
  7  9  1  0  0  0  0
 30 31  1  0  0  0  0
 30 32  1  0  0  0  0
 30 33  1  0  0  0  0
 28 29  1  0  0  0  0
 28 30  1  0  0  0  0
M  END
$$$$
default_name
  -OEChem-02102213163D

 33 33  0     1  0  0  0  0  0999 V2000
   -4.0702   -3.8485    1.4554 H   0  0  0  0  0  0  0  0  0  0  0  0
   -4.0012   -2.9605    0.8284 C   0  0  0  0  0  0  0  0  0  0  0  0
   -4.7652   -2.2435    1.1234 H   0  0  0  0  0  0  0  0  0  0  0  0
   -4.1352   -3.2385   -0.2156 H   0  0  0  0  0  0  0  0  0  0  0  0
   -2.6362   -2.3395    1.0094 C   0  0  0  0  0  0  0  0  0  0  0  0
   -1.8292   -2.8395    1.7814 O   0  0  0  0  0  0  0  0  0  0  0  0
   -2.3832   -1.2445    0.2964 N   0  0  0  0  0  0  0  0  0  0  0  0
   -3.1102   -0.8685   -0.2946 H   0  0  0  0  0  0  0  0  0  0  0  0
   -1.1292   -0.4875    0.3524 C   0  0  1  0  0  0  0  0  0  0  0  0
   -0.3087   -1.1556    0.0882 H   0  0  0  0  0  0  0  0  0  0  0  0
   -1.1749    0.6534   -0.6787 C   0  0  0  0  0  0  0  0  0  0  0  0
   -0.2320    0.6739   -1.2266 H   0  0  0  0  0  0  0  0  0  0  0  0
   -1.9675    0.4465   -1.3998 H   0  0  0  0  0  0  0  0  0  0  0  0
   -1.3956    2.0248   -0.0699 C   0  0  0  0  0  0  0  0  0  0  0  0
   -1.4600    3.1667   -0.8934 C   0  0  0  0  0  0  0  0  0  0  0  0
   -1.3258    3.0710   -1.9629 H   0  0  0  0  0  0  0  0  0  0  0  0
   -1.7055    4.4328   -0.3273 C   0  0  0  0  0  0  0  0  0  0  0  0
   -1.7526    5.3053   -0.9607 H   0  0  0  0  0  0  0  0  0  0  0  0
   -1.8908    4.5564    1.0670 C   0  0  0  0  0  0  0  0  0  0  0  0
   -2.1310    5.7725    1.6223 O   0  0  0  0  0  0  0  0  0  0  0  0
   -2.0611    6.4819    0.9821 H   0  0  0  0  0  0  0  0  0  0  0  0
   -1.8309    3.4119    1.8890 C   0  0  0  0  0  0  0  0  0  0  0  0
   -1.9699    3.5199    2.9541 H   0  0  0  0  0  0  0  0  0  0  0  0
   -1.5808    2.1484    1.3206 C   0  0  0  0  0  0  0  0  0  0  0  0
   -1.5257    1.2709    1.9539 H   0  0  0  0  0  0  0  0  0  0  0  0
   -0.8664    0.0378    1.7736 C   0  0  0  0  0  0  0  0  0  0  0  0
    0.2529   -0.0672    2.2760 O   0  0  0  0  0  0  0  0  0  0  0  0
   -1.8947    0.5991    2.4221 N   0  0  0  0  0  0  0  0  0  0  0  0
   -2.7942    0.5936    1.9635 H   0  0  0  0  0  0  0  0  0  0  0  0
   -1.8170    1.1453    3.7750 C   0  0  0  0  0  0  0  0  0  0  0  0
   -0.9697    1.8290    3.8506 H   0  0  0  0  0  0  0  0  0  0  0  0
   -2.7354    1.6828    4.0167 H   0  0  0  0  0  0  0  0  0  0  0  0
   -1.6754    0.3334    4.4914 H   0  0  0  0  0  0  0  0  0  0  0  0
  5  6  2  0  0  0  0
  5  7  1  0  0  0  0
  2  3  1  0  0  0  0
  2  4  1  0  0  0  0
  2  5  1  0  0  0  0
  1  2  1  0  0  0  0
 26 27  2  0  0  0  0
 26 28  1  0  0  0  0
 24 25  1  0  0  0  0
 22 23  1  0  0  0  0
 22 24  2  0  0  0  0
 20 21  1  0  0  0  0
 19 20  1  0  0  0  0
 19 22  1  0  0  0  0
 17 18  1  0  0  0  0
 17 19  2  0  0  0  0
 15 16  1  0  0  0  0
 15 17  1  0  0  0  0
 14 15  2  0  0  0  0
 14 24  1  0  0  0  0
 11 12  1  0  0  0  0
 11 13  1  0  0  0  0
 11 14  1  0  0  0  0
  9 10  1  0  0  0  0
  9 11  1  0  0  0  0
  9 26  1  0  0  0  0
  7  8  1  0  0  0  0
  7  9  1  0  0  0  0
 30 31  1  0  0  0  0
 30 32  1  0  0  0  0
 30 33  1  0  0  0  0
 28 29  1  0  0  0  0
 28 30  1  0  0  0  0
M  END
$$$$
default_name
  -OEChem-02102213163D

 33 33  0     1  0  0  0  0  0999 V2000
   -4.0702   -3.8485    1.4554 H   0  0  0  0  0  0  0  0  0  0  0  0
   -4.0012   -2.9605    0.8284 C   0  0  0  0  0  0  0  0  0  0  0  0
   -4.7652   -2.2435    1.1234 H   0  0  0  0  0  0  0  0  0  0  0  0
   -4.1352   -3.2385   -0.2156 H   0  0  0  0  0  0  0  0  0  0  0  0
   -2.6362   -2.3395    1.0094 C   0  0  0  0  0  0  0  0  0  0  0  0
   -1.8292   -2.8395    1.7814 O   0  0  0  0  0  0  0  0  0  0  0  0
   -2.3832   -1.2445    0.2964 N   0  0  0  0  0  0  0  0  0  0  0  0
   -3.1102   -0.8685   -0.2946 H   0  0  0  0  0  0  0  0  0  0  0  0
   -1.1292   -0.4875    0.3524 C   0  0  1  0  0  0  0  0  0  0  0  0
   -0.3087   -1.1556    0.0882 H   0  0  0  0  0  0  0  0  0  0  0  0
   -1.1749    0.6534   -0.6787 C   0  0  0  0  0  0  0  0  0  0  0  0
   -0.2320    0.6739   -1.2266 H   0  0  0  0  0  0  0  0  0  0  0  0
   -1.9675    0.4465   -1.3998 H   0  0  0  0  0  0  0  0  0  0  0  0
   -1.3956    2.0248   -0.0699 C   0  0  0  0  0  0  0  0  0  0  0  0
   -1.7727    3.1120   -0.8835 C   0  0  0  0  0  0  0  0  0  0  0  0
   -1.8808    2.9768   -1.9517 H   0  0  0  0  0  0  0  0  0  0  0  0
   -2.0158    4.3742   -0.3076 C   0  0  0  0  0  0  0  0  0  0  0  0
   -2.3029    5.2048   -0.9339 H   0  0  0  0  0  0  0  0  0  0  0  0
   -1.8849    4.5483    1.0874 C   0  0  0  0  0  0  0  0  0  0  0  0
   -2.1200    5.7608    1.6528 O   0  0  0  0  0  0  0  0  0  0  0  0
   -2.2778    6.4407    0.9965 H   0  0  0  0  0  0  0  0  0  0  0  0
   -1.5122    3.4580    1.9006 C   0  0  0  0  0  0  0  0  0  0  0  0
   -1.4111    3.6047    2.9654 H   0  0  0  0  0  0  0  0  0  0  0  0
   -1.2654    2.1988    1.3215 C   0  0  0  0  0  0  0  0  0  0  0  0
   -0.9700    1.3639    1.9458 H   0  0  0  0  0  0  0  0  0  0  0  0
   -0.8664    0.0378    1.7736 C   0  0  0  0  0  0  0  0  0  0  0  0
    0.2529   -0.0672    2.2760 O   0  0  0  0  0  0  0  0  0  0  0  0
   -1.8947    0.5991    2.4221 N   0  0  0  0  0  0  0  0  0  0  0  0
   -2.7942    0.5936    1.9635 H   0  0  0  0  0  0  0  0  0  0  0  0
   -1.8170    1.1453    3.7750 C   0  0  0  0  0  0  0  0  0  0  0  0
   -0.9697    1.8290    3.8506 H   0  0  0  0  0  0  0  0  0  0  0  0
   -2.7354    1.6828    4.0167 H   0  0  0  0  0  0  0  0  0  0  0  0
   -1.6754    0.3334    4.4914 H   0  0  0  0  0  0  0  0  0  0  0  0
  5  6  2  0  0  0  0
  5  7  1  0  0  0  0
  2  3  1  0  0  0  0
  2  4  1  0  0  0  0
  2  5  1  0  0  0  0
  1  2  1  0  0  0  0
 26 27  2  0  0  0  0
 26 28  1  0  0  0  0
 24 25  1  0  0  0  0
 22 23  1  0  0  0  0
 22 24  2  0  0  0  0
 20 21  1  0  0  0  0
 19 20  1  0  0  0  0
 19 22  1  0  0  0  0
 17 18  1  0  0  0  0
 17 19  2  0  0  0  0
 15 16  1  0  0  0  0
 15 17  1  0  0  0  0
 14 15  2  0  0  0  0
 14 24  1  0  0  0  0
 11 12  1  0  0  0  0
 11 13  1  0  0  0  0
 11 14  1  0  0  0  0
  9 10  1  0  0  0  0
  9 11  1  0  0  0  0
  9 26  1  0  0  0  0
  7  8  1  0  0  0  0
  7  9  1  0  0  0  0
 30 31  1  0  0  0  0
 30 32  1  0  0  0  0
 30 33  1  0  0  0  0
 28 29  1  0  0  0  0
 28 30  1  0  0  0  0
M  END
$$$$
default_name
  -OEChem-02102213163D

 33 33  0     1  0  0  0  0  0999 V2000
   -4.0702   -3.8485    1.4554 H   0  0  0  0  0  0  0  0  0  0  0  0
   -4.0012   -2.9605    0.8284 C   0  0  0  0  0  0  0  0  0  0  0  0
   -4.7652   -2.2435    1.1234 H   0  0  0  0  0  0  0  0  0  0  0  0
   -4.1352   -3.2385   -0.2156 H   0  0  0  0  0  0  0  0  0  0  0  0
   -2.6362   -2.3395    1.0094 C   0  0  0  0  0  0  0  0  0  0  0  0
   -1.8292   -2.8395    1.7814 O   0  0  0  0  0  0  0  0  0  0  0  0
   -2.3832   -1.2445    0.2964 N   0  0  0  0  0  0  0  0  0  0  0  0
   -3.1102   -0.8685   -0.2946 H   0  0  0  0  0  0  0  0  0  0  0  0
   -1.1292   -0.4875    0.3524 C   0  0  1  0  0  0  0  0  0  0  0  0
   -0.3087   -1.1556    0.0882 H   0  0  0  0  0  0  0  0  0  0  0  0
   -1.1749    0.6534   -0.6787 C   0  0  0  0  0  0  0  0  0  0  0  0
   -0.2320    0.6739   -1.2266 H   0  0  0  0  0  0  0  0  0  0  0  0
   -1.9675    0.4465   -1.3998 H   0  0  0  0  0  0  0  0  0  0  0  0
   -1.3956    2.0248   -0.0699 C   0  0  0  0  0  0  0  0  0  0  0  0
   -2.0668    3.0270   -0.7987 C   0  0  0  0  0  0  0  0  0  0  0  0
   -2.4044    2.8285   -1.8075 H   0  0  0  0  0  0  0  0  0  0  0  0
   -2.3050    4.2860   -0.2138 C   0  0  0  0  0  0  0  0  0  0  0  0
   -2.8178    5.0517   -0.7754 H   0  0  0  0  0  0  0  0  0  0  0  0
   -1.8735    4.5418    1.1060 C   0  0  0  0  0  0  0  0  0  0  0  0
   -2.1010    5.7517    1.6801 O   0  0  0  0  0  0  0  0  0  0  0  0
   -2.4796    6.3789    1.0626 H   0  0  0  0  0  0  0  0  0  0  0  0
   -1.2064    3.5361    1.8356 C   0  0  0  0  0  0  0  0  0  0  0  0
   -0.8774    3.7452    2.8424 H   0  0  0  0  0  0  0  0  0  0  0  0
   -0.9657    2.2802    1.2466 C   0  0  0  0  0  0  0  0  0  0  0  0
   -0.4449    1.5111    1.8045 H   0  0  0  0  0  0  0  0  0  0  0  0
   -0.8664    0.0378    1.7736 C   0  0  0  0  0  0  0  0  0  0  0  0
    0.2529   -0.0672    2.2760 O   0  0  0  0  0  0  0  0  0  0  0  0
   -1.8947    0.5991    2.4221 N   0  0  0  0  0  0  0  0  0  0  0  0
   -2.7942    0.5936    1.9635 H   0  0  0  0  0  0  0  0  0  0  0  0
   -1.8170    1.1453    3.7750 C   0  0  0  0  0  0  0  0  0  0  0  0
   -0.9697    1.8290    3.8506 H   0  0  0  0  0  0  0  0  0  0  0  0
   -2.7354    1.6828    4.0167 H   0  0  0  0  0  0  0  0  0  0  0  0
   -1.6754    0.3334    4.4914 H   0  0  0  0  0  0  0  0  0  0  0  0
  5  6  2  0  0  0  0
  5  7  1  0  0  0  0
  2  3  1  0  0  0  0
  2  4  1  0  0  0  0
  2  5  1  0  0  0  0
  1  2  1  0  0  0  0
 26 27  2  0  0  0  0
 26 28  1  0  0  0  0
 24 25  1  0  0  0  0
 22 23  1  0  0  0  0
 22 24  2  0  0  0  0
 20 21  1  0  0  0  0
 19 20  1  0  0  0  0
 19 22  1  0  0  0  0
 17 18  1  0  0  0  0
 17 19  2  0  0  0  0
 15 16  1  0  0  0  0
 15 17  1  0  0  0  0
 14 15  2  0  0  0  0
 14 24  1  0  0  0  0
 11 12  1  0  0  0  0
 11 13  1  0  0  0  0
 11 14  1  0  0  0  0
  9 10  1  0  0  0  0
  9 11  1  0  0  0  0
  9 26  1  0  0  0  0
  7  8  1  0  0  0  0
  7  9  1  0  0  0  0
 30 31  1  0  0  0  0
 30 32  1  0  0  0  0
 30 33  1  0  0  0  0
 28 29  1  0  0  0  0
 28 30  1  0  0  0  0
M  END
$$$$
default_name
  -OEChem-02102213163D

 33 33  0     1  0  0  0  0  0999 V2000
   -4.0702   -3.8485    1.4554 H   0  0  0  0  0  0  0  0  0  0  0  0
   -4.0012   -2.9605    0.8284 C   0  0  0  0  0  0  0  0  0  0  0  0
   -4.7652   -2.2435    1.1234 H   0  0  0  0  0  0  0  0  0  0  0  0
   -4.1352   -3.2385   -0.2156 H   0  0  0  0  0  0  0  0  0  0  0  0
   -2.6362   -2.3395    1.0094 C   0  0  0  0  0  0  0  0  0  0  0  0
   -1.8292   -2.8395    1.7814 O   0  0  0  0  0  0  0  0  0  0  0  0
   -2.3832   -1.2445    0.2964 N   0  0  0  0  0  0  0  0  0  0  0  0
   -3.1102   -0.8685   -0.2946 H   0  0  0  0  0  0  0  0  0  0  0  0
   -1.1292   -0.4875    0.3524 C   0  0  1  0  0  0  0  0  0  0  0  0
   -0.3087   -1.1556    0.0882 H   0  0  0  0  0  0  0  0  0  0  0  0
   -1.1749    0.6534   -0.6787 C   0  0  0  0  0  0  0  0  0  0  0  0
   -0.2320    0.6739   -1.2266 H   0  0  0  0  0  0  0  0  0  0  0  0
   -1.9675    0.4465   -1.3998 H   0  0  0  0  0  0  0  0  0  0  0  0
   -1.3956    2.0248   -0.0699 C   0  0  0  0  0  0  0  0  0  0  0  0
   -2.3221    2.9176   -0.6448 C   0  0  0  0  0  0  0  0  0  0  0  0
   -2.8611    2.6363   -1.5400 H   0  0  0  0  0  0  0  0  0  0  0  0
   -2.5531    4.1744   -0.0523 C   0  0  0  0  0  0  0  0  0  0  0  0
   -3.2622    4.8562   -0.4961 H   0  0  0  0  0  0  0  0  0  0  0  0
   -1.8575    4.5375    1.1216 C   0  0  0  0  0  0  0  0  0  0  0  0
   -2.0753    5.7460    1.7023 O   0  0  0  0  0  0  0  0  0  0  0  0
   -2.6525    6.3007    1.1760 H   0  0  0  0  0  0  0  0  0  0  0  0
   -0.9343    3.6408    1.6983 C   0  0  0  0  0  0  0  0  0  0  0  0
   -0.4054    3.9317    2.5934 H   0  0  0  0  0  0  0  0  0  0  0  0
   -0.7022    2.3872    1.1010 C   0  0  0  0  0  0  0  0  0  0  0  0
    0.0140    1.7026    1.5395 H   0  0  0  0  0  0  0  0  0  0  0  0
   -0.8664    0.0378    1.7736 C   0  0  0  0  0  0  0  0  0  0  0  0
    0.2529   -0.0672    2.2760 O   0  0  0  0  0  0  0  0  0  0  0  0
   -1.8947    0.5991    2.4221 N   0  0  0  0  0  0  0  0  0  0  0  0
   -2.7942    0.5936    1.9635 H   0  0  0  0  0  0  0  0  0  0  0  0
   -1.8170    1.1453    3.7750 C   0  0  0  0  0  0  0  0  0  0  0  0
   -0.9697    1.8290    3.8506 H   0  0  0  0  0  0  0  0  0  0  0  0
   -2.7354    1.6828    4.0167 H   0  0  0  0  0  0  0  0  0  0  0  0
   -1.6754    0.3334    4.4914 H   0  0  0  0  0  0  0  0  0  0  0  0
  5  6  2  0  0  0  0
  5  7  1  0  0  0  0
  2  3  1  0  0  0  0
  2  4  1  0  0  0  0
  2  5  1  0  0  0  0
  1  2  1  0  0  0  0
 26 27  2  0  0  0  0
 26 28  1  0  0  0  0
 24 25  1  0  0  0  0
 22 23  1  0  0  0  0
 22 24  2  0  0  0  0
 20 21  1  0  0  0  0
 19 20  1  0  0  0  0
 19 22  1  0  0  0  0
 17 18  1  0  0  0  0
 17 19  2  0  0  0  0
 15 16  1  0  0  0  0
 15 17  1  0  0  0  0
 14 15  2  0  0  0  0
 14 24  1  0  0  0  0
 11 12  1  0  0  0  0
 11 13  1  0  0  0  0
 11 14  1  0  0  0  0
  9 10  1  0  0  0  0
  9 11  1  0  0  0  0
  9 26  1  0  0  0  0
  7  8  1  0  0  0  0
  7  9  1  0  0  0  0
 30 31  1  0  0  0  0
 30 32  1  0  0  0  0
 30 33  1  0  0  0  0
 28 29  1  0  0  0  0
 28 30  1  0  0  0  0
M  END
$$$$
default_name
  -OEChem-02102213163D

 33 33  0     1  0  0  0  0  0999 V2000
   -4.0702   -3.8485    1.4554 H   0  0  0  0  0  0  0  0  0  0  0  0
   -4.0012   -2.9605    0.8284 C   0  0  0  0  0  0  0  0  0  0  0  0
   -4.7652   -2.2435    1.1234 H   0  0  0  0  0  0  0  0  0  0  0  0
   -4.1352   -3.2385   -0.2156 H   0  0  0  0  0  0  0  0  0  0  0  0
   -2.6362   -2.3395    1.0094 C   0  0  0  0  0  0  0  0  0  0  0  0
   -1.8292   -2.8395    1.7814 O   0  0  0  0  0  0  0  0  0  0  0  0
   -2.3832   -1.2445    0.2964 N   0  0  0  0  0  0  0  0  0  0  0  0
   -3.1102   -0.8685   -0.2946 H   0  0  0  0  0  0  0  0  0  0  0  0
   -1.1292   -0.4875    0.3524 C   0  0  1  0  0  0  0  0  0  0  0  0
   -0.3087   -1.1556    0.0882 H   0  0  0  0  0  0  0  0  0  0  0  0
   -1.1749    0.6534   -0.6787 C   0  0  0  0  0  0  0  0  0  0  0  0
   -0.2320    0.6739   -1.2266 H   0  0  0  0  0  0  0  0  0  0  0  0
   -1.9675    0.4465   -1.3998 H   0  0  0  0  0  0  0  0  0  0  0  0
   -1.3956    2.0248   -0.0699 C   0  0  0  0  0  0  0  0  0  0  0  0
   -2.5214    2.7912   -0.4323 C   0  0  0  0  0  0  0  0  0  0  0  0
   -3.2196    2.4133   -1.1676 H   0  0  0  0  0  0  0  0  0  0  0  0
   -2.7434    4.0468    0.1661 C   0  0  0  0  0  0  0  0  0  0  0  0
   -3.6057    4.6317   -0.1149 H   0  0  0  0  0  0  0  0  0  0  0  0
   -1.8379    4.5356    1.1330 C   0  0  0  0  0  0  0  0  0  0  0  0
   -2.0447    5.7439    1.7180 O   0  0  0  0  0  0  0  0  0  0  0  0
   -2.7849    6.2115    1.3289 H   0  0  0  0  0  0  0  0  0  0  0  0
   -0.7145    3.7651    1.4980 C   0  0  0  0  0  0  0  0  0  0  0  0
   -0.0271    4.1515    2.2353 H   0  0  0  0  0  0  0  0  0  0  0  0
   -0.4929    2.5125    0.8948 C   0  0  0  0  0  0  0  0  0  0  0  0
    0.3754    1.9252    1.1689 H   0  0  0  0  0  0  0  0  0  0  0  0
   -0.8664    0.0378    1.7736 C   0  0  0  0  0  0  0  0  0  0  0  0
    0.2529   -0.0672    2.2760 O   0  0  0  0  0  0  0  0  0  0  0  0
   -1.8947    0.5991    2.4221 N   0  0  0  0  0  0  0  0  0  0  0  0
   -2.7942    0.5936    1.9635 H   0  0  0  0  0  0  0  0  0  0  0  0
   -1.8170    1.1453    3.7750 C   0  0  0  0  0  0  0  0  0  0  0  0
   -0.9697    1.8290    3.8506 H   0  0  0  0  0  0  0  0  0  0  0  0
   -2.7354    1.6828    4.0167 H   0  0  0  0  0  0  0  0  0  0  0  0
   -1.6754    0.3334    4.4914 H   0  0  0  0  0  0  0  0  0  0  0  0
  5  6  2  0  0  0  0
  5  7  1  0  0  0  0
  2  3  1  0  0  0  0
  2  4  1  0  0  0  0
  2  5  1  0  0  0  0
  1  2  1  0  0  0  0
 26 27  2  0  0  0  0
 26 28  1  0  0  0  0
 24 25  1  0  0  0  0
 22 23  1  0  0  0  0
 22 24  2  0  0  0  0
 20 21  1  0  0  0  0
 19 20  1  0  0  0  0
 19 22  1  0  0  0  0
 17 18  1  0  0  0  0
 17 19  2  0  0  0  0
 15 16  1  0  0  0  0
 15 17  1  0  0  0  0
 14 15  2  0  0  0  0
 14 24  1  0  0  0  0
 11 12  1  0  0  0  0
 11 13  1  0  0  0  0
 11 14  1  0  0  0  0
  9 10  1  0  0  0  0
  9 11  1  0  0  0  0
  9 26  1  0  0  0  0
  7  8  1  0  0  0  0
  7  9  1  0  0  0  0
 30 31  1  0  0  0  0
 30 32  1  0  0  0  0
 30 33  1  0  0  0  0
 28 29  1  0  0  0  0
 28 30  1  0  0  0  0
M  END
$$$$
default_name
  -OEChem-02102213163D

 33 33  0     1  0  0  0  0  0999 V2000
   -4.0702   -3.8485    1.4554 H   0  0  0  0  0  0  0  0  0  0  0  0
   -4.0012   -2.9605    0.8284 C   0  0  0  0  0  0  0  0  0  0  0  0
   -4.7652   -2.2435    1.1234 H   0  0  0  0  0  0  0  0  0  0  0  0
   -4.1352   -3.2385   -0.2156 H   0  0  0  0  0  0  0  0  0  0  0  0
   -2.6362   -2.3395    1.0094 C   0  0  0  0  0  0  0  0  0  0  0  0
   -1.8292   -2.8395    1.7814 O   0  0  0  0  0  0  0  0  0  0  0  0
   -2.3832   -1.2445    0.2964 N   0  0  0  0  0  0  0  0  0  0  0  0
   -3.1102   -0.8685   -0.2946 H   0  0  0  0  0  0  0  0  0  0  0  0
   -1.1292   -0.4875    0.3524 C   0  0  1  0  0  0  0  0  0  0  0  0
   -0.3087   -1.1556    0.0882 H   0  0  0  0  0  0  0  0  0  0  0  0
   -1.1749    0.6534   -0.6787 C   0  0  0  0  0  0  0  0  0  0  0  0
   -0.2320    0.6739   -1.2266 H   0  0  0  0  0  0  0  0  0  0  0  0
   -1.9675    0.4465   -1.3998 H   0  0  0  0  0  0  0  0  0  0  0  0
   -1.3956    2.0248   -0.0699 C   0  0  0  0  0  0  0  0  0  0  0  0
   -2.6510    2.6564   -0.1755 C   0  0  0  0  0  0  0  0  0  0  0  0
   -3.4556    2.1746   -0.7155 H   0  0  0  0  0  0  0  0  0  0  0  0
   -2.8628    3.9121    0.4263 C   0  0  0  0  0  0  0  0  0  0  0  0
   -3.8249    4.3935    0.3421 H   0  0  0  0  0  0  0  0  0  0  0  0
   -1.8162    4.5362    1.1396 C   0  0  0  0  0  0  0  0  0  0  0  0
   -2.0113    5.7457    1.7261 O   0  0  0  0  0  0  0  0  0  0  0  0
   -2.8678    6.1174    1.5110 H   0  0  0  0  0  0  0  0  0  0  0  0
   -0.5620    3.9004    1.2484 C   0  0  0  0  0  0  0  0  0  0  0  0
    0.2317    4.3897    1.7926 H   0  0  0  0  0  0  0  0  0  0  0  0
   -0.3521    2.6474    0.6418 C   0  0  0  0  0  0  0  0  0  0  0  0
    0.6146    2.1639    0.7180 H   0  0  0  0  0  0  0  0  0  0  0  0
   -0.8664    0.0378    1.7736 C   0  0  0  0  0  0  0  0  0  0  0  0
    0.2529   -0.0672    2.2760 O   0  0  0  0  0  0  0  0  0  0  0  0
   -1.8947    0.5991    2.4221 N   0  0  0  0  0  0  0  0  0  0  0  0
   -2.7942    0.5936    1.9635 H   0  0  0  0  0  0  0  0  0  0  0  0
   -1.8170    1.1453    3.7750 C   0  0  0  0  0  0  0  0  0  0  0  0
   -0.9697    1.8290    3.8506 H   0  0  0  0  0  0  0  0  0  0  0  0
   -2.7354    1.6828    4.0167 H   0  0  0  0  0  0  0  0  0  0  0  0
   -1.6754    0.3334    4.4914 H   0  0  0  0  0  0  0  0  0  0  0  0
  5  6  2  0  0  0  0
  5  7  1  0  0  0  0
  2  3  1  0  0  0  0
  2  4  1  0  0  0  0
  2  5  1  0  0  0  0
  1  2  1  0  0  0  0
 26 27  2  0  0  0  0
 26 28  1  0  0  0  0
 24 25  1  0  0  0  0
 22 23  1  0  0  0  0
 22 24  2  0  0  0  0
 20 21  1  0  0  0  0
 19 20  1  0  0  0  0
 19 22  1  0  0  0  0
 17 18  1  0  0  0  0
 17 19  2  0  0  0  0
 15 16  1  0  0  0  0
 15 17  1  0  0  0  0
 14 15  2  0  0  0  0
 14 24  1  0  0  0  0
 11 12  1  0  0  0  0
 11 13  1  0  0  0  0
 11 14  1  0  0  0  0
  9 10  1  0  0  0  0
  9 11  1  0  0  0  0
  9 26  1  0  0  0  0
  7  8  1  0  0  0  0
  7  9  1  0  0  0  0
 30 31  1  0  0  0  0
 30 32  1  0  0  0  0
 30 33  1  0  0  0  0
 28 29  1  0  0  0  0
 28 30  1  0  0  0  0
M  END
$$$$
default_name
  -OEChem-02102213163D

 33 33  0     1  0  0  0  0  0999 V2000
   -4.0702   -3.8485    1.4554 H   0  0  0  0  0  0  0  0  0  0  0  0
   -4.0012   -2.9605    0.8284 C   0  0  0  0  0  0  0  0  0  0  0  0
   -4.7652   -2.2435    1.1234 H   0  0  0  0  0  0  0  0  0  0  0  0
   -4.1352   -3.2385   -0.2156 H   0  0  0  0  0  0  0  0  0  0  0  0
   -2.6362   -2.3395    1.0094 C   0  0  0  0  0  0  0  0  0  0  0  0
   -1.8292   -2.8395    1.7814 O   0  0  0  0  0  0  0  0  0  0  0  0
   -2.3832   -1.2445    0.2964 N   0  0  0  0  0  0  0  0  0  0  0  0
   -3.1102   -0.8685   -0.2946 H   0  0  0  0  0  0  0  0  0  0  0  0
   -1.1292   -0.4875    0.3524 C   0  0  1  0  0  0  0  0  0  0  0  0
   -0.3087   -1.1556    0.0882 H   0  0  0  0  0  0  0  0  0  0  0  0
   -1.1749    0.6534   -0.6787 C   0  0  0  0  0  0  0  0  0  0  0  0
   -0.2320    0.6739   -1.2266 H   0  0  0  0  0  0  0  0  0  0  0  0
   -1.9675    0.4465   -1.3998 H   0  0  0  0  0  0  0  0  0  0  0  0
   -1.3956    2.0248   -0.0699 C   0  0  0  0  0  0  0  0  0  0  0  0
   -2.7021    2.5224    0.1078 C   0  0  0  0  0  0  0  0  0  0  0  0
   -3.5530    1.9366   -0.2146 H   0  0  0  0  0  0  0  0  0  0  0  0
   -2.9033    3.7793    0.7108 C   0  0  0  0  0  0  0  0  0  0  0  0
   -3.9050    4.1579    0.8438 H   0  0  0  0  0  0  0  0  0  0  0  0
   -1.7937    4.5392    1.1408 C   0  0  0  0  0  0  0  0  0  0  0  0
   -1.9773    5.7512    1.7260 O   0  0  0  0  0  0  0  0  0  0  0  0
   -2.8954    6.0247    1.7098 H   0  0  0  0  0  0  0  0  0  0  0  0
   -0.4872    4.0376    0.9666 C   0  0  0  0  0  0  0  0  0  0  0  0
    0.3533    4.6299    1.2955 H   0  0  0  0  0  0  0  0  0  0  0  0
   -0.2892    2.7829    0.3594 C   0  0  0  0  0  0  0  0  0  0  0  0
    0.7153    2.4023    0.2175 H   0  0  0  0  0  0  0  0  0  0  0  0
   -0.8664    0.0378    1.7736 C   0  0  0  0  0  0  0  0  0  0  0  0
    0.2529   -0.0672    2.2760 O   0  0  0  0  0  0  0  0  0  0  0  0
   -1.8947    0.5991    2.4221 N   0  0  0  0  0  0  0  0  0  0  0  0
   -2.7942    0.5936    1.9635 H   0  0  0  0  0  0  0  0  0  0  0  0
   -1.8170    1.1453    3.7750 C   0  0  0  0  0  0  0  0  0  0  0  0
   -0.9697    1.8290    3.8506 H   0  0  0  0  0  0  0  0  0  0  0  0
   -2.7354    1.6828    4.0167 H   0  0  0  0  0  0  0  0  0  0  0  0
   -1.6754    0.3334    4.4914 H   0  0  0  0  0  0  0  0  0  0  0  0
  5  6  2  0  0  0  0
  5  7  1  0  0  0  0
  2  3  1  0  0  0  0
  2  4  1  0  0  0  0
  2  5  1  0  0  0  0
  1  2  1  0  0  0  0
 26 27  2  0  0  0  0
 26 28  1  0  0  0  0
 24 25  1  0  0  0  0
 22 23  1  0  0  0  0
 22 24  2  0  0  0  0
 20 21  1  0  0  0  0
 19 20  1  0  0  0  0
 19 22  1  0  0  0  0
 17 18  1  0  0  0  0
 17 19  2  0  0  0  0
 15 16  1  0  0  0  0
 15 17  1  0  0  0  0
 14 15  2  0  0  0  0
 14 24  1  0  0  0  0
 11 12  1  0  0  0  0
 11 13  1  0  0  0  0
 11 14  1  0  0  0  0
  9 10  1  0  0  0  0
  9 11  1  0  0  0  0
  9 26  1  0  0  0  0
  7  8  1  0  0  0  0
  7  9  1  0  0  0  0
 30 31  1  0  0  0  0
 30 32  1  0  0  0  0
 30 33  1  0  0  0  0
 28 29  1  0  0  0  0
 28 30  1  0  0  0  0
M  END
$$$$
default_name
  -OEChem-02102213163D

 33 33  0     1  0  0  0  0  0999 V2000
   -4.0702   -3.8485    1.4554 H   0  0  0  0  0  0  0  0  0  0  0  0
   -4.0012   -2.9605    0.8284 C   0  0  0  0  0  0  0  0  0  0  0  0
   -4.7652   -2.2435    1.1234 H   0  0  0  0  0  0  0  0  0  0  0  0
   -4.1352   -3.2385   -0.2156 H   0  0  0  0  0  0  0  0  0  0  0  0
   -2.6362   -2.3395    1.0094 C   0  0  0  0  0  0  0  0  0  0  0  0
   -1.8292   -2.8395    1.7814 O   0  0  0  0  0  0  0  0  0  0  0  0
   -2.3832   -1.2445    0.2964 N   0  0  0  0  0  0  0  0  0  0  0  0
   -3.1102   -0.8685   -0.2946 H   0  0  0  0  0  0  0  0  0  0  0  0
   -1.1292   -0.4875    0.3524 C   0  0  1  0  0  0  0  0  0  0  0  0
   -0.3087   -1.1556    0.0882 H   0  0  0  0  0  0  0  0  0  0  0  0
   -1.1749    0.6534   -0.6787 C   0  0  0  0  0  0  0  0  0  0  0  0
   -0.2320    0.6739   -1.2266 H   0  0  0  0  0  0  0  0  0  0  0  0
   -1.9675    0.4465   -1.3998 H   0  0  0  0  0  0  0  0  0  0  0  0
   -1.3956    2.0248   -0.0699 C   0  0  0  0  0  0  0  0  0  0  0  0
   -2.6712    2.3983    0.3985 C   0  0  0  0  0  0  0  0  0  0  0  0
   -3.5050    1.7154    0.3010 H   0  0  0  0  0  0  0  0  0  0  0  0
   -2.8620    3.6576    0.9999 C   0  0  0  0  0  0  0  0  0  0  0  0
   -3.8405    3.9409    1.3561 H   0  0  0  0  0  0  0  0  0  0  0  0
   -1.7720    4.5446    1.1365 C   0  0  0  0  0  0  0  0  0  0  0  0
   -1.9450    5.7601    1.7177 O   0  0  0  0  0  0  0  0  0  0  0  0
   -2.8659    5.9397    1.9118 H   0  0  0  0  0  0  0  0  0  0  0  0
   -0.4951    4.1672    0.6717 C   0  0  0  0  0  0  0  0  0  0  0  0
    0.3295    4.8559    0.7778 H   0  0  0  0  0  0  0  0  0  0  0  0
   -0.3086    2.9097    0.0668 C   0  0  0  0  0  0  0  0  0  0  0  0
    0.6707    2.6241   -0.2985 H   0  0  0  0  0  0  0  0  0  0  0  0
   -0.8664    0.0378    1.7736 C   0  0  0  0  0  0  0  0  0  0  0  0
    0.2529   -0.0672    2.2760 O   0  0  0  0  0  0  0  0  0  0  0  0
   -1.8947    0.5991    2.4221 N   0  0  0  0  0  0  0  0  0  0  0  0
   -2.7942    0.5936    1.9635 H   0  0  0  0  0  0  0  0  0  0  0  0
   -1.8170    1.1453    3.7750 C   0  0  0  0  0  0  0  0  0  0  0  0
   -0.9697    1.8290    3.8506 H   0  0  0  0  0  0  0  0  0  0  0  0
   -2.7354    1.6828    4.0167 H   0  0  0  0  0  0  0  0  0  0  0  0
   -1.6754    0.3334    4.4914 H   0  0  0  0  0  0  0  0  0  0  0  0
  5  6  2  0  0  0  0
  5  7  1  0  0  0  0
  2  3  1  0  0  0  0
  2  4  1  0  0  0  0
  2  5  1  0  0  0  0
  1  2  1  0  0  0  0
 26 27  2  0  0  0  0
 26 28  1  0  0  0  0
 24 25  1  0  0  0  0
 22 23  1  0  0  0  0
 22 24  2  0  0  0  0
 20 21  1  0  0  0  0
 19 20  1  0  0  0  0
 19 22  1  0  0  0  0
 17 18  1  0  0  0  0
 17 19  2  0  0  0  0
 15 16  1  0  0  0  0
 15 17  1  0  0  0  0
 14 15  2  0  0  0  0
 14 24  1  0  0  0  0
 11 12  1  0  0  0  0
 11 13  1  0  0  0  0
 11 14  1  0  0  0  0
  9 10  1  0  0  0  0
  9 11  1  0  0  0  0
  9 26  1  0  0  0  0
  7  8  1  0  0  0  0
  7  9  1  0  0  0  0
 30 31  1  0  0  0  0
 30 32  1  0  0  0  0
 30 33  1  0  0  0  0
 28 29  1  0  0  0  0
 28 30  1  0  0  0  0
M  END
$$$$
default_name
  -OEChem-02102213163D

 33 33  0     1  0  0  0  0  0999 V2000
   -4.0702   -3.8485    1.4554 H   0  0  0  0  0  0  0  0  0  0  0  0
   -4.0012   -2.9605    0.8284 C   0  0  0  0  0  0  0  0  0  0  0  0
   -4.7652   -2.2435    1.1234 H   0  0  0  0  0  0  0  0  0  0  0  0
   -4.1352   -3.2385   -0.2156 H   0  0  0  0  0  0  0  0  0  0  0  0
   -2.6362   -2.3395    1.0094 C   0  0  0  0  0  0  0  0  0  0  0  0
   -1.8292   -2.8395    1.7814 O   0  0  0  0  0  0  0  0  0  0  0  0
   -2.3832   -1.2445    0.2964 N   0  0  0  0  0  0  0  0  0  0  0  0
   -3.1102   -0.8685   -0.2946 H   0  0  0  0  0  0  0  0  0  0  0  0
   -1.1292   -0.4875    0.3524 C   0  0  1  0  0  0  0  0  0  0  0  0
   -0.3087   -1.1556    0.0882 H   0  0  0  0  0  0  0  0  0  0  0  0
   -1.1749    0.6534   -0.6787 C   0  0  0  0  0  0  0  0  0  0  0  0
   -0.2320    0.6739   -1.2266 H   0  0  0  0  0  0  0  0  0  0  0  0
   -1.9675    0.4465   -1.3998 H   0  0  0  0  0  0  0  0  0  0  0  0
   -1.3956    2.0248   -0.0699 C   0  0  0  0  0  0  0  0  0  0  0  0
   -2.5605    2.2926    0.6768 C   0  0  0  0  0  0  0  0  0  0  0  0
   -3.3151    1.5262    0.7961 H   0  0  0  0  0  0  0  0  0  0  0  0
   -2.7418    3.5551    1.2742 C   0  0  0  0  0  0  0  0  0  0  0  0
   -3.6357    3.7573    1.8440 H   0  0  0  0  0  0  0  0  0  0  0  0
   -1.7526    4.5519    1.1272 C   0  0  0  0  0  0  0  0  0  0  0  0
   -1.9167    5.7717    1.7019 O   0  0  0  0  0  0  0  0  0  0  0  0
   -2.7813    5.8684    2.1032 H   0  0  0  0  0  0  0  0  0  0  0  0
   -0.5853    4.2805    0.3838 C   0  0  0  0  0  0  0  0  0  0  0  0
    0.1618    5.0522    0.2748 H   0  0  0  0  0  0  0  0  0  0  0  0
   -0.4091    3.0191   -0.2160 C   0  0  0  0  0  0  0  0  0  0  0  0
    0.4838    2.8144   -0.7948 H   0  0  0  0  0  0  0  0  0  0  0  0
   -0.8664    0.0378    1.7736 C   0  0  0  0  0  0  0  0  0  0  0  0
    0.2529   -0.0672    2.2760 O   0  0  0  0  0  0  0  0  0  0  0  0
   -1.8947    0.5991    2.4221 N   0  0  0  0  0  0  0  0  0  0  0  0
   -2.7942    0.5936    1.9635 H   0  0  0  0  0  0  0  0  0  0  0  0
   -1.8170    1.1453    3.7750 C   0  0  0  0  0  0  0  0  0  0  0  0
   -0.9697    1.8290    3.8506 H   0  0  0  0  0  0  0  0  0  0  0  0
   -2.7354    1.6828    4.0167 H   0  0  0  0  0  0  0  0  0  0  0  0
   -1.6754    0.3334    4.4914 H   0  0  0  0  0  0  0  0  0  0  0  0
  5  6  2  0  0  0  0
  5  7  1  0  0  0  0
  2  3  1  0  0  0  0
  2  4  1  0  0  0  0
  2  5  1  0  0  0  0
  1  2  1  0  0  0  0
 26 27  2  0  0  0  0
 26 28  1  0  0  0  0
 24 25  1  0  0  0  0
 22 23  1  0  0  0  0
 22 24  2  0  0  0  0
 20 21  1  0  0  0  0
 19 20  1  0  0  0  0
 19 22  1  0  0  0  0
 17 18  1  0  0  0  0
 17 19  2  0  0  0  0
 15 16  1  0  0  0  0
 15 17  1  0  0  0  0
 14 15  2  0  0  0  0
 14 24  1  0  0  0  0
 11 12  1  0  0  0  0
 11 13  1  0  0  0  0
 11 14  1  0  0  0  0
  9 10  1  0  0  0  0
  9 11  1  0  0  0  0
  9 26  1  0  0  0  0
  7  8  1  0  0  0  0
  7  9  1  0  0  0  0
 30 31  1  0  0  0  0
 30 32  1  0  0  0  0
 30 33  1  0  0  0  0
 28 29  1  0  0  0  0
 28 30  1  0  0  0  0
M  END
$$$$
default_name
  -OEChem-02102213163D

 33 33  0     1  0  0  0  0  0999 V2000
   -4.0702   -3.8485    1.4554 H   0  0  0  0  0  0  0  0  0  0  0  0
   -4.0012   -2.9605    0.8284 C   0  0  0  0  0  0  0  0  0  0  0  0
   -4.7652   -2.2435    1.1234 H   0  0  0  0  0  0  0  0  0  0  0  0
   -4.1352   -3.2385   -0.2156 H   0  0  0  0  0  0  0  0  0  0  0  0
   -2.6362   -2.3395    1.0094 C   0  0  0  0  0  0  0  0  0  0  0  0
   -1.8292   -2.8395    1.7814 O   0  0  0  0  0  0  0  0  0  0  0  0
   -2.3832   -1.2445    0.2964 N   0  0  0  0  0  0  0  0  0  0  0  0
   -3.1102   -0.8685   -0.2946 H   0  0  0  0  0  0  0  0  0  0  0  0
   -1.1292   -0.4875    0.3524 C   0  0  1  0  0  0  0  0  0  0  0  0
   -0.3087   -1.1556    0.0882 H   0  0  0  0  0  0  0  0  0  0  0  0
   -1.1749    0.6534   -0.6787 C   0  0  0  0  0  0  0  0  0  0  0  0
   -0.2320    0.6739   -1.2266 H   0  0  0  0  0  0  0  0  0  0  0  0
   -1.9675    0.4465   -1.3998 H   0  0  0  0  0  0  0  0  0  0  0  0
   -1.3956    2.0248   -0.0699 C   0  0  0  0  0  0  0  0  0  0  0  0
   -2.3774    2.2125    0.9236 C   0  0  0  0  0  0  0  0  0  0  0  0
   -2.9961    1.3818    1.2370 H   0  0  0  0  0  0  0  0  0  0  0  0
   -2.5509    3.4790    1.5148 C   0  0  0  0  0  0  0  0  0  0  0  0
   -3.3047    3.6195    2.2742 H   0  0  0  0  0  0  0  0  0  0  0  0
   -1.7368    4.5606    1.1134 C   0  0  0  0  0  0  0  0  0  0  0  0
   -1.8943    5.7852    1.6795 O   0  0  0  0  0  0  0  0  0  0  0  0
   -2.6474    5.8154    2.2710 H   0  0  0  0  0  0  0  0  0  0  0  0
   -0.7515    4.3697    0.1225 C   0  0  0  0  0  0  0  0  0  0  0  0
   -0.1383    5.2055   -0.1791 H   0  0  0  0  0  0  0  0  0  0  0  0
   -0.5836    3.1037   -0.4698 C   0  0  0  0  0  0  0  0  0  0  0  0
    0.1673    2.9601   -1.2376 H   0  0  0  0  0  0  0  0  0  0  0  0
   -0.8664    0.0378    1.7736 C   0  0  0  0  0  0  0  0  0  0  0  0
    0.2529   -0.0672    2.2760 O   0  0  0  0  0  0  0  0  0  0  0  0
   -1.8947    0.5991    2.4221 N   0  0  0  0  0  0  0  0  0  0  0  0
   -2.7942    0.5936    1.9635 H   0  0  0  0  0  0  0  0  0  0  0  0
   -1.8170    1.1453    3.7750 C   0  0  0  0  0  0  0  0  0  0  0  0
   -0.9697    1.8290    3.8506 H   0  0  0  0  0  0  0  0  0  0  0  0
   -2.7354    1.6828    4.0167 H   0  0  0  0  0  0  0  0  0  0  0  0
   -1.6754    0.3334    4.4914 H   0  0  0  0  0  0  0  0  0  0  0  0
  5  6  2  0  0  0  0
  5  7  1  0  0  0  0
  2  3  1  0  0  0  0
  2  4  1  0  0  0  0
  2  5  1  0  0  0  0
  1  2  1  0  0  0  0
 26 27  2  0  0  0  0
 26 28  1  0  0  0  0
 24 25  1  0  0  0  0
 22 23  1  0  0  0  0
 22 24  2  0  0  0  0
 20 21  1  0  0  0  0
 19 20  1  0  0  0  0
 19 22  1  0  0  0  0
 17 18  1  0  0  0  0
 17 19  2  0  0  0  0
 15 16  1  0  0  0  0
 15 17  1  0  0  0  0
 14 15  2  0  0  0  0
 14 24  1  0  0  0  0
 11 12  1  0  0  0  0
 11 13  1  0  0  0  0
 11 14  1  0  0  0  0
  9 10  1  0  0  0  0
  9 11  1  0  0  0  0
  9 26  1  0  0  0  0
  7  8  1  0  0  0  0
  7  9  1  0  0  0  0
 30 31  1  0  0  0  0
 30 32  1  0  0  0  0
 30 33  1  0  0  0  0
 28 29  1  0  0  0  0
 28 30  1  0  0  0  0
M  END
$$$$
default_name
  -OEChem-02102213163D

 33 33  0     1  0  0  0  0  0999 V2000
   -4.0702   -3.8485    1.4554 H   0  0  0  0  0  0  0  0  0  0  0  0
   -4.0012   -2.9605    0.8284 C   0  0  0  0  0  0  0  0  0  0  0  0
   -4.7652   -2.2435    1.1234 H   0  0  0  0  0  0  0  0  0  0  0  0
   -4.1352   -3.2385   -0.2156 H   0  0  0  0  0  0  0  0  0  0  0  0
   -2.6362   -2.3395    1.0094 C   0  0  0  0  0  0  0  0  0  0  0  0
   -1.8292   -2.8395    1.7814 O   0  0  0  0  0  0  0  0  0  0  0  0
   -2.3832   -1.2445    0.2964 N   0  0  0  0  0  0  0  0  0  0  0  0
   -3.1102   -0.8685   -0.2946 H   0  0  0  0  0  0  0  0  0  0  0  0
   -1.1292   -0.4875    0.3524 C   0  0  1  0  0  0  0  0  0  0  0  0
   -0.3087   -1.1556    0.0882 H   0  0  0  0  0  0  0  0  0  0  0  0
   -1.1749    0.6534   -0.6787 C   0  0  0  0  0  0  0  0  0  0  0  0
   -0.2320    0.6739   -1.2266 H   0  0  0  0  0  0  0  0  0  0  0  0
   -1.9675    0.4465   -1.3998 H   0  0  0  0  0  0  0  0  0  0  0  0
   -1.3956    2.0248   -0.0699 C   0  0  0  0  0  0  0  0  0  0  0  0
   -2.1344    2.1634    1.1222 C   0  0  0  0  0  0  0  0  0  0  0  0
   -2.5697    1.2920    1.5937 H   0  0  0  0  0  0  0  0  0  0  0  0
   -2.3022    3.4344    1.7055 C   0  0  0  0  0  0  0  0  0  0  0  0
   -2.8699    3.5371    2.6175 H   0  0  0  0  0  0  0  0  0  0  0  0
   -1.7257    4.5701    1.0960 C   0  0  0  0  0  0  0  0  0  0  0  0
   -1.8792    5.7998    1.6521 O   0  0  0  0  0  0  0  0  0  0  0  0
   -2.4732    5.7845    2.4037 H   0  0  0  0  0  0  0  0  0  0  0  0
   -0.9825    4.4288   -0.0943 C   0  0  0  0  0  0  0  0  0  0  0  0
   -0.5503    5.3053   -0.5532 H   0  0  0  0  0  0  0  0  0  0  0  0
   -0.8205    3.1577   -0.6773 C   0  0  0  0  0  0  0  0  0  0  0  0
   -0.2572    3.0512   -1.5967 H   0  0  0  0  0  0  0  0  0  0  0  0
   -0.8664    0.0378    1.7736 C   0  0  0  0  0  0  0  0  0  0  0  0
    0.2529   -0.0672    2.2760 O   0  0  0  0  0  0  0  0  0  0  0  0
   -1.8947    0.5991    2.4221 N   0  0  0  0  0  0  0  0  0  0  0  0
   -2.7942    0.5936    1.9635 H   0  0  0  0  0  0  0  0  0  0  0  0
   -1.8170    1.1453    3.7750 C   0  0  0  0  0  0  0  0  0  0  0  0
   -0.9697    1.8290    3.8506 H   0  0  0  0  0  0  0  0  0  0  0  0
   -2.7354    1.6828    4.0167 H   0  0  0  0  0  0  0  0  0  0  0  0
   -1.6754    0.3334    4.4914 H   0  0  0  0  0  0  0  0  0  0  0  0
  5  6  2  0  0  0  0
  5  7  1  0  0  0  0
  2  3  1  0  0  0  0
  2  4  1  0  0  0  0
  2  5  1  0  0  0  0
  1  2  1  0  0  0  0
 26 27  2  0  0  0  0
 26 28  1  0  0  0  0
 24 25  1  0  0  0  0
 22 23  1  0  0  0  0
 22 24  2  0  0  0  0
 20 21  1  0  0  0  0
 19 20  1  0  0  0  0
 19 22  1  0  0  0  0
 17 18  1  0  0  0  0
 17 19  2  0  0  0  0
 15 16  1  0  0  0  0
 15 17  1  0  0  0  0
 14 15  2  0  0  0  0
 14 24  1  0  0  0  0
 11 12  1  0  0  0  0
 11 13  1  0  0  0  0
 11 14  1  0  0  0  0
  9 10  1  0  0  0  0
  9 11  1  0  0  0  0
  9 26  1  0  0  0  0
  7  8  1  0  0  0  0
  7  9  1  0  0  0  0
 30 31  1  0  0  0  0
 30 32  1  0  0  0  0
 30 33  1  0  0  0  0
 28 29  1  0  0  0  0
 28 30  1  0  0  0  0
M  END
$$$$
default_name
  -OEChem-02102213163D

 33 33  0     1  0  0  0  0  0999 V2000
   -4.0702   -3.8485    1.4554 H   0  0  0  0  0  0  0  0  0  0  0  0
   -4.0012   -2.9605    0.8284 C   0  0  0  0  0  0  0  0  0  0  0  0
   -4.7652   -2.2435    1.1234 H   0  0  0  0  0  0  0  0  0  0  0  0
   -4.1352   -3.2385   -0.2156 H   0  0  0  0  0  0  0  0  0  0  0  0
   -2.6362   -2.3395    1.0094 C   0  0  0  0  0  0  0  0  0  0  0  0
   -1.8292   -2.8395    1.7814 O   0  0  0  0  0  0  0  0  0  0  0  0
   -2.3832   -1.2445    0.2964 N   0  0  0  0  0  0  0  0  0  0  0  0
   -3.1102   -0.8685   -0.2946 H   0  0  0  0  0  0  0  0  0  0  0  0
   -1.1292   -0.4875    0.3524 C   0  0  1  0  0  0  0  0  0  0  0  0
   -0.3087   -1.1556    0.0882 H   0  0  0  0  0  0  0  0  0  0  0  0
   -1.1749    0.6534   -0.6787 C   0  0  0  0  0  0  0  0  0  0  0  0
   -0.2320    0.6739   -1.2266 H   0  0  0  0  0  0  0  0  0  0  0  0
   -1.9675    0.4465   -1.3998 H   0  0  0  0  0  0  0  0  0  0  0  0
   -1.3956    2.0248   -0.0699 C   0  0  0  0  0  0  0  0  0  0  0  0
   -1.8482    2.1487    1.2590 C   0  0  0  0  0  0  0  0  0  0  0  0
   -2.0651    1.2631    1.8418 H   0  0  0  0  0  0  0  0  0  0  0  0
   -2.0128    3.4243    1.8331 C   0  0  0  0  0  0  0  0  0  0  0  0
   -2.3610    3.5155    2.8504 H   0  0  0  0  0  0  0  0  0  0  0  0
   -1.7200    4.5798    1.0762 C   0  0  0  0  0  0  0  0  0  0  0  0
   -1.8726    5.8144    1.6216 O   0  0  0  0  0  0  0  0  0  0  0  0
   -2.2708    5.7778    2.4923 H   0  0  0  0  0  0  0  0  0  0  0  0
   -1.2625    4.4537   -0.2519 C   0  0  0  0  0  0  0  0  0  0  0  0
   -1.0462    5.3447   -0.8219 H   0  0  0  0  0  0  0  0  0  0  0  0
   -1.1034    3.1774   -0.8243 C   0  0  0  0  0  0  0  0  0  0  0  0
   -0.7607    3.0816   -1.8478 H   0  0  0  0  0  0  0  0  0  0  0  0
   -0.8664    0.0378    1.7736 C   0  0  0  0  0  0  0  0  0  0  0  0
    0.2529   -0.0672    2.2760 O   0  0  0  0  0  0  0  0  0  0  0  0
   -1.8947    0.5991    2.4221 N   0  0  0  0  0  0  0  0  0  0  0  0
   -2.7942    0.5936    1.9635 H   0  0  0  0  0  0  0  0  0  0  0  0
   -1.8170    1.1453    3.7750 C   0  0  0  0  0  0  0  0  0  0  0  0
   -0.9697    1.8290    3.8506 H   0  0  0  0  0  0  0  0  0  0  0  0
   -2.7354    1.6828    4.0167 H   0  0  0  0  0  0  0  0  0  0  0  0
   -1.6754    0.3334    4.4914 H   0  0  0  0  0  0  0  0  0  0  0  0
  5  6  2  0  0  0  0
  5  7  1  0  0  0  0
  2  3  1  0  0  0  0
  2  4  1  0  0  0  0
  2  5  1  0  0  0  0
  1  2  1  0  0  0  0
 26 27  2  0  0  0  0
 26 28  1  0  0  0  0
 24 25  1  0  0  0  0
 22 23  1  0  0  0  0
 22 24  2  0  0  0  0
 20 21  1  0  0  0  0
 19 20  1  0  0  0  0
 19 22  1  0  0  0  0
 17 18  1  0  0  0  0
 17 19  2  0  0  0  0
 15 16  1  0  0  0  0
 15 17  1  0  0  0  0
 14 15  2  0  0  0  0
 14 24  1  0  0  0  0
 11 12  1  0  0  0  0
 11 13  1  0  0  0  0
 11 14  1  0  0  0  0
  9 10  1  0  0  0  0
  9 11  1  0  0  0  0
  9 26  1  0  0  0  0
  7  8  1  0  0  0  0
  7  9  1  0  0  0  0
 30 31  1  0  0  0  0
 30 32  1  0  0  0  0
 30 33  1  0  0  0  0
 28 29  1  0  0  0  0
 28 30  1  0  0  0  0
M  END
$$$$
default_name
  -OEChem-02102213163D

 33 33  0     1  0  0  0  0  0999 V2000
   -4.0702   -3.8485    1.4554 H   0  0  0  0  0  0  0  0  0  0  0  0
   -4.0012   -2.9605    0.8284 C   0  0  0  0  0  0  0  0  0  0  0  0
   -4.7652   -2.2435    1.1234 H   0  0  0  0  0  0  0  0  0  0  0  0
   -4.1352   -3.2385   -0.2156 H   0  0  0  0  0  0  0  0  0  0  0  0
   -2.6362   -2.3395    1.0094 C   0  0  0  0  0  0  0  0  0  0  0  0
   -1.8292   -2.8395    1.7814 O   0  0  0  0  0  0  0  0  0  0  0  0
   -2.3832   -1.2445    0.2964 N   0  0  0  0  0  0  0  0  0  0  0  0
   -3.1102   -0.8685   -0.2946 H   0  0  0  0  0  0  0  0  0  0  0  0
   -1.1292   -0.4875    0.3524 C   0  0  1  0  0  0  0  0  0  0  0  0
   -0.3087   -1.1556    0.0882 H   0  0  0  0  0  0  0  0  0  0  0  0
   -1.1749    0.6534   -0.6787 C   0  0  0  0  0  0  0  0  0  0  0  0
   -0.2320    0.6739   -1.2266 H   0  0  0  0  0  0  0  0  0  0  0  0
   -1.9675    0.4465   -1.3998 H   0  0  0  0  0  0  0  0  0  0  0  0
   -1.3956    2.0248   -0.0699 C   0  0  0  0  0  0  0  0  0  0  0  0
   -1.5381    2.1694    1.3247 C   0  0  0  0  0  0  0  0  0  0  0  0
   -1.5166    1.2969    1.9645 H   0  0  0  0  0  0  0  0  0  0  0  0
   -1.7023    3.4495    1.8890 C   0  0  0  0  0  0  0  0  0  0  0  0
   -1.8127    3.5564    2.9571 H   0  0  0  0  0  0  0  0  0  0  0  0
   -1.7201    4.5890    1.0554 C   0  0  0  0  0  0  0  0  0  0  0  0
   -1.8749    5.8280    1.5900 O   0  0  0  0  0  0  0  0  0  0  0  0
   -2.0538    5.7956    2.5308 H   0  0  0  0  0  0  0  0  0  0  0  0
   -1.5724    4.4428   -0.3395 C   0  0  0  0  0  0  0  0  0  0  0  0
   -1.5921    5.3212   -0.9668 H   0  0  0  0  0  0  0  0  0  0  0  0
   -1.4131    3.1616   -0.9009 C   0  0  0  0  0  0  0  0  0  0  0  0
   -1.3090    3.0492   -1.9735 H   0  0  0  0  0  0  0  0  0  0  0  0
   -0.8664    0.0378    1.7736 C   0  0  0  0  0  0  0  0  0  0  0  0
    0.2529   -0.0672    2.2760 O   0  0  0  0  0  0  0  0  0  0  0  0
   -1.8947    0.5991    2.4221 N   0  0  0  0  0  0  0  0  0  0  0  0
   -2.7942    0.5936    1.9635 H   0  0  0  0  0  0  0  0  0  0  0  0
   -1.8170    1.1453    3.7750 C   0  0  0  0  0  0  0  0  0  0  0  0
   -0.9697    1.8290    3.8506 H   0  0  0  0  0  0  0  0  0  0  0  0
   -2.7354    1.6828    4.0167 H   0  0  0  0  0  0  0  0  0  0  0  0
   -1.6754    0.3334    4.4914 H   0  0  0  0  0  0  0  0  0  0  0  0
  5  6  2  0  0  0  0
  5  7  1  0  0  0  0
  2  3  1  0  0  0  0
  2  4  1  0  0  0  0
  2  5  1  0  0  0  0
  1  2  1  0  0  0  0
 26 27  2  0  0  0  0
 26 28  1  0  0  0  0
 24 25  1  0  0  0  0
 22 23  1  0  0  0  0
 22 24  2  0  0  0  0
 20 21  1  0  0  0  0
 19 20  1  0  0  0  0
 19 22  1  0  0  0  0
 17 18  1  0  0  0  0
 17 19  2  0  0  0  0
 15 16  1  0  0  0  0
 15 17  1  0  0  0  0
 14 15  2  0  0  0  0
 14 24  1  0  0  0  0
 11 12  1  0  0  0  0
 11 13  1  0  0  0  0
 11 14  1  0  0  0  0
  9 10  1  0  0  0  0
  9 11  1  0  0  0  0
  9 26  1  0  0  0  0
  7  8  1  0  0  0  0
  7  9  1  0  0  0  0
 30 31  1  0  0  0  0
 30 32  1  0  0  0  0
 30 33  1  0  0  0  0
 28 29  1  0  0  0  0
 28 30  1  0  0  0  0
M  END
$$$$
default_name
  -OEChem-02102213163D

 33 33  0     1  0  0  0  0  0999 V2000
   -4.0702   -3.8485    1.4554 H   0  0  0  0  0  0  0  0  0  0  0  0
   -4.0012   -2.9605    0.8284 C   0  0  0  0  0  0  0  0  0  0  0  0
   -4.7652   -2.2435    1.1234 H   0  0  0  0  0  0  0  0  0  0  0  0
   -4.1352   -3.2385   -0.2156 H   0  0  0  0  0  0  0  0  0  0  0  0
   -2.6362   -2.3395    1.0094 C   0  0  0  0  0  0  0  0  0  0  0  0
   -1.8292   -2.8395    1.7814 O   0  0  0  0  0  0  0  0  0  0  0  0
   -2.3832   -1.2445    0.2964 N   0  0  0  0  0  0  0  0  0  0  0  0
   -3.1102   -0.8685   -0.2946 H   0  0  0  0  0  0  0  0  0  0  0  0
   -1.1292   -0.4875    0.3524 C   0  0  1  0  0  0  0  0  0  0  0  0
   -0.3087   -1.1556    0.0882 H   0  0  0  0  0  0  0  0  0  0  0  0
   -1.1749    0.6534   -0.6787 C   0  0  0  0  0  0  0  0  0  0  0  0
   -0.2320    0.6739   -1.2266 H   0  0  0  0  0  0  0  0  0  0  0  0
   -1.9675    0.4465   -1.3998 H   0  0  0  0  0  0  0  0  0  0  0  0
   -1.3956    2.0248   -0.0699 C   0  0  0  0  0  0  0  0  0  0  0  0
   -1.2254    2.2241    1.3149 C   0  0  0  0  0  0  0  0  0  0  0  0
   -0.9616    1.3911    1.9533 H   0  0  0  0  0  0  0  0  0  0  0  0
   -1.3919    3.5081    1.8693 C   0  0  0  0  0  0  0  0  0  0  0  0
   -1.2624    3.6568    2.9303 H   0  0  0  0  0  0  0  0  0  0  0  0
   -1.7261    4.5971    1.0350 C   0  0  0  0  0  0  0  0  0  0  0  0
   -1.8860    5.8398    1.5596 O   0  0  0  0  0  0  0  0  0  0  0  0
   -1.8371    5.8369    2.5164 H   0  0  0  0  0  0  0  0  0  0  0  0
   -1.8911    4.3967   -0.3512 C   0  0  0  0  0  0  0  0  0  0  0  0
   -2.1510    5.2364   -0.9781 H   0  0  0  0  0  0  0  0  0  0  0  0
   -1.7286    3.1112   -0.9017 C   0  0  0  0  0  0  0  0  0  0  0  0
   -1.8646    2.9563   -1.9654 H   0  0  0  0  0  0  0  0  0  0  0  0
   -0.8664    0.0378    1.7736 C   0  0  0  0  0  0  0  0  0  0  0  0
    0.2529   -0.0672    2.2760 O   0  0  0  0  0  0  0  0  0  0  0  0
   -1.8947    0.5991    2.4221 N   0  0  0  0  0  0  0  0  0  0  0  0
   -2.7942    0.5936    1.9635 H   0  0  0  0  0  0  0  0  0  0  0  0
   -1.8170    1.1453    3.7750 C   0  0  0  0  0  0  0  0  0  0  0  0
   -0.9697    1.8290    3.8506 H   0  0  0  0  0  0  0  0  0  0  0  0
   -2.7354    1.6828    4.0167 H   0  0  0  0  0  0  0  0  0  0  0  0
   -1.6754    0.3334    4.4914 H   0  0  0  0  0  0  0  0  0  0  0  0
  5  6  2  0  0  0  0
  5  7  1  0  0  0  0
  2  3  1  0  0  0  0
  2  4  1  0  0  0  0
  2  5  1  0  0  0  0
  1  2  1  0  0  0  0
 26 27  2  0  0  0  0
 26 28  1  0  0  0  0
 24 25  1  0  0  0  0
 22 23  1  0  0  0  0
 22 24  2  0  0  0  0
 20 21  1  0  0  0  0
 19 20  1  0  0  0  0
 19 22  1  0  0  0  0
 17 18  1  0  0  0  0
 17 19  2  0  0  0  0
 15 16  1  0  0  0  0
 15 17  1  0  0  0  0
 14 15  2  0  0  0  0
 14 24  1  0  0  0  0
 11 12  1  0  0  0  0
 11 13  1  0  0  0  0
 11 14  1  0  0  0  0
  9 10  1  0  0  0  0
  9 11  1  0  0  0  0
  9 26  1  0  0  0  0
  7  8  1  0  0  0  0
  7  9  1  0  0  0  0
 30 31  1  0  0  0  0
 30 32  1  0  0  0  0
 30 33  1  0  0  0  0
 28 29  1  0  0  0  0
 28 30  1  0  0  0  0
M  END
$$$$
default_name
  -OEChem-02102213163D

 33 33  0     1  0  0  0  0  0999 V2000
   -4.0702   -3.8485    1.4554 H   0  0  0  0  0  0  0  0  0  0  0  0
   -4.0012   -2.9605    0.8284 C   0  0  0  0  0  0  0  0  0  0  0  0
   -4.7652   -2.2435    1.1234 H   0  0  0  0  0  0  0  0  0  0  0  0
   -4.1352   -3.2385   -0.2156 H   0  0  0  0  0  0  0  0  0  0  0  0
   -2.6362   -2.3395    1.0094 C   0  0  0  0  0  0  0  0  0  0  0  0
   -1.8292   -2.8395    1.7814 O   0  0  0  0  0  0  0  0  0  0  0  0
   -2.3832   -1.2445    0.2964 N   0  0  0  0  0  0  0  0  0  0  0  0
   -3.1102   -0.8685   -0.2946 H   0  0  0  0  0  0  0  0  0  0  0  0
   -1.1292   -0.4875    0.3524 C   0  0  1  0  0  0  0  0  0  0  0  0
   -0.3087   -1.1556    0.0882 H   0  0  0  0  0  0  0  0  0  0  0  0
   -1.1749    0.6534   -0.6787 C   0  0  0  0  0  0  0  0  0  0  0  0
   -0.2320    0.6739   -1.2266 H   0  0  0  0  0  0  0  0  0  0  0  0
   -1.9675    0.4465   -1.3998 H   0  0  0  0  0  0  0  0  0  0  0  0
   -1.3956    2.0248   -0.0699 C   0  0  0  0  0  0  0  0  0  0  0  0
   -0.9314    2.3091    1.2301 C   0  0  0  0  0  0  0  0  0  0  0  0
   -0.4379    1.5394    1.8090 H   0  0  0  0  0  0  0  0  0  0  0  0
   -1.1028    3.5963    1.7755 C   0  0  0  0  0  0  0  0  0  0  0  0
   -0.7475    3.8100    2.7719 H   0  0  0  0  0  0  0  0  0  0  0  0
   -1.7375    4.6035    1.0164 C   0  0  0  0  0  0  0  0  0  0  0  0
   -1.9050    5.8488    1.5323 O   0  0  0  0  0  0  0  0  0  0  0  0
   -1.6353    5.8987    2.4503 H   0  0  0  0  0  0  0  0  0  0  0  0
   -2.1970    4.3186   -0.2861 C   0  0  0  0  0  0  0  0  0  0  0  0
   -2.6846    5.0959   -0.8550 H   0  0  0  0  0  0  0  0  0  0  0  0
   -2.0282    3.0297   -0.8268 C   0  0  0  0  0  0  0  0  0  0  0  0
   -2.3898    2.8090   -1.8241 H   0  0  0  0  0  0  0  0  0  0  0  0
   -0.8664    0.0378    1.7736 C   0  0  0  0  0  0  0  0  0  0  0  0
    0.2529   -0.0672    2.2760 O   0  0  0  0  0  0  0  0  0  0  0  0
   -1.8947    0.5991    2.4221 N   0  0  0  0  0  0  0  0  0  0  0  0
   -2.7942    0.5936    1.9635 H   0  0  0  0  0  0  0  0  0  0  0  0
   -1.8170    1.1453    3.7750 C   0  0  0  0  0  0  0  0  0  0  0  0
   -0.9697    1.8290    3.8506 H   0  0  0  0  0  0  0  0  0  0  0  0
   -2.7354    1.6828    4.0167 H   0  0  0  0  0  0  0  0  0  0  0  0
   -1.6754    0.3334    4.4914 H   0  0  0  0  0  0  0  0  0  0  0  0
  5  6  2  0  0  0  0
  5  7  1  0  0  0  0
  2  3  1  0  0  0  0
  2  4  1  0  0  0  0
  2  5  1  0  0  0  0
  1  2  1  0  0  0  0
 26 27  2  0  0  0  0
 26 28  1  0  0  0  0
 24 25  1  0  0  0  0
 22 23  1  0  0  0  0
 22 24  2  0  0  0  0
 20 21  1  0  0  0  0
 19 20  1  0  0  0  0
 19 22  1  0  0  0  0
 17 18  1  0  0  0  0
 17 19  2  0  0  0  0
 15 16  1  0  0  0  0
 15 17  1  0  0  0  0
 14 15  2  0  0  0  0
 14 24  1  0  0  0  0
 11 12  1  0  0  0  0
 11 13  1  0  0  0  0
 11 14  1  0  0  0  0
  9 10  1  0  0  0  0
  9 11  1  0  0  0  0
  9 26  1  0  0  0  0
  7  8  1  0  0  0  0
  7  9  1  0  0  0  0
 30 31  1  0  0  0  0
 30 32  1  0  0  0  0
 30 33  1  0  0  0  0
 28 29  1  0  0  0  0
 28 30  1  0  0  0  0
M  END
$$$$
default_name
  -OEChem-02102213163D

 33 33  0     1  0  0  0  0  0999 V2000
   -4.0702   -3.8485    1.4554 H   0  0  0  0  0  0  0  0  0  0  0  0
   -4.0012   -2.9605    0.8284 C   0  0  0  0  0  0  0  0  0  0  0  0
   -4.7652   -2.2435    1.1234 H   0  0  0  0  0  0  0  0  0  0  0  0
   -4.1352   -3.2385   -0.2156 H   0  0  0  0  0  0  0  0  0  0  0  0
   -2.6362   -2.3395    1.0094 C   0  0  0  0  0  0  0  0  0  0  0  0
   -1.8292   -2.8395    1.7814 O   0  0  0  0  0  0  0  0  0  0  0  0
   -2.3832   -1.2445    0.2964 N   0  0  0  0  0  0  0  0  0  0  0  0
   -3.1102   -0.8685   -0.2946 H   0  0  0  0  0  0  0  0  0  0  0  0
   -1.1292   -0.4875    0.3524 C   0  0  1  0  0  0  0  0  0  0  0  0
   -0.3087   -1.1556    0.0882 H   0  0  0  0  0  0  0  0  0  0  0  0
   -1.1749    0.6534   -0.6787 C   0  0  0  0  0  0  0  0  0  0  0  0
   -0.2320    0.6739   -1.2266 H   0  0  0  0  0  0  0  0  0  0  0  0
   -1.9675    0.4465   -1.3998 H   0  0  0  0  0  0  0  0  0  0  0  0
   -1.3956    2.0248   -0.0699 C   0  0  0  0  0  0  0  0  0  0  0  0
   -0.6760    2.4185    1.0762 C   0  0  0  0  0  0  0  0  0  0  0  0
    0.0187    1.7316    1.5416 H   0  0  0  0  0  0  0  0  0  0  0  0
   -0.8547    3.7079    1.6140 C   0  0  0  0  0  0  0  0  0  0  0  0
   -0.3032    4.0055    2.4926 H   0  0  0  0  0  0  0  0  0  0  0  0
   -1.7535    4.6078    1.0008 C   0  0  0  0  0  0  0  0  0  0  0  0
   -1.9306    5.8546    1.5100 O   0  0  0  0  0  0  0  0  0  0  0  0
   -1.4624    5.9768    2.3369 H   0  0  0  0  0  0  0  0  0  0  0  0
   -2.4690    4.2139   -0.1488 C   0  0  0  0  0  0  0  0  0  0  0  0
   -3.1566    4.9094   -0.6060 H   0  0  0  0  0  0  0  0  0  0  0  0
   -2.2917    2.9227   -0.6813 C   0  0  0  0  0  0  0  0  0  0  0  0
   -2.8487    2.6176   -1.5591 H   0  0  0  0  0  0  0  0  0  0  0  0
   -0.8664    0.0378    1.7736 C   0  0  0  0  0  0  0  0  0  0  0  0
    0.2529   -0.0672    2.2760 O   0  0  0  0  0  0  0  0  0  0  0  0
   -1.8947    0.5991    2.4221 N   0  0  0  0  0  0  0  0  0  0  0  0
   -2.7942    0.5936    1.9635 H   0  0  0  0  0  0  0  0  0  0  0  0
   -1.8170    1.1453    3.7750 C   0  0  0  0  0  0  0  0  0  0  0  0
   -0.9697    1.8290    3.8506 H   0  0  0  0  0  0  0  0  0  0  0  0
   -2.7354    1.6828    4.0167 H   0  0  0  0  0  0  0  0  0  0  0  0
   -1.6754    0.3334    4.4914 H   0  0  0  0  0  0  0  0  0  0  0  0
  5  6  2  0  0  0  0
  5  7  1  0  0  0  0
  2  3  1  0  0  0  0
  2  4  1  0  0  0  0
  2  5  1  0  0  0  0
  1  2  1  0  0  0  0
 26 27  2  0  0  0  0
 26 28  1  0  0  0  0
 24 25  1  0  0  0  0
 22 23  1  0  0  0  0
 22 24  2  0  0  0  0
 20 21  1  0  0  0  0
 19 20  1  0  0  0  0
 19 22  1  0  0  0  0
 17 18  1  0  0  0  0
 17 19  2  0  0  0  0
 15 16  1  0  0  0  0
 15 17  1  0  0  0  0
 14 15  2  0  0  0  0
 14 24  1  0  0  0  0
 11 12  1  0  0  0  0
 11 13  1  0  0  0  0
 11 14  1  0  0  0  0
  9 10  1  0  0  0  0
  9 11  1  0  0  0  0
  9 26  1  0  0  0  0
  7  8  1  0  0  0  0
  7  9  1  0  0  0  0
 30 31  1  0  0  0  0
 30 32  1  0  0  0  0
 30 33  1  0  0  0  0
 28 29  1  0  0  0  0
 28 30  1  0  0  0  0
M  END
$$$$
default_name
  -OEChem-02102213163D

 33 33  0     1  0  0  0  0  0999 V2000
   -4.0702   -3.8485    1.4554 H   0  0  0  0  0  0  0  0  0  0  0  0
   -4.0012   -2.9605    0.8284 C   0  0  0  0  0  0  0  0  0  0  0  0
   -4.7652   -2.2435    1.1234 H   0  0  0  0  0  0  0  0  0  0  0  0
   -4.1352   -3.2385   -0.2156 H   0  0  0  0  0  0  0  0  0  0  0  0
   -2.6362   -2.3395    1.0094 C   0  0  0  0  0  0  0  0  0  0  0  0
   -1.8292   -2.8395    1.7814 O   0  0  0  0  0  0  0  0  0  0  0  0
   -2.3832   -1.2445    0.2964 N   0  0  0  0  0  0  0  0  0  0  0  0
   -3.1102   -0.8685   -0.2946 H   0  0  0  0  0  0  0  0  0  0  0  0
   -1.1292   -0.4875    0.3524 C   0  0  1  0  0  0  0  0  0  0  0  0
   -0.3087   -1.1556    0.0882 H   0  0  0  0  0  0  0  0  0  0  0  0
   -1.1749    0.6534   -0.6787 C   0  0  0  0  0  0  0  0  0  0  0  0
   -0.2320    0.6739   -1.2266 H   0  0  0  0  0  0  0  0  0  0  0  0
   -1.9675    0.4465   -1.3998 H   0  0  0  0  0  0  0  0  0  0  0  0
   -1.3956    2.0248   -0.0699 C   0  0  0  0  0  0  0  0  0  0  0  0
   -0.4767    2.5449    0.8636 C   0  0  0  0  0  0  0  0  0  0  0  0
    0.3773    1.9546    1.1691 H   0  0  0  0  0  0  0  0  0  0  0  0
   -0.6644    3.8355    1.3956 C   0  0  0  0  0  0  0  0  0  0  0  0
    0.0403    4.2300    2.1114 H   0  0  0  0  0  0  0  0  0  0  0  0
   -1.7730    4.6098    0.9894 C   0  0  0  0  0  0  0  0  0  0  0  0
   -1.9612    5.8566    1.4943 O   0  0  0  0  0  0  0  0  0  0  0  0
   -1.3300    6.0660    2.1840 H   0  0  0  0  0  0  0  0  0  0  0  0
   -2.6888    4.0896    0.0515 C   0  0  0  0  0  0  0  0  0  0  0  0
   -3.5349    4.6896   -0.2479 H   0  0  0  0  0  0  0  0  0  0  0  0
   -2.5010    2.7975   -0.4750 C   0  0  0  0  0  0  0  0  0  0  0  0
   -3.2101    2.3949   -1.1885 H   0  0  0  0  0  0  0  0  0  0  0  0
   -0.8664    0.0378    1.7736 C   0  0  0  0  0  0  0  0  0  0  0  0
    0.2529   -0.0672    2.2760 O   0  0  0  0  0  0  0  0  0  0  0  0
   -1.8947    0.5991    2.4221 N   0  0  0  0  0  0  0  0  0  0  0  0
   -2.7942    0.5936    1.9635 H   0  0  0  0  0  0  0  0  0  0  0  0
   -1.8170    1.1453    3.7750 C   0  0  0  0  0  0  0  0  0  0  0  0
   -0.9697    1.8290    3.8506 H   0  0  0  0  0  0  0  0  0  0  0  0
   -2.7354    1.6828    4.0167 H   0  0  0  0  0  0  0  0  0  0  0  0
   -1.6754    0.3334    4.4914 H   0  0  0  0  0  0  0  0  0  0  0  0
  5  6  2  0  0  0  0
  5  7  1  0  0  0  0
  2  3  1  0  0  0  0
  2  4  1  0  0  0  0
  2  5  1  0  0  0  0
  1  2  1  0  0  0  0
 26 27  2  0  0  0  0
 26 28  1  0  0  0  0
 24 25  1  0  0  0  0
 22 23  1  0  0  0  0
 22 24  2  0  0  0  0
 20 21  1  0  0  0  0
 19 20  1  0  0  0  0
 19 22  1  0  0  0  0
 17 18  1  0  0  0  0
 17 19  2  0  0  0  0
 15 16  1  0  0  0  0
 15 17  1  0  0  0  0
 14 15  2  0  0  0  0
 14 24  1  0  0  0  0
 11 12  1  0  0  0  0
 11 13  1  0  0  0  0
 11 14  1  0  0  0  0
  9 10  1  0  0  0  0
  9 11  1  0  0  0  0
  9 26  1  0  0  0  0
  7  8  1  0  0  0  0
  7  9  1  0  0  0  0
 30 31  1  0  0  0  0
 30 32  1  0  0  0  0
 30 33  1  0  0  0  0
 28 29  1  0  0  0  0
 28 30  1  0  0  0  0
M  END
$$$$
default_name
  -OEChem-02102213163D

 33 33  0     1  0  0  0  0  0999 V2000
   -4.0702   -3.8485    1.4554 H   0  0  0  0  0  0  0  0  0  0  0  0
   -4.0012   -2.9605    0.8284 C   0  0  0  0  0  0  0  0  0  0  0  0
   -4.7652   -2.2435    1.1234 H   0  0  0  0  0  0  0  0  0  0  0  0
   -4.1352   -3.2385   -0.2156 H   0  0  0  0  0  0  0  0  0  0  0  0
   -2.6362   -2.3395    1.0094 C   0  0  0  0  0  0  0  0  0  0  0  0
   -1.8292   -2.8395    1.7814 O   0  0  0  0  0  0  0  0  0  0  0  0
   -2.3832   -1.2445    0.2964 N   0  0  0  0  0  0  0  0  0  0  0  0
   -3.1102   -0.8685   -0.2946 H   0  0  0  0  0  0  0  0  0  0  0  0
   -1.1292   -0.4875    0.3524 C   0  0  1  0  0  0  0  0  0  0  0  0
   -0.3087   -1.1556    0.0882 H   0  0  0  0  0  0  0  0  0  0  0  0
   -1.1749    0.6534   -0.6787 C   0  0  0  0  0  0  0  0  0  0  0  0
   -0.2320    0.6739   -1.2266 H   0  0  0  0  0  0  0  0  0  0  0  0
   -1.9675    0.4465   -1.3998 H   0  0  0  0  0  0  0  0  0  0  0  0
   -1.3956    2.0248   -0.0699 C   0  0  0  0  0  0  0  0  0  0  0  0
   -0.3471    2.6797    0.6069 C   0  0  0  0  0  0  0  0  0  0  0  0
    0.6133    2.1933    0.7170 H   0  0  0  0  0  0  0  0  0  0  0  0
   -0.5449    3.9702    1.1353 C   0  0  0  0  0  0  0  0  0  0  0  0
    0.2596    4.4681    1.6544 H   0  0  0  0  0  0  0  0  0  0  0  0
   -1.7948    4.6092    0.9829 C   0  0  0  0  0  0  0  0  0  0  0  0
   -1.9947    5.8548    1.4863 O   0  0  0  0  0  0  0  0  0  0  0  0
   -1.2471    6.1602    2.0019 H   0  0  0  0  0  0  0  0  0  0  0  0
   -2.8413    3.9543    0.3010 C   0  0  0  0  0  0  0  0  0  0  0  0
   -3.7937    4.4514    0.1947 H   0  0  0  0  0  0  0  0  0  0  0  0
   -2.6419    2.6625   -0.2220 C   0  0  0  0  0  0  0  0  0  0  0  0
   -3.4492    2.1563   -0.7377 H   0  0  0  0  0  0  0  0  0  0  0  0
   -0.8664    0.0378    1.7736 C   0  0  0  0  0  0  0  0  0  0  0  0
    0.2529   -0.0672    2.2760 O   0  0  0  0  0  0  0  0  0  0  0  0
   -1.8947    0.5991    2.4221 N   0  0  0  0  0  0  0  0  0  0  0  0
   -2.7942    0.5936    1.9635 H   0  0  0  0  0  0  0  0  0  0  0  0
   -1.8170    1.1453    3.7750 C   0  0  0  0  0  0  0  0  0  0  0  0
   -0.9697    1.8290    3.8506 H   0  0  0  0  0  0  0  0  0  0  0  0
   -2.7354    1.6828    4.0167 H   0  0  0  0  0  0  0  0  0  0  0  0
   -1.6754    0.3334    4.4914 H   0  0  0  0  0  0  0  0  0  0  0  0
  5  6  2  0  0  0  0
  5  7  1  0  0  0  0
  2  3  1  0  0  0  0
  2  4  1  0  0  0  0
  2  5  1  0  0  0  0
  1  2  1  0  0  0  0
 26 27  2  0  0  0  0
 26 28  1  0  0  0  0
 24 25  1  0  0  0  0
 22 23  1  0  0  0  0
 22 24  2  0  0  0  0
 20 21  1  0  0  0  0
 19 20  1  0  0  0  0
 19 22  1  0  0  0  0
 17 18  1  0  0  0  0
 17 19  2  0  0  0  0
 15 16  1  0  0  0  0
 15 17  1  0  0  0  0
 14 15  2  0  0  0  0
 14 24  1  0  0  0  0
 11 12  1  0  0  0  0
 11 13  1  0  0  0  0
 11 14  1  0  0  0  0
  9 10  1  0  0  0  0
  9 11  1  0  0  0  0
  9 26  1  0  0  0  0
  7  8  1  0  0  0  0
  7  9  1  0  0  0  0
 30 31  1  0  0  0  0
 30 32  1  0  0  0  0
 30 33  1  0  0  0  0
 28 29  1  0  0  0  0
 28 30  1  0  0  0  0
M  END
$$$$
default_name
  -OEChem-02102213163D

 33 33  0     1  0  0  0  0  0999 V2000
   -4.0702   -3.8485    1.4554 H   0  0  0  0  0  0  0  0  0  0  0  0
   -4.0012   -2.9605    0.8284 C   0  0  0  0  0  0  0  0  0  0  0  0
   -4.7652   -2.2435    1.1234 H   0  0  0  0  0  0  0  0  0  0  0  0
   -4.1352   -3.2385   -0.2156 H   0  0  0  0  0  0  0  0  0  0  0  0
   -2.6362   -2.3395    1.0094 C   0  0  0  0  0  0  0  0  0  0  0  0
   -1.8292   -2.8395    1.7814 O   0  0  0  0  0  0  0  0  0  0  0  0
   -2.3832   -1.2445    0.2964 N   0  0  0  0  0  0  0  0  0  0  0  0
   -3.1102   -0.8685   -0.2946 H   0  0  0  0  0  0  0  0  0  0  0  0
   -1.1292   -0.4875    0.3524 C   0  0  1  0  0  0  0  0  0  0  0  0
   -0.3087   -1.1556    0.0882 H   0  0  0  0  0  0  0  0  0  0  0  0
   -1.1749    0.6534   -0.6787 C   0  0  0  0  0  0  0  0  0  0  0  0
   -0.2320    0.6739   -1.2266 H   0  0  0  0  0  0  0  0  0  0  0  0
   -1.9675    0.4465   -1.3998 H   0  0  0  0  0  0  0  0  0  0  0  0
   -1.3956    2.0248   -0.0699 C   0  0  0  0  0  0  0  0  0  0  0  0
   -0.2960    2.8137    0.3235 C   0  0  0  0  0  0  0  0  0  0  0  0
    0.7106    2.4313    0.2161 H   0  0  0  0  0  0  0  0  0  0  0  0
   -0.5045    4.1030    0.8509 C   0  0  0  0  0  0  0  0  0  0  0  0
    0.3397    4.7037    1.1526 H   0  0  0  0  0  0  0  0  0  0  0  0
   -1.8173    4.6061    0.9816 C   0  0  0  0  0  0  0  0  0  0  0  0
   -2.0287    5.8493    1.4864 O   0  0  0  0  0  0  0  0  0  0  0  0
   -1.2195    6.2529    1.8031 H   0  0  0  0  0  0  0  0  0  0  0  0
   -2.9161    3.8171    0.5829 C   0  0  0  0  0  0  0  0  0  0  0  0
   -3.9153    4.2112    0.6918 H   0  0  0  0  0  0  0  0  0  0  0  0
   -2.7047    2.5271    0.0604 C   0  0  0  0  0  0  0  0  0  0  0  0
   -3.5500    1.9179   -0.2372 H   0  0  0  0  0  0  0  0  0  0  0  0
   -0.8664    0.0378    1.7736 C   0  0  0  0  0  0  0  0  0  0  0  0
    0.2529   -0.0672    2.2760 O   0  0  0  0  0  0  0  0  0  0  0  0
   -1.8947    0.5991    2.4221 N   0  0  0  0  0  0  0  0  0  0  0  0
   -2.7942    0.5936    1.9635 H   0  0  0  0  0  0  0  0  0  0  0  0
   -1.8170    1.1453    3.7750 C   0  0  0  0  0  0  0  0  0  0  0  0
   -0.9697    1.8290    3.8506 H   0  0  0  0  0  0  0  0  0  0  0  0
   -2.7354    1.6828    4.0167 H   0  0  0  0  0  0  0  0  0  0  0  0
   -1.6754    0.3334    4.4914 H   0  0  0  0  0  0  0  0  0  0  0  0
  5  6  2  0  0  0  0
  5  7  1  0  0  0  0
  2  3  1  0  0  0  0
  2  4  1  0  0  0  0
  2  5  1  0  0  0  0
  1  2  1  0  0  0  0
 26 27  2  0  0  0  0
 26 28  1  0  0  0  0
 24 25  1  0  0  0  0
 22 23  1  0  0  0  0
 22 24  2  0  0  0  0
 20 21  1  0  0  0  0
 19 20  1  0  0  0  0
 19 22  1  0  0  0  0
 17 18  1  0  0  0  0
 17 19  2  0  0  0  0
 15 16  1  0  0  0  0
 15 17  1  0  0  0  0
 14 15  2  0  0  0  0
 14 24  1  0  0  0  0
 11 12  1  0  0  0  0
 11 13  1  0  0  0  0
 11 14  1  0  0  0  0
  9 10  1  0  0  0  0
  9 11  1  0  0  0  0
  9 26  1  0  0  0  0
  7  8  1  0  0  0  0
  7  9  1  0  0  0  0
 30 31  1  0  0  0  0
 30 32  1  0  0  0  0
 30 33  1  0  0  0  0
 28 29  1  0  0  0  0
 28 30  1  0  0  0  0
M  END
$$$$
default_name
  -OEChem-02102213163D

 33 33  0     1  0  0  0  0  0999 V2000
   -4.0702   -3.8485    1.4554 H   0  0  0  0  0  0  0  0  0  0  0  0
   -4.0012   -2.9605    0.8284 C   0  0  0  0  0  0  0  0  0  0  0  0
   -4.7652   -2.2435    1.1234 H   0  0  0  0  0  0  0  0  0  0  0  0
   -4.1352   -3.2385   -0.2156 H   0  0  0  0  0  0  0  0  0  0  0  0
   -2.6362   -2.3395    1.0094 C   0  0  0  0  0  0  0  0  0  0  0  0
   -1.8292   -2.8395    1.7814 O   0  0  0  0  0  0  0  0  0  0  0  0
   -2.3832   -1.2445    0.2964 N   0  0  0  0  0  0  0  0  0  0  0  0
   -3.1102   -0.8685   -0.2946 H   0  0  0  0  0  0  0  0  0  0  0  0
   -1.1292   -0.4875    0.3524 C   0  0  1  0  0  0  0  0  0  0  0  0
   -0.3087   -1.1556    0.0882 H   0  0  0  0  0  0  0  0  0  0  0  0
   -1.1749    0.6534   -0.6787 C   0  0  0  0  0  0  0  0  0  0  0  0
   -0.2320    0.6739   -1.2266 H   0  0  0  0  0  0  0  0  0  0  0  0
   -1.9675    0.4465   -1.3998 H   0  0  0  0  0  0  0  0  0  0  0  0
   -1.3956    2.0248   -0.0699 C   0  0  0  0  0  0  0  0  0  0  0  0
   -0.3269    2.9378    0.0328 C   0  0  0  0  0  0  0  0  0  0  0  0
    0.6627    2.6525   -0.2995 H   0  0  0  0  0  0  0  0  0  0  0  0
   -0.5458    4.2247    0.5617 C   0  0  0  0  0  0  0  0  0  0  0  0
    0.2752    4.9208    0.6404 H   0  0  0  0  0  0  0  0  0  0  0  0
   -1.8390    4.6007    0.9859 C   0  0  0  0  0  0  0  0  0  0  0  0
   -2.0610    5.8405    1.4946 O   0  0  0  0  0  0  0  0  0  0  0  0
   -1.2490    6.3378    1.6011 H   0  0  0  0  0  0  0  0  0  0  0  0
   -2.9082    3.6875    0.8778 C   0  0  0  0  0  0  0  0  0  0  0  0
   -3.8915    3.9852    1.2095 H   0  0  0  0  0  0  0  0  0  0  0  0
   -2.6853    2.4003    0.3529 C   0  0  0  0  0  0  0  0  0  0  0  0
   -3.5053    1.6960    0.2788 H   0  0  0  0  0  0  0  0  0  0  0  0
   -0.8664    0.0378    1.7736 C   0  0  0  0  0  0  0  0  0  0  0  0
    0.2529   -0.0672    2.2760 O   0  0  0  0  0  0  0  0  0  0  0  0
   -1.8947    0.5991    2.4221 N   0  0  0  0  0  0  0  0  0  0  0  0
   -2.7942    0.5936    1.9635 H   0  0  0  0  0  0  0  0  0  0  0  0
   -1.8170    1.1453    3.7750 C   0  0  0  0  0  0  0  0  0  0  0  0
   -0.9697    1.8290    3.8506 H   0  0  0  0  0  0  0  0  0  0  0  0
   -2.7354    1.6828    4.0167 H   0  0  0  0  0  0  0  0  0  0  0  0
   -1.6754    0.3334    4.4914 H   0  0  0  0  0  0  0  0  0  0  0  0
  5  6  2  0  0  0  0
  5  7  1  0  0  0  0
  2  3  1  0  0  0  0
  2  4  1  0  0  0  0
  2  5  1  0  0  0  0
  1  2  1  0  0  0  0
 26 27  2  0  0  0  0
 26 28  1  0  0  0  0
 24 25  1  0  0  0  0
 22 23  1  0  0  0  0
 22 24  2  0  0  0  0
 20 21  1  0  0  0  0
 19 20  1  0  0  0  0
 19 22  1  0  0  0  0
 17 18  1  0  0  0  0
 17 19  2  0  0  0  0
 15 16  1  0  0  0  0
 15 17  1  0  0  0  0
 14 15  2  0  0  0  0
 14 24  1  0  0  0  0
 11 12  1  0  0  0  0
 11 13  1  0  0  0  0
 11 14  1  0  0  0  0
  9 10  1  0  0  0  0
  9 11  1  0  0  0  0
  9 26  1  0  0  0  0
  7  8  1  0  0  0  0
  7  9  1  0  0  0  0
 30 31  1  0  0  0  0
 30 32  1  0  0  0  0
 30 33  1  0  0  0  0
 28 29  1  0  0  0  0
 28 30  1  0  0  0  0
M  END
$$$$
default_name
  -OEChem-02102213163D

 33 33  0     1  0  0  0  0  0999 V2000
   -4.0702   -3.8485    1.4554 H   0  0  0  0  0  0  0  0  0  0  0  0
   -4.0012   -2.9605    0.8284 C   0  0  0  0  0  0  0  0  0  0  0  0
   -4.7652   -2.2435    1.1234 H   0  0  0  0  0  0  0  0  0  0  0  0
   -4.1352   -3.2385   -0.2156 H   0  0  0  0  0  0  0  0  0  0  0  0
   -2.6362   -2.3395    1.0094 C   0  0  0  0  0  0  0  0  0  0  0  0
   -1.8292   -2.8395    1.7814 O   0  0  0  0  0  0  0  0  0  0  0  0
   -2.3832   -1.2445    0.2964 N   0  0  0  0  0  0  0  0  0  0  0  0
   -3.1102   -0.8685   -0.2946 H   0  0  0  0  0  0  0  0  0  0  0  0
   -1.1292   -0.4875    0.3524 C   0  0  1  0  0  0  0  0  0  0  0  0
   -0.3087   -1.1556    0.0882 H   0  0  0  0  0  0  0  0  0  0  0  0
   -1.1749    0.6534   -0.6787 C   0  0  0  0  0  0  0  0  0  0  0  0
   -0.2320    0.6739   -1.2266 H   0  0  0  0  0  0  0  0  0  0  0  0
   -1.9675    0.4465   -1.3998 H   0  0  0  0  0  0  0  0  0  0  0  0
   -1.3956    2.0248   -0.0699 C   0  0  0  0  0  0  0  0  0  0  0  0
   -0.4377    3.0435   -0.2454 C   0  0  0  0  0  0  0  0  0  0  0  0
    0.4727    2.8417   -0.7946 H   0  0  0  0  0  0  0  0  0  0  0  0
   -0.6660    4.3271    0.2875 C   0  0  0  0  0  0  0  0  0  0  0  0
    0.0704    5.1044    0.1525 H   0  0  0  0  0  0  0  0  0  0  0  0
   -1.8584    4.5935    0.9952 C   0  0  0  0  0  0  0  0  0  0  0  0
   -2.0893    5.8289    1.5105 O   0  0  0  0  0  0  0  0  0  0  0  0
   -1.3336    6.4092    1.4097 H   0  0  0  0  0  0  0  0  0  0  0  0
   -2.8180    3.5742    1.1657 C   0  0  0  0  0  0  0  0  0  0  0  0
   -3.7238    3.7889    1.7125 H   0  0  0  0  0  0  0  0  0  0  0  0
   -2.5848    2.2909    0.6358 C   0  0  0  0  0  0  0  0  0  0  0  0
   -3.3184    1.5058    0.7751 H   0  0  0  0  0  0  0  0  0  0  0  0
   -0.8664    0.0378    1.7736 C   0  0  0  0  0  0  0  0  0  0  0  0
    0.2529   -0.0672    2.2760 O   0  0  0  0  0  0  0  0  0  0  0  0
   -1.8947    0.5991    2.4221 N   0  0  0  0  0  0  0  0  0  0  0  0
   -2.7942    0.5936    1.9635 H   0  0  0  0  0  0  0  0  0  0  0  0
   -1.8170    1.1453    3.7750 C   0  0  0  0  0  0  0  0  0  0  0  0
   -0.9697    1.8290    3.8506 H   0  0  0  0  0  0  0  0  0  0  0  0
   -2.7354    1.6828    4.0167 H   0  0  0  0  0  0  0  0  0  0  0  0
   -1.6754    0.3334    4.4914 H   0  0  0  0  0  0  0  0  0  0  0  0
  5  6  2  0  0  0  0
  5  7  1  0  0  0  0
  2  3  1  0  0  0  0
  2  4  1  0  0  0  0
  2  5  1  0  0  0  0
  1  2  1  0  0  0  0
 26 27  2  0  0  0  0
 26 28  1  0  0  0  0
 24 25  1  0  0  0  0
 22 23  1  0  0  0  0
 22 24  2  0  0  0  0
 20 21  1  0  0  0  0
 19 20  1  0  0  0  0
 19 22  1  0  0  0  0
 17 18  1  0  0  0  0
 17 19  2  0  0  0  0
 15 16  1  0  0  0  0
 15 17  1  0  0  0  0
 14 15  2  0  0  0  0
 14 24  1  0  0  0  0
 11 12  1  0  0  0  0
 11 13  1  0  0  0  0
 11 14  1  0  0  0  0
  9 10  1  0  0  0  0
  9 11  1  0  0  0  0
  9 26  1  0  0  0  0
  7  8  1  0  0  0  0
  7  9  1  0  0  0  0
 30 31  1  0  0  0  0
 30 32  1  0  0  0  0
 30 33  1  0  0  0  0
 28 29  1  0  0  0  0
 28 30  1  0  0  0  0
M  END
$$$$
default_name
  -OEChem-02102213163D

 33 33  0     1  0  0  0  0  0999 V2000
   -4.0702   -3.8485    1.4554 H   0  0  0  0  0  0  0  0  0  0  0  0
   -4.0012   -2.9605    0.8284 C   0  0  0  0  0  0  0  0  0  0  0  0
   -4.7652   -2.2435    1.1234 H   0  0  0  0  0  0  0  0  0  0  0  0
   -4.1352   -3.2385   -0.2156 H   0  0  0  0  0  0  0  0  0  0  0  0
   -2.6362   -2.3395    1.0094 C   0  0  0  0  0  0  0  0  0  0  0  0
   -1.8292   -2.8395    1.7814 O   0  0  0  0  0  0  0  0  0  0  0  0
   -2.3832   -1.2445    0.2964 N   0  0  0  0  0  0  0  0  0  0  0  0
   -3.1102   -0.8685   -0.2946 H   0  0  0  0  0  0  0  0  0  0  0  0
   -1.1292   -0.4875    0.3524 C   0  0  1  0  0  0  0  0  0  0  0  0
   -0.3087   -1.1556    0.0882 H   0  0  0  0  0  0  0  0  0  0  0  0
   -1.1749    0.6534   -0.6787 C   0  0  0  0  0  0  0  0  0  0  0  0
   -0.2320    0.6739   -1.2266 H   0  0  0  0  0  0  0  0  0  0  0  0
   -1.9675    0.4465   -1.3998 H   0  0  0  0  0  0  0  0  0  0  0  0
   -1.3956    2.0248   -0.0699 C   0  0  0  0  0  0  0  0  0  0  0  0
   -0.6208    3.1236   -0.4923 C   0  0  0  0  0  0  0  0  0  0  0  0
    0.1537    2.9861   -1.2355 H   0  0  0  0  0  0  0  0  0  0  0  0
   -0.8569    4.4032    0.0469 C   0  0  0  0  0  0  0  0  0  0  0  0
   -0.2607    5.2421   -0.2777 H   0  0  0  0  0  0  0  0  0  0  0  0
   -1.8742    4.5848    1.0090 C   0  0  0  0  0  0  0  0  0  0  0  0
   -2.1117    5.8153    1.5329 O   0  0  0  0  0  0  0  0  0  0  0  0
   -1.4675    6.4621    1.2419 H   0  0  0  0  0  0  0  0  0  0  0  0
   -2.6518    3.4849    1.4269 C   0  0  0  0  0  0  0  0  0  0  0  0
   -3.4238    3.6356    2.1665 H   0  0  0  0  0  0  0  0  0  0  0  0
   -2.4103    2.2063    0.8896 C   0  0  0  0  0  0  0  0  0  0  0  0
   -3.0020    1.3601    1.2180 H   0  0  0  0  0  0  0  0  0  0  0  0
   -0.8664    0.0378    1.7736 C   0  0  0  0  0  0  0  0  0  0  0  0
    0.2529   -0.0672    2.2760 O   0  0  0  0  0  0  0  0  0  0  0  0
   -1.8947    0.5991    2.4221 N   0  0  0  0  0  0  0  0  0  0  0  0
   -2.7942    0.5936    1.9635 H   0  0  0  0  0  0  0  0  0  0  0  0
   -1.8170    1.1453    3.7750 C   0  0  0  0  0  0  0  0  0  0  0  0
   -0.9697    1.8290    3.8506 H   0  0  0  0  0  0  0  0  0  0  0  0
   -2.7354    1.6828    4.0167 H   0  0  0  0  0  0  0  0  0  0  0  0
   -1.6754    0.3334    4.4914 H   0  0  0  0  0  0  0  0  0  0  0  0
  5  6  2  0  0  0  0
  5  7  1  0  0  0  0
  2  3  1  0  0  0  0
  2  4  1  0  0  0  0
  2  5  1  0  0  0  0
  1  2  1  0  0  0  0
 26 27  2  0  0  0  0
 26 28  1  0  0  0  0
 24 25  1  0  0  0  0
 22 23  1  0  0  0  0
 22 24  2  0  0  0  0
 20 21  1  0  0  0  0
 19 20  1  0  0  0  0
 19 22  1  0  0  0  0
 17 18  1  0  0  0  0
 17 19  2  0  0  0  0
 15 16  1  0  0  0  0
 15 17  1  0  0  0  0
 14 15  2  0  0  0  0
 14 24  1  0  0  0  0
 11 12  1  0  0  0  0
 11 13  1  0  0  0  0
 11 14  1  0  0  0  0
  9 10  1  0  0  0  0
  9 11  1  0  0  0  0
  9 26  1  0  0  0  0
  7  8  1  0  0  0  0
  7  9  1  0  0  0  0
 30 31  1  0  0  0  0
 30 32  1  0  0  0  0
 30 33  1  0  0  0  0
 28 29  1  0  0  0  0
 28 30  1  0  0  0  0
M  END
$$$$
default_name
  -OEChem-02102213163D

 33 33  0     1  0  0  0  0  0999 V2000
   -4.0702   -3.8485    1.4554 H   0  0  0  0  0  0  0  0  0  0  0  0
   -4.0012   -2.9605    0.8284 C   0  0  0  0  0  0  0  0  0  0  0  0
   -4.7652   -2.2435    1.1234 H   0  0  0  0  0  0  0  0  0  0  0  0
   -4.1352   -3.2385   -0.2156 H   0  0  0  0  0  0  0  0  0  0  0  0
   -2.6362   -2.3395    1.0094 C   0  0  0  0  0  0  0  0  0  0  0  0
   -1.8292   -2.8395    1.7814 O   0  0  0  0  0  0  0  0  0  0  0  0
   -2.3832   -1.2445    0.2964 N   0  0  0  0  0  0  0  0  0  0  0  0
   -3.1102   -0.8685   -0.2946 H   0  0  0  0  0  0  0  0  0  0  0  0
   -1.1292   -0.4875    0.3524 C   0  0  1  0  0  0  0  0  0  0  0  0
   -0.3087   -1.1556    0.0882 H   0  0  0  0  0  0  0  0  0  0  0  0
   -1.1749    0.6534   -0.6787 C   0  0  0  0  0  0  0  0  0  0  0  0
   -0.2320    0.6739   -1.2266 H   0  0  0  0  0  0  0  0  0  0  0  0
   -1.9675    0.4465   -1.3998 H   0  0  0  0  0  0  0  0  0  0  0  0
   -1.3956    2.0248   -0.0699 C   0  0  0  0  0  0  0  0  0  0  0  0
   -0.8637    3.1727   -0.6909 C   0  0  0  0  0  0  0  0  0  0  0  0
   -0.2726    3.0759   -1.5921 H   0  0  0  0  0  0  0  0  0  0  0  0
   -1.1056    4.4479   -0.1438 C   0  0  0  0  0  0  0  0  0  0  0  0
   -0.6954    5.3246   -0.6210 H   0  0  0  0  0  0  0  0  0  0  0  0
   -1.8853    4.5752    1.0264 C   0  0  0  0  0  0  0  0  0  0  0  0
   -2.1267    5.8008    1.5602 O   0  0  0  0  0  0  0  0  0  0  0  0
   -1.6416    6.4930    1.1092 H   0  0  0  0  0  0  0  0  0  0  0  0
   -2.4208    3.4259    1.6437 C   0  0  0  0  0  0  0  0  0  0  0  0
   -3.0118    3.5358    2.5406 H   0  0  0  0  0  0  0  0  0  0  0  0
   -2.1735    2.1523    1.0971 C   0  0  0  0  0  0  0  0  0  0  0  0
   -2.5775    1.2689    1.5771 H   0  0  0  0  0  0  0  0  0  0  0  0
   -0.8664    0.0378    1.7736 C   0  0  0  0  0  0  0  0  0  0  0  0
    0.2529   -0.0672    2.2760 O   0  0  0  0  0  0  0  0  0  0  0  0
   -1.8947    0.5991    2.4221 N   0  0  0  0  0  0  0  0  0  0  0  0
   -2.7942    0.5936    1.9635 H   0  0  0  0  0  0  0  0  0  0  0  0
   -1.8170    1.1453    3.7750 C   0  0  0  0  0  0  0  0  0  0  0  0
   -0.9697    1.8290    3.8506 H   0  0  0  0  0  0  0  0  0  0  0  0
   -2.7354    1.6828    4.0167 H   0  0  0  0  0  0  0  0  0  0  0  0
   -1.6754    0.3334    4.4914 H   0  0  0  0  0  0  0  0  0  0  0  0
  5  6  2  0  0  0  0
  5  7  1  0  0  0  0
  2  3  1  0  0  0  0
  2  4  1  0  0  0  0
  2  5  1  0  0  0  0
  1  2  1  0  0  0  0
 26 27  2  0  0  0  0
 26 28  1  0  0  0  0
 24 25  1  0  0  0  0
 22 23  1  0  0  0  0
 22 24  2  0  0  0  0
 20 21  1  0  0  0  0
 19 20  1  0  0  0  0
 19 22  1  0  0  0  0
 17 18  1  0  0  0  0
 17 19  2  0  0  0  0
 15 16  1  0  0  0  0
 15 17  1  0  0  0  0
 14 15  2  0  0  0  0
 14 24  1  0  0  0  0
 11 12  1  0  0  0  0
 11 13  1  0  0  0  0
 11 14  1  0  0  0  0
  9 10  1  0  0  0  0
  9 11  1  0  0  0  0
  9 26  1  0  0  0  0
  7  8  1  0  0  0  0
  7  9  1  0  0  0  0
 30 31  1  0  0  0  0
 30 32  1  0  0  0  0
 30 33  1  0  0  0  0
 28 29  1  0  0  0  0
 28 30  1  0  0  0  0
M  END
$$$$
default_name
  -OEChem-02102213163D

 33 33  0     1  0  0  0  0  0999 V2000
   -4.0702   -3.8485    1.4554 H   0  0  0  0  0  0  0  0  0  0  0  0
   -4.0012   -2.9605    0.8284 C   0  0  0  0  0  0  0  0  0  0  0  0
   -4.7652   -2.2435    1.1234 H   0  0  0  0  0  0  0  0  0  0  0  0
   -4.1352   -3.2385   -0.2156 H   0  0  0  0  0  0  0  0  0  0  0  0
   -2.6362   -2.3395    1.0094 C   0  0  0  0  0  0  0  0  0  0  0  0
   -1.8292   -2.8395    1.7814 O   0  0  0  0  0  0  0  0  0  0  0  0
   -2.3832   -1.2445    0.2964 N   0  0  0  0  0  0  0  0  0  0  0  0
   -3.1102   -0.8685   -0.2946 H   0  0  0  0  0  0  0  0  0  0  0  0
   -1.1292   -0.4875    0.3524 C   0  0  1  0  0  0  0  0  0  0  0  0
   -0.3087   -1.1556    0.0882 H   0  0  0  0  0  0  0  0  0  0  0  0
   -1.1749    0.6534   -0.6787 C   0  0  0  0  0  0  0  0  0  0  0  0
   -0.2320    0.6739   -1.2266 H   0  0  0  0  0  0  0  0  0  0  0  0
   -1.9675    0.4465   -1.3998 H   0  0  0  0  0  0  0  0  0  0  0  0
   -1.3956    2.0248   -0.0699 C   0  0  0  0  0  0  0  0  0  0  0  0
   -1.1500    3.1874   -0.8277 C   0  0  0  0  0  0  0  0  0  0  0  0
   -0.7773    3.1048   -1.8403 H   0  0  0  0  0  0  0  0  0  0  0  0
   -1.3950    4.4579   -0.2714 C   0  0  0  0  0  0  0  0  0  0  0  0
   -1.2043    5.3461   -0.8539 H   0  0  0  0  0  0  0  0  0  0  0  0
   -1.8910    4.5656    1.0462 C   0  0  0  0  0  0  0  0  0  0  0  0
   -2.1333    5.7862    1.5907 O   0  0  0  0  0  0  0  0  0  0  0  0
   -1.8441    6.4998    1.0206 H   0  0  0  0  0  0  0  0  0  0  0  0
   -2.1408    3.4009    1.8013 C   0  0  0  0  0  0  0  0  0  0  0  0
   -2.5159    3.4964    2.8092 H   0  0  0  0  0  0  0  0  0  0  0  0
   -1.8906    2.1326    1.2441 C   0  0  0  0  0  0  0  0  0  0  0  0
   -2.0740    1.2385    1.8281 H   0  0  0  0  0  0  0  0  0  0  0  0
   -0.8664    0.0378    1.7736 C   0  0  0  0  0  0  0  0  0  0  0  0
    0.2529   -0.0672    2.2760 O   0  0  0  0  0  0  0  0  0  0  0  0
   -1.8947    0.5991    2.4221 N   0  0  0  0  0  0  0  0  0  0  0  0
   -2.7942    0.5936    1.9635 H   0  0  0  0  0  0  0  0  0  0  0  0
   -1.8170    1.1453    3.7750 C   0  0  0  0  0  0  0  0  0  0  0  0
   -0.9697    1.8290    3.8506 H   0  0  0  0  0  0  0  0  0  0  0  0
   -2.7354    1.6828    4.0167 H   0  0  0  0  0  0  0  0  0  0  0  0
   -1.6754    0.3334    4.4914 H   0  0  0  0  0  0  0  0  0  0  0  0
  5  6  2  0  0  0  0
  5  7  1  0  0  0  0
  2  3  1  0  0  0  0
  2  4  1  0  0  0  0
  2  5  1  0  0  0  0
  1  2  1  0  0  0  0
 26 27  2  0  0  0  0
 26 28  1  0  0  0  0
 24 25  1  0  0  0  0
 22 23  1  0  0  0  0
 22 24  2  0  0  0  0
 20 21  1  0  0  0  0
 19 20  1  0  0  0  0
 19 22  1  0  0  0  0
 17 18  1  0  0  0  0
 17 19  2  0  0  0  0
 15 16  1  0  0  0  0
 15 17  1  0  0  0  0
 14 15  2  0  0  0  0
 14 24  1  0  0  0  0
 11 12  1  0  0  0  0
 11 13  1  0  0  0  0
 11 14  1  0  0  0  0
  9 10  1  0  0  0  0
  9 11  1  0  0  0  0
  9 26  1  0  0  0  0
  7  8  1  0  0  0  0
  7  9  1  0  0  0  0
 30 31  1  0  0  0  0
 30 32  1  0  0  0  0
 30 33  1  0  0  0  0
 28 29  1  0  0  0  0
 28 30  1  0  0  0  0
M  END
$$$$
default_name
  -OEChem-02102213163D

 33 33  0     1  0  0  0  0  0999 V2000
   -4.0702   -3.8485    1.4554 H   0  0  0  0  0  0  0  0  0  0  0  0
   -4.0012   -2.9605    0.8284 C   0  0  0  0  0  0  0  0  0  0  0  0
   -4.7652   -2.2435    1.1234 H   0  0  0  0  0  0  0  0  0  0  0  0
   -4.1352   -3.2385   -0.2156 H   0  0  0  0  0  0  0  0  0  0  0  0
   -2.6362   -2.3395    1.0094 C   0  0  0  0  0  0  0  0  0  0  0  0
   -1.8292   -2.8395    1.7814 O   0  0  0  0  0  0  0  0  0  0  0  0
   -2.3832   -1.2445    0.2964 N   0  0  0  0  0  0  0  0  0  0  0  0
   -3.1102   -0.8685   -0.2946 H   0  0  0  0  0  0  0  0  0  0  0  0
   -1.1292   -0.4875    0.3524 C   0  0  1  0  0  0  0  0  0  0  0  0
   -0.3087   -1.1556    0.0882 H   0  0  0  0  0  0  0  0  0  0  0  0
   -1.1749    0.6534   -0.6787 C   0  0  0  0  0  0  0  0  0  0  0  0
   -0.3661    0.5144   -1.3971 H   0  0  0  0  0  0  0  0  0  0  0  0
   -2.1151    0.5944   -1.2296 H   0  0  0  0  0  0  0  0  0  0  0  0
   -1.0340    2.0365   -0.0729 C   0  0  0  0  0  0  0  0  0  0  0  0
   -1.0576    3.1798   -0.8967 C   0  0  0  0  0  0  0  0  0  0  0  0
   -1.1505    3.0721   -1.9695 H   0  0  0  0  0  0  0  0  0  0  0  0
   -0.9670    4.4640   -0.3255 C   0  0  0  0  0  0  0  0  0  0  0  0
   -0.9839    5.3372   -0.9594 H   0  0  0  0  0  0  0  0  0  0  0  0
   -0.8562    4.6051    1.0751 C   0  0  0  0  0  0  0  0  0  0  0  0
   -0.7712    5.8393    1.6359 O   0  0  0  0  0  0  0  0  0  0  0  0
   -0.7044    6.5316    0.9769 H   0  0  0  0  0  0  0  0  0  0  0  0
   -0.8376    3.4601    1.8983 C   0  0  0  0  0  0  0  0  0  0  0  0
   -0.7480    3.5808    2.9674 H   0  0  0  0  0  0  0  0  0  0  0  0
   -0.9237    2.1777    1.3239 C   0  0  0  0  0  0  0  0  0  0  0  0
   -0.9001    1.2982    1.9563 H   0  0  0  0  0  0  0  0  0  0  0  0
   -0.8664    0.0378    1.7736 C   0  0  0  0  0  0  0  0  0  0  0  0
    0.2529   -0.0672    2.2760 O   0  0  0  0  0  0  0  0  0  0  0  0
   -1.8947    0.5991    2.4221 N   0  0  0  0  0  0  0  0  0  0  0  0
   -2.7942    0.5936    1.9635 H   0  0  0  0  0  0  0  0  0  0  0  0
   -1.8170    1.1453    3.7750 C   0  0  0  0  0  0  0  0  0  0  0  0
   -0.9697    1.8290    3.8506 H   0  0  0  0  0  0  0  0  0  0  0  0
   -2.7354    1.6828    4.0167 H   0  0  0  0  0  0  0  0  0  0  0  0
   -1.6754    0.3334    4.4914 H   0  0  0  0  0  0  0  0  0  0  0  0
  5  6  2  0  0  0  0
  5  7  1  0  0  0  0
  2  3  1  0  0  0  0
  2  4  1  0  0  0  0
  2  5  1  0  0  0  0
  1  2  1  0  0  0  0
 26 27  2  0  0  0  0
 26 28  1  0  0  0  0
 24 25  1  0  0  0  0
 22 23  1  0  0  0  0
 22 24  2  0  0  0  0
 20 21  1  0  0  0  0
 19 20  1  0  0  0  0
 19 22  1  0  0  0  0
 17 18  1  0  0  0  0
 17 19  2  0  0  0  0
 15 16  1  0  0  0  0
 15 17  1  0  0  0  0
 14 15  2  0  0  0  0
 14 24  1  0  0  0  0
 11 12  1  0  0  0  0
 11 13  1  0  0  0  0
 11 14  1  0  0  0  0
  9 10  1  0  0  0  0
  9 11  1  0  0  0  0
  9 26  1  0  0  0  0
  7  8  1  0  0  0  0
  7  9  1  0  0  0  0
 30 31  1  0  0  0  0
 30 32  1  0  0  0  0
 30 33  1  0  0  0  0
 28 29  1  0  0  0  0
 28 30  1  0  0  0  0
M  END
$$$$
default_name
  -OEChem-02102213163D

 33 33  0     1  0  0  0  0  0999 V2000
   -4.0702   -3.8485    1.4554 H   0  0  0  0  0  0  0  0  0  0  0  0
   -4.0012   -2.9605    0.8284 C   0  0  0  0  0  0  0  0  0  0  0  0
   -4.7652   -2.2435    1.1234 H   0  0  0  0  0  0  0  0  0  0  0  0
   -4.1352   -3.2385   -0.2156 H   0  0  0  0  0  0  0  0  0  0  0  0
   -2.6362   -2.3395    1.0094 C   0  0  0  0  0  0  0  0  0  0  0  0
   -1.8292   -2.8395    1.7814 O   0  0  0  0  0  0  0  0  0  0  0  0
   -2.3832   -1.2445    0.2964 N   0  0  0  0  0  0  0  0  0  0  0  0
   -3.1102   -0.8685   -0.2946 H   0  0  0  0  0  0  0  0  0  0  0  0
   -1.1292   -0.4875    0.3524 C   0  0  1  0  0  0  0  0  0  0  0  0
   -0.3087   -1.1556    0.0882 H   0  0  0  0  0  0  0  0  0  0  0  0
   -1.1749    0.6534   -0.6787 C   0  0  0  0  0  0  0  0  0  0  0  0
   -0.3661    0.5144   -1.3971 H   0  0  0  0  0  0  0  0  0  0  0  0
   -2.1151    0.5944   -1.2296 H   0  0  0  0  0  0  0  0  0  0  0  0
   -1.0340    2.0365   -0.0729 C   0  0  0  0  0  0  0  0  0  0  0  0
   -1.3672    3.1803   -0.8259 C   0  0  0  0  0  0  0  0  0  0  0  0
   -1.7007    3.0759   -1.8501 H   0  0  0  0  0  0  0  0  0  0  0  0
   -1.2732    4.4602   -0.2454 C   0  0  0  0  0  0  0  0  0  0  0  0
   -1.5276    5.3339   -0.8254 H   0  0  0  0  0  0  0  0  0  0  0  0
   -0.8479    4.5959    1.0941 C   0  0  0  0  0  0  0  0  0  0  0  0
   -0.7567    5.8255    1.6640 O   0  0  0  0  0  0  0  0  0  0  0  0
   -0.9181    6.5286    1.0335 H   0  0  0  0  0  0  0  0  0  0  0  0
   -0.5195    3.4499    1.8477 C   0  0  0  0  0  0  0  0  0  0  0  0
   -0.1914    3.5669    2.8695 H   0  0  0  0  0  0  0  0  0  0  0  0
   -0.6101    2.1723    1.2632 C   0  0  0  0  0  0  0  0  0  0  0  0
   -0.3488    1.2930    1.8399 H   0  0  0  0  0  0  0  0  0  0  0  0
   -0.8664    0.0378    1.7736 C   0  0  0  0  0  0  0  0  0  0  0  0
    0.2529   -0.0672    2.2760 O   0  0  0  0  0  0  0  0  0  0  0  0
   -1.8947    0.5991    2.4221 N   0  0  0  0  0  0  0  0  0  0  0  0
   -2.7942    0.5936    1.9635 H   0  0  0  0  0  0  0  0  0  0  0  0
   -1.8170    1.1453    3.7750 C   0  0  0  0  0  0  0  0  0  0  0  0
   -0.9697    1.8290    3.8506 H   0  0  0  0  0  0  0  0  0  0  0  0
   -2.7354    1.6828    4.0167 H   0  0  0  0  0  0  0  0  0  0  0  0
   -1.6754    0.3334    4.4914 H   0  0  0  0  0  0  0  0  0  0  0  0
  5  6  2  0  0  0  0
  5  7  1  0  0  0  0
  2  3  1  0  0  0  0
  2  4  1  0  0  0  0
  2  5  1  0  0  0  0
  1  2  1  0  0  0  0
 26 27  2  0  0  0  0
 26 28  1  0  0  0  0
 24 25  1  0  0  0  0
 22 23  1  0  0  0  0
 22 24  2  0  0  0  0
 20 21  1  0  0  0  0
 19 20  1  0  0  0  0
 19 22  1  0  0  0  0
 17 18  1  0  0  0  0
 17 19  2  0  0  0  0
 15 16  1  0  0  0  0
 15 17  1  0  0  0  0
 14 15  2  0  0  0  0
 14 24  1  0  0  0  0
 11 12  1  0  0  0  0
 11 13  1  0  0  0  0
 11 14  1  0  0  0  0
  9 10  1  0  0  0  0
  9 11  1  0  0  0  0
  9 26  1  0  0  0  0
  7  8  1  0  0  0  0
  7  9  1  0  0  0  0
 30 31  1  0  0  0  0
 30 32  1  0  0  0  0
 30 33  1  0  0  0  0
 28 29  1  0  0  0  0
 28 30  1  0  0  0  0
M  END
$$$$
default_name
  -OEChem-02102213163D

 33 33  0     1  0  0  0  0  0999 V2000
   -4.0702   -3.8485    1.4554 H   0  0  0  0  0  0  0  0  0  0  0  0
   -4.0012   -2.9605    0.8284 C   0  0  0  0  0  0  0  0  0  0  0  0
   -4.7652   -2.2435    1.1234 H   0  0  0  0  0  0  0  0  0  0  0  0
   -4.1352   -3.2385   -0.2156 H   0  0  0  0  0  0  0  0  0  0  0  0
   -2.6362   -2.3395    1.0094 C   0  0  0  0  0  0  0  0  0  0  0  0
   -1.8292   -2.8395    1.7814 O   0  0  0  0  0  0  0  0  0  0  0  0
   -2.3832   -1.2445    0.2964 N   0  0  0  0  0  0  0  0  0  0  0  0
   -3.1102   -0.8685   -0.2946 H   0  0  0  0  0  0  0  0  0  0  0  0
   -1.1292   -0.4875    0.3524 C   0  0  1  0  0  0  0  0  0  0  0  0
   -0.3087   -1.1556    0.0882 H   0  0  0  0  0  0  0  0  0  0  0  0
   -1.1749    0.6534   -0.6787 C   0  0  0  0  0  0  0  0  0  0  0  0
   -0.3661    0.5144   -1.3971 H   0  0  0  0  0  0  0  0  0  0  0  0
   -2.1151    0.5944   -1.2296 H   0  0  0  0  0  0  0  0  0  0  0  0
   -1.0340    2.0365   -0.0729 C   0  0  0  0  0  0  0  0  0  0  0  0
   -1.6496    3.1471   -0.6843 C   0  0  0  0  0  0  0  0  0  0  0  0
   -2.2044    3.0198   -1.6047 H   0  0  0  0  0  0  0  0  0  0  0  0
   -1.5496    4.4229   -0.0959 C   0  0  0  0  0  0  0  0  0  0  0  0
   -2.0209    5.2713   -0.5677 H   0  0  0  0  0  0  0  0  0  0  0  0
   -0.8344    4.5874    1.1104 C   0  0  0  0  0  0  0  0  0  0  0  0
   -0.7346    5.8130    1.6874 O   0  0  0  0  0  0  0  0  0  0  0  0
   -1.1109    6.5023    1.1384 H   0  0  0  0  0  0  0  0  0  0  0  0
   -0.2231    3.4741    1.7234 C   0  0  0  0  0  0  0  0  0  0  0  0
    0.3246    3.6134    2.6433 H   0  0  0  0  0  0  0  0  0  0  0  0
   -0.3210    2.2010    1.1304 C   0  0  0  0  0  0  0  0  0  0  0  0
    0.1567    1.3478    1.5971 H   0  0  0  0  0  0  0  0  0  0  0  0
   -0.8664    0.0378    1.7736 C   0  0  0  0  0  0  0  0  0  0  0  0
    0.2529   -0.0672    2.2760 O   0  0  0  0  0  0  0  0  0  0  0  0
   -1.8947    0.5991    2.4221 N   0  0  0  0  0  0  0  0  0  0  0  0
   -2.7942    0.5936    1.9635 H   0  0  0  0  0  0  0  0  0  0  0  0
   -1.8170    1.1453    3.7750 C   0  0  0  0  0  0  0  0  0  0  0  0
   -0.9697    1.8290    3.8506 H   0  0  0  0  0  0  0  0  0  0  0  0
   -2.7354    1.6828    4.0167 H   0  0  0  0  0  0  0  0  0  0  0  0
   -1.6754    0.3334    4.4914 H   0  0  0  0  0  0  0  0  0  0  0  0
  5  6  2  0  0  0  0
  5  7  1  0  0  0  0
  2  3  1  0  0  0  0
  2  4  1  0  0  0  0
  2  5  1  0  0  0  0
  1  2  1  0  0  0  0
 26 27  2  0  0  0  0
 26 28  1  0  0  0  0
 24 25  1  0  0  0  0
 22 23  1  0  0  0  0
 22 24  2  0  0  0  0
 20 21  1  0  0  0  0
 19 20  1  0  0  0  0
 19 22  1  0  0  0  0
 17 18  1  0  0  0  0
 17 19  2  0  0  0  0
 15 16  1  0  0  0  0
 15 17  1  0  0  0  0
 14 15  2  0  0  0  0
 14 24  1  0  0  0  0
 11 12  1  0  0  0  0
 11 13  1  0  0  0  0
 11 14  1  0  0  0  0
  9 10  1  0  0  0  0
  9 11  1  0  0  0  0
  9 26  1  0  0  0  0
  7  8  1  0  0  0  0
  7  9  1  0  0  0  0
 30 31  1  0  0  0  0
 30 32  1  0  0  0  0
 30 33  1  0  0  0  0
 28 29  1  0  0  0  0
 28 30  1  0  0  0  0
M  END
$$$$
default_name
  -OEChem-02102213163D

 33 33  0     1  0  0  0  0  0999 V2000
   -4.0702   -3.8485    1.4554 H   0  0  0  0  0  0  0  0  0  0  0  0
   -4.0012   -2.9605    0.8284 C   0  0  0  0  0  0  0  0  0  0  0  0
   -4.7652   -2.2435    1.1234 H   0  0  0  0  0  0  0  0  0  0  0  0
   -4.1352   -3.2385   -0.2156 H   0  0  0  0  0  0  0  0  0  0  0  0
   -2.6362   -2.3395    1.0094 C   0  0  0  0  0  0  0  0  0  0  0  0
   -1.8292   -2.8395    1.7814 O   0  0  0  0  0  0  0  0  0  0  0  0
   -2.3832   -1.2445    0.2964 N   0  0  0  0  0  0  0  0  0  0  0  0
   -3.1102   -0.8685   -0.2946 H   0  0  0  0  0  0  0  0  0  0  0  0
   -1.1292   -0.4875    0.3524 C   0  0  1  0  0  0  0  0  0  0  0  0
   -0.3087   -1.1556    0.0882 H   0  0  0  0  0  0  0  0  0  0  0  0
   -1.1749    0.6534   -0.6787 C   0  0  0  0  0  0  0  0  0  0  0  0
   -0.3661    0.5144   -1.3971 H   0  0  0  0  0  0  0  0  0  0  0  0
   -2.1151    0.5944   -1.2296 H   0  0  0  0  0  0  0  0  0  0  0  0
   -1.0340    2.0365   -0.0729 C   0  0  0  0  0  0  0  0  0  0  0  0
   -1.8855    3.0824   -0.4818 C   0  0  0  0  0  0  0  0  0  0  0  0
   -2.6272    2.9076   -1.2502 H   0  0  0  0  0  0  0  0  0  0  0  0
   -1.7774    4.3547    0.1129 C   0  0  0  0  0  0  0  0  0  0  0  0
   -2.4301    5.1537   -0.2038 H   0  0  0  0  0  0  0  0  0  0  0  0
   -0.8167    4.5802    1.1227 C   0  0  0  0  0  0  0  0  0  0  0  0
   -0.7066    5.8027    1.7044 O   0  0  0  0  0  0  0  0  0  0  0  0
   -1.2697    6.4544    1.2847 H   0  0  0  0  0  0  0  0  0  0  0  0
    0.0313    3.5311    1.5341 C   0  0  0  0  0  0  0  0  0  0  0  0
    0.7648    3.7171    2.3040 H   0  0  0  0  0  0  0  0  0  0  0  0
   -0.0761    2.2618    0.9345 C   0  0  0  0  0  0  0  0  0  0  0  0
    0.5820    1.4589    1.2446 H   0  0  0  0  0  0  0  0  0  0  0  0
   -0.8664    0.0378    1.7736 C   0  0  0  0  0  0  0  0  0  0  0  0
    0.2529   -0.0672    2.2760 O   0  0  0  0  0  0  0  0  0  0  0  0
   -1.8947    0.5991    2.4221 N   0  0  0  0  0  0  0  0  0  0  0  0
   -2.7942    0.5936    1.9635 H   0  0  0  0  0  0  0  0  0  0  0  0
   -1.8170    1.1453    3.7750 C   0  0  0  0  0  0  0  0  0  0  0  0
   -0.9697    1.8290    3.8506 H   0  0  0  0  0  0  0  0  0  0  0  0
   -2.7354    1.6828    4.0167 H   0  0  0  0  0  0  0  0  0  0  0  0
   -1.6754    0.3334    4.4914 H   0  0  0  0  0  0  0  0  0  0  0  0
  5  6  2  0  0  0  0
  5  7  1  0  0  0  0
  2  3  1  0  0  0  0
  2  4  1  0  0  0  0
  2  5  1  0  0  0  0
  1  2  1  0  0  0  0
 26 27  2  0  0  0  0
 26 28  1  0  0  0  0
 24 25  1  0  0  0  0
 22 23  1  0  0  0  0
 22 24  2  0  0  0  0
 20 21  1  0  0  0  0
 19 20  1  0  0  0  0
 19 22  1  0  0  0  0
 17 18  1  0  0  0  0
 17 19  2  0  0  0  0
 15 16  1  0  0  0  0
 15 17  1  0  0  0  0
 14 15  2  0  0  0  0
 14 24  1  0  0  0  0
 11 12  1  0  0  0  0
 11 13  1  0  0  0  0
 11 14  1  0  0  0  0
  9 10  1  0  0  0  0
  9 11  1  0  0  0  0
  9 26  1  0  0  0  0
  7  8  1  0  0  0  0
  7  9  1  0  0  0  0
 30 31  1  0  0  0  0
 30 32  1  0  0  0  0
 30 33  1  0  0  0  0
 28 29  1  0  0  0  0
 28 30  1  0  0  0  0
M  END
$$$$
default_name
  -OEChem-02102213163D

 33 33  0     1  0  0  0  0  0999 V2000
   -4.0702   -3.8485    1.4554 H   0  0  0  0  0  0  0  0  0  0  0  0
   -4.0012   -2.9605    0.8284 C   0  0  0  0  0  0  0  0  0  0  0  0
   -4.7652   -2.2435    1.1234 H   0  0  0  0  0  0  0  0  0  0  0  0
   -4.1352   -3.2385   -0.2156 H   0  0  0  0  0  0  0  0  0  0  0  0
   -2.6362   -2.3395    1.0094 C   0  0  0  0  0  0  0  0  0  0  0  0
   -1.8292   -2.8395    1.7814 O   0  0  0  0  0  0  0  0  0  0  0  0
   -2.3832   -1.2445    0.2964 N   0  0  0  0  0  0  0  0  0  0  0  0
   -3.1102   -0.8685   -0.2946 H   0  0  0  0  0  0  0  0  0  0  0  0
   -1.1292   -0.4875    0.3524 C   0  0  1  0  0  0  0  0  0  0  0  0
   -0.3087   -1.1556    0.0882 H   0  0  0  0  0  0  0  0  0  0  0  0
   -1.1749    0.6534   -0.6787 C   0  0  0  0  0  0  0  0  0  0  0  0
   -0.3661    0.5144   -1.3971 H   0  0  0  0  0  0  0  0  0  0  0  0
   -2.1151    0.5944   -1.2296 H   0  0  0  0  0  0  0  0  0  0  0  0
   -1.0340    2.0365   -0.0729 C   0  0  0  0  0  0  0  0  0  0  0  0
   -2.0589    2.9907   -0.2320 C   0  0  0  0  0  0  0  0  0  0  0  0
   -2.9403    2.7470   -0.8106 H   0  0  0  0  0  0  0  0  0  0  0  0
   -1.9412    4.2602    0.3667 C   0  0  0  0  0  0  0  0  0  0  0  0
   -2.7273    4.9889    0.2414 H   0  0  0  0  0  0  0  0  0  0  0  0
   -0.7959    4.5748    1.1302 C   0  0  0  0  0  0  0  0  0  0  0  0
   -0.6743    5.7952    1.7140 O   0  0  0  0  0  0  0  0  0  0  0  0
   -1.3835    6.3882    1.4623 H   0  0  0  0  0  0  0  0  0  0  0  0
    0.2265    3.6170    1.2925 C   0  0  0  0  0  0  0  0  0  0  0  0
    1.0993    3.8710    1.8749 H   0  0  0  0  0  0  0  0  0  0  0  0
    0.1080    2.3506    0.6890 C   0  0  0  0  0  0  0  0  0  0  0  0
    0.8981    1.6186    0.8064 H   0  0  0  0  0  0  0  0  0  0  0  0
   -0.8664    0.0378    1.7736 C   0  0  0  0  0  0  0  0  0  0  0  0
    0.2529   -0.0672    2.2760 O   0  0  0  0  0  0  0  0  0  0  0  0
   -1.8947    0.5991    2.4221 N   0  0  0  0  0  0  0  0  0  0  0  0
   -2.7942    0.5936    1.9635 H   0  0  0  0  0  0  0  0  0  0  0  0
   -1.8170    1.1453    3.7750 C   0  0  0  0  0  0  0  0  0  0  0  0
   -0.9697    1.8290    3.8506 H   0  0  0  0  0  0  0  0  0  0  0  0
   -2.7354    1.6828    4.0167 H   0  0  0  0  0  0  0  0  0  0  0  0
   -1.6754    0.3334    4.4914 H   0  0  0  0  0  0  0  0  0  0  0  0
  5  6  2  0  0  0  0
  5  7  1  0  0  0  0
  2  3  1  0  0  0  0
  2  4  1  0  0  0  0
  2  5  1  0  0  0  0
  1  2  1  0  0  0  0
 26 27  2  0  0  0  0
 26 28  1  0  0  0  0
 24 25  1  0  0  0  0
 22 23  1  0  0  0  0
 22 24  2  0  0  0  0
 20 21  1  0  0  0  0
 19 20  1  0  0  0  0
 19 22  1  0  0  0  0
 17 18  1  0  0  0  0
 17 19  2  0  0  0  0
 15 16  1  0  0  0  0
 15 17  1  0  0  0  0
 14 15  2  0  0  0  0
 14 24  1  0  0  0  0
 11 12  1  0  0  0  0
 11 13  1  0  0  0  0
 11 14  1  0  0  0  0
  9 10  1  0  0  0  0
  9 11  1  0  0  0  0
  9 26  1  0  0  0  0
  7  8  1  0  0  0  0
  7  9  1  0  0  0  0
 30 31  1  0  0  0  0
 30 32  1  0  0  0  0
 30 33  1  0  0  0  0
 28 29  1  0  0  0  0
 28 30  1  0  0  0  0
M  END
$$$$
default_name
  -OEChem-02102213163D

 33 33  0     1  0  0  0  0  0999 V2000
   -4.0702   -3.8485    1.4554 H   0  0  0  0  0  0  0  0  0  0  0  0
   -4.0012   -2.9605    0.8284 C   0  0  0  0  0  0  0  0  0  0  0  0
   -4.7652   -2.2435    1.1234 H   0  0  0  0  0  0  0  0  0  0  0  0
   -4.1352   -3.2385   -0.2156 H   0  0  0  0  0  0  0  0  0  0  0  0
   -2.6362   -2.3395    1.0094 C   0  0  0  0  0  0  0  0  0  0  0  0
   -1.8292   -2.8395    1.7814 O   0  0  0  0  0  0  0  0  0  0  0  0
   -2.3832   -1.2445    0.2964 N   0  0  0  0  0  0  0  0  0  0  0  0
   -3.1102   -0.8685   -0.2946 H   0  0  0  0  0  0  0  0  0  0  0  0
   -1.1292   -0.4875    0.3524 C   0  0  1  0  0  0  0  0  0  0  0  0
   -0.3087   -1.1556    0.0882 H   0  0  0  0  0  0  0  0  0  0  0  0
   -1.1749    0.6534   -0.6787 C   0  0  0  0  0  0  0  0  0  0  0  0
   -0.3661    0.5144   -1.3971 H   0  0  0  0  0  0  0  0  0  0  0  0
   -2.1151    0.5944   -1.2296 H   0  0  0  0  0  0  0  0  0  0  0  0
   -1.0340    2.0365   -0.0729 C   0  0  0  0  0  0  0  0  0  0  0  0
   -2.1579    2.8782    0.0480 C   0  0  0  0  0  0  0  0  0  0  0  0
   -3.1224    2.5489   -0.3160 H   0  0  0  0  0  0  0  0  0  0  0  0
   -2.0297    4.1459    0.6482 C   0  0  0  0  0  0  0  0  0  0  0  0
   -2.8922    4.7884    0.7377 H   0  0  0  0  0  0  0  0  0  0  0  0
   -0.7736    4.5715    1.1325 C   0  0  0  0  0  0  0  0  0  0  0  0
   -0.6401    5.7911    1.7155 O   0  0  0  0  0  0  0  0  0  0  0  0
   -1.4447    6.3082    1.6591 H   0  0  0  0  0  0  0  0  0  0  0  0
    0.3491    3.7260    1.0151 C   0  0  0  0  0  0  0  0  0  0  0  0
    1.3051    4.0645    1.3852 H   0  0  0  0  0  0  0  0  0  0  0  0
    0.2187    2.4613    0.4105 C   0  0  0  0  0  0  0  0  0  0  0  0
    1.0835    1.8160    0.3123 H   0  0  0  0  0  0  0  0  0  0  0  0
   -0.8664    0.0378    1.7736 C   0  0  0  0  0  0  0  0  0  0  0  0
    0.2529   -0.0672    2.2760 O   0  0  0  0  0  0  0  0  0  0  0  0
   -1.8947    0.5991    2.4221 N   0  0  0  0  0  0  0  0  0  0  0  0
   -2.7942    0.5936    1.9635 H   0  0  0  0  0  0  0  0  0  0  0  0
   -1.8170    1.1453    3.7750 C   0  0  0  0  0  0  0  0  0  0  0  0
   -0.9697    1.8290    3.8506 H   0  0  0  0  0  0  0  0  0  0  0  0
   -2.7354    1.6828    4.0167 H   0  0  0  0  0  0  0  0  0  0  0  0
   -1.6754    0.3334    4.4914 H   0  0  0  0  0  0  0  0  0  0  0  0
  5  6  2  0  0  0  0
  5  7  1  0  0  0  0
  2  3  1  0  0  0  0
  2  4  1  0  0  0  0
  2  5  1  0  0  0  0
  1  2  1  0  0  0  0
 26 27  2  0  0  0  0
 26 28  1  0  0  0  0
 24 25  1  0  0  0  0
 22 23  1  0  0  0  0
 22 24  2  0  0  0  0
 20 21  1  0  0  0  0
 19 20  1  0  0  0  0
 19 22  1  0  0  0  0
 17 18  1  0  0  0  0
 17 19  2  0  0  0  0
 15 16  1  0  0  0  0
 15 17  1  0  0  0  0
 14 15  2  0  0  0  0
 14 24  1  0  0  0  0
 11 12  1  0  0  0  0
 11 13  1  0  0  0  0
 11 14  1  0  0  0  0
  9 10  1  0  0  0  0
  9 11  1  0  0  0  0
  9 26  1  0  0  0  0
  7  8  1  0  0  0  0
  7  9  1  0  0  0  0
 30 31  1  0  0  0  0
 30 32  1  0  0  0  0
 30 33  1  0  0  0  0
 28 29  1  0  0  0  0
 28 30  1  0  0  0  0
M  END
$$$$
default_name
  -OEChem-02102213163D

 33 33  0     1  0  0  0  0  0999 V2000
   -4.0702   -3.8485    1.4554 H   0  0  0  0  0  0  0  0  0  0  0  0
   -4.0012   -2.9605    0.8284 C   0  0  0  0  0  0  0  0  0  0  0  0
   -4.7652   -2.2435    1.1234 H   0  0  0  0  0  0  0  0  0  0  0  0
   -4.1352   -3.2385   -0.2156 H   0  0  0  0  0  0  0  0  0  0  0  0
   -2.6362   -2.3395    1.0094 C   0  0  0  0  0  0  0  0  0  0  0  0
   -1.8292   -2.8395    1.7814 O   0  0  0  0  0  0  0  0  0  0  0  0
   -2.3832   -1.2445    0.2964 N   0  0  0  0  0  0  0  0  0  0  0  0
   -3.1102   -0.8685   -0.2946 H   0  0  0  0  0  0  0  0  0  0  0  0
   -1.1292   -0.4875    0.3524 C   0  0  1  0  0  0  0  0  0  0  0  0
   -0.3087   -1.1556    0.0882 H   0  0  0  0  0  0  0  0  0  0  0  0
   -1.1749    0.6534   -0.6787 C   0  0  0  0  0  0  0  0  0  0  0  0
   -0.3661    0.5144   -1.3971 H   0  0  0  0  0  0  0  0  0  0  0  0
   -2.1151    0.5944   -1.2296 H   0  0  0  0  0  0  0  0  0  0  0  0
   -1.0340    2.0365   -0.0729 C   0  0  0  0  0  0  0  0  0  0  0  0
   -2.1758    2.7525    0.3391 C   0  0  0  0  0  0  0  0  0  0  0  0
   -3.1610    2.3269    0.1999 H   0  0  0  0  0  0  0  0  0  0  0  0
   -2.0370    4.0196    0.9383 C   0  0  0  0  0  0  0  0  0  0  0  0
   -2.9136    4.5657    1.2511 H   0  0  0  0  0  0  0  0  0  0  0  0
   -0.7511    4.5706    1.1293 C   0  0  0  0  0  0  0  0  0  0  0  0
   -0.6063    5.7906    1.7088 O   0  0  0  0  0  0  0  0  0  0  0  0
   -1.4491    6.2199    1.8618 H   0  0  0  0  0  0  0  0  0  0  0  0
    0.3907    3.8506    0.7208 C   0  0  0  0  0  0  0  0  0  0  0  0
    1.3683    4.2845    0.8682 H   0  0  0  0  0  0  0  0  0  0  0  0
    0.2484    2.5864    0.1181 C   0  0  0  0  0  0  0  0  0  0  0  0
    1.1256    2.0379   -0.2039 H   0  0  0  0  0  0  0  0  0  0  0  0
   -0.8664    0.0378    1.7736 C   0  0  0  0  0  0  0  0  0  0  0  0
    0.2529   -0.0672    2.2760 O   0  0  0  0  0  0  0  0  0  0  0  0
   -1.8947    0.5991    2.4221 N   0  0  0  0  0  0  0  0  0  0  0  0
   -2.7942    0.5936    1.9635 H   0  0  0  0  0  0  0  0  0  0  0  0
   -1.8170    1.1453    3.7750 C   0  0  0  0  0  0  0  0  0  0  0  0
   -0.9697    1.8290    3.8506 H   0  0  0  0  0  0  0  0  0  0  0  0
   -2.7354    1.6828    4.0167 H   0  0  0  0  0  0  0  0  0  0  0  0
   -1.6754    0.3334    4.4914 H   0  0  0  0  0  0  0  0  0  0  0  0
  5  6  2  0  0  0  0
  5  7  1  0  0  0  0
  2  3  1  0  0  0  0
  2  4  1  0  0  0  0
  2  5  1  0  0  0  0
  1  2  1  0  0  0  0
 26 27  2  0  0  0  0
 26 28  1  0  0  0  0
 24 25  1  0  0  0  0
 22 23  1  0  0  0  0
 22 24  2  0  0  0  0
 20 21  1  0  0  0  0
 19 20  1  0  0  0  0
 19 22  1  0  0  0  0
 17 18  1  0  0  0  0
 17 19  2  0  0  0  0
 15 16  1  0  0  0  0
 15 17  1  0  0  0  0
 14 15  2  0  0  0  0
 14 24  1  0  0  0  0
 11 12  1  0  0  0  0
 11 13  1  0  0  0  0
 11 14  1  0  0  0  0
  9 10  1  0  0  0  0
  9 11  1  0  0  0  0
  9 26  1  0  0  0  0
  7  8  1  0  0  0  0
  7  9  1  0  0  0  0
 30 31  1  0  0  0  0
 30 32  1  0  0  0  0
 30 33  1  0  0  0  0
 28 29  1  0  0  0  0
 28 30  1  0  0  0  0
M  END
$$$$
default_name
  -OEChem-02102213163D

 33 33  0     1  0  0  0  0  0999 V2000
   -4.0702   -3.8485    1.4554 H   0  0  0  0  0  0  0  0  0  0  0  0
   -4.0012   -2.9605    0.8284 C   0  0  0  0  0  0  0  0  0  0  0  0
   -4.7652   -2.2435    1.1234 H   0  0  0  0  0  0  0  0  0  0  0  0
   -4.1352   -3.2385   -0.2156 H   0  0  0  0  0  0  0  0  0  0  0  0
   -2.6362   -2.3395    1.0094 C   0  0  0  0  0  0  0  0  0  0  0  0
   -1.8292   -2.8395    1.7814 O   0  0  0  0  0  0  0  0  0  0  0  0
   -2.3832   -1.2445    0.2964 N   0  0  0  0  0  0  0  0  0  0  0  0
   -3.1102   -0.8685   -0.2946 H   0  0  0  0  0  0  0  0  0  0  0  0
   -1.1292   -0.4875    0.3524 C   0  0  1  0  0  0  0  0  0  0  0  0
   -0.3087   -1.1556    0.0882 H   0  0  0  0  0  0  0  0  0  0  0  0
   -1.1749    0.6534   -0.6787 C   0  0  0  0  0  0  0  0  0  0  0  0
   -0.3661    0.5144   -1.3971 H   0  0  0  0  0  0  0  0  0  0  0  0
   -2.1151    0.5944   -1.2296 H   0  0  0  0  0  0  0  0  0  0  0  0
   -1.0340    2.0365   -0.0729 C   0  0  0  0  0  0  0  0  0  0  0  0
   -2.1114    2.6222    0.6215 C   0  0  0  0  0  0  0  0  0  0  0  0
   -3.0536    2.0960    0.7021 H   0  0  0  0  0  0  0  0  0  0  0  0
   -1.9624    3.8899    1.2171 C   0  0  0  0  0  0  0  0  0  0  0  0
   -2.7901    4.3360    1.7468 H   0  0  0  0  0  0  0  0  0  0  0  0
   -0.7300    4.5722    1.1209 C   0  0  0  0  0  0  0  0  0  0  0  0
   -0.5752    5.7938    1.6943 O   0  0  0  0  0  0  0  0  0  0  0  0
   -1.3964    6.1293    2.0564 H   0  0  0  0  0  0  0  0  0  0  0  0
    0.3487    3.9824    0.4298 C   0  0  0  0  0  0  0  0  0  0  0  0
    1.2846    4.5159    0.3593 H   0  0  0  0  0  0  0  0  0  0  0  0
    0.1951    2.7173   -0.1684 C   0  0  0  0  0  0  0  0  0  0  0  0
    1.0214    2.2689   -0.7071 H   0  0  0  0  0  0  0  0  0  0  0  0
   -0.8664    0.0378    1.7736 C   0  0  0  0  0  0  0  0  0  0  0  0
    0.2529   -0.0672    2.2760 O   0  0  0  0  0  0  0  0  0  0  0  0
   -1.8947    0.5991    2.4221 N   0  0  0  0  0  0  0  0  0  0  0  0
   -2.7942    0.5936    1.9635 H   0  0  0  0  0  0  0  0  0  0  0  0
   -1.8170    1.1453    3.7750 C   0  0  0  0  0  0  0  0  0  0  0  0
   -0.9697    1.8290    3.8506 H   0  0  0  0  0  0  0  0  0  0  0  0
   -2.7354    1.6828    4.0167 H   0  0  0  0  0  0  0  0  0  0  0  0
   -1.6754    0.3334    4.4914 H   0  0  0  0  0  0  0  0  0  0  0  0
  5  6  2  0  0  0  0
  5  7  1  0  0  0  0
  2  3  1  0  0  0  0
  2  4  1  0  0  0  0
  2  5  1  0  0  0  0
  1  2  1  0  0  0  0
 26 27  2  0  0  0  0
 26 28  1  0  0  0  0
 24 25  1  0  0  0  0
 22 23  1  0  0  0  0
 22 24  2  0  0  0  0
 20 21  1  0  0  0  0
 19 20  1  0  0  0  0
 19 22  1  0  0  0  0
 17 18  1  0  0  0  0
 17 19  2  0  0  0  0
 15 16  1  0  0  0  0
 15 17  1  0  0  0  0
 14 15  2  0  0  0  0
 14 24  1  0  0  0  0
 11 12  1  0  0  0  0
 11 13  1  0  0  0  0
 11 14  1  0  0  0  0
  9 10  1  0  0  0  0
  9 11  1  0  0  0  0
  9 26  1  0  0  0  0
  7  8  1  0  0  0  0
  7  9  1  0  0  0  0
 30 31  1  0  0  0  0
 30 32  1  0  0  0  0
 30 33  1  0  0  0  0
 28 29  1  0  0  0  0
 28 30  1  0  0  0  0
M  END
$$$$
default_name
  -OEChem-02102213163D

 33 33  0     1  0  0  0  0  0999 V2000
   -4.0702   -3.8485    1.4554 H   0  0  0  0  0  0  0  0  0  0  0  0
   -4.0012   -2.9605    0.8284 C   0  0  0  0  0  0  0  0  0  0  0  0
   -4.7652   -2.2435    1.1234 H   0  0  0  0  0  0  0  0  0  0  0  0
   -4.1352   -3.2385   -0.2156 H   0  0  0  0  0  0  0  0  0  0  0  0
   -2.6362   -2.3395    1.0094 C   0  0  0  0  0  0  0  0  0  0  0  0
   -1.8292   -2.8395    1.7814 O   0  0  0  0  0  0  0  0  0  0  0  0
   -2.3832   -1.2445    0.2964 N   0  0  0  0  0  0  0  0  0  0  0  0
   -3.1102   -0.8685   -0.2946 H   0  0  0  0  0  0  0  0  0  0  0  0
   -1.1292   -0.4875    0.3524 C   0  0  1  0  0  0  0  0  0  0  0  0
   -0.3087   -1.1556    0.0882 H   0  0  0  0  0  0  0  0  0  0  0  0
   -1.1749    0.6534   -0.6787 C   0  0  0  0  0  0  0  0  0  0  0  0
   -0.3661    0.5144   -1.3971 H   0  0  0  0  0  0  0  0  0  0  0  0
   -2.1151    0.5944   -1.2296 H   0  0  0  0  0  0  0  0  0  0  0  0
   -1.0340    2.0365   -0.0729 C   0  0  0  0  0  0  0  0  0  0  0  0
   -1.9691    2.4963    0.8760 C   0  0  0  0  0  0  0  0  0  0  0  0
   -2.8074    1.8720    1.1563 H   0  0  0  0  0  0  0  0  0  0  0  0
   -1.8111    3.7655    1.4658 C   0  0  0  0  0  0  0  0  0  0  0  0
   -2.5300    4.1150    2.1908 H   0  0  0  0  0  0  0  0  0  0  0  0
   -0.7118    4.5760    1.1078 C   0  0  0  0  0  0  0  0  0  0  0  0
   -0.5489    5.8004    1.6730 O   0  0  0  0  0  0  0  0  0  0  0  0
   -1.2901    6.0425    2.2298 H   0  0  0  0  0  0  0  0  0  0  0  0
    0.2257    4.1123    0.1617 C   0  0  0  0  0  0  0  0  0  0  0  0
    1.0597    4.7431   -0.1070 H   0  0  0  0  0  0  0  0  0  0  0  0
    0.0625    2.8451   -0.4294 C   0  0  0  0  0  0  0  0  0  0  0  0
    0.7781    2.4934   -1.1630 H   0  0  0  0  0  0  0  0  0  0  0  0
   -0.8664    0.0378    1.7736 C   0  0  0  0  0  0  0  0  0  0  0  0
    0.2529   -0.0672    2.2760 O   0  0  0  0  0  0  0  0  0  0  0  0
   -1.8947    0.5991    2.4221 N   0  0  0  0  0  0  0  0  0  0  0  0
   -2.7942    0.5936    1.9635 H   0  0  0  0  0  0  0  0  0  0  0  0
   -1.8170    1.1453    3.7750 C   0  0  0  0  0  0  0  0  0  0  0  0
   -0.9697    1.8290    3.8506 H   0  0  0  0  0  0  0  0  0  0  0  0
   -2.7354    1.6828    4.0167 H   0  0  0  0  0  0  0  0  0  0  0  0
   -1.6754    0.3334    4.4914 H   0  0  0  0  0  0  0  0  0  0  0  0
  5  6  2  0  0  0  0
  5  7  1  0  0  0  0
  2  3  1  0  0  0  0
  2  4  1  0  0  0  0
  2  5  1  0  0  0  0
  1  2  1  0  0  0  0
 26 27  2  0  0  0  0
 26 28  1  0  0  0  0
 24 25  1  0  0  0  0
 22 23  1  0  0  0  0
 22 24  2  0  0  0  0
 20 21  1  0  0  0  0
 19 20  1  0  0  0  0
 19 22  1  0  0  0  0
 17 18  1  0  0  0  0
 17 19  2  0  0  0  0
 15 16  1  0  0  0  0
 15 17  1  0  0  0  0
 14 15  2  0  0  0  0
 14 24  1  0  0  0  0
 11 12  1  0  0  0  0
 11 13  1  0  0  0  0
 11 14  1  0  0  0  0
  9 10  1  0  0  0  0
  9 11  1  0  0  0  0
  9 26  1  0  0  0  0
  7  8  1  0  0  0  0
  7  9  1  0  0  0  0
 30 31  1  0  0  0  0
 30 32  1  0  0  0  0
 30 33  1  0  0  0  0
 28 29  1  0  0  0  0
 28 30  1  0  0  0  0
M  END
$$$$
default_name
  -OEChem-02102213163D

 33 33  0     1  0  0  0  0  0999 V2000
   -4.0702   -3.8485    1.4554 H   0  0  0  0  0  0  0  0  0  0  0  0
   -4.0012   -2.9605    0.8284 C   0  0  0  0  0  0  0  0  0  0  0  0
   -4.7652   -2.2435    1.1234 H   0  0  0  0  0  0  0  0  0  0  0  0
   -4.1352   -3.2385   -0.2156 H   0  0  0  0  0  0  0  0  0  0  0  0
   -2.6362   -2.3395    1.0094 C   0  0  0  0  0  0  0  0  0  0  0  0
   -1.8292   -2.8395    1.7814 O   0  0  0  0  0  0  0  0  0  0  0  0
   -2.3832   -1.2445    0.2964 N   0  0  0  0  0  0  0  0  0  0  0  0
   -3.1102   -0.8685   -0.2946 H   0  0  0  0  0  0  0  0  0  0  0  0
   -1.1292   -0.4875    0.3524 C   0  0  1  0  0  0  0  0  0  0  0  0
   -0.3087   -1.1556    0.0882 H   0  0  0  0  0  0  0  0  0  0  0  0
   -1.1749    0.6534   -0.6787 C   0  0  0  0  0  0  0  0  0  0  0  0
   -0.3661    0.5144   -1.3971 H   0  0  0  0  0  0  0  0  0  0  0  0
   -2.1151    0.5944   -1.2296 H   0  0  0  0  0  0  0  0  0  0  0  0
   -1.0340    2.0365   -0.0729 C   0  0  0  0  0  0  0  0  0  0  0  0
   -1.7585    2.3832    1.0852 C   0  0  0  0  0  0  0  0  0  0  0  0
   -2.4393    1.6701    1.5315 H   0  0  0  0  0  0  0  0  0  0  0  0
   -1.5935    3.6551    1.6672 C   0  0  0  0  0  0  0  0  0  0  0  0
   -2.1511    3.9178    2.5531 H   0  0  0  0  0  0  0  0  0  0  0  0
   -0.6977    4.5820    1.0910 C   0  0  0  0  0  0  0  0  0  0  0  0
   -0.5292    5.8100    1.6464 O   0  0  0  0  0  0  0  0  0  0  0  0
   -1.1376    5.9655    2.3701 H   0  0  0  0  0  0  0  0  0  0  0  0
    0.0302    4.2316   -0.0650 C   0  0  0  0  0  0  0  0  0  0  0  0
    0.7088    4.9505   -0.4989 H   0  0  0  0  0  0  0  0  0  0  0  0
   -0.1404    2.9611   -0.6471 C   0  0  0  0  0  0  0  0  0  0  0  0
    0.4123    2.6960   -1.5406 H   0  0  0  0  0  0  0  0  0  0  0  0
   -0.8664    0.0378    1.7736 C   0  0  0  0  0  0  0  0  0  0  0  0
    0.2529   -0.0672    2.2760 O   0  0  0  0  0  0  0  0  0  0  0  0
   -1.8947    0.5991    2.4221 N   0  0  0  0  0  0  0  0  0  0  0  0
   -2.7942    0.5936    1.9635 H   0  0  0  0  0  0  0  0  0  0  0  0
   -1.8170    1.1453    3.7750 C   0  0  0  0  0  0  0  0  0  0  0  0
   -0.9697    1.8290    3.8506 H   0  0  0  0  0  0  0  0  0  0  0  0
   -2.7354    1.6828    4.0167 H   0  0  0  0  0  0  0  0  0  0  0  0
   -1.6754    0.3334    4.4914 H   0  0  0  0  0  0  0  0  0  0  0  0
  5  6  2  0  0  0  0
  5  7  1  0  0  0  0
  2  3  1  0  0  0  0
  2  4  1  0  0  0  0
  2  5  1  0  0  0  0
  1  2  1  0  0  0  0
 26 27  2  0  0  0  0
 26 28  1  0  0  0  0
 24 25  1  0  0  0  0
 22 23  1  0  0  0  0
 22 24  2  0  0  0  0
 20 21  1  0  0  0  0
 19 20  1  0  0  0  0
 19 22  1  0  0  0  0
 17 18  1  0  0  0  0
 17 19  2  0  0  0  0
 15 16  1  0  0  0  0
 15 17  1  0  0  0  0
 14 15  2  0  0  0  0
 14 24  1  0  0  0  0
 11 12  1  0  0  0  0
 11 13  1  0  0  0  0
 11 14  1  0  0  0  0
  9 10  1  0  0  0  0
  9 11  1  0  0  0  0
  9 26  1  0  0  0  0
  7  8  1  0  0  0  0
  7  9  1  0  0  0  0
 30 31  1  0  0  0  0
 30 32  1  0  0  0  0
 30 33  1  0  0  0  0
 28 29  1  0  0  0  0
 28 30  1  0  0  0  0
M  END
$$$$
default_name
  -OEChem-02102213163D

 33 33  0     1  0  0  0  0  0999 V2000
   -4.0702   -3.8485    1.4554 H   0  0  0  0  0  0  0  0  0  0  0  0
   -4.0012   -2.9605    0.8284 C   0  0  0  0  0  0  0  0  0  0  0  0
   -4.7652   -2.2435    1.1234 H   0  0  0  0  0  0  0  0  0  0  0  0
   -4.1352   -3.2385   -0.2156 H   0  0  0  0  0  0  0  0  0  0  0  0
   -2.6362   -2.3395    1.0094 C   0  0  0  0  0  0  0  0  0  0  0  0
   -1.8292   -2.8395    1.7814 O   0  0  0  0  0  0  0  0  0  0  0  0
   -2.3832   -1.2445    0.2964 N   0  0  0  0  0  0  0  0  0  0  0  0
   -3.1102   -0.8685   -0.2946 H   0  0  0  0  0  0  0  0  0  0  0  0
   -1.1292   -0.4875    0.3524 C   0  0  1  0  0  0  0  0  0  0  0  0
   -0.3087   -1.1556    0.0882 H   0  0  0  0  0  0  0  0  0  0  0  0
   -1.1749    0.6534   -0.6787 C   0  0  0  0  0  0  0  0  0  0  0  0
   -0.3661    0.5144   -1.3971 H   0  0  0  0  0  0  0  0  0  0  0  0
   -2.1151    0.5944   -1.2296 H   0  0  0  0  0  0  0  0  0  0  0  0
   -1.0340    2.0365   -0.0729 C   0  0  0  0  0  0  0  0  0  0  0  0
   -1.4941    2.2907    1.2348 C   0  0  0  0  0  0  0  0  0  0  0  0
   -1.9742    1.5042    1.8021 H   0  0  0  0  0  0  0  0  0  0  0  0
   -1.3243    3.5661    1.8078 C   0  0  0  0  0  0  0  0  0  0  0  0
   -1.6793    3.7577    2.8088 H   0  0  0  0  0  0  0  0  0  0  0  0
   -0.6887    4.5895    1.0715 C   0  0  0  0  0  0  0  0  0  0  0  0
   -0.5175    5.8220    1.6164 O   0  0  0  0  0  0  0  0  0  0  0  0
   -0.9492    5.9035    2.4678 H   0  0  0  0  0  0  0  0  0  0  0  0
   -0.2245    4.3320   -0.2350 C   0  0  0  0  0  0  0  0  0  0  0  0
    0.2560    5.1239   -0.7896 H   0  0  0  0  0  0  0  0  0  0  0  0
   -0.3998    3.0575   -0.8068 C   0  0  0  0  0  0  0  0  0  0  0  0
   -0.0512    2.8630   -1.8141 H   0  0  0  0  0  0  0  0  0  0  0  0
   -0.8664    0.0378    1.7736 C   0  0  0  0  0  0  0  0  0  0  0  0
    0.2529   -0.0672    2.2760 O   0  0  0  0  0  0  0  0  0  0  0  0
   -1.8947    0.5991    2.4221 N   0  0  0  0  0  0  0  0  0  0  0  0
   -2.7942    0.5936    1.9635 H   0  0  0  0  0  0  0  0  0  0  0  0
   -1.8170    1.1453    3.7750 C   0  0  0  0  0  0  0  0  0  0  0  0
   -0.9697    1.8290    3.8506 H   0  0  0  0  0  0  0  0  0  0  0  0
   -2.7354    1.6828    4.0167 H   0  0  0  0  0  0  0  0  0  0  0  0
   -1.6754    0.3334    4.4914 H   0  0  0  0  0  0  0  0  0  0  0  0
  5  6  2  0  0  0  0
  5  7  1  0  0  0  0
  2  3  1  0  0  0  0
  2  4  1  0  0  0  0
  2  5  1  0  0  0  0
  1  2  1  0  0  0  0
 26 27  2  0  0  0  0
 26 28  1  0  0  0  0
 24 25  1  0  0  0  0
 22 23  1  0  0  0  0
 22 24  2  0  0  0  0
 20 21  1  0  0  0  0
 19 20  1  0  0  0  0
 19 22  1  0  0  0  0
 17 18  1  0  0  0  0
 17 19  2  0  0  0  0
 15 16  1  0  0  0  0
 15 17  1  0  0  0  0
 14 15  2  0  0  0  0
 14 24  1  0  0  0  0
 11 12  1  0  0  0  0
 11 13  1  0  0  0  0
 11 14  1  0  0  0  0
  9 10  1  0  0  0  0
  9 11  1  0  0  0  0
  9 26  1  0  0  0  0
  7  8  1  0  0  0  0
  7  9  1  0  0  0  0
 30 31  1  0  0  0  0
 30 32  1  0  0  0  0
 30 33  1  0  0  0  0
 28 29  1  0  0  0  0
 28 30  1  0  0  0  0
M  END
$$$$
default_name
  -OEChem-02102213163D

 33 33  0     1  0  0  0  0  0999 V2000
   -4.0702   -3.8485    1.4554 H   0  0  0  0  0  0  0  0  0  0  0  0
   -4.0012   -2.9605    0.8284 C   0  0  0  0  0  0  0  0  0  0  0  0
   -4.7652   -2.2435    1.1234 H   0  0  0  0  0  0  0  0  0  0  0  0
   -4.1352   -3.2385   -0.2156 H   0  0  0  0  0  0  0  0  0  0  0  0
   -2.6362   -2.3395    1.0094 C   0  0  0  0  0  0  0  0  0  0  0  0
   -1.8292   -2.8395    1.7814 O   0  0  0  0  0  0  0  0  0  0  0  0
   -2.3832   -1.2445    0.2964 N   0  0  0  0  0  0  0  0  0  0  0  0
   -3.1102   -0.8685   -0.2946 H   0  0  0  0  0  0  0  0  0  0  0  0
   -1.1292   -0.4875    0.3524 C   0  0  1  0  0  0  0  0  0  0  0  0
   -0.3087   -1.1556    0.0882 H   0  0  0  0  0  0  0  0  0  0  0  0
   -1.1749    0.6534   -0.6787 C   0  0  0  0  0  0  0  0  0  0  0  0
   -0.3661    0.5144   -1.3971 H   0  0  0  0  0  0  0  0  0  0  0  0
   -2.1151    0.5944   -1.2296 H   0  0  0  0  0  0  0  0  0  0  0  0
   -1.0340    2.0365   -0.0729 C   0  0  0  0  0  0  0  0  0  0  0  0
   -1.1938    2.2251    1.3146 C   0  0  0  0  0  0  0  0  0  0  0  0
   -1.4440    1.3855    1.9497 H   0  0  0  0  0  0  0  0  0  0  0  0
   -1.0219    3.5046    1.8779 C   0  0  0  0  0  0  0  0  0  0  0  0
   -1.1466    3.6456    2.9406 H   0  0  0  0  0  0  0  0  0  0  0  0
   -0.6853    4.5983    1.0508 C   0  0  0  0  0  0  0  0  0  0  0  0
   -0.5145    5.8355    1.5848 O   0  0  0  0  0  0  0  0  0  0  0  0
   -0.7377    5.8608    2.5162 H   0  0  0  0  0  0  0  0  0  0  0  0
   -0.5210    4.4068   -0.3367 C   0  0  0  0  0  0  0  0  0  0  0  0
   -0.2679    5.2517   -0.9593 H   0  0  0  0  0  0  0  0  0  0  0  0
   -0.6979    3.1276   -0.8974 C   0  0  0  0  0  0  0  0  0  0  0  0
   -0.5806    2.9830   -1.9648 H   0  0  0  0  0  0  0  0  0  0  0  0
   -0.8664    0.0378    1.7736 C   0  0  0  0  0  0  0  0  0  0  0  0
    0.2529   -0.0672    2.2760 O   0  0  0  0  0  0  0  0  0  0  0  0
   -1.8947    0.5991    2.4221 N   0  0  0  0  0  0  0  0  0  0  0  0
   -2.7942    0.5936    1.9635 H   0  0  0  0  0  0  0  0  0  0  0  0
   -1.8170    1.1453    3.7750 C   0  0  0  0  0  0  0  0  0  0  0  0
   -0.9697    1.8290    3.8506 H   0  0  0  0  0  0  0  0  0  0  0  0
   -2.7354    1.6828    4.0167 H   0  0  0  0  0  0  0  0  0  0  0  0
   -1.6754    0.3334    4.4914 H   0  0  0  0  0  0  0  0  0  0  0  0
  5  6  2  0  0  0  0
  5  7  1  0  0  0  0
  2  3  1  0  0  0  0
  2  4  1  0  0  0  0
  2  5  1  0  0  0  0
  1  2  1  0  0  0  0
 26 27  2  0  0  0  0
 26 28  1  0  0  0  0
 24 25  1  0  0  0  0
 22 23  1  0  0  0  0
 22 24  2  0  0  0  0
 20 21  1  0  0  0  0
 19 20  1  0  0  0  0
 19 22  1  0  0  0  0
 17 18  1  0  0  0  0
 17 19  2  0  0  0  0
 15 16  1  0  0  0  0
 15 17  1  0  0  0  0
 14 15  2  0  0  0  0
 14 24  1  0  0  0  0
 11 12  1  0  0  0  0
 11 13  1  0  0  0  0
 11 14  1  0  0  0  0
  9 10  1  0  0  0  0
  9 11  1  0  0  0  0
  9 26  1  0  0  0  0
  7  8  1  0  0  0  0
  7  9  1  0  0  0  0
 30 31  1  0  0  0  0
 30 32  1  0  0  0  0
 30 33  1  0  0  0  0
 28 29  1  0  0  0  0
 28 30  1  0  0  0  0
M  END
$$$$
default_name
  -OEChem-02102213163D

 33 33  0     1  0  0  0  0  0999 V2000
   -4.0702   -3.8485    1.4554 H   0  0  0  0  0  0  0  0  0  0  0  0
   -4.0012   -2.9605    0.8284 C   0  0  0  0  0  0  0  0  0  0  0  0
   -4.7652   -2.2435    1.1234 H   0  0  0  0  0  0  0  0  0  0  0  0
   -4.1352   -3.2385   -0.2156 H   0  0  0  0  0  0  0  0  0  0  0  0
   -2.6362   -2.3395    1.0094 C   0  0  0  0  0  0  0  0  0  0  0  0
   -1.8292   -2.8395    1.7814 O   0  0  0  0  0  0  0  0  0  0  0  0
   -2.3832   -1.2445    0.2964 N   0  0  0  0  0  0  0  0  0  0  0  0
   -3.1102   -0.8685   -0.2946 H   0  0  0  0  0  0  0  0  0  0  0  0
   -1.1292   -0.4875    0.3524 C   0  0  1  0  0  0  0  0  0  0  0  0
   -0.3087   -1.1556    0.0882 H   0  0  0  0  0  0  0  0  0  0  0  0
   -1.1749    0.6534   -0.6787 C   0  0  0  0  0  0  0  0  0  0  0  0
   -0.3661    0.5144   -1.3971 H   0  0  0  0  0  0  0  0  0  0  0  0
   -2.1151    0.5944   -1.2296 H   0  0  0  0  0  0  0  0  0  0  0  0
   -1.0340    2.0365   -0.0729 C   0  0  0  0  0  0  0  0  0  0  0  0
   -0.8780    2.1909    1.3193 C   0  0  0  0  0  0  0  0  0  0  0  0
   -0.8847    1.3221    1.9643 H   0  0  0  0  0  0  0  0  0  0  0  0
   -0.7069    3.4747    1.8728 C   0  0  0  0  0  0  0  0  0  0  0  0
   -0.5893    3.5894    2.9394 H   0  0  0  0  0  0  0  0  0  0  0  0
   -0.6879    4.6076    1.0302 C   0  0  0  0  0  0  0  0  0  0  0  0
   -0.5204    5.8496    1.5539 O   0  0  0  0  0  0  0  0  0  0  0  0
   -0.5176    5.8402    2.5120 H   0  0  0  0  0  0  0  0  0  0  0  0
   -0.8391    4.4508   -0.3632 C   0  0  0  0  0  0  0  0  0  0  0  0
   -0.8273    5.3250   -0.9965 H   0  0  0  0  0  0  0  0  0  0  0  0
   -1.0146    3.1667   -0.9129 C   0  0  0  0  0  0  0  0  0  0  0  0
   -1.1400    3.0478   -1.9826 H   0  0  0  0  0  0  0  0  0  0  0  0
   -0.8664    0.0378    1.7736 C   0  0  0  0  0  0  0  0  0  0  0  0
    0.2529   -0.0672    2.2760 O   0  0  0  0  0  0  0  0  0  0  0  0
   -1.8947    0.5991    2.4221 N   0  0  0  0  0  0  0  0  0  0  0  0
   -2.7942    0.5936    1.9635 H   0  0  0  0  0  0  0  0  0  0  0  0
   -1.8170    1.1453    3.7750 C   0  0  0  0  0  0  0  0  0  0  0  0
   -0.9697    1.8290    3.8506 H   0  0  0  0  0  0  0  0  0  0  0  0
   -2.7354    1.6828    4.0167 H   0  0  0  0  0  0  0  0  0  0  0  0
   -1.6754    0.3334    4.4914 H   0  0  0  0  0  0  0  0  0  0  0  0
  5  6  2  0  0  0  0
  5  7  1  0  0  0  0
  2  3  1  0  0  0  0
  2  4  1  0  0  0  0
  2  5  1  0  0  0  0
  1  2  1  0  0  0  0
 26 27  2  0  0  0  0
 26 28  1  0  0  0  0
 24 25  1  0  0  0  0
 22 23  1  0  0  0  0
 22 24  2  0  0  0  0
 20 21  1  0  0  0  0
 19 20  1  0  0  0  0
 19 22  1  0  0  0  0
 17 18  1  0  0  0  0
 17 19  2  0  0  0  0
 15 16  1  0  0  0  0
 15 17  1  0  0  0  0
 14 15  2  0  0  0  0
 14 24  1  0  0  0  0
 11 12  1  0  0  0  0
 11 13  1  0  0  0  0
 11 14  1  0  0  0  0
  9 10  1  0  0  0  0
  9 11  1  0  0  0  0
  9 26  1  0  0  0  0
  7  8  1  0  0  0  0
  7  9  1  0  0  0  0
 30 31  1  0  0  0  0
 30 32  1  0  0  0  0
 30 33  1  0  0  0  0
 28 29  1  0  0  0  0
 28 30  1  0  0  0  0
M  END
$$$$
default_name
  -OEChem-02102213163D

 33 33  0     1  0  0  0  0  0999 V2000
   -4.0702   -3.8485    1.4554 H   0  0  0  0  0  0  0  0  0  0  0  0
   -4.0012   -2.9605    0.8284 C   0  0  0  0  0  0  0  0  0  0  0  0
   -4.7652   -2.2435    1.1234 H   0  0  0  0  0  0  0  0  0  0  0  0
   -4.1352   -3.2385   -0.2156 H   0  0  0  0  0  0  0  0  0  0  0  0
   -2.6362   -2.3395    1.0094 C   0  0  0  0  0  0  0  0  0  0  0  0
   -1.8292   -2.8395    1.7814 O   0  0  0  0  0  0  0  0  0  0  0  0
   -2.3832   -1.2445    0.2964 N   0  0  0  0  0  0  0  0  0  0  0  0
   -3.1102   -0.8685   -0.2946 H   0  0  0  0  0  0  0  0  0  0  0  0
   -1.1292   -0.4875    0.3524 C   0  0  1  0  0  0  0  0  0  0  0  0
   -0.3087   -1.1556    0.0882 H   0  0  0  0  0  0  0  0  0  0  0  0
   -1.1749    0.6534   -0.6787 C   0  0  0  0  0  0  0  0  0  0  0  0
   -0.3661    0.5144   -1.3971 H   0  0  0  0  0  0  0  0  0  0  0  0
   -2.1151    0.5944   -1.2296 H   0  0  0  0  0  0  0  0  0  0  0  0
   -1.0340    2.0365   -0.0729 C   0  0  0  0  0  0  0  0  0  0  0  0
   -0.5684    2.1904    1.2484 C   0  0  0  0  0  0  0  0  0  0  0  0
   -0.3345    1.3183    1.8449 H   0  0  0  0  0  0  0  0  0  0  0  0
   -0.4007    3.4786    1.7927 C   0  0  0  0  0  0  0  0  0  0  0  0
   -0.0455    3.5926    2.8054 H   0  0  0  0  0  0  0  0  0  0  0  0
   -0.6962    4.6168    1.0111 C   0  0  0  0  0  0  0  0  0  0  0  0
   -0.5349    5.8634    1.5259 O   0  0  0  0  0  0  0  0  0  0  0  0
   -0.3039    5.8432    2.4555 H   0  0  0  0  0  0  0  0  0  0  0  0
   -1.1572    4.4610   -0.3125 C   0  0  0  0  0  0  0  0  0  0  0  0
   -1.3839    5.3389   -0.8986 H   0  0  0  0  0  0  0  0  0  0  0  0
   -1.3282    3.1720   -0.8522 C   0  0  0  0  0  0  0  0  0  0  0  0
   -1.6913    3.0530   -1.8661 H   0  0  0  0  0  0  0  0  0  0  0  0
   -0.8664    0.0378    1.7736 C   0  0  0  0  0  0  0  0  0  0  0  0
    0.2529   -0.0672    2.2760 O   0  0  0  0  0  0  0  0  0  0  0  0
   -1.8947    0.5991    2.4221 N   0  0  0  0  0  0  0  0  0  0  0  0
   -2.7942    0.5936    1.9635 H   0  0  0  0  0  0  0  0  0  0  0  0
   -1.8170    1.1453    3.7750 C   0  0  0  0  0  0  0  0  0  0  0  0
   -0.9697    1.8290    3.8506 H   0  0  0  0  0  0  0  0  0  0  0  0
   -2.7354    1.6828    4.0167 H   0  0  0  0  0  0  0  0  0  0  0  0
   -1.6754    0.3334    4.4914 H   0  0  0  0  0  0  0  0  0  0  0  0
  5  6  2  0  0  0  0
  5  7  1  0  0  0  0
  2  3  1  0  0  0  0
  2  4  1  0  0  0  0
  2  5  1  0  0  0  0
  1  2  1  0  0  0  0
 26 27  2  0  0  0  0
 26 28  1  0  0  0  0
 24 25  1  0  0  0  0
 22 23  1  0  0  0  0
 22 24  2  0  0  0  0
 20 21  1  0  0  0  0
 19 20  1  0  0  0  0
 19 22  1  0  0  0  0
 17 18  1  0  0  0  0
 17 19  2  0  0  0  0
 15 16  1  0  0  0  0
 15 17  1  0  0  0  0
 14 15  2  0  0  0  0
 14 24  1  0  0  0  0
 11 12  1  0  0  0  0
 11 13  1  0  0  0  0
 11 14  1  0  0  0  0
  9 10  1  0  0  0  0
  9 11  1  0  0  0  0
  9 26  1  0  0  0  0
  7  8  1  0  0  0  0
  7  9  1  0  0  0  0
 30 31  1  0  0  0  0
 30 32  1  0  0  0  0
 30 33  1  0  0  0  0
 28 29  1  0  0  0  0
 28 30  1  0  0  0  0
M  END
$$$$
default_name
  -OEChem-02102213163D

 33 33  0     1  0  0  0  0  0999 V2000
   -4.0702   -3.8485    1.4554 H   0  0  0  0  0  0  0  0  0  0  0  0
   -4.0012   -2.9605    0.8284 C   0  0  0  0  0  0  0  0  0  0  0  0
   -4.7652   -2.2435    1.1234 H   0  0  0  0  0  0  0  0  0  0  0  0
   -4.1352   -3.2385   -0.2156 H   0  0  0  0  0  0  0  0  0  0  0  0
   -2.6362   -2.3395    1.0094 C   0  0  0  0  0  0  0  0  0  0  0  0
   -1.8292   -2.8395    1.7814 O   0  0  0  0  0  0  0  0  0  0  0  0
   -2.3832   -1.2445    0.2964 N   0  0  0  0  0  0  0  0  0  0  0  0
   -3.1102   -0.8685   -0.2946 H   0  0  0  0  0  0  0  0  0  0  0  0
   -1.1292   -0.4875    0.3524 C   0  0  1  0  0  0  0  0  0  0  0  0
   -0.3087   -1.1556    0.0882 H   0  0  0  0  0  0  0  0  0  0  0  0
   -1.1749    0.6534   -0.6787 C   0  0  0  0  0  0  0  0  0  0  0  0
   -0.3661    0.5144   -1.3971 H   0  0  0  0  0  0  0  0  0  0  0  0
   -2.1151    0.5944   -1.2296 H   0  0  0  0  0  0  0  0  0  0  0  0
   -1.0340    2.0365   -0.0729 C   0  0  0  0  0  0  0  0  0  0  0  0
   -0.2861    2.2236    1.1069 C   0  0  0  0  0  0  0  0  0  0  0  0
    0.1692    1.3744    1.5996 H   0  0  0  0  0  0  0  0  0  0  0  0
   -0.1243    3.5159    1.6432 C   0  0  0  0  0  0  0  0  0  0  0  0
    0.4477    3.6552    2.5476 H   0  0  0  0  0  0  0  0  0  0  0  0
   -0.7096    4.6252    0.9949 C   0  0  0  0  0  0  0  0  0  0  0  0
   -0.5570    5.8759    1.5025 O   0  0  0  0  0  0  0  0  0  0  0  0
   -0.1111    5.8695    2.3505 H   0  0  0  0  0  0  0  0  0  0  0  0
   -1.4536    4.4368   -0.1883 C   0  0  0  0  0  0  0  0  0  0  0  0
   -1.8999    5.2924   -0.6724 H   0  0  0  0  0  0  0  0  0  0  0  0
   -1.6173    3.1433   -0.7193 C   0  0  0  0  0  0  0  0  0  0  0  0
   -2.1968    2.9982   -1.6233 H   0  0  0  0  0  0  0  0  0  0  0  0
   -0.8664    0.0378    1.7736 C   0  0  0  0  0  0  0  0  0  0  0  0
    0.2529   -0.0672    2.2760 O   0  0  0  0  0  0  0  0  0  0  0  0
   -1.8947    0.5991    2.4221 N   0  0  0  0  0  0  0  0  0  0  0  0
   -2.7942    0.5936    1.9635 H   0  0  0  0  0  0  0  0  0  0  0  0
   -1.8170    1.1453    3.7750 C   0  0  0  0  0  0  0  0  0  0  0  0
   -0.9697    1.8290    3.8506 H   0  0  0  0  0  0  0  0  0  0  0  0
   -2.7354    1.6828    4.0167 H   0  0  0  0  0  0  0  0  0  0  0  0
   -1.6754    0.3334    4.4914 H   0  0  0  0  0  0  0  0  0  0  0  0
  5  6  2  0  0  0  0
  5  7  1  0  0  0  0
  2  3  1  0  0  0  0
  2  4  1  0  0  0  0
  2  5  1  0  0  0  0
  1  2  1  0  0  0  0
 26 27  2  0  0  0  0
 26 28  1  0  0  0  0
 24 25  1  0  0  0  0
 22 23  1  0  0  0  0
 22 24  2  0  0  0  0
 20 21  1  0  0  0  0
 19 20  1  0  0  0  0
 19 22  1  0  0  0  0
 17 18  1  0  0  0  0
 17 19  2  0  0  0  0
 15 16  1  0  0  0  0
 15 17  1  0  0  0  0
 14 15  2  0  0  0  0
 14 24  1  0  0  0  0
 11 12  1  0  0  0  0
 11 13  1  0  0  0  0
 11 14  1  0  0  0  0
  9 10  1  0  0  0  0
  9 11  1  0  0  0  0
  9 26  1  0  0  0  0
  7  8  1  0  0  0  0
  7  9  1  0  0  0  0
 30 31  1  0  0  0  0
 30 32  1  0  0  0  0
 30 33  1  0  0  0  0
 28 29  1  0  0  0  0
 28 30  1  0  0  0  0
M  END
$$$$
default_name
  -OEChem-02102213163D

 33 33  0     1  0  0  0  0  0999 V2000
   -4.0702   -3.8485    1.4554 H   0  0  0  0  0  0  0  0  0  0  0  0
   -4.0012   -2.9605    0.8284 C   0  0  0  0  0  0  0  0  0  0  0  0
   -4.7652   -2.2435    1.1234 H   0  0  0  0  0  0  0  0  0  0  0  0
   -4.1352   -3.2385   -0.2156 H   0  0  0  0  0  0  0  0  0  0  0  0
   -2.6362   -2.3395    1.0094 C   0  0  0  0  0  0  0  0  0  0  0  0
   -1.8292   -2.8395    1.7814 O   0  0  0  0  0  0  0  0  0  0  0  0
   -2.3832   -1.2445    0.2964 N   0  0  0  0  0  0  0  0  0  0  0  0
   -3.1102   -0.8685   -0.2946 H   0  0  0  0  0  0  0  0  0  0  0  0
   -1.1292   -0.4875    0.3524 C   0  0  1  0  0  0  0  0  0  0  0  0
   -0.3087   -1.1556    0.0882 H   0  0  0  0  0  0  0  0  0  0  0  0
   -1.1749    0.6534   -0.6787 C   0  0  0  0  0  0  0  0  0  0  0  0
   -0.3661    0.5144   -1.3971 H   0  0  0  0  0  0  0  0  0  0  0  0
   -2.1151    0.5944   -1.2296 H   0  0  0  0  0  0  0  0  0  0  0  0
   -1.0340    2.0365   -0.0729 C   0  0  0  0  0  0  0  0  0  0  0  0
   -0.0501    2.2883    0.9043 C   0  0  0  0  0  0  0  0  0  0  0  0
    0.5920    1.4866    1.2451 H   0  0  0  0  0  0  0  0  0  0  0  0
    0.1036    3.5841    1.4345 C   0  0  0  0  0  0  0  0  0  0  0  0
    0.8569    3.7729    2.1838 H   0  0  0  0  0  0  0  0  0  0  0  0
   -0.7273    4.6324    0.9826 C   0  0  0  0  0  0  0  0  0  0  0  0
   -0.5850    5.8862    1.4854 O   0  0  0  0  0  0  0  0  0  0  0  0
    0.0477    5.9174    2.2042 H   0  0  0  0  0  0  0  0  0  0  0  0
   -1.7080    4.3798    0.0011 C   0  0  0  0  0  0  0  0  0  0  0  0
   -2.3401    5.1887   -0.3331 H   0  0  0  0  0  0  0  0  0  0  0  0
   -1.8622    3.0825   -0.5235 C   0  0  0  0  0  0  0  0  0  0  0  0
   -2.6221    2.8872   -1.2708 H   0  0  0  0  0  0  0  0  0  0  0  0
   -0.8664    0.0378    1.7736 C   0  0  0  0  0  0  0  0  0  0  0  0
    0.2529   -0.0672    2.2760 O   0  0  0  0  0  0  0  0  0  0  0  0
   -1.8947    0.5991    2.4221 N   0  0  0  0  0  0  0  0  0  0  0  0
   -2.7942    0.5936    1.9635 H   0  0  0  0  0  0  0  0  0  0  0  0
   -1.8170    1.1453    3.7750 C   0  0  0  0  0  0  0  0  0  0  0  0
   -0.9697    1.8290    3.8506 H   0  0  0  0  0  0  0  0  0  0  0  0
   -2.7354    1.6828    4.0167 H   0  0  0  0  0  0  0  0  0  0  0  0
   -1.6754    0.3334    4.4914 H   0  0  0  0  0  0  0  0  0  0  0  0
  5  6  2  0  0  0  0
  5  7  1  0  0  0  0
  2  3  1  0  0  0  0
  2  4  1  0  0  0  0
  2  5  1  0  0  0  0
  1  2  1  0  0  0  0
 26 27  2  0  0  0  0
 26 28  1  0  0  0  0
 24 25  1  0  0  0  0
 22 23  1  0  0  0  0
 22 24  2  0  0  0  0
 20 21  1  0  0  0  0
 19 20  1  0  0  0  0
 19 22  1  0  0  0  0
 17 18  1  0  0  0  0
 17 19  2  0  0  0  0
 15 16  1  0  0  0  0
 15 17  1  0  0  0  0
 14 15  2  0  0  0  0
 14 24  1  0  0  0  0
 11 12  1  0  0  0  0
 11 13  1  0  0  0  0
 11 14  1  0  0  0  0
  9 10  1  0  0  0  0
  9 11  1  0  0  0  0
  9 26  1  0  0  0  0
  7  8  1  0  0  0  0
  7  9  1  0  0  0  0
 30 31  1  0  0  0  0
 30 32  1  0  0  0  0
 30 33  1  0  0  0  0
 28 29  1  0  0  0  0
 28 30  1  0  0  0  0
M  END
$$$$
default_name
  -OEChem-02102213163D

 33 33  0     1  0  0  0  0  0999 V2000
   -4.0702   -3.8485    1.4554 H   0  0  0  0  0  0  0  0  0  0  0  0
   -4.0012   -2.9605    0.8284 C   0  0  0  0  0  0  0  0  0  0  0  0
   -4.7652   -2.2435    1.1234 H   0  0  0  0  0  0  0  0  0  0  0  0
   -4.1352   -3.2385   -0.2156 H   0  0  0  0  0  0  0  0  0  0  0  0
   -2.6362   -2.3395    1.0094 C   0  0  0  0  0  0  0  0  0  0  0  0
   -1.8292   -2.8395    1.7814 O   0  0  0  0  0  0  0  0  0  0  0  0
   -2.3832   -1.2445    0.2964 N   0  0  0  0  0  0  0  0  0  0  0  0
   -3.1102   -0.8685   -0.2946 H   0  0  0  0  0  0  0  0  0  0  0  0
   -1.1292   -0.4875    0.3524 C   0  0  1  0  0  0  0  0  0  0  0  0
   -0.3087   -1.1556    0.0882 H   0  0  0  0  0  0  0  0  0  0  0  0
   -1.1749    0.6534   -0.6787 C   0  0  0  0  0  0  0  0  0  0  0  0
   -0.3661    0.5144   -1.3971 H   0  0  0  0  0  0  0  0  0  0  0  0
   -2.1151    0.5944   -1.2296 H   0  0  0  0  0  0  0  0  0  0  0  0
   -1.0340    2.0365   -0.0729 C   0  0  0  0  0  0  0  0  0  0  0  0
    0.1232    2.3800    0.6546 C   0  0  0  0  0  0  0  0  0  0  0  0
    0.9051    1.6472    0.8055 H   0  0  0  0  0  0  0  0  0  0  0  0
    0.2673    3.6786    1.1807 C   0  0  0  0  0  0  0  0  0  0  0  0
    1.1541    3.9376    1.7385 H   0  0  0  0  0  0  0  0  0  0  0  0
   -0.7481    4.6379    0.9751 C   0  0  0  0  0  0  0  0  0  0  0  0
   -0.6173    5.8937    1.4758 O   0  0  0  0  0  0  0  0  0  0  0  0
    0.1615    5.9836    2.0266 H   0  0  0  0  0  0  0  0  0  0  0  0
   -1.9032    4.2939    0.2427 C   0  0  0  0  0  0  0  0  0  0  0  0
   -2.6746    5.0348    0.0960 H   0  0  0  0  0  0  0  0  0  0  0  0
   -2.0463    2.9937   -0.2780 C   0  0  0  0  0  0  0  0  0  0  0  0
   -2.9382    2.7275   -0.8326 H   0  0  0  0  0  0  0  0  0  0  0  0
   -0.8664    0.0378    1.7736 C   0  0  0  0  0  0  0  0  0  0  0  0
    0.2529   -0.0672    2.2760 O   0  0  0  0  0  0  0  0  0  0  0  0
   -1.8947    0.5991    2.4221 N   0  0  0  0  0  0  0  0  0  0  0  0
   -2.7942    0.5936    1.9635 H   0  0  0  0  0  0  0  0  0  0  0  0
   -1.8170    1.1453    3.7750 C   0  0  0  0  0  0  0  0  0  0  0  0
   -0.9697    1.8290    3.8506 H   0  0  0  0  0  0  0  0  0  0  0  0
   -2.7354    1.6828    4.0167 H   0  0  0  0  0  0  0  0  0  0  0  0
   -1.6754    0.3334    4.4914 H   0  0  0  0  0  0  0  0  0  0  0  0
  5  6  2  0  0  0  0
  5  7  1  0  0  0  0
  2  3  1  0  0  0  0
  2  4  1  0  0  0  0
  2  5  1  0  0  0  0
  1  2  1  0  0  0  0
 26 27  2  0  0  0  0
 26 28  1  0  0  0  0
 24 25  1  0  0  0  0
 22 23  1  0  0  0  0
 22 24  2  0  0  0  0
 20 21  1  0  0  0  0
 19 20  1  0  0  0  0
 19 22  1  0  0  0  0
 17 18  1  0  0  0  0
 17 19  2  0  0  0  0
 15 16  1  0  0  0  0
 15 17  1  0  0  0  0
 14 15  2  0  0  0  0
 14 24  1  0  0  0  0
 11 12  1  0  0  0  0
 11 13  1  0  0  0  0
 11 14  1  0  0  0  0
  9 10  1  0  0  0  0
  9 11  1  0  0  0  0
  9 26  1  0  0  0  0
  7  8  1  0  0  0  0
  7  9  1  0  0  0  0
 30 31  1  0  0  0  0
 30 32  1  0  0  0  0
 30 33  1  0  0  0  0
 28 29  1  0  0  0  0
 28 30  1  0  0  0  0
M  END
$$$$
default_name
  -OEChem-02102213163D

 33 33  0     1  0  0  0  0  0999 V2000
   -4.0702   -3.8485    1.4554 H   0  0  0  0  0  0  0  0  0  0  0  0
   -4.0012   -2.9605    0.8284 C   0  0  0  0  0  0  0  0  0  0  0  0
   -4.7652   -2.2435    1.1234 H   0  0  0  0  0  0  0  0  0  0  0  0
   -4.1352   -3.2385   -0.2156 H   0  0  0  0  0  0  0  0  0  0  0  0
   -2.6362   -2.3395    1.0094 C   0  0  0  0  0  0  0  0  0  0  0  0
   -1.8292   -2.8395    1.7814 O   0  0  0  0  0  0  0  0  0  0  0  0
   -2.3832   -1.2445    0.2964 N   0  0  0  0  0  0  0  0  0  0  0  0
   -3.1102   -0.8685   -0.2946 H   0  0  0  0  0  0  0  0  0  0  0  0
   -1.1292   -0.4875    0.3524 C   0  0  1  0  0  0  0  0  0  0  0  0
   -0.3087   -1.1556    0.0882 H   0  0  0  0  0  0  0  0  0  0  0  0
   -1.1749    0.6534   -0.6787 C   0  0  0  0  0  0  0  0  0  0  0  0
   -0.3661    0.5144   -1.3971 H   0  0  0  0  0  0  0  0  0  0  0  0
   -2.1151    0.5944   -1.2296 H   0  0  0  0  0  0  0  0  0  0  0  0
   -1.0340    2.0365   -0.0729 C   0  0  0  0  0  0  0  0  0  0  0  0
    0.2223    2.4925    0.3746 C   0  0  0  0  0  0  0  0  0  0  0  0
    1.0872    1.8452    0.3109 H   0  0  0  0  0  0  0  0  0  0  0  0
    0.3558    3.7928    0.8991 C   0  0  0  0  0  0  0  0  0  0  0  0
    1.3190    4.1381    1.2423 H   0  0  0  0  0  0  0  0  0  0  0  0
   -0.7705    4.6411    0.9728 C   0  0  0  0  0  0  0  0  0  0  0  0
   -0.6515    5.8979    1.4743 O   0  0  0  0  0  0  0  0  0  0  0  0
    0.2227    6.0635    1.8298 H   0  0  0  0  0  0  0  0  0  0  0  0
   -2.0258    4.1849    0.5201 C   0  0  0  0  0  0  0  0  0  0  0  0
   -2.8804    4.8413    0.5857 H   0  0  0  0  0  0  0  0  0  0  0  0
   -2.1570    2.8831    0.0005 C   0  0  0  0  0  0  0  0  0  0  0  0
   -3.1236    2.5300   -0.3386 H   0  0  0  0  0  0  0  0  0  0  0  0
   -0.8664    0.0378    1.7736 C   0  0  0  0  0  0  0  0  0  0  0  0
    0.2529   -0.0672    2.2760 O   0  0  0  0  0  0  0  0  0  0  0  0
   -1.8947    0.5991    2.4221 N   0  0  0  0  0  0  0  0  0  0  0  0
   -2.7942    0.5936    1.9635 H   0  0  0  0  0  0  0  0  0  0  0  0
   -1.8170    1.1453    3.7750 C   0  0  0  0  0  0  0  0  0  0  0  0
   -0.9697    1.8290    3.8506 H   0  0  0  0  0  0  0  0  0  0  0  0
   -2.7354    1.6828    4.0167 H   0  0  0  0  0  0  0  0  0  0  0  0
   -1.6754    0.3334    4.4914 H   0  0  0  0  0  0  0  0  0  0  0  0
  5  6  2  0  0  0  0
  5  7  1  0  0  0  0
  2  3  1  0  0  0  0
  2  4  1  0  0  0  0
  2  5  1  0  0  0  0
  1  2  1  0  0  0  0
 26 27  2  0  0  0  0
 26 28  1  0  0  0  0
 24 25  1  0  0  0  0
 22 23  1  0  0  0  0
 22 24  2  0  0  0  0
 20 21  1  0  0  0  0
 19 20  1  0  0  0  0
 19 22  1  0  0  0  0
 17 18  1  0  0  0  0
 17 19  2  0  0  0  0
 15 16  1  0  0  0  0
 15 17  1  0  0  0  0
 14 15  2  0  0  0  0
 14 24  1  0  0  0  0
 11 12  1  0  0  0  0
 11 13  1  0  0  0  0
 11 14  1  0  0  0  0
  9 10  1  0  0  0  0
  9 11  1  0  0  0  0
  9 26  1  0  0  0  0
  7  8  1  0  0  0  0
  7  9  1  0  0  0  0
 30 31  1  0  0  0  0
 30 32  1  0  0  0  0
 30 33  1  0  0  0  0
 28 29  1  0  0  0  0
 28 30  1  0  0  0  0
M  END
$$$$
default_name
  -OEChem-02102213163D

 33 33  0     1  0  0  0  0  0999 V2000
   -4.0702   -3.8485    1.4554 H   0  0  0  0  0  0  0  0  0  0  0  0
   -4.0012   -2.9605    0.8284 C   0  0  0  0  0  0  0  0  0  0  0  0
   -4.7652   -2.2435    1.1234 H   0  0  0  0  0  0  0  0  0  0  0  0
   -4.1352   -3.2385   -0.2156 H   0  0  0  0  0  0  0  0  0  0  0  0
   -2.6362   -2.3395    1.0094 C   0  0  0  0  0  0  0  0  0  0  0  0
   -1.8292   -2.8395    1.7814 O   0  0  0  0  0  0  0  0  0  0  0  0
   -2.3832   -1.2445    0.2964 N   0  0  0  0  0  0  0  0  0  0  0  0
   -3.1102   -0.8685   -0.2946 H   0  0  0  0  0  0  0  0  0  0  0  0
   -1.1292   -0.4875    0.3524 C   0  0  1  0  0  0  0  0  0  0  0  0
   -0.3087   -1.1556    0.0882 H   0  0  0  0  0  0  0  0  0  0  0  0
   -1.1749    0.6534   -0.6787 C   0  0  0  0  0  0  0  0  0  0  0  0
   -0.3661    0.5144   -1.3971 H   0  0  0  0  0  0  0  0  0  0  0  0
   -2.1151    0.5944   -1.2296 H   0  0  0  0  0  0  0  0  0  0  0  0
   -1.0340    2.0365   -0.0729 C   0  0  0  0  0  0  0  0  0  0  0  0
    0.2402    2.6182    0.0834 C   0  0  0  0  0  0  0  0  0  0  0  0
    1.1258    2.0673   -0.2051 H   0  0  0  0  0  0  0  0  0  0  0  0
    0.3631    3.9191    0.6091 C   0  0  0  0  0  0  0  0  0  0  0  0
    1.3404    4.3608    0.7288 H   0  0  0  0  0  0  0  0  0  0  0  0
   -0.7930    4.6420    0.9760 C   0  0  0  0  0  0  0  0  0  0  0  0
   -0.6853    5.8984    1.4811 O   0  0  0  0  0  0  0  0  0  0  0  0
    0.2271    6.1518    1.6271 H   0  0  0  0  0  0  0  0  0  0  0  0
   -2.0675    4.0603    0.8143 C   0  0  0  0  0  0  0  0  0  0  0  0
   -2.9436    4.6213    1.1026 H   0  0  0  0  0  0  0  0  0  0  0  0
   -2.1867    2.7580    0.2929 C   0  0  0  0  0  0  0  0  0  0  0  0
   -3.1657    2.3082    0.1777 H   0  0  0  0  0  0  0  0  0  0  0  0
   -0.8664    0.0378    1.7736 C   0  0  0  0  0  0  0  0  0  0  0  0
    0.2529   -0.0672    2.2760 O   0  0  0  0  0  0  0  0  0  0  0  0
   -1.8947    0.5991    2.4221 N   0  0  0  0  0  0  0  0  0  0  0  0
   -2.7942    0.5936    1.9635 H   0  0  0  0  0  0  0  0  0  0  0  0
   -1.8170    1.1453    3.7750 C   0  0  0  0  0  0  0  0  0  0  0  0
   -0.9697    1.8290    3.8506 H   0  0  0  0  0  0  0  0  0  0  0  0
   -2.7354    1.6828    4.0167 H   0  0  0  0  0  0  0  0  0  0  0  0
   -1.6754    0.3334    4.4914 H   0  0  0  0  0  0  0  0  0  0  0  0
  5  6  2  0  0  0  0
  5  7  1  0  0  0  0
  2  3  1  0  0  0  0
  2  4  1  0  0  0  0
  2  5  1  0  0  0  0
  1  2  1  0  0  0  0
 26 27  2  0  0  0  0
 26 28  1  0  0  0  0
 24 25  1  0  0  0  0
 22 23  1  0  0  0  0
 22 24  2  0  0  0  0
 20 21  1  0  0  0  0
 19 20  1  0  0  0  0
 19 22  1  0  0  0  0
 17 18  1  0  0  0  0
 17 19  2  0  0  0  0
 15 16  1  0  0  0  0
 15 17  1  0  0  0  0
 14 15  2  0  0  0  0
 14 24  1  0  0  0  0
 11 12  1  0  0  0  0
 11 13  1  0  0  0  0
 11 14  1  0  0  0  0
  9 10  1  0  0  0  0
  9 11  1  0  0  0  0
  9 26  1  0  0  0  0
  7  8  1  0  0  0  0
  7  9  1  0  0  0  0
 30 31  1  0  0  0  0
 30 32  1  0  0  0  0
 30 33  1  0  0  0  0
 28 29  1  0  0  0  0
 28 30  1  0  0  0  0
M  END
$$$$
default_name
  -OEChem-02102213163D

 33 33  0     1  0  0  0  0  0999 V2000
   -4.0702   -3.8485    1.4554 H   0  0  0  0  0  0  0  0  0  0  0  0
   -4.0012   -2.9605    0.8284 C   0  0  0  0  0  0  0  0  0  0  0  0
   -4.7652   -2.2435    1.1234 H   0  0  0  0  0  0  0  0  0  0  0  0
   -4.1352   -3.2385   -0.2156 H   0  0  0  0  0  0  0  0  0  0  0  0
   -2.6362   -2.3395    1.0094 C   0  0  0  0  0  0  0  0  0  0  0  0
   -1.8292   -2.8395    1.7814 O   0  0  0  0  0  0  0  0  0  0  0  0
   -2.3832   -1.2445    0.2964 N   0  0  0  0  0  0  0  0  0  0  0  0
   -3.1102   -0.8685   -0.2946 H   0  0  0  0  0  0  0  0  0  0  0  0
   -1.1292   -0.4875    0.3524 C   0  0  1  0  0  0  0  0  0  0  0  0
   -0.3087   -1.1556    0.0882 H   0  0  0  0  0  0  0  0  0  0  0  0
   -1.1749    0.6534   -0.6787 C   0  0  0  0  0  0  0  0  0  0  0  0
   -0.3661    0.5144   -1.3971 H   0  0  0  0  0  0  0  0  0  0  0  0
   -2.1151    0.5944   -1.2296 H   0  0  0  0  0  0  0  0  0  0  0  0
   -1.0340    2.0365   -0.0729 C   0  0  0  0  0  0  0  0  0  0  0  0
    0.1758    2.7485   -0.1990 C   0  0  0  0  0  0  0  0  0  0  0  0
    1.0184    2.2982   -0.7073 H   0  0  0  0  0  0  0  0  0  0  0  0
    0.2885    4.0489    0.3302 C   0  0  0  0  0  0  0  0  0  0  0  0
    1.2169    4.5905    0.2332 H   0  0  0  0  0  0  0  0  0  0  0  0
   -0.8140    4.6405    0.9844 C   0  0  0  0  0  0  0  0  0  0  0  0
   -0.7164    5.8952    1.4956 O   0  0  0  0  0  0  0  0  0  0  0  0
    0.1744    6.2425    1.4325 H   0  0  0  0  0  0  0  0  0  0  0  0
   -2.0254    3.9285    1.1054 C   0  0  0  0  0  0  0  0  0  0  0  0
   -2.8599    4.3899    1.6116 H   0  0  0  0  0  0  0  0  0  0  0  0
   -2.1335    2.6271    0.5794 C   0  0  0  0  0  0  0  0  0  0  0  0
   -3.0615    2.0771    0.6809 H   0  0  0  0  0  0  0  0  0  0  0  0
   -0.8664    0.0378    1.7736 C   0  0  0  0  0  0  0  0  0  0  0  0
    0.2529   -0.0672    2.2760 O   0  0  0  0  0  0  0  0  0  0  0  0
   -1.8947    0.5991    2.4221 N   0  0  0  0  0  0  0  0  0  0  0  0
   -2.7942    0.5936    1.9635 H   0  0  0  0  0  0  0  0  0  0  0  0
   -1.8170    1.1453    3.7750 C   0  0  0  0  0  0  0  0  0  0  0  0
   -0.9697    1.8290    3.8506 H   0  0  0  0  0  0  0  0  0  0  0  0
   -2.7354    1.6828    4.0167 H   0  0  0  0  0  0  0  0  0  0  0  0
   -1.6754    0.3334    4.4914 H   0  0  0  0  0  0  0  0  0  0  0  0
  5  6  2  0  0  0  0
  5  7  1  0  0  0  0
  2  3  1  0  0  0  0
  2  4  1  0  0  0  0
  2  5  1  0  0  0  0
  1  2  1  0  0  0  0
 26 27  2  0  0  0  0
 26 28  1  0  0  0  0
 24 25  1  0  0  0  0
 22 23  1  0  0  0  0
 22 24  2  0  0  0  0
 20 21  1  0  0  0  0
 19 20  1  0  0  0  0
 19 22  1  0  0  0  0
 17 18  1  0  0  0  0
 17 19  2  0  0  0  0
 15 16  1  0  0  0  0
 15 17  1  0  0  0  0
 14 15  2  0  0  0  0
 14 24  1  0  0  0  0
 11 12  1  0  0  0  0
 11 13  1  0  0  0  0
 11 14  1  0  0  0  0
  9 10  1  0  0  0  0
  9 11  1  0  0  0  0
  9 26  1  0  0  0  0
  7  8  1  0  0  0  0
  7  9  1  0  0  0  0
 30 31  1  0  0  0  0
 30 32  1  0  0  0  0
 30 33  1  0  0  0  0
 28 29  1  0  0  0  0
 28 30  1  0  0  0  0
M  END
$$$$
default_name
  -OEChem-02102213163D

 33 33  0     1  0  0  0  0  0999 V2000
   -4.0702   -3.8485    1.4554 H   0  0  0  0  0  0  0  0  0  0  0  0
   -4.0012   -2.9605    0.8284 C   0  0  0  0  0  0  0  0  0  0  0  0
   -4.7652   -2.2435    1.1234 H   0  0  0  0  0  0  0  0  0  0  0  0
   -4.1352   -3.2385   -0.2156 H   0  0  0  0  0  0  0  0  0  0  0  0
   -2.6362   -2.3395    1.0094 C   0  0  0  0  0  0  0  0  0  0  0  0
   -1.8292   -2.8395    1.7814 O   0  0  0  0  0  0  0  0  0  0  0  0
   -2.3832   -1.2445    0.2964 N   0  0  0  0  0  0  0  0  0  0  0  0
   -3.1102   -0.8685   -0.2946 H   0  0  0  0  0  0  0  0  0  0  0  0
   -1.1292   -0.4875    0.3524 C   0  0  1  0  0  0  0  0  0  0  0  0
   -0.3087   -1.1556    0.0882 H   0  0  0  0  0  0  0  0  0  0  0  0
   -1.1749    0.6534   -0.6787 C   0  0  0  0  0  0  0  0  0  0  0  0
   -0.3661    0.5144   -1.3971 H   0  0  0  0  0  0  0  0  0  0  0  0
   -2.1151    0.5944   -1.2296 H   0  0  0  0  0  0  0  0  0  0  0  0
   -1.0340    2.0365   -0.0729 C   0  0  0  0  0  0  0  0  0  0  0  0
    0.0335    2.8744   -0.4534 C   0  0  0  0  0  0  0  0  0  0  0  0
    0.7722    2.5222   -1.1614 H   0  0  0  0  0  0  0  0  0  0  0  0
    0.1373    4.1732    0.0816 C   0  0  0  0  0  0  0  0  0  0  0  0
    0.9568    4.8115   -0.2109 H   0  0  0  0  0  0  0  0  0  0  0  0
   -0.8322    4.6366    0.9975 C   0  0  0  0  0  0  0  0  0  0  0  0
   -0.7427    5.8886    1.5168 O   0  0  0  0  0  0  0  0  0  0  0  0
    0.0681    6.3292    1.2591 H   0  0  0  0  0  0  0  0  0  0  0  0
   -1.9024    3.7986    1.3734 C   0  0  0  0  0  0  0  0  0  0  0  0
   -2.6350    4.1627    2.0779 H   0  0  0  0  0  0  0  0  0  0  0  0
   -2.0009    2.4993    0.8404 C   0  0  0  0  0  0  0  0  0  0  0  0
   -2.8182    1.8527    1.1368 H   0  0  0  0  0  0  0  0  0  0  0  0
   -0.8664    0.0378    1.7736 C   0  0  0  0  0  0  0  0  0  0  0  0
    0.2529   -0.0672    2.2760 O   0  0  0  0  0  0  0  0  0  0  0  0
   -1.8947    0.5991    2.4221 N   0  0  0  0  0  0  0  0  0  0  0  0
   -2.7942    0.5936    1.9635 H   0  0  0  0  0  0  0  0  0  0  0  0
   -1.8170    1.1453    3.7750 C   0  0  0  0  0  0  0  0  0  0  0  0
   -0.9697    1.8290    3.8506 H   0  0  0  0  0  0  0  0  0  0  0  0
   -2.7354    1.6828    4.0167 H   0  0  0  0  0  0  0  0  0  0  0  0
   -1.6754    0.3334    4.4914 H   0  0  0  0  0  0  0  0  0  0  0  0
  5  6  2  0  0  0  0
  5  7  1  0  0  0  0
  2  3  1  0  0  0  0
  2  4  1  0  0  0  0
  2  5  1  0  0  0  0
  1  2  1  0  0  0  0
 26 27  2  0  0  0  0
 26 28  1  0  0  0  0
 24 25  1  0  0  0  0
 22 23  1  0  0  0  0
 22 24  2  0  0  0  0
 20 21  1  0  0  0  0
 19 20  1  0  0  0  0
 19 22  1  0  0  0  0
 17 18  1  0  0  0  0
 17 19  2  0  0  0  0
 15 16  1  0  0  0  0
 15 17  1  0  0  0  0
 14 15  2  0  0  0  0
 14 24  1  0  0  0  0
 11 12  1  0  0  0  0
 11 13  1  0  0  0  0
 11 14  1  0  0  0  0
  9 10  1  0  0  0  0
  9 11  1  0  0  0  0
  9 26  1  0  0  0  0
  7  8  1  0  0  0  0
  7  9  1  0  0  0  0
 30 31  1  0  0  0  0
 30 32  1  0  0  0  0
 30 33  1  0  0  0  0
 28 29  1  0  0  0  0
 28 30  1  0  0  0  0
M  END
$$$$
default_name
  -OEChem-02102213163D

 33 33  0     1  0  0  0  0  0999 V2000
   -4.0702   -3.8485    1.4554 H   0  0  0  0  0  0  0  0  0  0  0  0
   -4.0012   -2.9605    0.8284 C   0  0  0  0  0  0  0  0  0  0  0  0
   -4.7652   -2.2435    1.1234 H   0  0  0  0  0  0  0  0  0  0  0  0
   -4.1352   -3.2385   -0.2156 H   0  0  0  0  0  0  0  0  0  0  0  0
   -2.6362   -2.3395    1.0094 C   0  0  0  0  0  0  0  0  0  0  0  0
   -1.8292   -2.8395    1.7814 O   0  0  0  0  0  0  0  0  0  0  0  0
   -2.3832   -1.2445    0.2964 N   0  0  0  0  0  0  0  0  0  0  0  0
   -3.1102   -0.8685   -0.2946 H   0  0  0  0  0  0  0  0  0  0  0  0
   -1.1292   -0.4875    0.3524 C   0  0  1  0  0  0  0  0  0  0  0  0
   -0.3087   -1.1556    0.0882 H   0  0  0  0  0  0  0  0  0  0  0  0
   -1.1749    0.6534   -0.6787 C   0  0  0  0  0  0  0  0  0  0  0  0
   -0.3661    0.5144   -1.3971 H   0  0  0  0  0  0  0  0  0  0  0  0
   -2.1151    0.5944   -1.2296 H   0  0  0  0  0  0  0  0  0  0  0  0
   -1.0340    2.0365   -0.0729 C   0  0  0  0  0  0  0  0  0  0  0  0
   -0.1771    2.9875   -0.6626 C   0  0  0  0  0  0  0  0  0  0  0  0
    0.4041    2.7240   -1.5366 H   0  0  0  0  0  0  0  0  0  0  0  0
   -0.0804    4.2836   -0.1199 C   0  0  0  0  0  0  0  0  0  0  0  0
    0.5779    5.0088   -0.5731 H   0  0  0  0  0  0  0  0  0  0  0  0
   -0.8463    4.6307    1.0143 C   0  0  0  0  0  0  0  0  0  0  0  0
   -0.7624    5.8789    1.5434 O   0  0  0  0  0  0  0  0  0  0  0  0
   -0.0844    6.4062    1.1188 H   0  0  0  0  0  0  0  0  0  0  0  0
   -1.7069    3.6793    1.6002 C   0  0  0  0  0  0  0  0  0  0  0  0
   -2.2841    3.9553    2.4698 H   0  0  0  0  0  0  0  0  0  0  0  0
   -1.7980    2.3832    1.0582 C   0  0  0  0  0  0  0  0  0  0  0  0
   -2.4524    1.6500    1.5144 H   0  0  0  0  0  0  0  0  0  0  0  0
   -0.8664    0.0378    1.7736 C   0  0  0  0  0  0  0  0  0  0  0  0
    0.2529   -0.0672    2.2760 O   0  0  0  0  0  0  0  0  0  0  0  0
   -1.8947    0.5991    2.4221 N   0  0  0  0  0  0  0  0  0  0  0  0
   -2.7942    0.5936    1.9635 H   0  0  0  0  0  0  0  0  0  0  0  0
   -1.8170    1.1453    3.7750 C   0  0  0  0  0  0  0  0  0  0  0  0
   -0.9697    1.8290    3.8506 H   0  0  0  0  0  0  0  0  0  0  0  0
   -2.7354    1.6828    4.0167 H   0  0  0  0  0  0  0  0  0  0  0  0
   -1.6754    0.3334    4.4914 H   0  0  0  0  0  0  0  0  0  0  0  0
  5  6  2  0  0  0  0
  5  7  1  0  0  0  0
  2  3  1  0  0  0  0
  2  4  1  0  0  0  0
  2  5  1  0  0  0  0
  1  2  1  0  0  0  0
 26 27  2  0  0  0  0
 26 28  1  0  0  0  0
 24 25  1  0  0  0  0
 22 23  1  0  0  0  0
 22 24  2  0  0  0  0
 20 21  1  0  0  0  0
 19 20  1  0  0  0  0
 19 22  1  0  0  0  0
 17 18  1  0  0  0  0
 17 19  2  0  0  0  0
 15 16  1  0  0  0  0
 15 17  1  0  0  0  0
 14 15  2  0  0  0  0
 14 24  1  0  0  0  0
 11 12  1  0  0  0  0
 11 13  1  0  0  0  0
 11 14  1  0  0  0  0
  9 10  1  0  0  0  0
  9 11  1  0  0  0  0
  9 26  1  0  0  0  0
  7  8  1  0  0  0  0
  7  9  1  0  0  0  0
 30 31  1  0  0  0  0
 30 32  1  0  0  0  0
 30 33  1  0  0  0  0
 28 29  1  0  0  0  0
 28 30  1  0  0  0  0
M  END
$$$$
default_name
  -OEChem-02102213163D

 33 33  0     1  0  0  0  0  0999 V2000
   -4.0702   -3.8485    1.4554 H   0  0  0  0  0  0  0  0  0  0  0  0
   -4.0012   -2.9605    0.8284 C   0  0  0  0  0  0  0  0  0  0  0  0
   -4.7652   -2.2435    1.1234 H   0  0  0  0  0  0  0  0  0  0  0  0
   -4.1352   -3.2385   -0.2156 H   0  0  0  0  0  0  0  0  0  0  0  0
   -2.6362   -2.3395    1.0094 C   0  0  0  0  0  0  0  0  0  0  0  0
   -1.8292   -2.8395    1.7814 O   0  0  0  0  0  0  0  0  0  0  0  0
   -2.3832   -1.2445    0.2964 N   0  0  0  0  0  0  0  0  0  0  0  0
   -3.1102   -0.8685   -0.2946 H   0  0  0  0  0  0  0  0  0  0  0  0
   -1.1292   -0.4875    0.3524 C   0  0  1  0  0  0  0  0  0  0  0  0
   -0.3087   -1.1556    0.0882 H   0  0  0  0  0  0  0  0  0  0  0  0
   -1.1749    0.6534   -0.6787 C   0  0  0  0  0  0  0  0  0  0  0  0
   -0.3661    0.5144   -1.3971 H   0  0  0  0  0  0  0  0  0  0  0  0
   -2.1151    0.5944   -1.2296 H   0  0  0  0  0  0  0  0  0  0  0  0
   -1.0340    2.0365   -0.0729 C   0  0  0  0  0  0  0  0  0  0  0  0
   -0.4416    3.0800   -0.8122 C   0  0  0  0  0  0  0  0  0  0  0  0
   -0.0609    2.8900   -1.8072 H   0  0  0  0  0  0  0  0  0  0  0  0
   -0.3496    4.3726   -0.2605 C   0  0  0  0  0  0  0  0  0  0  0  0
    0.1061    5.1689   -0.8288 H   0  0  0  0  0  0  0  0  0  0  0  0
   -0.8554    4.6231    1.0337 C   0  0  0  0  0  0  0  0  0  0  0  0
   -0.7741    5.8669    1.5735 O   0  0  0  0  0  0  0  0  0  0  0  0
   -0.2728    6.4682    1.0211 H   0  0  0  0  0  0  0  0  0  0  0  0
   -1.4523    3.5789    1.7702 C   0  0  0  0  0  0  0  0  0  0  0  0
   -1.8313    3.7819    2.7605 H   0  0  0  0  0  0  0  0  0  0  0  0
   -1.5386    2.2869    1.2178 C   0  0  0  0  0  0  0  0  0  0  0  0
   -1.9889    1.4830    1.7879 H   0  0  0  0  0  0  0  0  0  0  0  0
   -0.8664    0.0378    1.7736 C   0  0  0  0  0  0  0  0  0  0  0  0
    0.2529   -0.0672    2.2760 O   0  0  0  0  0  0  0  0  0  0  0  0
   -1.8947    0.5991    2.4221 N   0  0  0  0  0  0  0  0  0  0  0  0
   -2.7942    0.5936    1.9635 H   0  0  0  0  0  0  0  0  0  0  0  0
   -1.8170    1.1453    3.7750 C   0  0  0  0  0  0  0  0  0  0  0  0
   -0.9697    1.8290    3.8506 H   0  0  0  0  0  0  0  0  0  0  0  0
   -2.7354    1.6828    4.0167 H   0  0  0  0  0  0  0  0  0  0  0  0
   -1.6754    0.3334    4.4914 H   0  0  0  0  0  0  0  0  0  0  0  0
  5  6  2  0  0  0  0
  5  7  1  0  0  0  0
  2  3  1  0  0  0  0
  2  4  1  0  0  0  0
  2  5  1  0  0  0  0
  1  2  1  0  0  0  0
 26 27  2  0  0  0  0
 26 28  1  0  0  0  0
 24 25  1  0  0  0  0
 22 23  1  0  0  0  0
 22 24  2  0  0  0  0
 20 21  1  0  0  0  0
 19 20  1  0  0  0  0
 19 22  1  0  0  0  0
 17 18  1  0  0  0  0
 17 19  2  0  0  0  0
 15 16  1  0  0  0  0
 15 17  1  0  0  0  0
 14 15  2  0  0  0  0
 14 24  1  0  0  0  0
 11 12  1  0  0  0  0
 11 13  1  0  0  0  0
 11 14  1  0  0  0  0
  9 10  1  0  0  0  0
  9 11  1  0  0  0  0
  9 26  1  0  0  0  0
  7  8  1  0  0  0  0
  7  9  1  0  0  0  0
 30 31  1  0  0  0  0
 30 32  1  0  0  0  0
 30 33  1  0  0  0  0
 28 29  1  0  0  0  0
 28 30  1  0  0  0  0
M  END
$$$$
default_name
  -OEChem-02102213163D

 33 33  0     1  0  0  0  0  0999 V2000
   -4.0702   -3.8485    1.4554 H   0  0  0  0  0  0  0  0  0  0  0  0
   -4.0012   -2.9605    0.8284 C   0  0  0  0  0  0  0  0  0  0  0  0
   -4.7652   -2.2435    1.1234 H   0  0  0  0  0  0  0  0  0  0  0  0
   -4.1352   -3.2385   -0.2156 H   0  0  0  0  0  0  0  0  0  0  0  0
   -2.6362   -2.3395    1.0094 C   0  0  0  0  0  0  0  0  0  0  0  0
   -1.8292   -2.8395    1.7814 O   0  0  0  0  0  0  0  0  0  0  0  0
   -2.3832   -1.2445    0.2964 N   0  0  0  0  0  0  0  0  0  0  0  0
   -3.1102   -0.8685   -0.2946 H   0  0  0  0  0  0  0  0  0  0  0  0
   -1.1292   -0.4875    0.3524 C   0  0  1  0  0  0  0  0  0  0  0  0
   -0.3087   -1.1556    0.0882 H   0  0  0  0  0  0  0  0  0  0  0  0
   -1.1749    0.6534   -0.6787 C   0  0  0  0  0  0  0  0  0  0  0  0
   -0.3661    0.5144   -1.3971 H   0  0  0  0  0  0  0  0  0  0  0  0
   -2.1151    0.5944   -1.2296 H   0  0  0  0  0  0  0  0  0  0  0  0
   -1.0340    2.0365   -0.0729 C   0  0  0  0  0  0  0  0  0  0  0  0
   -0.7419    3.1456   -0.8920 C   0  0  0  0  0  0  0  0  0  0  0  0
   -0.5912    3.0087   -1.9549 H   0  0  0  0  0  0  0  0  0  0  0  0
   -0.6520    4.4342   -0.3306 C   0  0  0  0  0  0  0  0  0  0  0  0
   -0.4266    5.2809   -0.9606 H   0  0  0  0  0  0  0  0  0  0  0  0
   -0.8587    4.6144    1.0545 C   0  0  0  0  0  0  0  0  0  0  0  0
   -0.7771    5.8534    1.6051 O   0  0  0  0  0  0  0  0  0  0  0  0
   -0.4843    6.5110    0.9727 H   0  0  0  0  0  0  0  0  0  0  0  0
   -1.1557    3.5042    1.8719 C   0  0  0  0  0  0  0  0  0  0  0  0
   -1.3074    3.6541    2.9302 H   0  0  0  0  0  0  0  0  0  0  0  0
   -1.2404    2.2168    1.3084 C   0  0  0  0  0  0  0  0  0  0  0  0
   -1.4595    1.3630    1.9386 H   0  0  0  0  0  0  0  0  0  0  0  0
   -0.8664    0.0378    1.7736 C   0  0  0  0  0  0  0  0  0  0  0  0
    0.2529   -0.0672    2.2760 O   0  0  0  0  0  0  0  0  0  0  0  0
   -1.8947    0.5991    2.4221 N   0  0  0  0  0  0  0  0  0  0  0  0
   -2.7942    0.5936    1.9635 H   0  0  0  0  0  0  0  0  0  0  0  0
   -1.8170    1.1453    3.7750 C   0  0  0  0  0  0  0  0  0  0  0  0
   -0.9697    1.8290    3.8506 H   0  0  0  0  0  0  0  0  0  0  0  0
   -2.7354    1.6828    4.0167 H   0  0  0  0  0  0  0  0  0  0  0  0
   -1.6754    0.3334    4.4914 H   0  0  0  0  0  0  0  0  0  0  0  0
  5  6  2  0  0  0  0
  5  7  1  0  0  0  0
  2  3  1  0  0  0  0
  2  4  1  0  0  0  0
  2  5  1  0  0  0  0
  1  2  1  0  0  0  0
 26 27  2  0  0  0  0
 26 28  1  0  0  0  0
 24 25  1  0  0  0  0
 22 23  1  0  0  0  0
 22 24  2  0  0  0  0
 20 21  1  0  0  0  0
 19 20  1  0  0  0  0
 19 22  1  0  0  0  0
 17 18  1  0  0  0  0
 17 19  2  0  0  0  0
 15 16  1  0  0  0  0
 15 17  1  0  0  0  0
 14 15  2  0  0  0  0
 14 24  1  0  0  0  0
 11 12  1  0  0  0  0
 11 13  1  0  0  0  0
 11 14  1  0  0  0  0
  9 10  1  0  0  0  0
  9 11  1  0  0  0  0
  9 26  1  0  0  0  0
  7  8  1  0  0  0  0
  7  9  1  0  0  0  0
 30 31  1  0  0  0  0
 30 32  1  0  0  0  0
 30 33  1  0  0  0  0
 28 29  1  0  0  0  0
 28 30  1  0  0  0  0
M  END
$$$$
default_name
  -OEChem-02102213163D

 33 33  0     1  0  0  0  0  0999 V2000
   -4.0702   -3.8485    1.4554 H   0  0  0  0  0  0  0  0  0  0  0  0
   -4.0012   -2.9605    0.8284 C   0  0  0  0  0  0  0  0  0  0  0  0
   -4.7652   -2.2435    1.1234 H   0  0  0  0  0  0  0  0  0  0  0  0
   -4.1352   -3.2385   -0.2156 H   0  0  0  0  0  0  0  0  0  0  0  0
   -2.6362   -2.3395    1.0094 C   0  0  0  0  0  0  0  0  0  0  0  0
   -1.8292   -2.8395    1.7814 O   0  0  0  0  0  0  0  0  0  0  0  0
   -2.3832   -1.2445    0.2964 N   0  0  0  0  0  0  0  0  0  0  0  0
   -3.1102   -0.8685   -0.2946 H   0  0  0  0  0  0  0  0  0  0  0  0
   -1.1292   -0.4875    0.3524 C   0  0  1  0  0  0  0  0  0  0  0  0
   -0.3087   -1.1556    0.0882 H   0  0  0  0  0  0  0  0  0  0  0  0
   -1.1749    0.6534   -0.6787 C   0  0  0  0  0  0  0  0  0  0  0  0
   -0.5560    0.3823   -1.5349 H   0  0  0  0  0  0  0  0  0  0  0  0
   -2.1994    0.7642   -1.0379 H   0  0  0  0  0  0  0  0  0  0  0  0
   -0.6832    1.9852   -0.1453 C   0  0  0  0  0  0  0  0  0  0  0  0
   -0.6673    3.1226   -0.9773 C   0  0  0  0  0  0  0  0  0  0  0  0
   -0.9822    3.0427   -2.0095 H   0  0  0  0  0  0  0  0  0  0  0  0
   -0.2479    4.3661   -0.4657 C   0  0  0  0  0  0  0  0  0  0  0  0
   -0.2355    5.2347   -1.1060 H   0  0  0  0  0  0  0  0  0  0  0  0
    0.1533    4.4727    0.8839 C   0  0  0  0  0  0  0  0  0  0  0  0
    0.5565    5.6680    1.3876 O   0  0  0  0  0  0  0  0  0  0  0  0
    0.6137    6.3442    0.7111 H   0  0  0  0  0  0  0  0  0  0  0  0
    0.1320    3.3345    1.7163 C   0  0  0  0  0  0  0  0  0  0  0  0
    0.4453    3.4278    2.7452 H   0  0  0  0  0  0  0  0  0  0  0  0
   -0.2833    2.0920    1.2008 C   0  0  0  0  0  0  0  0  0  0  0  0
   -0.2905    1.2161    1.8384 H   0  0  0  0  0  0  0  0  0  0  0  0
   -0.8664    0.0378    1.7736 C   0  0  0  0  0  0  0  0  0  0  0  0
    0.2529   -0.0672    2.2760 O   0  0  0  0  0  0  0  0  0  0  0  0
   -1.8947    0.5991    2.4221 N   0  0  0  0  0  0  0  0  0  0  0  0
   -2.7942    0.5936    1.9635 H   0  0  0  0  0  0  0  0  0  0  0  0
   -1.8170    1.1453    3.7750 C   0  0  0  0  0  0  0  0  0  0  0  0
   -0.9697    1.8290    3.8506 H   0  0  0  0  0  0  0  0  0  0  0  0
   -2.7354    1.6828    4.0167 H   0  0  0  0  0  0  0  0  0  0  0  0
   -1.6754    0.3334    4.4914 H   0  0  0  0  0  0  0  0  0  0  0  0
  5  6  2  0  0  0  0
  5  7  1  0  0  0  0
  2  3  1  0  0  0  0
  2  4  1  0  0  0  0
  2  5  1  0  0  0  0
  1  2  1  0  0  0  0
 26 27  2  0  0  0  0
 26 28  1  0  0  0  0
 24 25  1  0  0  0  0
 22 23  1  0  0  0  0
 22 24  2  0  0  0  0
 20 21  1  0  0  0  0
 19 20  1  0  0  0  0
 19 22  1  0  0  0  0
 17 18  1  0  0  0  0
 17 19  2  0  0  0  0
 15 16  1  0  0  0  0
 15 17  1  0  0  0  0
 14 15  2  0  0  0  0
 14 24  1  0  0  0  0
 11 12  1  0  0  0  0
 11 13  1  0  0  0  0
 11 14  1  0  0  0  0
  9 10  1  0  0  0  0
  9 11  1  0  0  0  0
  9 26  1  0  0  0  0
  7  8  1  0  0  0  0
  7  9  1  0  0  0  0
 30 31  1  0  0  0  0
 30 32  1  0  0  0  0
 30 33  1  0  0  0  0
 28 29  1  0  0  0  0
 28 30  1  0  0  0  0
M  END
$$$$
default_name
  -OEChem-02102213163D

 33 33  0     1  0  0  0  0  0999 V2000
   -4.0702   -3.8485    1.4554 H   0  0  0  0  0  0  0  0  0  0  0  0
   -4.0012   -2.9605    0.8284 C   0  0  0  0  0  0  0  0  0  0  0  0
   -4.7652   -2.2435    1.1234 H   0  0  0  0  0  0  0  0  0  0  0  0
   -4.1352   -3.2385   -0.2156 H   0  0  0  0  0  0  0  0  0  0  0  0
   -2.6362   -2.3395    1.0094 C   0  0  0  0  0  0  0  0  0  0  0  0
   -1.8292   -2.8395    1.7814 O   0  0  0  0  0  0  0  0  0  0  0  0
   -2.3832   -1.2445    0.2964 N   0  0  0  0  0  0  0  0  0  0  0  0
   -3.1102   -0.8685   -0.2946 H   0  0  0  0  0  0  0  0  0  0  0  0
   -1.1292   -0.4875    0.3524 C   0  0  1  0  0  0  0  0  0  0  0  0
   -0.3087   -1.1556    0.0882 H   0  0  0  0  0  0  0  0  0  0  0  0
   -1.1749    0.6534   -0.6787 C   0  0  0  0  0  0  0  0  0  0  0  0
   -0.5560    0.3823   -1.5349 H   0  0  0  0  0  0  0  0  0  0  0  0
   -2.1994    0.7642   -1.0379 H   0  0  0  0  0  0  0  0  0  0  0  0
   -0.6832    1.9852   -0.1453 C   0  0  0  0  0  0  0  0  0  0  0  0
   -0.9526    3.1764   -0.8486 C   0  0  0  0  0  0  0  0  0  0  0  0
   -1.4900    3.1412   -1.7872 H   0  0  0  0  0  0  0  0  0  0  0  0
   -0.5289    4.4149   -0.3285 C   0  0  0  0  0  0  0  0  0  0  0  0
   -0.7355    5.3249   -0.8704 H   0  0  0  0  0  0  0  0  0  0  0  0
    0.1633    4.4621    0.9012 C   0  0  0  0  0  0  0  0  0  0  0  0
    0.5736    5.6517    1.4127 O   0  0  0  0  0  0  0  0  0  0  0  0
    0.4176    6.3779    0.8075 H   0  0  0  0  0  0  0  0  0  0  0  0
    0.4278    3.2695    1.6060 C   0  0  0  0  0  0  0  0  0  0  0  0
    0.9617    3.3181    2.5431 H   0  0  0  0  0  0  0  0  0  0  0  0
    0.0070    2.0327    1.0813 C   0  0  0  0  0  0  0  0  0  0  0  0
    0.2186    1.1160    1.6188 H   0  0  0  0  0  0  0  0  0  0  0  0
   -0.8664    0.0378    1.7736 C   0  0  0  0  0  0  0  0  0  0  0  0
    0.2529   -0.0672    2.2760 O   0  0  0  0  0  0  0  0  0  0  0  0
   -1.8947    0.5991    2.4221 N   0  0  0  0  0  0  0  0  0  0  0  0
   -2.7942    0.5936    1.9635 H   0  0  0  0  0  0  0  0  0  0  0  0
   -1.8170    1.1453    3.7750 C   0  0  0  0  0  0  0  0  0  0  0  0
   -0.9697    1.8290    3.8506 H   0  0  0  0  0  0  0  0  0  0  0  0
   -2.7354    1.6828    4.0167 H   0  0  0  0  0  0  0  0  0  0  0  0
   -1.6754    0.3334    4.4914 H   0  0  0  0  0  0  0  0  0  0  0  0
  5  6  2  0  0  0  0
  5  7  1  0  0  0  0
  2  3  1  0  0  0  0
  2  4  1  0  0  0  0
  2  5  1  0  0  0  0
  1  2  1  0  0  0  0
 26 27  2  0  0  0  0
 26 28  1  0  0  0  0
 24 25  1  0  0  0  0
 22 23  1  0  0  0  0
 22 24  2  0  0  0  0
 20 21  1  0  0  0  0
 19 20  1  0  0  0  0
 19 22  1  0  0  0  0
 17 18  1  0  0  0  0
 17 19  2  0  0  0  0
 15 16  1  0  0  0  0
 15 17  1  0  0  0  0
 14 15  2  0  0  0  0
 14 24  1  0  0  0  0
 11 12  1  0  0  0  0
 11 13  1  0  0  0  0
 11 14  1  0  0  0  0
  9 10  1  0  0  0  0
  9 11  1  0  0  0  0
  9 26  1  0  0  0  0
  7  8  1  0  0  0  0
  7  9  1  0  0  0  0
 30 31  1  0  0  0  0
 30 32  1  0  0  0  0
 30 33  1  0  0  0  0
 28 29  1  0  0  0  0
 28 30  1  0  0  0  0
M  END
$$$$
default_name
  -OEChem-02102213163D

 33 33  0     1  0  0  0  0  0999 V2000
   -4.0702   -3.8485    1.4554 H   0  0  0  0  0  0  0  0  0  0  0  0
   -4.0012   -2.9605    0.8284 C   0  0  0  0  0  0  0  0  0  0  0  0
   -4.7652   -2.2435    1.1234 H   0  0  0  0  0  0  0  0  0  0  0  0
   -4.1352   -3.2385   -0.2156 H   0  0  0  0  0  0  0  0  0  0  0  0
   -2.6362   -2.3395    1.0094 C   0  0  0  0  0  0  0  0  0  0  0  0
   -1.8292   -2.8395    1.7814 O   0  0  0  0  0  0  0  0  0  0  0  0
   -2.3832   -1.2445    0.2964 N   0  0  0  0  0  0  0  0  0  0  0  0
   -3.1102   -0.8685   -0.2946 H   0  0  0  0  0  0  0  0  0  0  0  0
   -1.1292   -0.4875    0.3524 C   0  0  1  0  0  0  0  0  0  0  0  0
   -0.3087   -1.1556    0.0882 H   0  0  0  0  0  0  0  0  0  0  0  0
   -1.1749    0.6534   -0.6787 C   0  0  0  0  0  0  0  0  0  0  0  0
   -0.5560    0.3823   -1.5349 H   0  0  0  0  0  0  0  0  0  0  0  0
   -2.1994    0.7642   -1.0379 H   0  0  0  0  0  0  0  0  0  0  0  0
   -0.6832    1.9852   -0.1453 C   0  0  0  0  0  0  0  0  0  0  0  0
   -1.2038    3.1916   -0.6549 C   0  0  0  0  0  0  0  0  0  0  0  0
   -1.9390    3.1714   -1.4487 H   0  0  0  0  0  0  0  0  0  0  0  0
   -0.7736    4.4249   -0.1280 C   0  0  0  0  0  0  0  0  0  0  0  0
   -1.1732    5.3469   -0.5217 H   0  0  0  0  0  0  0  0  0  0  0  0
    0.1780    4.4512    0.9148 C   0  0  0  0  0  0  0  0  0  0  0  0
    0.5972    5.6353    1.4317 O   0  0  0  0  0  0  0  0  0  0  0  0
    0.2470    6.3846    0.9481 H   0  0  0  0  0  0  0  0  0  0  0  0
    0.6943    3.2428    1.4268 C   0  0  0  0  0  0  0  0  0  0  0  0
    1.4246    3.2761    2.2212 H   0  0  0  0  0  0  0  0  0  0  0  0
    0.2656    2.0118    0.8950 C   0  0  0  0  0  0  0  0  0  0  0  0
    0.6696    1.0841    1.2826 H   0  0  0  0  0  0  0  0  0  0  0  0
   -0.8664    0.0378    1.7736 C   0  0  0  0  0  0  0  0  0  0  0  0
    0.2529   -0.0672    2.2760 O   0  0  0  0  0  0  0  0  0  0  0  0
   -1.8947    0.5991    2.4221 N   0  0  0  0  0  0  0  0  0  0  0  0
   -2.7942    0.5936    1.9635 H   0  0  0  0  0  0  0  0  0  0  0  0
   -1.8170    1.1453    3.7750 C   0  0  0  0  0  0  0  0  0  0  0  0
   -0.9697    1.8290    3.8506 H   0  0  0  0  0  0  0  0  0  0  0  0
   -2.7354    1.6828    4.0167 H   0  0  0  0  0  0  0  0  0  0  0  0
   -1.6754    0.3334    4.4914 H   0  0  0  0  0  0  0  0  0  0  0  0
  5  6  2  0  0  0  0
  5  7  1  0  0  0  0
  2  3  1  0  0  0  0
  2  4  1  0  0  0  0
  2  5  1  0  0  0  0
  1  2  1  0  0  0  0
 26 27  2  0  0  0  0
 26 28  1  0  0  0  0
 24 25  1  0  0  0  0
 22 23  1  0  0  0  0
 22 24  2  0  0  0  0
 20 21  1  0  0  0  0
 19 20  1  0  0  0  0
 19 22  1  0  0  0  0
 17 18  1  0  0  0  0
 17 19  2  0  0  0  0
 15 16  1  0  0  0  0
 15 17  1  0  0  0  0
 14 15  2  0  0  0  0
 14 24  1  0  0  0  0
 11 12  1  0  0  0  0
 11 13  1  0  0  0  0
 11 14  1  0  0  0  0
  9 10  1  0  0  0  0
  9 11  1  0  0  0  0
  9 26  1  0  0  0  0
  7  8  1  0  0  0  0
  7  9  1  0  0  0  0
 30 31  1  0  0  0  0
 30 32  1  0  0  0  0
 30 33  1  0  0  0  0
 28 29  1  0  0  0  0
 28 30  1  0  0  0  0
M  END
$$$$
default_name
  -OEChem-02102213163D

 33 33  0     1  0  0  0  0  0999 V2000
   -4.0702   -3.8485    1.4554 H   0  0  0  0  0  0  0  0  0  0  0  0
   -4.0012   -2.9605    0.8284 C   0  0  0  0  0  0  0  0  0  0  0  0
   -4.7652   -2.2435    1.1234 H   0  0  0  0  0  0  0  0  0  0  0  0
   -4.1352   -3.2385   -0.2156 H   0  0  0  0  0  0  0  0  0  0  0  0
   -2.6362   -2.3395    1.0094 C   0  0  0  0  0  0  0  0  0  0  0  0
   -1.8292   -2.8395    1.7814 O   0  0  0  0  0  0  0  0  0  0  0  0
   -2.3832   -1.2445    0.2964 N   0  0  0  0  0  0  0  0  0  0  0  0
   -3.1102   -0.8685   -0.2946 H   0  0  0  0  0  0  0  0  0  0  0  0
   -1.1292   -0.4875    0.3524 C   0  0  1  0  0  0  0  0  0  0  0  0
   -0.3087   -1.1556    0.0882 H   0  0  0  0  0  0  0  0  0  0  0  0
   -1.1749    0.6534   -0.6787 C   0  0  0  0  0  0  0  0  0  0  0  0
   -0.5560    0.3823   -1.5349 H   0  0  0  0  0  0  0  0  0  0  0  0
   -2.1994    0.7642   -1.0379 H   0  0  0  0  0  0  0  0  0  0  0  0
   -0.6832    1.9852   -0.1453 C   0  0  0  0  0  0  0  0  0  0  0  0
   -1.4039    3.1672   -0.4094 C   0  0  0  0  0  0  0  0  0  0  0  0
   -2.2985    3.1313   -1.0172 H   0  0  0  0  0  0  0  0  0  0  0  0
   -0.9652    4.3955    0.1221 C   0  0  0  0  0  0  0  0  0  0  0  0
   -1.5187    5.2989   -0.0835 H   0  0  0  0  0  0  0  0  0  0  0  0
    0.1962    4.4409    0.9237 C   0  0  0  0  0  0  0  0  0  0  0  0
    0.6258    5.6201    1.4433 O   0  0  0  0  0  0  0  0  0  0  0  0
    0.1136    6.3638    1.1231 H   0  0  0  0  0  0  0  0  0  0  0  0
    0.9134    3.2564    1.1910 C   0  0  0  0  0  0  0  0  0  0  0  0
    1.8024    3.3046    1.8016 H   0  0  0  0  0  0  0  0  0  0  0  0
    0.4750    2.0308    0.6545 C   0  0  0  0  0  0  0  0  0  0  0  0
    1.0317    1.1226    0.8526 H   0  0  0  0  0  0  0  0  0  0  0  0
   -0.8664    0.0378    1.7736 C   0  0  0  0  0  0  0  0  0  0  0  0
    0.2529   -0.0672    2.2760 O   0  0  0  0  0  0  0  0  0  0  0  0
   -1.8947    0.5991    2.4221 N   0  0  0  0  0  0  0  0  0  0  0  0
   -2.7942    0.5936    1.9635 H   0  0  0  0  0  0  0  0  0  0  0  0
   -1.8170    1.1453    3.7750 C   0  0  0  0  0  0  0  0  0  0  0  0
   -0.9697    1.8290    3.8506 H   0  0  0  0  0  0  0  0  0  0  0  0
   -2.7354    1.6828    4.0167 H   0  0  0  0  0  0  0  0  0  0  0  0
   -1.6754    0.3334    4.4914 H   0  0  0  0  0  0  0  0  0  0  0  0
  5  6  2  0  0  0  0
  5  7  1  0  0  0  0
  2  3  1  0  0  0  0
  2  4  1  0  0  0  0
  2  5  1  0  0  0  0
  1  2  1  0  0  0  0
 26 27  2  0  0  0  0
 26 28  1  0  0  0  0
 24 25  1  0  0  0  0
 22 23  1  0  0  0  0
 22 24  2  0  0  0  0
 20 21  1  0  0  0  0
 19 20  1  0  0  0  0
 19 22  1  0  0  0  0
 17 18  1  0  0  0  0
 17 19  2  0  0  0  0
 15 16  1  0  0  0  0
 15 17  1  0  0  0  0
 14 15  2  0  0  0  0
 14 24  1  0  0  0  0
 11 12  1  0  0  0  0
 11 13  1  0  0  0  0
 11 14  1  0  0  0  0
  9 10  1  0  0  0  0
  9 11  1  0  0  0  0
  9 26  1  0  0  0  0
  7  8  1  0  0  0  0
  7  9  1  0  0  0  0
 30 31  1  0  0  0  0
 30 32  1  0  0  0  0
 30 33  1  0  0  0  0
 28 29  1  0  0  0  0
 28 30  1  0  0  0  0
M  END
$$$$
default_name
  -OEChem-02102213163D

 33 33  0     1  0  0  0  0  0999 V2000
   -4.0702   -3.8485    1.4554 H   0  0  0  0  0  0  0  0  0  0  0  0
   -4.0012   -2.9605    0.8284 C   0  0  0  0  0  0  0  0  0  0  0  0
   -4.7652   -2.2435    1.1234 H   0  0  0  0  0  0  0  0  0  0  0  0
   -4.1352   -3.2385   -0.2156 H   0  0  0  0  0  0  0  0  0  0  0  0
   -2.6362   -2.3395    1.0094 C   0  0  0  0  0  0  0  0  0  0  0  0
   -1.8292   -2.8395    1.7814 O   0  0  0  0  0  0  0  0  0  0  0  0
   -2.3832   -1.2445    0.2964 N   0  0  0  0  0  0  0  0  0  0  0  0
   -3.1102   -0.8685   -0.2946 H   0  0  0  0  0  0  0  0  0  0  0  0
   -1.1292   -0.4875    0.3524 C   0  0  1  0  0  0  0  0  0  0  0  0
   -0.3087   -1.1556    0.0882 H   0  0  0  0  0  0  0  0  0  0  0  0
   -1.1749    0.6534   -0.6787 C   0  0  0  0  0  0  0  0  0  0  0  0
   -0.5560    0.3823   -1.5349 H   0  0  0  0  0  0  0  0  0  0  0  0
   -2.1994    0.7642   -1.0379 H   0  0  0  0  0  0  0  0  0  0  0  0
   -0.6832    1.9852   -0.1453 C   0  0  0  0  0  0  0  0  0  0  0  0
   -1.5391    3.1047   -0.1289 C   0  0  0  0  0  0  0  0  0  0  0  0
   -2.5440    3.0236   -0.5221 H   0  0  0  0  0  0  0  0  0  0  0  0
   -1.0909    4.3287    0.4048 C   0  0  0  0  0  0  0  0  0  0  0  0
   -1.7484    5.1844    0.4143 H   0  0  0  0  0  0  0  0  0  0  0  0
    0.2168    4.4319    0.9272 C   0  0  0  0  0  0  0  0  0  0  0  0
    0.6575    5.6070    1.4468 O   0  0  0  0  0  0  0  0  0  0  0  0
    0.0264    6.3168    1.3208 H   0  0  0  0  0  0  0  0  0  0  0  0
    1.0703    3.3092    0.9144 C   0  0  0  0  0  0  0  0  0  0  0  0
    2.0694    3.4018    1.3128 H   0  0  0  0  0  0  0  0  0  0  0  0
    0.6209    2.0884    0.3762 C   0  0  0  0  0  0  0  0  0  0  0  0
    1.2803    1.2289    0.3583 H   0  0  0  0  0  0  0  0  0  0  0  0
   -0.8664    0.0378    1.7736 C   0  0  0  0  0  0  0  0  0  0  0  0
    0.2529   -0.0672    2.2760 O   0  0  0  0  0  0  0  0  0  0  0  0
   -1.8947    0.5991    2.4221 N   0  0  0  0  0  0  0  0  0  0  0  0
   -2.7942    0.5936    1.9635 H   0  0  0  0  0  0  0  0  0  0  0  0
   -1.8170    1.1453    3.7750 C   0  0  0  0  0  0  0  0  0  0  0  0
   -0.9697    1.8290    3.8506 H   0  0  0  0  0  0  0  0  0  0  0  0
   -2.7354    1.6828    4.0167 H   0  0  0  0  0  0  0  0  0  0  0  0
   -1.6754    0.3334    4.4914 H   0  0  0  0  0  0  0  0  0  0  0  0
  5  6  2  0  0  0  0
  5  7  1  0  0  0  0
  2  3  1  0  0  0  0
  2  4  1  0  0  0  0
  2  5  1  0  0  0  0
  1  2  1  0  0  0  0
 26 27  2  0  0  0  0
 26 28  1  0  0  0  0
 24 25  1  0  0  0  0
 22 23  1  0  0  0  0
 22 24  2  0  0  0  0
 20 21  1  0  0  0  0
 19 20  1  0  0  0  0
 19 22  1  0  0  0  0
 17 18  1  0  0  0  0
 17 19  2  0  0  0  0
 15 16  1  0  0  0  0
 15 17  1  0  0  0  0
 14 15  2  0  0  0  0
 14 24  1  0  0  0  0
 11 12  1  0  0  0  0
 11 13  1  0  0  0  0
 11 14  1  0  0  0  0
  9 10  1  0  0  0  0
  9 11  1  0  0  0  0
  9 26  1  0  0  0  0
  7  8  1  0  0  0  0
  7  9  1  0  0  0  0
 30 31  1  0  0  0  0
 30 32  1  0  0  0  0
 30 33  1  0  0  0  0
 28 29  1  0  0  0  0
 28 30  1  0  0  0  0
M  END
$$$$
default_name
  -OEChem-02102213163D

 33 33  0     1  0  0  0  0  0999 V2000
   -4.0702   -3.8485    1.4554 H   0  0  0  0  0  0  0  0  0  0  0  0
   -4.0012   -2.9605    0.8284 C   0  0  0  0  0  0  0  0  0  0  0  0
   -4.7652   -2.2435    1.1234 H   0  0  0  0  0  0  0  0  0  0  0  0
   -4.1352   -3.2385   -0.2156 H   0  0  0  0  0  0  0  0  0  0  0  0
   -2.6362   -2.3395    1.0094 C   0  0  0  0  0  0  0  0  0  0  0  0
   -1.8292   -2.8395    1.7814 O   0  0  0  0  0  0  0  0  0  0  0  0
   -2.3832   -1.2445    0.2964 N   0  0  0  0  0  0  0  0  0  0  0  0
   -3.1102   -0.8685   -0.2946 H   0  0  0  0  0  0  0  0  0  0  0  0
   -1.1292   -0.4875    0.3524 C   0  0  1  0  0  0  0  0  0  0  0  0
   -0.3087   -1.1556    0.0882 H   0  0  0  0  0  0  0  0  0  0  0  0
   -1.1749    0.6534   -0.6787 C   0  0  0  0  0  0  0  0  0  0  0  0
   -0.5560    0.3823   -1.5349 H   0  0  0  0  0  0  0  0  0  0  0  0
   -2.1994    0.7642   -1.0379 H   0  0  0  0  0  0  0  0  0  0  0  0
   -0.6832    1.9852   -0.1453 C   0  0  0  0  0  0  0  0  0  0  0  0
   -1.6003    3.0086    0.1676 C   0  0  0  0  0  0  0  0  0  0  0  0
   -2.6588    2.8558    0.0030 H   0  0  0  0  0  0  0  0  0  0  0  0
   -1.1419    4.2290    0.7008 C   0  0  0  0  0  0  0  0  0  0  0  0
   -1.8468    5.0111    0.9377 H   0  0  0  0  0  0  0  0  0  0  0  0
    0.2383    4.4248    0.9252 C   0  0  0  0  0  0  0  0  0  0  0  0
    0.6901    5.5970    1.4418 O   0  0  0  0  0  0  0  0  0  0  0  0
   -0.0086    6.2469    1.5276 H   0  0  0  0  0  0  0  0  0  0  0  0
    1.1541    3.3977    0.6161 C   0  0  0  0  0  0  0  0  0  0  0  0
    2.2073    3.5611    0.7881 H   0  0  0  0  0  0  0  0  0  0  0  0
    0.6932    2.1807    0.0790 C   0  0  0  0  0  0  0  0  0  0  0  0
    1.3983    1.3956   -0.1668 H   0  0  0  0  0  0  0  0  0  0  0  0
   -0.8664    0.0378    1.7736 C   0  0  0  0  0  0  0  0  0  0  0  0
    0.2529   -0.0672    2.2760 O   0  0  0  0  0  0  0  0  0  0  0  0
   -1.8947    0.5991    2.4221 N   0  0  0  0  0  0  0  0  0  0  0  0
   -2.7942    0.5936    1.9635 H   0  0  0  0  0  0  0  0  0  0  0  0
   -1.8170    1.1453    3.7750 C   0  0  0  0  0  0  0  0  0  0  0  0
   -0.9697    1.8290    3.8506 H   0  0  0  0  0  0  0  0  0  0  0  0
   -2.7354    1.6828    4.0167 H   0  0  0  0  0  0  0  0  0  0  0  0
   -1.6754    0.3334    4.4914 H   0  0  0  0  0  0  0  0  0  0  0  0
  5  6  2  0  0  0  0
  5  7  1  0  0  0  0
  2  3  1  0  0  0  0
  2  4  1  0  0  0  0
  2  5  1  0  0  0  0
  1  2  1  0  0  0  0
 26 27  2  0  0  0  0
 26 28  1  0  0  0  0
 24 25  1  0  0  0  0
 22 23  1  0  0  0  0
 22 24  2  0  0  0  0
 20 21  1  0  0  0  0
 19 20  1  0  0  0  0
 19 22  1  0  0  0  0
 17 18  1  0  0  0  0
 17 19  2  0  0  0  0
 15 16  1  0  0  0  0
 15 17  1  0  0  0  0
 14 15  2  0  0  0  0
 14 24  1  0  0  0  0
 11 12  1  0  0  0  0
 11 13  1  0  0  0  0
 11 14  1  0  0  0  0
  9 10  1  0  0  0  0
  9 11  1  0  0  0  0
  9 26  1  0  0  0  0
  7  8  1  0  0  0  0
  7  9  1  0  0  0  0
 30 31  1  0  0  0  0
 30 32  1  0  0  0  0
 30 33  1  0  0  0  0
 28 29  1  0  0  0  0
 28 30  1  0  0  0  0
M  END
$$$$
default_name
  -OEChem-02102213163D

 33 33  0     1  0  0  0  0  0999 V2000
   -4.0702   -3.8485    1.4554 H   0  0  0  0  0  0  0  0  0  0  0  0
   -4.0012   -2.9605    0.8284 C   0  0  0  0  0  0  0  0  0  0  0  0
   -4.7652   -2.2435    1.1234 H   0  0  0  0  0  0  0  0  0  0  0  0
   -4.1352   -3.2385   -0.2156 H   0  0  0  0  0  0  0  0  0  0  0  0
   -2.6362   -2.3395    1.0094 C   0  0  0  0  0  0  0  0  0  0  0  0
   -1.8292   -2.8395    1.7814 O   0  0  0  0  0  0  0  0  0  0  0  0
   -2.3832   -1.2445    0.2964 N   0  0  0  0  0  0  0  0  0  0  0  0
   -3.1102   -0.8685   -0.2946 H   0  0  0  0  0  0  0  0  0  0  0  0
   -1.1292   -0.4875    0.3524 C   0  0  1  0  0  0  0  0  0  0  0  0
   -0.3087   -1.1556    0.0882 H   0  0  0  0  0  0  0  0  0  0  0  0
   -1.1749    0.6534   -0.6787 C   0  0  0  0  0  0  0  0  0  0  0  0
   -0.5560    0.3823   -1.5349 H   0  0  0  0  0  0  0  0  0  0  0  0
   -2.1994    0.7642   -1.0379 H   0  0  0  0  0  0  0  0  0  0  0  0
   -0.6832    1.9852   -0.1453 C   0  0  0  0  0  0  0  0  0  0  0  0
   -1.5832    2.8853    0.4598 C   0  0  0  0  0  0  0  0  0  0  0  0
   -2.6351    2.6391    0.5221 H   0  0  0  0  0  0  0  0  0  0  0  0
   -1.1148    4.1032    0.9899 C   0  0  0  0  0  0  0  0  0  0  0  0
   -1.8070    4.7908    1.4511 H   0  0  0  0  0  0  0  0  0  0  0  0
    0.2593    4.4200    0.9178 C   0  0  0  0  0  0  0  0  0  0  0  0
    0.7214    5.5907    1.4287 O   0  0  0  0  0  0  0  0  0  0  0  0
    0.0110    6.1588    1.7295 H   0  0  0  0  0  0  0  0  0  0  0  0
    1.1592    3.5159    0.3164 C   0  0  0  0  0  0  0  0  0  0  0  0
    2.2068    3.7714    0.2634 H   0  0  0  0  0  0  0  0  0  0  0  0
    0.6872    2.3014   -0.2167 C   0  0  0  0  0  0  0  0  0  0  0  0
    1.3778    1.6115   -0.6869 H   0  0  0  0  0  0  0  0  0  0  0  0
   -0.8664    0.0378    1.7736 C   0  0  0  0  0  0  0  0  0  0  0  0
    0.2529   -0.0672    2.2760 O   0  0  0  0  0  0  0  0  0  0  0  0
   -1.8947    0.5991    2.4221 N   0  0  0  0  0  0  0  0  0  0  0  0
   -2.7942    0.5936    1.9635 H   0  0  0  0  0  0  0  0  0  0  0  0
   -1.8170    1.1453    3.7750 C   0  0  0  0  0  0  0  0  0  0  0  0
   -0.9697    1.8290    3.8506 H   0  0  0  0  0  0  0  0  0  0  0  0
   -2.7354    1.6828    4.0167 H   0  0  0  0  0  0  0  0  0  0  0  0
   -1.6754    0.3334    4.4914 H   0  0  0  0  0  0  0  0  0  0  0  0
  5  6  2  0  0  0  0
  5  7  1  0  0  0  0
  2  3  1  0  0  0  0
  2  4  1  0  0  0  0
  2  5  1  0  0  0  0
  1  2  1  0  0  0  0
 26 27  2  0  0  0  0
 26 28  1  0  0  0  0
 24 25  1  0  0  0  0
 22 23  1  0  0  0  0
 22 24  2  0  0  0  0
 20 21  1  0  0  0  0
 19 20  1  0  0  0  0
 19 22  1  0  0  0  0
 17 18  1  0  0  0  0
 17 19  2  0  0  0  0
 15 16  1  0  0  0  0
 15 17  1  0  0  0  0
 14 15  2  0  0  0  0
 14 24  1  0  0  0  0
 11 12  1  0  0  0  0
 11 13  1  0  0  0  0
 11 14  1  0  0  0  0
  9 10  1  0  0  0  0
  9 11  1  0  0  0  0
  9 26  1  0  0  0  0
  7  8  1  0  0  0  0
  7  9  1  0  0  0  0
 30 31  1  0  0  0  0
 30 32  1  0  0  0  0
 30 33  1  0  0  0  0
 28 29  1  0  0  0  0
 28 30  1  0  0  0  0
M  END
$$$$
default_name
  -OEChem-02102213163D

 33 33  0     1  0  0  0  0  0999 V2000
   -4.0702   -3.8485    1.4554 H   0  0  0  0  0  0  0  0  0  0  0  0
   -4.0012   -2.9605    0.8284 C   0  0  0  0  0  0  0  0  0  0  0  0
   -4.7652   -2.2435    1.1234 H   0  0  0  0  0  0  0  0  0  0  0  0
   -4.1352   -3.2385   -0.2156 H   0  0  0  0  0  0  0  0  0  0  0  0
   -2.6362   -2.3395    1.0094 C   0  0  0  0  0  0  0  0  0  0  0  0
   -1.8292   -2.8395    1.7814 O   0  0  0  0  0  0  0  0  0  0  0  0
   -2.3832   -1.2445    0.2964 N   0  0  0  0  0  0  0  0  0  0  0  0
   -3.1102   -0.8685   -0.2946 H   0  0  0  0  0  0  0  0  0  0  0  0
   -1.1292   -0.4875    0.3524 C   0  0  1  0  0  0  0  0  0  0  0  0
   -0.3087   -1.1556    0.0882 H   0  0  0  0  0  0  0  0  0  0  0  0
   -1.1749    0.6534   -0.6787 C   0  0  0  0  0  0  0  0  0  0  0  0
   -0.5560    0.3823   -1.5349 H   0  0  0  0  0  0  0  0  0  0  0  0
   -2.1994    0.7642   -1.0379 H   0  0  0  0  0  0  0  0  0  0  0  0
   -0.6832    1.9852   -0.1453 C   0  0  0  0  0  0  0  0  0  0  0  0
   -1.4891    2.7432    0.7278 C   0  0  0  0  0  0  0  0  0  0  0  0
   -2.4745    2.3884    1.0000 H   0  0  0  0  0  0  0  0  0  0  0  0
   -1.0115    3.9599    1.2525 C   0  0  0  0  0  0  0  0  0  0  0  0
   -1.6319    4.5385    1.9195 H   0  0  0  0  0  0  0  0  0  0  0  0
    0.2783    4.4179    0.9055 C   0  0  0  0  0  0  0  0  0  0  0  0
    0.7492    5.5885    1.4085 O   0  0  0  0  0  0  0  0  0  0  0  0
    0.0837    6.0586    1.9126 H   0  0  0  0  0  0  0  0  0  0  0  0
    1.0852    3.6557    0.0356 C   0  0  0  0  0  0  0  0  0  0  0  0
    2.0679    4.0186   -0.2257 H   0  0  0  0  0  0  0  0  0  0  0  0
    0.6032    2.4422   -0.4908 C   0  0  0  0  0  0  0  0  0  0  0  0
    1.2202    1.8617   -1.1664 H   0  0  0  0  0  0  0  0  0  0  0  0
   -0.8664    0.0378    1.7736 C   0  0  0  0  0  0  0  0  0  0  0  0
    0.2529   -0.0672    2.2760 O   0  0  0  0  0  0  0  0  0  0  0  0
   -1.8947    0.5991    2.4221 N   0  0  0  0  0  0  0  0  0  0  0  0
   -2.7942    0.5936    1.9635 H   0  0  0  0  0  0  0  0  0  0  0  0
   -1.8170    1.1453    3.7750 C   0  0  0  0  0  0  0  0  0  0  0  0
   -0.9697    1.8290    3.8506 H   0  0  0  0  0  0  0  0  0  0  0  0
   -2.7354    1.6828    4.0167 H   0  0  0  0  0  0  0  0  0  0  0  0
   -1.6754    0.3334    4.4914 H   0  0  0  0  0  0  0  0  0  0  0  0
  5  6  2  0  0  0  0
  5  7  1  0  0  0  0
  2  3  1  0  0  0  0
  2  4  1  0  0  0  0
  2  5  1  0  0  0  0
  1  2  1  0  0  0  0
 26 27  2  0  0  0  0
 26 28  1  0  0  0  0
 24 25  1  0  0  0  0
 22 23  1  0  0  0  0
 22 24  2  0  0  0  0
 20 21  1  0  0  0  0
 19 20  1  0  0  0  0
 19 22  1  0  0  0  0
 17 18  1  0  0  0  0
 17 19  2  0  0  0  0
 15 16  1  0  0  0  0
 15 17  1  0  0  0  0
 14 15  2  0  0  0  0
 14 24  1  0  0  0  0
 11 12  1  0  0  0  0
 11 13  1  0  0  0  0
 11 14  1  0  0  0  0
  9 10  1  0  0  0  0
  9 11  1  0  0  0  0
  9 26  1  0  0  0  0
  7  8  1  0  0  0  0
  7  9  1  0  0  0  0
 30 31  1  0  0  0  0
 30 32  1  0  0  0  0
 30 33  1  0  0  0  0
 28 29  1  0  0  0  0
 28 30  1  0  0  0  0
M  END
$$$$
default_name
  -OEChem-02102213163D

 33 33  0     1  0  0  0  0  0999 V2000
   -4.0702   -3.8485    1.4554 H   0  0  0  0  0  0  0  0  0  0  0  0
   -4.0012   -2.9605    0.8284 C   0  0  0  0  0  0  0  0  0  0  0  0
   -4.7652   -2.2435    1.1234 H   0  0  0  0  0  0  0  0  0  0  0  0
   -4.1352   -3.2385   -0.2156 H   0  0  0  0  0  0  0  0  0  0  0  0
   -2.6362   -2.3395    1.0094 C   0  0  0  0  0  0  0  0  0  0  0  0
   -1.8292   -2.8395    1.7814 O   0  0  0  0  0  0  0  0  0  0  0  0
   -2.3832   -1.2445    0.2964 N   0  0  0  0  0  0  0  0  0  0  0  0
   -3.1102   -0.8685   -0.2946 H   0  0  0  0  0  0  0  0  0  0  0  0
   -1.1292   -0.4875    0.3524 C   0  0  1  0  0  0  0  0  0  0  0  0
   -0.3087   -1.1556    0.0882 H   0  0  0  0  0  0  0  0  0  0  0  0
   -1.1749    0.6534   -0.6787 C   0  0  0  0  0  0  0  0  0  0  0  0
   -0.5560    0.3823   -1.5349 H   0  0  0  0  0  0  0  0  0  0  0  0
   -2.1994    0.7642   -1.0379 H   0  0  0  0  0  0  0  0  0  0  0  0
   -0.6832    1.9852   -0.1453 C   0  0  0  0  0  0  0  0  0  0  0  0
   -1.3244    2.5920    0.9533 C   0  0  0  0  0  0  0  0  0  0  0  0
   -2.1880    2.1207    1.4041 H   0  0  0  0  0  0  0  0  0  0  0  0
   -0.8390    3.8088    1.4706 C   0  0  0  0  0  0  0  0  0  0  0  0
   -1.3333    4.2715    2.3109 H   0  0  0  0  0  0  0  0  0  0  0  0
    0.2940    4.4187    0.8891 C   0  0  0  0  0  0  0  0  0  0  0  0
    0.7716    5.5907    1.3824 O   0  0  0  0  0  0  0  0  0  0  0  0
    0.2048    5.9531    2.0646 H   0  0  0  0  0  0  0  0  0  0  0  0
    0.9373    3.8075   -0.2071 C   0  0  0  0  0  0  0  0  0  0  0  0
    1.8000    4.2858   -0.6459 H   0  0  0  0  0  0  0  0  0  0  0  0
    0.4469    2.5936   -0.7247 C   0  0  0  0  0  0  0  0  0  0  0  0
    0.9361    2.1294   -1.5728 H   0  0  0  0  0  0  0  0  0  0  0  0
   -0.8664    0.0378    1.7736 C   0  0  0  0  0  0  0  0  0  0  0  0
    0.2529   -0.0672    2.2760 O   0  0  0  0  0  0  0  0  0  0  0  0
   -1.8947    0.5991    2.4221 N   0  0  0  0  0  0  0  0  0  0  0  0
   -2.7942    0.5936    1.9635 H   0  0  0  0  0  0  0  0  0  0  0  0
   -1.8170    1.1453    3.7750 C   0  0  0  0  0  0  0  0  0  0  0  0
   -0.9697    1.8290    3.8506 H   0  0  0  0  0  0  0  0  0  0  0  0
   -2.7354    1.6828    4.0167 H   0  0  0  0  0  0  0  0  0  0  0  0
   -1.6754    0.3334    4.4914 H   0  0  0  0  0  0  0  0  0  0  0  0
  5  6  2  0  0  0  0
  5  7  1  0  0  0  0
  2  3  1  0  0  0  0
  2  4  1  0  0  0  0
  2  5  1  0  0  0  0
  1  2  1  0  0  0  0
 26 27  2  0  0  0  0
 26 28  1  0  0  0  0
 24 25  1  0  0  0  0
 22 23  1  0  0  0  0
 22 24  2  0  0  0  0
 20 21  1  0  0  0  0
 19 20  1  0  0  0  0
 19 22  1  0  0  0  0
 17 18  1  0  0  0  0
 17 19  2  0  0  0  0
 15 16  1  0  0  0  0
 15 17  1  0  0  0  0
 14 15  2  0  0  0  0
 14 24  1  0  0  0  0
 11 12  1  0  0  0  0
 11 13  1  0  0  0  0
 11 14  1  0  0  0  0
  9 10  1  0  0  0  0
  9 11  1  0  0  0  0
  9 26  1  0  0  0  0
  7  8  1  0  0  0  0
  7  9  1  0  0  0  0
 30 31  1  0  0  0  0
 30 32  1  0  0  0  0
 30 33  1  0  0  0  0
 28 29  1  0  0  0  0
 28 30  1  0  0  0  0
M  END
$$$$
default_name
  -OEChem-02102213163D

 33 33  0     1  0  0  0  0  0999 V2000
   -4.0702   -3.8485    1.4554 H   0  0  0  0  0  0  0  0  0  0  0  0
   -4.0012   -2.9605    0.8284 C   0  0  0  0  0  0  0  0  0  0  0  0
   -4.7652   -2.2435    1.1234 H   0  0  0  0  0  0  0  0  0  0  0  0
   -4.1352   -3.2385   -0.2156 H   0  0  0  0  0  0  0  0  0  0  0  0
   -2.6362   -2.3395    1.0094 C   0  0  0  0  0  0  0  0  0  0  0  0
   -1.8292   -2.8395    1.7814 O   0  0  0  0  0  0  0  0  0  0  0  0
   -2.3832   -1.2445    0.2964 N   0  0  0  0  0  0  0  0  0  0  0  0
   -3.1102   -0.8685   -0.2946 H   0  0  0  0  0  0  0  0  0  0  0  0
   -1.1292   -0.4875    0.3524 C   0  0  1  0  0  0  0  0  0  0  0  0
   -0.3087   -1.1556    0.0882 H   0  0  0  0  0  0  0  0  0  0  0  0
   -1.1749    0.6534   -0.6787 C   0  0  0  0  0  0  0  0  0  0  0  0
   -0.5560    0.3823   -1.5349 H   0  0  0  0  0  0  0  0  0  0  0  0
   -2.1994    0.7642   -1.0379 H   0  0  0  0  0  0  0  0  0  0  0  0
   -0.6832    1.9852   -0.1453 C   0  0  0  0  0  0  0  0  0  0  0  0
   -1.1002    2.4420    1.1211 C   0  0  0  0  0  0  0  0  0  0  0  0
   -1.7949    1.8544    1.7068 H   0  0  0  0  0  0  0  0  0  0  0  0
   -0.6090    3.6603    1.6294 C   0  0  0  0  0  0  0  0  0  0  0  0
   -0.9316    4.0079    2.5987 H   0  0  0  0  0  0  0  0  0  0  0  0
    0.3054    4.4222    0.8697 C   0  0  0  0  0  0  0  0  0  0  0  0
    0.7872    5.5970    1.3523 O   0  0  0  0  0  0  0  0  0  0  0  0
    0.3658    5.8494    2.1750 H   0  0  0  0  0  0  0  0  0  0  0  0
    0.7254    3.9611   -0.3951 C   0  0  0  0  0  0  0  0  0  0  0  0
    1.4215    4.5547   -0.9684 H   0  0  0  0  0  0  0  0  0  0  0  0
    0.2290    2.7452   -0.9024 C   0  0  0  0  0  0  0  0  0  0  0  0
    0.5450    2.3962   -1.8783 H   0  0  0  0  0  0  0  0  0  0  0  0
   -0.8664    0.0378    1.7736 C   0  0  0  0  0  0  0  0  0  0  0  0
    0.2529   -0.0672    2.2760 O   0  0  0  0  0  0  0  0  0  0  0  0
   -1.8947    0.5991    2.4221 N   0  0  0  0  0  0  0  0  0  0  0  0
   -2.7942    0.5936    1.9635 H   0  0  0  0  0  0  0  0  0  0  0  0
   -1.8170    1.1453    3.7750 C   0  0  0  0  0  0  0  0  0  0  0  0
   -0.9697    1.8290    3.8506 H   0  0  0  0  0  0  0  0  0  0  0  0
   -2.7354    1.6828    4.0167 H   0  0  0  0  0  0  0  0  0  0  0  0
   -1.6754    0.3334    4.4914 H   0  0  0  0  0  0  0  0  0  0  0  0
  5  6  2  0  0  0  0
  5  7  1  0  0  0  0
  2  3  1  0  0  0  0
  2  4  1  0  0  0  0
  2  5  1  0  0  0  0
  1  2  1  0  0  0  0
 26 27  2  0  0  0  0
 26 28  1  0  0  0  0
 24 25  1  0  0  0  0
 22 23  1  0  0  0  0
 22 24  2  0  0  0  0
 20 21  1  0  0  0  0
 19 20  1  0  0  0  0
 19 22  1  0  0  0  0
 17 18  1  0  0  0  0
 17 19  2  0  0  0  0
 15 16  1  0  0  0  0
 15 17  1  0  0  0  0
 14 15  2  0  0  0  0
 14 24  1  0  0  0  0
 11 12  1  0  0  0  0
 11 13  1  0  0  0  0
 11 14  1  0  0  0  0
  9 10  1  0  0  0  0
  9 11  1  0  0  0  0
  9 26  1  0  0  0  0
  7  8  1  0  0  0  0
  7  9  1  0  0  0  0
 30 31  1  0  0  0  0
 30 32  1  0  0  0  0
 30 33  1  0  0  0  0
 28 29  1  0  0  0  0
 28 30  1  0  0  0  0
M  END
$$$$
default_name
  -OEChem-02102213163D

 33 33  0     1  0  0  0  0  0999 V2000
   -4.0702   -3.8485    1.4554 H   0  0  0  0  0  0  0  0  0  0  0  0
   -4.0012   -2.9605    0.8284 C   0  0  0  0  0  0  0  0  0  0  0  0
   -4.7652   -2.2435    1.1234 H   0  0  0  0  0  0  0  0  0  0  0  0
   -4.1352   -3.2385   -0.2156 H   0  0  0  0  0  0  0  0  0  0  0  0
   -2.6362   -2.3395    1.0094 C   0  0  0  0  0  0  0  0  0  0  0  0
   -1.8292   -2.8395    1.7814 O   0  0  0  0  0  0  0  0  0  0  0  0
   -2.3832   -1.2445    0.2964 N   0  0  0  0  0  0  0  0  0  0  0  0
   -3.1102   -0.8685   -0.2946 H   0  0  0  0  0  0  0  0  0  0  0  0
   -1.1292   -0.4875    0.3524 C   0  0  1  0  0  0  0  0  0  0  0  0
   -0.3087   -1.1556    0.0882 H   0  0  0  0  0  0  0  0  0  0  0  0
   -1.1749    0.6534   -0.6787 C   0  0  0  0  0  0  0  0  0  0  0  0
   -0.5560    0.3823   -1.5349 H   0  0  0  0  0  0  0  0  0  0  0  0
   -2.1994    0.7642   -1.0379 H   0  0  0  0  0  0  0  0  0  0  0  0
   -0.6832    1.9852   -0.1453 C   0  0  0  0  0  0  0  0  0  0  0  0
   -0.8319    2.3035    1.2196 C   0  0  0  0  0  0  0  0  0  0  0  0
   -1.3223    1.6075    1.8875 H   0  0  0  0  0  0  0  0  0  0  0  0
   -0.3372    3.5245    1.7180 C   0  0  0  0  0  0  0  0  0  0  0  0
   -0.4542    3.7657    2.7633 H   0  0  0  0  0  0  0  0  0  0  0  0
    0.3117    4.4283    0.8488 C   0  0  0  0  0  0  0  0  0  0  0  0
    0.7948    5.6070    1.3203 O   0  0  0  0  0  0  0  0  0  0  0  0
    0.5560    5.7546    2.2363 H   0  0  0  0  0  0  0  0  0  0  0  0
    0.4639    4.1059   -0.5157 C   0  0  0  0  0  0  0  0  0  0  0  0
    0.9580    4.8071   -1.1713 H   0  0  0  0  0  0  0  0  0  0  0  0
   -0.0356    2.8868   -1.0118 C   0  0  0  0  0  0  0  0  0  0  0  0
    0.0735    2.6439   -2.0621 H   0  0  0  0  0  0  0  0  0  0  0  0
   -0.8664    0.0378    1.7736 C   0  0  0  0  0  0  0  0  0  0  0  0
    0.2529   -0.0672    2.2760 O   0  0  0  0  0  0  0  0  0  0  0  0
   -1.8947    0.5991    2.4221 N   0  0  0  0  0  0  0  0  0  0  0  0
   -2.7942    0.5936    1.9635 H   0  0  0  0  0  0  0  0  0  0  0  0
   -1.8170    1.1453    3.7750 C   0  0  0  0  0  0  0  0  0  0  0  0
   -0.9697    1.8290    3.8506 H   0  0  0  0  0  0  0  0  0  0  0  0
   -2.7354    1.6828    4.0167 H   0  0  0  0  0  0  0  0  0  0  0  0
   -1.6754    0.3334    4.4914 H   0  0  0  0  0  0  0  0  0  0  0  0
  5  6  2  0  0  0  0
  5  7  1  0  0  0  0
  2  3  1  0  0  0  0
  2  4  1  0  0  0  0
  2  5  1  0  0  0  0
  1  2  1  0  0  0  0
 26 27  2  0  0  0  0
 26 28  1  0  0  0  0
 24 25  1  0  0  0  0
 22 23  1  0  0  0  0
 22 24  2  0  0  0  0
 20 21  1  0  0  0  0
 19 20  1  0  0  0  0
 19 22  1  0  0  0  0
 17 18  1  0  0  0  0
 17 19  2  0  0  0  0
 15 16  1  0  0  0  0
 15 17  1  0  0  0  0
 14 15  2  0  0  0  0
 14 24  1  0  0  0  0
 11 12  1  0  0  0  0
 11 13  1  0  0  0  0
 11 14  1  0  0  0  0
  9 10  1  0  0  0  0
  9 11  1  0  0  0  0
  9 26  1  0  0  0  0
  7  8  1  0  0  0  0
  7  9  1  0  0  0  0
 30 31  1  0  0  0  0
 30 32  1  0  0  0  0
 30 33  1  0  0  0  0
 28 29  1  0  0  0  0
 28 30  1  0  0  0  0
M  END
$$$$
default_name
  -OEChem-02102213163D

 33 33  0     1  0  0  0  0  0999 V2000
   -4.0702   -3.8485    1.4554 H   0  0  0  0  0  0  0  0  0  0  0  0
   -4.0012   -2.9605    0.8284 C   0  0  0  0  0  0  0  0  0  0  0  0
   -4.7652   -2.2435    1.1234 H   0  0  0  0  0  0  0  0  0  0  0  0
   -4.1352   -3.2385   -0.2156 H   0  0  0  0  0  0  0  0  0  0  0  0
   -2.6362   -2.3395    1.0094 C   0  0  0  0  0  0  0  0  0  0  0  0
   -1.8292   -2.8395    1.7814 O   0  0  0  0  0  0  0  0  0  0  0  0
   -2.3832   -1.2445    0.2964 N   0  0  0  0  0  0  0  0  0  0  0  0
   -3.1102   -0.8685   -0.2946 H   0  0  0  0  0  0  0  0  0  0  0  0
   -1.1292   -0.4875    0.3524 C   0  0  1  0  0  0  0  0  0  0  0  0
   -0.3087   -1.1556    0.0882 H   0  0  0  0  0  0  0  0  0  0  0  0
   -1.1749    0.6534   -0.6787 C   0  0  0  0  0  0  0  0  0  0  0  0
   -0.5560    0.3823   -1.5349 H   0  0  0  0  0  0  0  0  0  0  0  0
   -2.1994    0.7642   -1.0379 H   0  0  0  0  0  0  0  0  0  0  0  0
   -0.6832    1.9852   -0.1453 C   0  0  0  0  0  0  0  0  0  0  0  0
   -0.5377    2.1859    1.2421 C   0  0  0  0  0  0  0  0  0  0  0  0
   -0.8022    1.3968    1.9338 H   0  0  0  0  0  0  0  0  0  0  0  0
   -0.0422    3.4106    1.7305 C   0  0  0  0  0  0  0  0  0  0  0  0
    0.0664    3.5614    2.7935 H   0  0  0  0  0  0  0  0  0  0  0  0
    0.3125    4.4365    0.8276 C   0  0  0  0  0  0  0  0  0  0  0  0
    0.7940    5.6201    1.2884 O   0  0  0  0  0  0  0  0  0  0  0  0
    0.7622    5.6752    2.2444 H   0  0  0  0  0  0  0  0  0  0  0  0
    0.1709    4.2321   -0.5606 C   0  0  0  0  0  0  0  0  0  0  0  0
    0.4413    5.0258   -1.2408 H   0  0  0  0  0  0  0  0  0  0  0  0
   -0.3290    3.0086   -1.0455 C   0  0  0  0  0  0  0  0  0  0  0  0
   -0.4463    2.8557   -2.1117 H   0  0  0  0  0  0  0  0  0  0  0  0
   -0.8664    0.0378    1.7736 C   0  0  0  0  0  0  0  0  0  0  0  0
    0.2529   -0.0672    2.2760 O   0  0  0  0  0  0  0  0  0  0  0  0
   -1.8947    0.5991    2.4221 N   0  0  0  0  0  0  0  0  0  0  0  0
   -2.7942    0.5936    1.9635 H   0  0  0  0  0  0  0  0  0  0  0  0
   -1.8170    1.1453    3.7750 C   0  0  0  0  0  0  0  0  0  0  0  0
   -0.9697    1.8290    3.8506 H   0  0  0  0  0  0  0  0  0  0  0  0
   -2.7354    1.6828    4.0167 H   0  0  0  0  0  0  0  0  0  0  0  0
   -1.6754    0.3334    4.4914 H   0  0  0  0  0  0  0  0  0  0  0  0
  5  6  2  0  0  0  0
  5  7  1  0  0  0  0
  2  3  1  0  0  0  0
  2  4  1  0  0  0  0
  2  5  1  0  0  0  0
  1  2  1  0  0  0  0
 26 27  2  0  0  0  0
 26 28  1  0  0  0  0
 24 25  1  0  0  0  0
 22 23  1  0  0  0  0
 22 24  2  0  0  0  0
 20 21  1  0  0  0  0
 19 20  1  0  0  0  0
 19 22  1  0  0  0  0
 17 18  1  0  0  0  0
 17 19  2  0  0  0  0
 15 16  1  0  0  0  0
 15 17  1  0  0  0  0
 14 15  2  0  0  0  0
 14 24  1  0  0  0  0
 11 12  1  0  0  0  0
 11 13  1  0  0  0  0
 11 14  1  0  0  0  0
  9 10  1  0  0  0  0
  9 11  1  0  0  0  0
  9 26  1  0  0  0  0
  7  8  1  0  0  0  0
  7  9  1  0  0  0  0
 30 31  1  0  0  0  0
 30 32  1  0  0  0  0
 30 33  1  0  0  0  0
 28 29  1  0  0  0  0
 28 30  1  0  0  0  0
M  END
$$$$
default_name
  -OEChem-02102213163D

 33 33  0     1  0  0  0  0  0999 V2000
   -4.0702   -3.8485    1.4554 H   0  0  0  0  0  0  0  0  0  0  0  0
   -4.0012   -2.9605    0.8284 C   0  0  0  0  0  0  0  0  0  0  0  0
   -4.7652   -2.2435    1.1234 H   0  0  0  0  0  0  0  0  0  0  0  0
   -4.1352   -3.2385   -0.2156 H   0  0  0  0  0  0  0  0  0  0  0  0
   -2.6362   -2.3395    1.0094 C   0  0  0  0  0  0  0  0  0  0  0  0
   -1.8292   -2.8395    1.7814 O   0  0  0  0  0  0  0  0  0  0  0  0
   -2.3832   -1.2445    0.2964 N   0  0  0  0  0  0  0  0  0  0  0  0
   -3.1102   -0.8685   -0.2946 H   0  0  0  0  0  0  0  0  0  0  0  0
   -1.1292   -0.4875    0.3524 C   0  0  1  0  0  0  0  0  0  0  0  0
   -0.3087   -1.1556    0.0882 H   0  0  0  0  0  0  0  0  0  0  0  0
   -1.1749    0.6534   -0.6787 C   0  0  0  0  0  0  0  0  0  0  0  0
   -0.5560    0.3823   -1.5349 H   0  0  0  0  0  0  0  0  0  0  0  0
   -2.1994    0.7642   -1.0379 H   0  0  0  0  0  0  0  0  0  0  0  0
   -0.6832    1.9852   -0.1453 C   0  0  0  0  0  0  0  0  0  0  0  0
   -0.2378    2.0971    1.1871 C   0  0  0  0  0  0  0  0  0  0  0  0
   -0.2701    1.2368    1.8428 H   0  0  0  0  0  0  0  0  0  0  0  0
    0.2559    3.3263    1.6659 C   0  0  0  0  0  0  0  0  0  0  0  0
    0.5947    3.4089    2.6872 H   0  0  0  0  0  0  0  0  0  0  0  0
    0.3076    4.4463    0.8076 C   0  0  0  0  0  0  0  0  0  0  0  0
    0.7847    5.6353    1.2589 O   0  0  0  0  0  0  0  0  0  0  0  0
    0.9704    5.6166    2.1987 H   0  0  0  0  0  0  0  0  0  0  0  0
   -0.1339    4.3311   -0.5268 C   0  0  0  0  0  0  0  0  0  0  0  0
   -0.0935    5.1957   -1.1721 H   0  0  0  0  0  0  0  0  0  0  0  0
   -0.6311    3.1024   -1.0011 C   0  0  0  0  0  0  0  0  0  0  0  0
   -0.9789    3.0171   -2.0237 H   0  0  0  0  0  0  0  0  0  0  0  0
   -0.8664    0.0378    1.7736 C   0  0  0  0  0  0  0  0  0  0  0  0
    0.2529   -0.0672    2.2760 O   0  0  0  0  0  0  0  0  0  0  0  0
   -1.8947    0.5991    2.4221 N   0  0  0  0  0  0  0  0  0  0  0  0
   -2.7942    0.5936    1.9635 H   0  0  0  0  0  0  0  0  0  0  0  0
   -1.8170    1.1453    3.7750 C   0  0  0  0  0  0  0  0  0  0  0  0
   -0.9697    1.8290    3.8506 H   0  0  0  0  0  0  0  0  0  0  0  0
   -2.7354    1.6828    4.0167 H   0  0  0  0  0  0  0  0  0  0  0  0
   -1.6754    0.3334    4.4914 H   0  0  0  0  0  0  0  0  0  0  0  0
  5  6  2  0  0  0  0
  5  7  1  0  0  0  0
  2  3  1  0  0  0  0
  2  4  1  0  0  0  0
  2  5  1  0  0  0  0
  1  2  1  0  0  0  0
 26 27  2  0  0  0  0
 26 28  1  0  0  0  0
 24 25  1  0  0  0  0
 22 23  1  0  0  0  0
 22 24  2  0  0  0  0
 20 21  1  0  0  0  0
 19 20  1  0  0  0  0
 19 22  1  0  0  0  0
 17 18  1  0  0  0  0
 17 19  2  0  0  0  0
 15 16  1  0  0  0  0
 15 17  1  0  0  0  0
 14 15  2  0  0  0  0
 14 24  1  0  0  0  0
 11 12  1  0  0  0  0
 11 13  1  0  0  0  0
 11 14  1  0  0  0  0
  9 10  1  0  0  0  0
  9 11  1  0  0  0  0
  9 26  1  0  0  0  0
  7  8  1  0  0  0  0
  7  9  1  0  0  0  0
 30 31  1  0  0  0  0
 30 32  1  0  0  0  0
 30 33  1  0  0  0  0
 28 29  1  0  0  0  0
 28 30  1  0  0  0  0
M  END
$$$$
default_name
  -OEChem-02102213163D

 33 33  0     1  0  0  0  0  0999 V2000
   -4.0702   -3.8485    1.4554 H   0  0  0  0  0  0  0  0  0  0  0  0
   -4.0012   -2.9605    0.8284 C   0  0  0  0  0  0  0  0  0  0  0  0
   -4.7652   -2.2435    1.1234 H   0  0  0  0  0  0  0  0  0  0  0  0
   -4.1352   -3.2385   -0.2156 H   0  0  0  0  0  0  0  0  0  0  0  0
   -2.6362   -2.3395    1.0094 C   0  0  0  0  0  0  0  0  0  0  0  0
   -1.8292   -2.8395    1.7814 O   0  0  0  0  0  0  0  0  0  0  0  0
   -2.3832   -1.2445    0.2964 N   0  0  0  0  0  0  0  0  0  0  0  0
   -3.1102   -0.8685   -0.2946 H   0  0  0  0  0  0  0  0  0  0  0  0
   -1.1292   -0.4875    0.3524 C   0  0  1  0  0  0  0  0  0  0  0  0
   -0.3087   -1.1556    0.0882 H   0  0  0  0  0  0  0  0  0  0  0  0
   -1.1749    0.6534   -0.6787 C   0  0  0  0  0  0  0  0  0  0  0  0
   -0.5560    0.3823   -1.5349 H   0  0  0  0  0  0  0  0  0  0  0  0
   -2.1994    0.7642   -1.0379 H   0  0  0  0  0  0  0  0  0  0  0  0
   -0.6832    1.9852   -0.1453 C   0  0  0  0  0  0  0  0  0  0  0  0
    0.0475    2.0433    1.0584 C   0  0  0  0  0  0  0  0  0  0  0  0
    0.2378    1.1384    1.6204 H   0  0  0  0  0  0  0  0  0  0  0  0
    0.5369    3.2775    1.5287 C   0  0  0  0  0  0  0  0  0  0  0  0
    1.0947    3.3186    2.4516 H   0  0  0  0  0  0  0  0  0  0  0  0
    0.2975    4.4569    0.7903 C   0  0  0  0  0  0  0  0  0  0  0  0
    0.7677    5.6516    1.2338 O   0  0  0  0  0  0  0  0  0  0  0  0
    1.1665    5.5829    2.1022 H   0  0  0  0  0  0  0  0  0  0  0  0
   -0.4297    4.3962   -0.4166 C   0  0  0  0  0  0  0  0  0  0  0  0
   -0.6100    5.3055   -0.9699 H   0  0  0  0  0  0  0  0  0  0  0  0
   -0.9214    3.1617   -0.8816 C   0  0  0  0  0  0  0  0  0  0  0  0
   -1.4880    3.1171   -1.8041 H   0  0  0  0  0  0  0  0  0  0  0  0
   -0.8664    0.0378    1.7736 C   0  0  0  0  0  0  0  0  0  0  0  0
    0.2529   -0.0672    2.2760 O   0  0  0  0  0  0  0  0  0  0  0  0
   -1.8947    0.5991    2.4221 N   0  0  0  0  0  0  0  0  0  0  0  0
   -2.7942    0.5936    1.9635 H   0  0  0  0  0  0  0  0  0  0  0  0
   -1.8170    1.1453    3.7750 C   0  0  0  0  0  0  0  0  0  0  0  0
   -0.9697    1.8290    3.8506 H   0  0  0  0  0  0  0  0  0  0  0  0
   -2.7354    1.6828    4.0167 H   0  0  0  0  0  0  0  0  0  0  0  0
   -1.6754    0.3334    4.4914 H   0  0  0  0  0  0  0  0  0  0  0  0
  5  6  2  0  0  0  0
  5  7  1  0  0  0  0
  2  3  1  0  0  0  0
  2  4  1  0  0  0  0
  2  5  1  0  0  0  0
  1  2  1  0  0  0  0
 26 27  2  0  0  0  0
 26 28  1  0  0  0  0
 24 25  1  0  0  0  0
 22 23  1  0  0  0  0
 22 24  2  0  0  0  0
 20 21  1  0  0  0  0
 19 20  1  0  0  0  0
 19 22  1  0  0  0  0
 17 18  1  0  0  0  0
 17 19  2  0  0  0  0
 15 16  1  0  0  0  0
 15 17  1  0  0  0  0
 14 15  2  0  0  0  0
 14 24  1  0  0  0  0
 11 12  1  0  0  0  0
 11 13  1  0  0  0  0
 11 14  1  0  0  0  0
  9 10  1  0  0  0  0
  9 11  1  0  0  0  0
  9 26  1  0  0  0  0
  7  8  1  0  0  0  0
  7  9  1  0  0  0  0
 30 31  1  0  0  0  0
 30 32  1  0  0  0  0
 30 33  1  0  0  0  0
 28 29  1  0  0  0  0
 28 30  1  0  0  0  0
M  END
$$$$
default_name
  -OEChem-02102213163D

 33 33  0     1  0  0  0  0  0999 V2000
   -4.0702   -3.8485    1.4554 H   0  0  0  0  0  0  0  0  0  0  0  0
   -4.0012   -2.9605    0.8284 C   0  0  0  0  0  0  0  0  0  0  0  0
   -4.7652   -2.2435    1.1234 H   0  0  0  0  0  0  0  0  0  0  0  0
   -4.1352   -3.2385   -0.2156 H   0  0  0  0  0  0  0  0  0  0  0  0
   -2.6362   -2.3395    1.0094 C   0  0  0  0  0  0  0  0  0  0  0  0
   -1.8292   -2.8395    1.7814 O   0  0  0  0  0  0  0  0  0  0  0  0
   -2.3832   -1.2445    0.2964 N   0  0  0  0  0  0  0  0  0  0  0  0
   -3.1102   -0.8685   -0.2946 H   0  0  0  0  0  0  0  0  0  0  0  0
   -1.1292   -0.4875    0.3524 C   0  0  1  0  0  0  0  0  0  0  0  0
   -0.3087   -1.1556    0.0882 H   0  0  0  0  0  0  0  0  0  0  0  0
   -1.1749    0.6534   -0.6787 C   0  0  0  0  0  0  0  0  0  0  0  0
   -0.5560    0.3823   -1.5349 H   0  0  0  0  0  0  0  0  0  0  0  0
   -2.1994    0.7642   -1.0379 H   0  0  0  0  0  0  0  0  0  0  0  0
   -0.6832    1.9852   -0.1453 C   0  0  0  0  0  0  0  0  0  0  0  0
    0.2988    2.0281    0.8647 C   0  0  0  0  0  0  0  0  0  0  0  0
    0.6867    1.1081    1.2820 H   0  0  0  0  0  0  0  0  0  0  0  0
    0.7815    3.2675    1.3282 C   0  0  0  0  0  0  0  0  0  0  0  0
    1.5324    3.2967    2.1028 H   0  0  0  0  0  0  0  0  0  0  0  0
    0.2829    4.4678    0.7767 C   0  0  0  0  0  0  0  0  0  0  0  0
    0.7441    5.6680    1.2148 O   0  0  0  0  0  0  0  0  0  0  0  0
    1.3370    5.5762    1.9617 H   0  0  0  0  0  0  0  0  0  0  0  0
   -0.6962    4.4228   -0.2374 C   0  0  0  0  0  0  0  0  0  0  0  0
   -1.0729    5.3475   -0.6481 H   0  0  0  0  0  0  0  0  0  0  0  0
   -1.1801    3.1826   -0.6953 C   0  0  0  0  0  0  0  0  0  0  0  0
   -1.9390    3.1490   -1.4679 H   0  0  0  0  0  0  0  0  0  0  0  0
   -0.8664    0.0378    1.7736 C   0  0  0  0  0  0  0  0  0  0  0  0
    0.2529   -0.0672    2.2760 O   0  0  0  0  0  0  0  0  0  0  0  0
   -1.8947    0.5991    2.4221 N   0  0  0  0  0  0  0  0  0  0  0  0
   -2.7942    0.5936    1.9635 H   0  0  0  0  0  0  0  0  0  0  0  0
   -1.8170    1.1453    3.7750 C   0  0  0  0  0  0  0  0  0  0  0  0
   -0.9697    1.8290    3.8506 H   0  0  0  0  0  0  0  0  0  0  0  0
   -2.7354    1.6828    4.0167 H   0  0  0  0  0  0  0  0  0  0  0  0
   -1.6754    0.3334    4.4914 H   0  0  0  0  0  0  0  0  0  0  0  0
  5  6  2  0  0  0  0
  5  7  1  0  0  0  0
  2  3  1  0  0  0  0
  2  4  1  0  0  0  0
  2  5  1  0  0  0  0
  1  2  1  0  0  0  0
 26 27  2  0  0  0  0
 26 28  1  0  0  0  0
 24 25  1  0  0  0  0
 22 23  1  0  0  0  0
 22 24  2  0  0  0  0
 20 21  1  0  0  0  0
 19 20  1  0  0  0  0
 19 22  1  0  0  0  0
 17 18  1  0  0  0  0
 17 19  2  0  0  0  0
 15 16  1  0  0  0  0
 15 17  1  0  0  0  0
 14 15  2  0  0  0  0
 14 24  1  0  0  0  0
 11 12  1  0  0  0  0
 11 13  1  0  0  0  0
 11 14  1  0  0  0  0
  9 10  1  0  0  0  0
  9 11  1  0  0  0  0
  9 26  1  0  0  0  0
  7  8  1  0  0  0  0
  7  9  1  0  0  0  0
 30 31  1  0  0  0  0
 30 32  1  0  0  0  0
 30 33  1  0  0  0  0
 28 29  1  0  0  0  0
 28 30  1  0  0  0  0
M  END
$$$$
default_name
  -OEChem-02102213163D

 33 33  0     1  0  0  0  0  0999 V2000
   -4.0702   -3.8485    1.4554 H   0  0  0  0  0  0  0  0  0  0  0  0
   -4.0012   -2.9605    0.8284 C   0  0  0  0  0  0  0  0  0  0  0  0
   -4.7652   -2.2435    1.1234 H   0  0  0  0  0  0  0  0  0  0  0  0
   -4.1352   -3.2385   -0.2156 H   0  0  0  0  0  0  0  0  0  0  0  0
   -2.6362   -2.3395    1.0094 C   0  0  0  0  0  0  0  0  0  0  0  0
   -1.8292   -2.8395    1.7814 O   0  0  0  0  0  0  0  0  0  0  0  0
   -2.3832   -1.2445    0.2964 N   0  0  0  0  0  0  0  0  0  0  0  0
   -3.1102   -0.8685   -0.2946 H   0  0  0  0  0  0  0  0  0  0  0  0
   -1.1292   -0.4875    0.3524 C   0  0  1  0  0  0  0  0  0  0  0  0
   -0.3087   -1.1556    0.0882 H   0  0  0  0  0  0  0  0  0  0  0  0
   -1.1749    0.6534   -0.6787 C   0  0  0  0  0  0  0  0  0  0  0  0
   -0.5560    0.3823   -1.5349 H   0  0  0  0  0  0  0  0  0  0  0  0
   -2.1994    0.7642   -1.0379 H   0  0  0  0  0  0  0  0  0  0  0  0
   -0.6832    1.9852   -0.1453 C   0  0  0  0  0  0  0  0  0  0  0  0
    0.4988    2.0526    0.6192 C   0  0  0  0  0  0  0  0  0  0  0  0
    1.0462    1.1482    0.8505 H   0  0  0  0  0  0  0  0  0  0  0  0
    0.9732    3.2969    1.0781 C   0  0  0  0  0  0  0  0  0  0  0  0
    1.8778    3.3446    1.6646 H   0  0  0  0  0  0  0  0  0  0  0  0
    0.2646    4.4781    0.7678 C   0  0  0  0  0  0  0  0  0  0  0  0
    0.7154    5.6832    1.2031 O   0  0  0  0  0  0  0  0  0  0  0  0
    1.4705    5.5970    1.7867 H   0  0  0  0  0  0  0  0  0  0  0  0
   -0.9154    4.4093   -0.0015 C   0  0  0  0  0  0  0  0  0  0  0  0
   -1.4507    5.3189   -0.2284 H   0  0  0  0  0  0  0  0  0  0  0  0
   -1.3894    3.1636   -0.4548 C   0  0  0  0  0  0  0  0  0  0  0  0
   -2.3011    3.1105   -1.0379 H   0  0  0  0  0  0  0  0  0  0  0  0
   -0.8664    0.0378    1.7736 C   0  0  0  0  0  0  0  0  0  0  0  0
    0.2529   -0.0672    2.2760 O   0  0  0  0  0  0  0  0  0  0  0  0
   -1.8947    0.5991    2.4221 N   0  0  0  0  0  0  0  0  0  0  0  0
   -2.7942    0.5936    1.9635 H   0  0  0  0  0  0  0  0  0  0  0  0
   -1.8170    1.1453    3.7750 C   0  0  0  0  0  0  0  0  0  0  0  0
   -0.9697    1.8290    3.8506 H   0  0  0  0  0  0  0  0  0  0  0  0
   -2.7354    1.6828    4.0167 H   0  0  0  0  0  0  0  0  0  0  0  0
   -1.6754    0.3334    4.4914 H   0  0  0  0  0  0  0  0  0  0  0  0
  5  6  2  0  0  0  0
  5  7  1  0  0  0  0
  2  3  1  0  0  0  0
  2  4  1  0  0  0  0
  2  5  1  0  0  0  0
  1  2  1  0  0  0  0
 26 27  2  0  0  0  0
 26 28  1  0  0  0  0
 24 25  1  0  0  0  0
 22 23  1  0  0  0  0
 22 24  2  0  0  0  0
 20 21  1  0  0  0  0
 19 20  1  0  0  0  0
 19 22  1  0  0  0  0
 17 18  1  0  0  0  0
 17 19  2  0  0  0  0
 15 16  1  0  0  0  0
 15 17  1  0  0  0  0
 14 15  2  0  0  0  0
 14 24  1  0  0  0  0
 11 12  1  0  0  0  0
 11 13  1  0  0  0  0
 11 14  1  0  0  0  0
  9 10  1  0  0  0  0
  9 11  1  0  0  0  0
  9 26  1  0  0  0  0
  7  8  1  0  0  0  0
  7  9  1  0  0  0  0
 30 31  1  0  0  0  0
 30 32  1  0  0  0  0
 30 33  1  0  0  0  0
 28 29  1  0  0  0  0
 28 30  1  0  0  0  0
M  END
$$$$
default_name
  -OEChem-02102213163D

 33 33  0     1  0  0  0  0  0999 V2000
   -4.0702   -3.8485    1.4554 H   0  0  0  0  0  0  0  0  0  0  0  0
   -4.0012   -2.9605    0.8284 C   0  0  0  0  0  0  0  0  0  0  0  0
   -4.7652   -2.2435    1.1234 H   0  0  0  0  0  0  0  0  0  0  0  0
   -4.1352   -3.2385   -0.2156 H   0  0  0  0  0  0  0  0  0  0  0  0
   -2.6362   -2.3395    1.0094 C   0  0  0  0  0  0  0  0  0  0  0  0
   -1.8292   -2.8395    1.7814 O   0  0  0  0  0  0  0  0  0  0  0  0
   -2.3832   -1.2445    0.2964 N   0  0  0  0  0  0  0  0  0  0  0  0
   -3.1102   -0.8685   -0.2946 H   0  0  0  0  0  0  0  0  0  0  0  0
   -1.1292   -0.4875    0.3524 C   0  0  1  0  0  0  0  0  0  0  0  0
   -0.3087   -1.1556    0.0882 H   0  0  0  0  0  0  0  0  0  0  0  0
   -1.1749    0.6534   -0.6787 C   0  0  0  0  0  0  0  0  0  0  0  0
   -0.5560    0.3823   -1.5349 H   0  0  0  0  0  0  0  0  0  0  0  0
   -2.1994    0.7642   -1.0379 H   0  0  0  0  0  0  0  0  0  0  0  0
   -0.6832    1.9852   -0.1453 C   0  0  0  0  0  0  0  0  0  0  0  0
    0.6340    2.1150    0.3387 C   0  0  0  0  0  0  0  0  0  0  0  0
    1.2918    1.2559    0.3554 H   0  0  0  0  0  0  0  0  0  0  0  0
    1.0988    3.3637    0.7954 C   0  0  0  0  0  0  0  0  0  0  0  0
    2.1076    3.4592    1.1668 H   0  0  0  0  0  0  0  0  0  0  0  0
    0.2441    4.4871    0.7643 C   0  0  0  0  0  0  0  0  0  0  0  0
    0.6838    5.6963    1.1997 O   0  0  0  0  0  0  0  0  0  0  0  0
    1.5576    5.6440    1.5890 H   0  0  0  0  0  0  0  0  0  0  0  0
   -1.0722    4.3564    0.2750 C   0  0  0  0  0  0  0  0  0  0  0  0
   -1.7176    5.2217    0.2603 H   0  0  0  0  0  0  0  0  0  0  0  0
   -1.5353    3.1059   -0.1765 C   0  0  0  0  0  0  0  0  0  0  0  0
   -2.5497    3.0043   -0.5436 H   0  0  0  0  0  0  0  0  0  0  0  0
   -0.8664    0.0378    1.7736 C   0  0  0  0  0  0  0  0  0  0  0  0
    0.2529   -0.0672    2.2760 O   0  0  0  0  0  0  0  0  0  0  0  0
   -1.8947    0.5991    2.4221 N   0  0  0  0  0  0  0  0  0  0  0  0
   -2.7942    0.5936    1.9635 H   0  0  0  0  0  0  0  0  0  0  0  0
   -1.8170    1.1453    3.7750 C   0  0  0  0  0  0  0  0  0  0  0  0
   -0.9697    1.8290    3.8506 H   0  0  0  0  0  0  0  0  0  0  0  0
   -2.7354    1.6828    4.0167 H   0  0  0  0  0  0  0  0  0  0  0  0
   -1.6754    0.3334    4.4914 H   0  0  0  0  0  0  0  0  0  0  0  0
  5  6  2  0  0  0  0
  5  7  1  0  0  0  0
  2  3  1  0  0  0  0
  2  4  1  0  0  0  0
  2  5  1  0  0  0  0
  1  2  1  0  0  0  0
 26 27  2  0  0  0  0
 26 28  1  0  0  0  0
 24 25  1  0  0  0  0
 22 23  1  0  0  0  0
 22 24  2  0  0  0  0
 20 21  1  0  0  0  0
 19 20  1  0  0  0  0
 19 22  1  0  0  0  0
 17 18  1  0  0  0  0
 17 19  2  0  0  0  0
 15 16  1  0  0  0  0
 15 17  1  0  0  0  0
 14 15  2  0  0  0  0
 14 24  1  0  0  0  0
 11 12  1  0  0  0  0
 11 13  1  0  0  0  0
 11 14  1  0  0  0  0
  9 10  1  0  0  0  0
  9 11  1  0  0  0  0
  9 26  1  0  0  0  0
  7  8  1  0  0  0  0
  7  9  1  0  0  0  0
 30 31  1  0  0  0  0
 30 32  1  0  0  0  0
 30 33  1  0  0  0  0
 28 29  1  0  0  0  0
 28 30  1  0  0  0  0
M  END
$$$$
default_name
  -OEChem-02102213163D

 33 33  0     1  0  0  0  0  0999 V2000
   -4.0702   -3.8485    1.4554 H   0  0  0  0  0  0  0  0  0  0  0  0
   -4.0012   -2.9605    0.8284 C   0  0  0  0  0  0  0  0  0  0  0  0
   -4.7652   -2.2435    1.1234 H   0  0  0  0  0  0  0  0  0  0  0  0
   -4.1352   -3.2385   -0.2156 H   0  0  0  0  0  0  0  0  0  0  0  0
   -2.6362   -2.3395    1.0094 C   0  0  0  0  0  0  0  0  0  0  0  0
   -1.8292   -2.8395    1.7814 O   0  0  0  0  0  0  0  0  0  0  0  0
   -2.3832   -1.2445    0.2964 N   0  0  0  0  0  0  0  0  0  0  0  0
   -3.1102   -0.8685   -0.2946 H   0  0  0  0  0  0  0  0  0  0  0  0
   -1.1292   -0.4875    0.3524 C   0  0  1  0  0  0  0  0  0  0  0  0
   -0.3087   -1.1556    0.0882 H   0  0  0  0  0  0  0  0  0  0  0  0
   -1.1749    0.6534   -0.6787 C   0  0  0  0  0  0  0  0  0  0  0  0
   -0.5560    0.3823   -1.5349 H   0  0  0  0  0  0  0  0  0  0  0  0
   -2.1994    0.7642   -1.0379 H   0  0  0  0  0  0  0  0  0  0  0  0
   -0.6832    1.9852   -0.1453 C   0  0  0  0  0  0  0  0  0  0  0  0
    0.6952    2.2112    0.0423 C   0  0  0  0  0  0  0  0  0  0  0  0
    1.4066    1.4237   -0.1697 H   0  0  0  0  0  0  0  0  0  0  0  0
    1.1498    3.4634    0.4994 C   0  0  0  0  0  0  0  0  0  0  0  0
    2.2059    3.6325    0.6434 H   0  0  0  0  0  0  0  0  0  0  0  0
    0.2226    4.4942    0.7663 C   0  0  0  0  0  0  0  0  0  0  0  0
    0.6512    5.7063    1.2047 O   0  0  0  0  0  0  0  0  0  0  0  0
    1.5927    5.7139    1.3822 H   0  0  0  0  0  0  0  0  0  0  0  0
   -1.1560    4.2679    0.5733 C   0  0  0  0  0  0  0  0  0  0  0  0
   -1.8555    5.0625    0.7850 H   0  0  0  0  0  0  0  0  0  0  0  0
   -1.6077    3.0137    0.1207 C   0  0  0  0  0  0  0  0  0  0  0  0
   -2.6677    2.8375   -0.0185 H   0  0  0  0  0  0  0  0  0  0  0  0
   -0.8664    0.0378    1.7736 C   0  0  0  0  0  0  0  0  0  0  0  0
    0.2529   -0.0672    2.2760 O   0  0  0  0  0  0  0  0  0  0  0  0
   -1.8947    0.5991    2.4221 N   0  0  0  0  0  0  0  0  0  0  0  0
   -2.7942    0.5936    1.9635 H   0  0  0  0  0  0  0  0  0  0  0  0
   -1.8170    1.1453    3.7750 C   0  0  0  0  0  0  0  0  0  0  0  0
   -0.9697    1.8290    3.8506 H   0  0  0  0  0  0  0  0  0  0  0  0
   -2.7354    1.6828    4.0167 H   0  0  0  0  0  0  0  0  0  0  0  0
   -1.6754    0.3334    4.4914 H   0  0  0  0  0  0  0  0  0  0  0  0
  5  6  2  0  0  0  0
  5  7  1  0  0  0  0
  2  3  1  0  0  0  0
  2  4  1  0  0  0  0
  2  5  1  0  0  0  0
  1  2  1  0  0  0  0
 26 27  2  0  0  0  0
 26 28  1  0  0  0  0
 24 25  1  0  0  0  0
 22 23  1  0  0  0  0
 22 24  2  0  0  0  0
 20 21  1  0  0  0  0
 19 20  1  0  0  0  0
 19 22  1  0  0  0  0
 17 18  1  0  0  0  0
 17 19  2  0  0  0  0
 15 16  1  0  0  0  0
 15 17  1  0  0  0  0
 14 15  2  0  0  0  0
 14 24  1  0  0  0  0
 11 12  1  0  0  0  0
 11 13  1  0  0  0  0
 11 14  1  0  0  0  0
  9 10  1  0  0  0  0
  9 11  1  0  0  0  0
  9 26  1  0  0  0  0
  7  8  1  0  0  0  0
  7  9  1  0  0  0  0
 30 31  1  0  0  0  0
 30 32  1  0  0  0  0
 30 33  1  0  0  0  0
 28 29  1  0  0  0  0
 28 30  1  0  0  0  0
M  END
$$$$
default_name
  -OEChem-02102213163D

 33 33  0     1  0  0  0  0  0999 V2000
   -4.0702   -3.8485    1.4554 H   0  0  0  0  0  0  0  0  0  0  0  0
   -4.0012   -2.9605    0.8284 C   0  0  0  0  0  0  0  0  0  0  0  0
   -4.7652   -2.2435    1.1234 H   0  0  0  0  0  0  0  0  0  0  0  0
   -4.1352   -3.2385   -0.2156 H   0  0  0  0  0  0  0  0  0  0  0  0
   -2.6362   -2.3395    1.0094 C   0  0  0  0  0  0  0  0  0  0  0  0
   -1.8292   -2.8395    1.7814 O   0  0  0  0  0  0  0  0  0  0  0  0
   -2.3832   -1.2445    0.2964 N   0  0  0  0  0  0  0  0  0  0  0  0
   -3.1102   -0.8685   -0.2946 H   0  0  0  0  0  0  0  0  0  0  0  0
   -1.1292   -0.4875    0.3524 C   0  0  1  0  0  0  0  0  0  0  0  0
   -0.3087   -1.1556    0.0882 H   0  0  0  0  0  0  0  0  0  0  0  0
   -1.1749    0.6534   -0.6787 C   0  0  0  0  0  0  0  0  0  0  0  0
   -0.5560    0.3823   -1.5349 H   0  0  0  0  0  0  0  0  0  0  0  0
   -2.1994    0.7642   -1.0379 H   0  0  0  0  0  0  0  0  0  0  0  0
   -0.6832    1.9852   -0.1453 C   0  0  0  0  0  0  0  0  0  0  0  0
    0.6781    2.3345   -0.2499 C   0  0  0  0  0  0  0  0  0  0  0  0
    1.3829    1.6404   -0.6888 H   0  0  0  0  0  0  0  0  0  0  0  0
    1.1228    3.5892    0.2103 C   0  0  0  0  0  0  0  0  0  0  0  0
    2.1662    3.8528    0.1300 H   0  0  0  0  0  0  0  0  0  0  0  0
    0.2016    4.4990    0.7737 C   0  0  0  0  0  0  0  0  0  0  0  0
    0.6199    5.7127    1.2177 O   0  0  0  0  0  0  0  0  0  0  0  0
    1.5731    5.8020    1.1803 H   0  0  0  0  0  0  0  0  0  0  0  0
   -1.1611    4.1497    0.8731 C   0  0  0  0  0  0  0  0  0  0  0  0
   -1.8550    4.8521    1.3098 H   0  0  0  0  0  0  0  0  0  0  0  0
   -1.6017    2.8930    0.4164 C   0  0  0  0  0  0  0  0  0  0  0  0
   -2.6472    2.6217    0.5016 H   0  0  0  0  0  0  0  0  0  0  0  0
   -0.8664    0.0378    1.7736 C   0  0  0  0  0  0  0  0  0  0  0  0
    0.2529   -0.0672    2.2760 O   0  0  0  0  0  0  0  0  0  0  0  0
   -1.8947    0.5991    2.4221 N   0  0  0  0  0  0  0  0  0  0  0  0
   -2.7942    0.5936    1.9635 H   0  0  0  0  0  0  0  0  0  0  0  0
   -1.8170    1.1453    3.7750 C   0  0  0  0  0  0  0  0  0  0  0  0
   -0.9697    1.8290    3.8506 H   0  0  0  0  0  0  0  0  0  0  0  0
   -2.7354    1.6828    4.0167 H   0  0  0  0  0  0  0  0  0  0  0  0
   -1.6754    0.3334    4.4914 H   0  0  0  0  0  0  0  0  0  0  0  0
  5  6  2  0  0  0  0
  5  7  1  0  0  0  0
  2  3  1  0  0  0  0
  2  4  1  0  0  0  0
  2  5  1  0  0  0  0
  1  2  1  0  0  0  0
 26 27  2  0  0  0  0
 26 28  1  0  0  0  0
 24 25  1  0  0  0  0
 22 23  1  0  0  0  0
 22 24  2  0  0  0  0
 20 21  1  0  0  0  0
 19 20  1  0  0  0  0
 19 22  1  0  0  0  0
 17 18  1  0  0  0  0
 17 19  2  0  0  0  0
 15 16  1  0  0  0  0
 15 17  1  0  0  0  0
 14 15  2  0  0  0  0
 14 24  1  0  0  0  0
 11 12  1  0  0  0  0
 11 13  1  0  0  0  0
 11 14  1  0  0  0  0
  9 10  1  0  0  0  0
  9 11  1  0  0  0  0
  9 26  1  0  0  0  0
  7  8  1  0  0  0  0
  7  9  1  0  0  0  0
 30 31  1  0  0  0  0
 30 32  1  0  0  0  0
 30 33  1  0  0  0  0
 28 29  1  0  0  0  0
 28 30  1  0  0  0  0
M  END
$$$$
default_name
  -OEChem-02102213163D

 33 33  0     1  0  0  0  0  0999 V2000
   -4.0702   -3.8485    1.4554 H   0  0  0  0  0  0  0  0  0  0  0  0
   -4.0012   -2.9605    0.8284 C   0  0  0  0  0  0  0  0  0  0  0  0
   -4.7652   -2.2435    1.1234 H   0  0  0  0  0  0  0  0  0  0  0  0
   -4.1352   -3.2385   -0.2156 H   0  0  0  0  0  0  0  0  0  0  0  0
   -2.6362   -2.3395    1.0094 C   0  0  0  0  0  0  0  0  0  0  0  0
   -1.8292   -2.8395    1.7814 O   0  0  0  0  0  0  0  0  0  0  0  0
   -2.3832   -1.2445    0.2964 N   0  0  0  0  0  0  0  0  0  0  0  0
   -3.1102   -0.8685   -0.2946 H   0  0  0  0  0  0  0  0  0  0  0  0
   -1.1292   -0.4875    0.3524 C   0  0  1  0  0  0  0  0  0  0  0  0
   -0.3087   -1.1556    0.0882 H   0  0  0  0  0  0  0  0  0  0  0  0
   -1.1749    0.6534   -0.6787 C   0  0  0  0  0  0  0  0  0  0  0  0
   -0.5560    0.3823   -1.5349 H   0  0  0  0  0  0  0  0  0  0  0  0
   -2.1994    0.7642   -1.0379 H   0  0  0  0  0  0  0  0  0  0  0  0
   -0.6832    1.9852   -0.1453 C   0  0  0  0  0  0  0  0  0  0  0  0
    0.5840    2.4766   -0.5179 C   0  0  0  0  0  0  0  0  0  0  0  0
    1.2223    1.8911   -1.1667 H   0  0  0  0  0  0  0  0  0  0  0  0
    1.0194    3.7325   -0.0523 C   0  0  0  0  0  0  0  0  0  0  0  0
    1.9910    4.1050   -0.3383 H   0  0  0  0  0  0  0  0  0  0  0  0
    0.1826    4.5011    0.7860 C   0  0  0  0  0  0  0  0  0  0  0  0
    0.5921    5.7148    1.2380 O   0  0  0  0  0  0  0  0  0  0  0  0
    1.5003    5.9022    0.9972 H   0  0  0  0  0  0  0  0  0  0  0  0
   -1.0872    4.0099    1.1539 C   0  0  0  0  0  0  0  0  0  0  0  0
   -1.7161    4.6049    1.7989 H   0  0  0  0  0  0  0  0  0  0  0  0
   -1.5176    2.7522    0.6905 C   0  0  0  0  0  0  0  0  0  0  0  0
   -2.4895    2.3714    0.9811 H   0  0  0  0  0  0  0  0  0  0  0  0
   -0.8664    0.0378    1.7736 C   0  0  0  0  0  0  0  0  0  0  0  0
    0.2529   -0.0672    2.2760 O   0  0  0  0  0  0  0  0  0  0  0  0
   -1.8947    0.5991    2.4221 N   0  0  0  0  0  0  0  0  0  0  0  0
   -2.7942    0.5936    1.9635 H   0  0  0  0  0  0  0  0  0  0  0  0
   -1.8170    1.1453    3.7750 C   0  0  0  0  0  0  0  0  0  0  0  0
   -0.9697    1.8290    3.8506 H   0  0  0  0  0  0  0  0  0  0  0  0
   -2.7354    1.6828    4.0167 H   0  0  0  0  0  0  0  0  0  0  0  0
   -1.6754    0.3334    4.4914 H   0  0  0  0  0  0  0  0  0  0  0  0
  5  6  2  0  0  0  0
  5  7  1  0  0  0  0
  2  3  1  0  0  0  0
  2  4  1  0  0  0  0
  2  5  1  0  0  0  0
  1  2  1  0  0  0  0
 26 27  2  0  0  0  0
 26 28  1  0  0  0  0
 24 25  1  0  0  0  0
 22 23  1  0  0  0  0
 22 24  2  0  0  0  0
 20 21  1  0  0  0  0
 19 20  1  0  0  0  0
 19 22  1  0  0  0  0
 17 18  1  0  0  0  0
 17 19  2  0  0  0  0
 15 16  1  0  0  0  0
 15 17  1  0  0  0  0
 14 15  2  0  0  0  0
 14 24  1  0  0  0  0
 11 12  1  0  0  0  0
 11 13  1  0  0  0  0
 11 14  1  0  0  0  0
  9 10  1  0  0  0  0
  9 11  1  0  0  0  0
  9 26  1  0  0  0  0
  7  8  1  0  0  0  0
  7  9  1  0  0  0  0
 30 31  1  0  0  0  0
 30 32  1  0  0  0  0
 30 33  1  0  0  0  0
 28 29  1  0  0  0  0
 28 30  1  0  0  0  0
M  END
$$$$
default_name
  -OEChem-02102213163D

 33 33  0     1  0  0  0  0  0999 V2000
   -4.0702   -3.8485    1.4554 H   0  0  0  0  0  0  0  0  0  0  0  0
   -4.0012   -2.9605    0.8284 C   0  0  0  0  0  0  0  0  0  0  0  0
   -4.7652   -2.2435    1.1234 H   0  0  0  0  0  0  0  0  0  0  0  0
   -4.1352   -3.2385   -0.2156 H   0  0  0  0  0  0  0  0  0  0  0  0
   -2.6362   -2.3395    1.0094 C   0  0  0  0  0  0  0  0  0  0  0  0
   -1.8292   -2.8395    1.7814 O   0  0  0  0  0  0  0  0  0  0  0  0
   -2.3832   -1.2445    0.2964 N   0  0  0  0  0  0  0  0  0  0  0  0
   -3.1102   -0.8685   -0.2946 H   0  0  0  0  0  0  0  0  0  0  0  0
   -1.1292   -0.4875    0.3524 C   0  0  1  0  0  0  0  0  0  0  0  0
   -0.3087   -1.1556    0.0882 H   0  0  0  0  0  0  0  0  0  0  0  0
   -1.1749    0.6534   -0.6787 C   0  0  0  0  0  0  0  0  0  0  0  0
   -0.5560    0.3823   -1.5349 H   0  0  0  0  0  0  0  0  0  0  0  0
   -2.1994    0.7642   -1.0379 H   0  0  0  0  0  0  0  0  0  0  0  0
   -0.6832    1.9852   -0.1453 C   0  0  0  0  0  0  0  0  0  0  0  0
    0.4193    2.6278   -0.7435 C   0  0  0  0  0  0  0  0  0  0  0  0
    0.9357    2.1588   -1.5708 H   0  0  0  0  0  0  0  0  0  0  0  0
    0.8469    3.8836   -0.2704 C   0  0  0  0  0  0  0  0  0  0  0  0
    1.6925    4.3721   -0.7298 H   0  0  0  0  0  0  0  0  0  0  0  0
    0.1669    4.5003    0.8024 C   0  0  0  0  0  0  0  0  0  0  0  0
    0.5697    5.7127    1.2640 O   0  0  0  0  0  0  0  0  0  0  0  0
    1.3793    6.0077    0.8452 H   0  0  0  0  0  0  0  0  0  0  0  0
   -0.9392    3.8581    1.3966 C   0  0  0  0  0  0  0  0  0  0  0  0
   -1.4482    4.3378    2.2190 H   0  0  0  0  0  0  0  0  0  0  0  0
   -1.3614    2.6008    0.9244 C   0  0  0  0  0  0  0  0  0  0  0  0
   -2.2055    2.1038    1.3875 H   0  0  0  0  0  0  0  0  0  0  0  0
   -0.8664    0.0378    1.7736 C   0  0  0  0  0  0  0  0  0  0  0  0
    0.2529   -0.0672    2.2760 O   0  0  0  0  0  0  0  0  0  0  0  0
   -1.8947    0.5991    2.4221 N   0  0  0  0  0  0  0  0  0  0  0  0
   -2.7942    0.5936    1.9635 H   0  0  0  0  0  0  0  0  0  0  0  0
   -1.8170    1.1453    3.7750 C   0  0  0  0  0  0  0  0  0  0  0  0
   -0.9697    1.8290    3.8506 H   0  0  0  0  0  0  0  0  0  0  0  0
   -2.7354    1.6828    4.0167 H   0  0  0  0  0  0  0  0  0  0  0  0
   -1.6754    0.3334    4.4914 H   0  0  0  0  0  0  0  0  0  0  0  0
  5  6  2  0  0  0  0
  5  7  1  0  0  0  0
  2  3  1  0  0  0  0
  2  4  1  0  0  0  0
  2  5  1  0  0  0  0
  1  2  1  0  0  0  0
 26 27  2  0  0  0  0
 26 28  1  0  0  0  0
 24 25  1  0  0  0  0
 22 23  1  0  0  0  0
 22 24  2  0  0  0  0
 20 21  1  0  0  0  0
 19 20  1  0  0  0  0
 19 22  1  0  0  0  0
 17 18  1  0  0  0  0
 17 19  2  0  0  0  0
 15 16  1  0  0  0  0
 15 17  1  0  0  0  0
 14 15  2  0  0  0  0
 14 24  1  0  0  0  0
 11 12  1  0  0  0  0
 11 13  1  0  0  0  0
 11 14  1  0  0  0  0
  9 10  1  0  0  0  0
  9 11  1  0  0  0  0
  9 26  1  0  0  0  0
  7  8  1  0  0  0  0
  7  9  1  0  0  0  0
 30 31  1  0  0  0  0
 30 32  1  0  0  0  0
 30 33  1  0  0  0  0
 28 29  1  0  0  0  0
 28 30  1  0  0  0  0
M  END
$$$$
default_name
  -OEChem-02102213163D

 33 33  0     1  0  0  0  0  0999 V2000
   -4.0702   -3.8485    1.4554 H   0  0  0  0  0  0  0  0  0  0  0  0
   -4.0012   -2.9605    0.8284 C   0  0  0  0  0  0  0  0  0  0  0  0
   -4.7652   -2.2435    1.1234 H   0  0  0  0  0  0  0  0  0  0  0  0
   -4.1352   -3.2385   -0.2156 H   0  0  0  0  0  0  0  0  0  0  0  0
   -2.6362   -2.3395    1.0094 C   0  0  0  0  0  0  0  0  0  0  0  0
   -1.8292   -2.8395    1.7814 O   0  0  0  0  0  0  0  0  0  0  0  0
   -2.3832   -1.2445    0.2964 N   0  0  0  0  0  0  0  0  0  0  0  0
   -3.1102   -0.8685   -0.2946 H   0  0  0  0  0  0  0  0  0  0  0  0
   -1.1292   -0.4875    0.3524 C   0  0  1  0  0  0  0  0  0  0  0  0
   -0.3087   -1.1556    0.0882 H   0  0  0  0  0  0  0  0  0  0  0  0
   -1.1749    0.6534   -0.6787 C   0  0  0  0  0  0  0  0  0  0  0  0
   -0.5560    0.3823   -1.5349 H   0  0  0  0  0  0  0  0  0  0  0  0
   -2.1994    0.7642   -1.0379 H   0  0  0  0  0  0  0  0  0  0  0  0
   -0.6832    1.9852   -0.1453 C   0  0  0  0  0  0  0  0  0  0  0  0
    0.1951    2.7777   -0.9112 C   0  0  0  0  0  0  0  0  0  0  0  0
    0.5427    2.4251   -1.8735 H   0  0  0  0  0  0  0  0  0  0  0  0
    0.6169    4.0321   -0.4292 C   0  0  0  0  0  0  0  0  0  0  0  0
    1.2908    4.6357   -1.0176 H   0  0  0  0  0  0  0  0  0  0  0  0
    0.1555    4.4968    0.8217 C   0  0  0  0  0  0  0  0  0  0  0  0
    0.5541    5.7064    1.2941 O   0  0  0  0  0  0  0  0  0  0  0  0
    1.2182    6.1114    0.7348 H   0  0  0  0  0  0  0  0  0  0  0  0
   -0.7273    3.7045    1.5846 C   0  0  0  0  0  0  0  0  0  0  0  0
   -1.0697    4.0688    2.5415 H   0  0  0  0  0  0  0  0  0  0  0  0
   -1.1435    2.4492    1.1021 C   0  0  0  0  0  0  0  0  0  0  0  0
   -1.8144    1.8370    1.6930 H   0  0  0  0  0  0  0  0  0  0  0  0
   -0.8664    0.0378    1.7736 C   0  0  0  0  0  0  0  0  0  0  0  0
    0.2529   -0.0672    2.2760 O   0  0  0  0  0  0  0  0  0  0  0  0
   -1.8947    0.5991    2.4221 N   0  0  0  0  0  0  0  0  0  0  0  0
   -2.7942    0.5936    1.9635 H   0  0  0  0  0  0  0  0  0  0  0  0
   -1.8170    1.1453    3.7750 C   0  0  0  0  0  0  0  0  0  0  0  0
   -0.9697    1.8290    3.8506 H   0  0  0  0  0  0  0  0  0  0  0  0
   -2.7354    1.6828    4.0167 H   0  0  0  0  0  0  0  0  0  0  0  0
   -1.6754    0.3334    4.4914 H   0  0  0  0  0  0  0  0  0  0  0  0
  5  6  2  0  0  0  0
  5  7  1  0  0  0  0
  2  3  1  0  0  0  0
  2  4  1  0  0  0  0
  2  5  1  0  0  0  0
  1  2  1  0  0  0  0
 26 27  2  0  0  0  0
 26 28  1  0  0  0  0
 24 25  1  0  0  0  0
 22 23  1  0  0  0  0
 22 24  2  0  0  0  0
 20 21  1  0  0  0  0
 19 20  1  0  0  0  0
 19 22  1  0  0  0  0
 17 18  1  0  0  0  0
 17 19  2  0  0  0  0
 15 16  1  0  0  0  0
 15 17  1  0  0  0  0
 14 15  2  0  0  0  0
 14 24  1  0  0  0  0
 11 12  1  0  0  0  0
 11 13  1  0  0  0  0
 11 14  1  0  0  0  0
  9 10  1  0  0  0  0
  9 11  1  0  0  0  0
  9 26  1  0  0  0  0
  7  8  1  0  0  0  0
  7  9  1  0  0  0  0
 30 31  1  0  0  0  0
 30 32  1  0  0  0  0
 30 33  1  0  0  0  0
 28 29  1  0  0  0  0
 28 30  1  0  0  0  0
M  END
$$$$
default_name
  -OEChem-02102213163D

 33 33  0     1  0  0  0  0  0999 V2000
   -4.0702   -3.8485    1.4554 H   0  0  0  0  0  0  0  0  0  0  0  0
   -4.0012   -2.9605    0.8284 C   0  0  0  0  0  0  0  0  0  0  0  0
   -4.7652   -2.2435    1.1234 H   0  0  0  0  0  0  0  0  0  0  0  0
   -4.1352   -3.2385   -0.2156 H   0  0  0  0  0  0  0  0  0  0  0  0
   -2.6362   -2.3395    1.0094 C   0  0  0  0  0  0  0  0  0  0  0  0
   -1.8292   -2.8395    1.7814 O   0  0  0  0  0  0  0  0  0  0  0  0
   -2.3832   -1.2445    0.2964 N   0  0  0  0  0  0  0  0  0  0  0  0
   -3.1102   -0.8685   -0.2946 H   0  0  0  0  0  0  0  0  0  0  0  0
   -1.1292   -0.4875    0.3524 C   0  0  1  0  0  0  0  0  0  0  0  0
   -0.3087   -1.1556    0.0882 H   0  0  0  0  0  0  0  0  0  0  0  0
   -1.1749    0.6534   -0.6787 C   0  0  0  0  0  0  0  0  0  0  0  0
   -0.5560    0.3823   -1.5349 H   0  0  0  0  0  0  0  0  0  0  0  0
   -2.1994    0.7642   -1.0379 H   0  0  0  0  0  0  0  0  0  0  0  0
   -0.6832    1.9852   -0.1453 C   0  0  0  0  0  0  0  0  0  0  0  0
   -0.0732    2.9162   -1.0097 C   0  0  0  0  0  0  0  0  0  0  0  0
    0.0700    2.6720   -2.0542 H   0  0  0  0  0  0  0  0  0  0  0  0
    0.3452    4.1680   -0.5178 C   0  0  0  0  0  0  0  0  0  0  0  0
    0.8134    4.8779   -1.1822 H   0  0  0  0  0  0  0  0  0  0  0  0
    0.1492    4.4907    0.8427 C   0  0  0  0  0  0  0  0  0  0  0  0
    0.5465    5.6963    1.3262 O   0  0  0  0  0  0  0  0  0  0  0  0
    1.0281    6.2062    0.6735 H   0  0  0  0  0  0  0  0  0  0  0  0
   -0.4659    3.5597    1.7052 C   0  0  0  0  0  0  0  0  0  0  0  0
   -0.6063    3.8164    2.7444 H   0  0  0  0  0  0  0  0  0  0  0  0
   -0.8788    2.3076    1.2115 C   0  0  0  0  0  0  0  0  0  0  0  0
   -1.3429    1.5893    1.8768 H   0  0  0  0  0  0  0  0  0  0  0  0
   -0.8664    0.0378    1.7736 C   0  0  0  0  0  0  0  0  0  0  0  0
    0.2529   -0.0672    2.2760 O   0  0  0  0  0  0  0  0  0  0  0  0
   -1.8947    0.5991    2.4221 N   0  0  0  0  0  0  0  0  0  0  0  0
   -2.7942    0.5936    1.9635 H   0  0  0  0  0  0  0  0  0  0  0  0
   -1.8170    1.1453    3.7750 C   0  0  0  0  0  0  0  0  0  0  0  0
   -0.9697    1.8290    3.8506 H   0  0  0  0  0  0  0  0  0  0  0  0
   -2.7354    1.6828    4.0167 H   0  0  0  0  0  0  0  0  0  0  0  0
   -1.6754    0.3334    4.4914 H   0  0  0  0  0  0  0  0  0  0  0  0
  5  6  2  0  0  0  0
  5  7  1  0  0  0  0
  2  3  1  0  0  0  0
  2  4  1  0  0  0  0
  2  5  1  0  0  0  0
  1  2  1  0  0  0  0
 26 27  2  0  0  0  0
 26 28  1  0  0  0  0
 24 25  1  0  0  0  0
 22 23  1  0  0  0  0
 22 24  2  0  0  0  0
 20 21  1  0  0  0  0
 19 20  1  0  0  0  0
 19 22  1  0  0  0  0
 17 18  1  0  0  0  0
 17 19  2  0  0  0  0
 15 16  1  0  0  0  0
 15 17  1  0  0  0  0
 14 15  2  0  0  0  0
 14 24  1  0  0  0  0
 11 12  1  0  0  0  0
 11 13  1  0  0  0  0
 11 14  1  0  0  0  0
  9 10  1  0  0  0  0
  9 11  1  0  0  0  0
  9 26  1  0  0  0  0
  7  8  1  0  0  0  0
  7  9  1  0  0  0  0
 30 31  1  0  0  0  0
 30 32  1  0  0  0  0
 30 33  1  0  0  0  0
 28 29  1  0  0  0  0
 28 30  1  0  0  0  0
M  END
$$$$
default_name
  -OEChem-02102213163D

 33 33  0     1  0  0  0  0  0999 V2000
   -4.0702   -3.8485    1.4554 H   0  0  0  0  0  0  0  0  0  0  0  0
   -4.0012   -2.9605    0.8284 C   0  0  0  0  0  0  0  0  0  0  0  0
   -4.7652   -2.2435    1.1234 H   0  0  0  0  0  0  0  0  0  0  0  0
   -4.1352   -3.2385   -0.2156 H   0  0  0  0  0  0  0  0  0  0  0  0
   -2.6362   -2.3395    1.0094 C   0  0  0  0  0  0  0  0  0  0  0  0
   -1.8292   -2.8395    1.7814 O   0  0  0  0  0  0  0  0  0  0  0  0
   -2.3832   -1.2445    0.2964 N   0  0  0  0  0  0  0  0  0  0  0  0
   -3.1102   -0.8685   -0.2946 H   0  0  0  0  0  0  0  0  0  0  0  0
   -1.1292   -0.4875    0.3524 C   0  0  1  0  0  0  0  0  0  0  0  0
   -0.3087   -1.1556    0.0882 H   0  0  0  0  0  0  0  0  0  0  0  0
   -1.1749    0.6534   -0.6787 C   0  0  0  0  0  0  0  0  0  0  0  0
   -0.5560    0.3823   -1.5349 H   0  0  0  0  0  0  0  0  0  0  0  0
   -2.1994    0.7642   -1.0379 H   0  0  0  0  0  0  0  0  0  0  0  0
   -0.6832    1.9852   -0.1453 C   0  0  0  0  0  0  0  0  0  0  0  0
   -0.3673    3.0339   -1.0322 C   0  0  0  0  0  0  0  0  0  0  0  0
   -0.4501    2.8827   -2.1006 H   0  0  0  0  0  0  0  0  0  0  0  0
    0.0502    4.2819   -0.5303 C   0  0  0  0  0  0  0  0  0  0  0  0
    0.2928    5.0822   -1.2124 H   0  0  0  0  0  0  0  0  0  0  0  0
    0.1484    4.4825    0.8639 C   0  0  0  0  0  0  0  0  0  0  0  0
    0.5473    5.6833    1.3581 O   0  0  0  0  0  0  0  0  0  0  0  0
    0.8219    6.2856    0.6654 H   0  0  0  0  0  0  0  0  0  0  0  0
   -0.1728    3.4335    1.7501 C   0  0  0  0  0  0  0  0  0  0  0  0
   -0.0895    3.5978    2.8139 H   0  0  0  0  0  0  0  0  0  0  0  0
   -0.5854    2.1858    1.2452 C   0  0  0  0  0  0  0  0  0  0  0  0
   -0.8231    1.3775    1.9264 H   0  0  0  0  0  0  0  0  0  0  0  0
   -0.8664    0.0378    1.7736 C   0  0  0  0  0  0  0  0  0  0  0  0
    0.2529   -0.0672    2.2760 O   0  0  0  0  0  0  0  0  0  0  0  0
   -1.8947    0.5991    2.4221 N   0  0  0  0  0  0  0  0  0  0  0  0
   -2.7942    0.5936    1.9635 H   0  0  0  0  0  0  0  0  0  0  0  0
   -1.8170    1.1453    3.7750 C   0  0  0  0  0  0  0  0  0  0  0  0
   -0.9697    1.8290    3.8506 H   0  0  0  0  0  0  0  0  0  0  0  0
   -2.7354    1.6828    4.0167 H   0  0  0  0  0  0  0  0  0  0  0  0
   -1.6754    0.3334    4.4914 H   0  0  0  0  0  0  0  0  0  0  0  0
  5  6  2  0  0  0  0
  5  7  1  0  0  0  0
  2  3  1  0  0  0  0
  2  4  1  0  0  0  0
  2  5  1  0  0  0  0
  1  2  1  0  0  0  0
 26 27  2  0  0  0  0
 26 28  1  0  0  0  0
 24 25  1  0  0  0  0
 22 23  1  0  0  0  0
 22 24  2  0  0  0  0
 20 21  1  0  0  0  0
 19 20  1  0  0  0  0
 19 22  1  0  0  0  0
 17 18  1  0  0  0  0
 17 19  2  0  0  0  0
 15 16  1  0  0  0  0
 15 17  1  0  0  0  0
 14 15  2  0  0  0  0
 14 24  1  0  0  0  0
 11 12  1  0  0  0  0
 11 13  1  0  0  0  0
 11 14  1  0  0  0  0
  9 10  1  0  0  0  0
  9 11  1  0  0  0  0
  9 26  1  0  0  0  0
  7  8  1  0  0  0  0
  7  9  1  0  0  0  0
 30 31  1  0  0  0  0
 30 32  1  0  0  0  0
 30 33  1  0  0  0  0
 28 29  1  0  0  0  0
 28 30  1  0  0  0  0
M  END
$$$$
default_name
  -OEChem-02102213163D

 33 33  0     1  0  0  0  0  0999 V2000
   -4.0702   -3.8485    1.4554 H   0  0  0  0  0  0  0  0  0  0  0  0
   -4.0012   -2.9605    0.8284 C   0  0  0  0  0  0  0  0  0  0  0  0
   -4.7652   -2.2435    1.1234 H   0  0  0  0  0  0  0  0  0  0  0  0
   -4.1352   -3.2385   -0.2156 H   0  0  0  0  0  0  0  0  0  0  0  0
   -2.6362   -2.3395    1.0094 C   0  0  0  0  0  0  0  0  0  0  0  0
   -1.8292   -2.8395    1.7814 O   0  0  0  0  0  0  0  0  0  0  0  0
   -2.3832   -1.2445    0.2964 N   0  0  0  0  0  0  0  0  0  0  0  0
   -3.1102   -0.8685   -0.2946 H   0  0  0  0  0  0  0  0  0  0  0  0
   -1.1292   -0.4875    0.3524 C   0  0  1  0  0  0  0  0  0  0  0  0
   -0.3087   -1.1556    0.0882 H   0  0  0  0  0  0  0  0  0  0  0  0
   -1.1749    0.6534   -0.6787 C   0  0  0  0  0  0  0  0  0  0  0  0
   -0.7889    0.2865   -1.6305 H   0  0  0  0  0  0  0  0  0  0  0  0
   -2.2146    0.9443   -0.8380 H   0  0  0  0  0  0  0  0  0  0  0  0
   -0.3672    1.8741   -0.2821 C   0  0  0  0  0  0  0  0  0  0  0  0
   -0.3156    2.9991   -1.1296 C   0  0  0  0  0  0  0  0  0  0  0  0
   -0.8325    2.9848   -2.0802 H   0  0  0  0  0  0  0  0  0  0  0  0
    0.4027    4.1457   -0.7384 C   0  0  0  0  0  0  0  0  0  0  0  0
    0.4414    5.0047   -1.3905 H   0  0  0  0  0  0  0  0  0  0  0  0
    1.0686    4.1683    0.5065 C   0  0  0  0  0  0  0  0  0  0  0  0
    1.7616    5.2704    0.8941 O   0  0  0  0  0  0  0  0  0  0  0  0
    1.8033    5.9324    0.2028 H   0  0  0  0  0  0  0  0  0  0  0  0
    1.0119    3.0436    1.3553 C   0  0  0  0  0  0  0  0  0  0  0  0
    1.5288    3.0714    2.3028 H   0  0  0  0  0  0  0  0  0  0  0  0
    0.2968    1.8973    0.9595 C   0  0  0  0  0  0  0  0  0  0  0  0
    0.2614    1.0301    1.6082 H   0  0  0  0  0  0  0  0  0  0  0  0
   -0.8664    0.0378    1.7736 C   0  0  0  0  0  0  0  0  0  0  0  0
    0.2529   -0.0672    2.2760 O   0  0  0  0  0  0  0  0  0  0  0  0
   -1.8947    0.5991    2.4221 N   0  0  0  0  0  0  0  0  0  0  0  0
   -2.7942    0.5936    1.9635 H   0  0  0  0  0  0  0  0  0  0  0  0
   -1.8170    1.1453    3.7750 C   0  0  0  0  0  0  0  0  0  0  0  0
   -0.9697    1.8290    3.8506 H   0  0  0  0  0  0  0  0  0  0  0  0
   -2.7354    1.6828    4.0167 H   0  0  0  0  0  0  0  0  0  0  0  0
   -1.6754    0.3334    4.4914 H   0  0  0  0  0  0  0  0  0  0  0  0
  5  6  2  0  0  0  0
  5  7  1  0  0  0  0
  2  3  1  0  0  0  0
  2  4  1  0  0  0  0
  2  5  1  0  0  0  0
  1  2  1  0  0  0  0
 26 27  2  0  0  0  0
 26 28  1  0  0  0  0
 24 25  1  0  0  0  0
 22 23  1  0  0  0  0
 22 24  2  0  0  0  0
 20 21  1  0  0  0  0
 19 20  1  0  0  0  0
 19 22  1  0  0  0  0
 17 18  1  0  0  0  0
 17 19  2  0  0  0  0
 15 16  1  0  0  0  0
 15 17  1  0  0  0  0
 14 15  2  0  0  0  0
 14 24  1  0  0  0  0
 11 12  1  0  0  0  0
 11 13  1  0  0  0  0
 11 14  1  0  0  0  0
  9 10  1  0  0  0  0
  9 11  1  0  0  0  0
  9 26  1  0  0  0  0
  7  8  1  0  0  0  0
  7  9  1  0  0  0  0
 30 31  1  0  0  0  0
 30 32  1  0  0  0  0
 30 33  1  0  0  0  0
 28 29  1  0  0  0  0
 28 30  1  0  0  0  0
M  END
$$$$
default_name
  -OEChem-02102213163D

 33 33  0     1  0  0  0  0  0999 V2000
   -4.0702   -3.8485    1.4554 H   0  0  0  0  0  0  0  0  0  0  0  0
   -4.0012   -2.9605    0.8284 C   0  0  0  0  0  0  0  0  0  0  0  0
   -4.7652   -2.2435    1.1234 H   0  0  0  0  0  0  0  0  0  0  0  0
   -4.1352   -3.2385   -0.2156 H   0  0  0  0  0  0  0  0  0  0  0  0
   -2.6362   -2.3395    1.0094 C   0  0  0  0  0  0  0  0  0  0  0  0
   -1.8292   -2.8395    1.7814 O   0  0  0  0  0  0  0  0  0  0  0  0
   -2.3832   -1.2445    0.2964 N   0  0  0  0  0  0  0  0  0  0  0  0
   -3.1102   -0.8685   -0.2946 H   0  0  0  0  0  0  0  0  0  0  0  0
   -1.1292   -0.4875    0.3524 C   0  0  1  0  0  0  0  0  0  0  0  0
   -0.3087   -1.1556    0.0882 H   0  0  0  0  0  0  0  0  0  0  0  0
   -1.1749    0.6534   -0.6787 C   0  0  0  0  0  0  0  0  0  0  0  0
   -0.7889    0.2865   -1.6305 H   0  0  0  0  0  0  0  0  0  0  0  0
   -2.2146    0.9443   -0.8380 H   0  0  0  0  0  0  0  0  0  0  0  0
   -0.3672    1.8741   -0.2821 C   0  0  0  0  0  0  0  0  0  0  0  0
   -0.5572    3.1006   -0.9500 C   0  0  0  0  0  0  0  0  0  0  0  0
   -1.2632    3.1681   -1.7674 H   0  0  0  0  0  0  0  0  0  0  0  0
    0.1662    4.2414   -0.5512 C   0  0  0  0  0  0  0  0  0  0  0  0
    0.0194    5.1785   -1.0659 H   0  0  0  0  0  0  0  0  0  0  0  0
    1.0799    4.1559    0.5218 C   0  0  0  0  0  0  0  0  0  0  0  0
    1.7801    5.2511    0.9159 O   0  0  0  0  0  0  0  0  0  0  0  0
    1.6383    5.9990    0.3341 H   0  0  0  0  0  0  0  0  0  0  0  0
    1.2651    2.9290    1.1922 C   0  0  0  0  0  0  0  0  0  0  0  0
    1.9698    2.8752    2.0083 H   0  0  0  0  0  0  0  0  0  0  0  0
    0.5440    1.7894    0.7883 C   0  0  0  0  0  0  0  0  0  0  0  0
    0.6936    0.8449    1.2978 H   0  0  0  0  0  0  0  0  0  0  0  0
   -0.8664    0.0378    1.7736 C   0  0  0  0  0  0  0  0  0  0  0  0
    0.2529   -0.0672    2.2760 O   0  0  0  0  0  0  0  0  0  0  0  0
   -1.8947    0.5991    2.4221 N   0  0  0  0  0  0  0  0  0  0  0  0
   -2.7942    0.5936    1.9635 H   0  0  0  0  0  0  0  0  0  0  0  0
   -1.8170    1.1453    3.7750 C   0  0  0  0  0  0  0  0  0  0  0  0
   -0.9697    1.8290    3.8506 H   0  0  0  0  0  0  0  0  0  0  0  0
   -2.7354    1.6828    4.0167 H   0  0  0  0  0  0  0  0  0  0  0  0
   -1.6754    0.3334    4.4914 H   0  0  0  0  0  0  0  0  0  0  0  0
  5  6  2  0  0  0  0
  5  7  1  0  0  0  0
  2  3  1  0  0  0  0
  2  4  1  0  0  0  0
  2  5  1  0  0  0  0
  1  2  1  0  0  0  0
 26 27  2  0  0  0  0
 26 28  1  0  0  0  0
 24 25  1  0  0  0  0
 22 23  1  0  0  0  0
 22 24  2  0  0  0  0
 20 21  1  0  0  0  0
 19 20  1  0  0  0  0
 19 22  1  0  0  0  0
 17 18  1  0  0  0  0
 17 19  2  0  0  0  0
 15 16  1  0  0  0  0
 15 17  1  0  0  0  0
 14 15  2  0  0  0  0
 14 24  1  0  0  0  0
 11 12  1  0  0  0  0
 11 13  1  0  0  0  0
 11 14  1  0  0  0  0
  9 10  1  0  0  0  0
  9 11  1  0  0  0  0
  9 26  1  0  0  0  0
  7  8  1  0  0  0  0
  7  9  1  0  0  0  0
 30 31  1  0  0  0  0
 30 32  1  0  0  0  0
 30 33  1  0  0  0  0
 28 29  1  0  0  0  0
 28 30  1  0  0  0  0
M  END
$$$$
default_name
  -OEChem-02102213163D

 33 33  0     1  0  0  0  0  0999 V2000
   -4.0702   -3.8485    1.4554 H   0  0  0  0  0  0  0  0  0  0  0  0
   -4.0012   -2.9605    0.8284 C   0  0  0  0  0  0  0  0  0  0  0  0
   -4.7652   -2.2435    1.1234 H   0  0  0  0  0  0  0  0  0  0  0  0
   -4.1352   -3.2385   -0.2156 H   0  0  0  0  0  0  0  0  0  0  0  0
   -2.6362   -2.3395    1.0094 C   0  0  0  0  0  0  0  0  0  0  0  0
   -1.8292   -2.8395    1.7814 O   0  0  0  0  0  0  0  0  0  0  0  0
   -2.3832   -1.2445    0.2964 N   0  0  0  0  0  0  0  0  0  0  0  0
   -3.1102   -0.8685   -0.2946 H   0  0  0  0  0  0  0  0  0  0  0  0
   -1.1292   -0.4875    0.3524 C   0  0  1  0  0  0  0  0  0  0  0  0
   -0.3087   -1.1556    0.0882 H   0  0  0  0  0  0  0  0  0  0  0  0
   -1.1749    0.6534   -0.6787 C   0  0  0  0  0  0  0  0  0  0  0  0
   -0.7889    0.2865   -1.6305 H   0  0  0  0  0  0  0  0  0  0  0  0
   -2.2146    0.9443   -0.8380 H   0  0  0  0  0  0  0  0  0  0  0  0
   -0.3672    1.8741   -0.2821 C   0  0  0  0  0  0  0  0  0  0  0  0
   -0.7599    3.1575   -0.7123 C   0  0  0  0  0  0  0  0  0  0  0  0
   -1.6265    3.2730   -1.3501 H   0  0  0  0  0  0  0  0  0  0  0  0
   -0.0298    4.2921   -0.3080 C   0  0  0  0  0  0  0  0  0  0  0  0
   -0.3324    5.2731   -0.6405 H   0  0  0  0  0  0  0  0  0  0  0  0
    1.0948    4.1425    0.5326 C   0  0  0  0  0  0  0  0  0  0  0  0
    1.8038    5.2307    0.9305 O   0  0  0  0  0  0  0  0  0  0  0  0
    1.5018    6.0340    0.5044 H   0  0  0  0  0  0  0  0  0  0  0  0
    1.4834    2.8580    0.9661 C   0  0  0  0  0  0  0  0  0  0  0  0
    2.3477    2.7562    1.6050 H   0  0  0  0  0  0  0  0  0  0  0  0
    0.7543    1.7255    0.5565 C   0  0  0  0  0  0  0  0  0  0  0  0
    1.0590    0.7381    0.8824 H   0  0  0  0  0  0  0  0  0  0  0  0
   -0.8664    0.0378    1.7736 C   0  0  0  0  0  0  0  0  0  0  0  0
    0.2529   -0.0672    2.2760 O   0  0  0  0  0  0  0  0  0  0  0  0
   -1.8947    0.5991    2.4221 N   0  0  0  0  0  0  0  0  0  0  0  0
   -2.7942    0.5936    1.9635 H   0  0  0  0  0  0  0  0  0  0  0  0
   -1.8170    1.1453    3.7750 C   0  0  0  0  0  0  0  0  0  0  0  0
   -0.9697    1.8290    3.8506 H   0  0  0  0  0  0  0  0  0  0  0  0
   -2.7354    1.6828    4.0167 H   0  0  0  0  0  0  0  0  0  0  0  0
   -1.6754    0.3334    4.4914 H   0  0  0  0  0  0  0  0  0  0  0  0
  5  6  2  0  0  0  0
  5  7  1  0  0  0  0
  2  3  1  0  0  0  0
  2  4  1  0  0  0  0
  2  5  1  0  0  0  0
  1  2  1  0  0  0  0
 26 27  2  0  0  0  0
 26 28  1  0  0  0  0
 24 25  1  0  0  0  0
 22 23  1  0  0  0  0
 22 24  2  0  0  0  0
 20 21  1  0  0  0  0
 19 20  1  0  0  0  0
 19 22  1  0  0  0  0
 17 18  1  0  0  0  0
 17 19  2  0  0  0  0
 15 16  1  0  0  0  0
 15 17  1  0  0  0  0
 14 15  2  0  0  0  0
 14 24  1  0  0  0  0
 11 12  1  0  0  0  0
 11 13  1  0  0  0  0
 11 14  1  0  0  0  0
  9 10  1  0  0  0  0
  9 11  1  0  0  0  0
  9 26  1  0  0  0  0
  7  8  1  0  0  0  0
  7  9  1  0  0  0  0
 30 31  1  0  0  0  0
 30 32  1  0  0  0  0
 30 33  1  0  0  0  0
 28 29  1  0  0  0  0
 28 30  1  0  0  0  0
M  END
$$$$
default_name
  -OEChem-02102213163D

 33 33  0     1  0  0  0  0  0999 V2000
   -4.0702   -3.8485    1.4554 H   0  0  0  0  0  0  0  0  0  0  0  0
   -4.0012   -2.9605    0.8284 C   0  0  0  0  0  0  0  0  0  0  0  0
   -4.7652   -2.2435    1.1234 H   0  0  0  0  0  0  0  0  0  0  0  0
   -4.1352   -3.2385   -0.2156 H   0  0  0  0  0  0  0  0  0  0  0  0
   -2.6362   -2.3395    1.0094 C   0  0  0  0  0  0  0  0  0  0  0  0
   -1.8292   -2.8395    1.7814 O   0  0  0  0  0  0  0  0  0  0  0  0
   -2.3832   -1.2445    0.2964 N   0  0  0  0  0  0  0  0  0  0  0  0
   -3.1102   -0.8685   -0.2946 H   0  0  0  0  0  0  0  0  0  0  0  0
   -1.1292   -0.4875    0.3524 C   0  0  1  0  0  0  0  0  0  0  0  0
   -0.3087   -1.1556    0.0882 H   0  0  0  0  0  0  0  0  0  0  0  0
   -1.1749    0.6534   -0.6787 C   0  0  0  0  0  0  0  0  0  0  0  0
   -0.7889    0.2865   -1.6305 H   0  0  0  0  0  0  0  0  0  0  0  0
   -2.2146    0.9443   -0.8380 H   0  0  0  0  0  0  0  0  0  0  0  0
   -0.3672    1.8741   -0.2821 C   0  0  0  0  0  0  0  0  0  0  0  0
   -0.9101    3.1660   -0.4326 C   0  0  0  0  0  0  0  0  0  0  0  0
   -1.8975    3.2922   -0.8570 H   0  0  0  0  0  0  0  0  0  0  0  0
   -0.1719    4.2942   -0.0252 C   0  0  0  0  0  0  0  0  0  0  0  0
   -0.5900    5.2821   -0.1433 H   0  0  0  0  0  0  0  0  0  0  0  0
    1.1123    4.1291    0.5381 C   0  0  0  0  0  0  0  0  0  0  0  0
    1.8310    5.2106    0.9368 O   0  0  0  0  0  0  0  0  0  0  0  0
    1.4030    6.0351    0.7022 H   0  0  0  0  0  0  0  0  0  0  0  0
    1.6520    2.8354    0.6924 C   0  0  0  0  0  0  0  0  0  0  0  0
    2.6367    2.7224    1.1203 H   0  0  0  0  0  0  0  0  0  0  0  0
    0.9135    1.7099    0.2800 C   0  0  0  0  0  0  0  0  0  0  0  0
    1.3326    0.7169    0.3903 H   0  0  0  0  0  0  0  0  0  0  0  0
   -0.8664    0.0378    1.7736 C   0  0  0  0  0  0  0  0  0  0  0  0
    0.2529   -0.0672    2.2760 O   0  0  0  0  0  0  0  0  0  0  0  0
   -1.8947    0.5991    2.4221 N   0  0  0  0  0  0  0  0  0  0  0  0
   -2.7942    0.5936    1.9635 H   0  0  0  0  0  0  0  0  0  0  0  0
   -1.8170    1.1453    3.7750 C   0  0  0  0  0  0  0  0  0  0  0  0
   -0.9697    1.8290    3.8506 H   0  0  0  0  0  0  0  0  0  0  0  0
   -2.7354    1.6828    4.0167 H   0  0  0  0  0  0  0  0  0  0  0  0
   -1.6754    0.3334    4.4914 H   0  0  0  0  0  0  0  0  0  0  0  0
  5  6  2  0  0  0  0
  5  7  1  0  0  0  0
  2  3  1  0  0  0  0
  2  4  1  0  0  0  0
  2  5  1  0  0  0  0
  1  2  1  0  0  0  0
 26 27  2  0  0  0  0
 26 28  1  0  0  0  0
 24 25  1  0  0  0  0
 22 23  1  0  0  0  0
 22 24  2  0  0  0  0
 20 21  1  0  0  0  0
 19 20  1  0  0  0  0
 19 22  1  0  0  0  0
 17 18  1  0  0  0  0
 17 19  2  0  0  0  0
 15 16  1  0  0  0  0
 15 17  1  0  0  0  0
 14 15  2  0  0  0  0
 14 24  1  0  0  0  0
 11 12  1  0  0  0  0
 11 13  1  0  0  0  0
 11 14  1  0  0  0  0
  9 10  1  0  0  0  0
  9 11  1  0  0  0  0
  9 26  1  0  0  0  0
  7  8  1  0  0  0  0
  7  9  1  0  0  0  0
 30 31  1  0  0  0  0
 30 32  1  0  0  0  0
 30 33  1  0  0  0  0
 28 29  1  0  0  0  0
 28 30  1  0  0  0  0
M  END
$$$$
default_name
  -OEChem-02102213163D

 33 33  0     1  0  0  0  0  0999 V2000
   -4.0702   -3.8485    1.4554 H   0  0  0  0  0  0  0  0  0  0  0  0
   -4.0012   -2.9605    0.8284 C   0  0  0  0  0  0  0  0  0  0  0  0
   -4.7652   -2.2435    1.1234 H   0  0  0  0  0  0  0  0  0  0  0  0
   -4.1352   -3.2385   -0.2156 H   0  0  0  0  0  0  0  0  0  0  0  0
   -2.6362   -2.3395    1.0094 C   0  0  0  0  0  0  0  0  0  0  0  0
   -1.8292   -2.8395    1.7814 O   0  0  0  0  0  0  0  0  0  0  0  0
   -2.3832   -1.2445    0.2964 N   0  0  0  0  0  0  0  0  0  0  0  0
   -3.1102   -0.8685   -0.2946 H   0  0  0  0  0  0  0  0  0  0  0  0
   -1.1292   -0.4875    0.3524 C   0  0  1  0  0  0  0  0  0  0  0  0
   -0.3087   -1.1556    0.0882 H   0  0  0  0  0  0  0  0  0  0  0  0
   -1.1749    0.6534   -0.6787 C   0  0  0  0  0  0  0  0  0  0  0  0
   -0.7889    0.2865   -1.6305 H   0  0  0  0  0  0  0  0  0  0  0  0
   -2.2146    0.9443   -0.8380 H   0  0  0  0  0  0  0  0  0  0  0  0
   -0.3672    1.8741   -0.2821 C   0  0  0  0  0  0  0  0  0  0  0  0
   -0.9974    3.1255   -0.1299 C   0  0  0  0  0  0  0  0  0  0  0  0
   -2.0579    3.2244   -0.3215 H   0  0  0  0  0  0  0  0  0  0  0  0
   -0.2503    4.2477    0.2779 C   0  0  0  0  0  0  0  0  0  0  0  0
   -0.7358    5.2047    0.3919 H   0  0  0  0  0  0  0  0  0  0  0  0
    1.1313    4.1167    0.5378 C   0  0  0  0  0  0  0  0  0  0  0  0
    1.8601    5.1922    0.9344 O   0  0  0  0  0  0  0  0  0  0  0  0
    1.3488    6.0022    0.9140 H   0  0  0  0  0  0  0  0  0  0  0  0
    1.7593    2.8626    0.3897 C   0  0  0  0  0  0  0  0  0  0  0  0
    2.8172    2.7761    0.5872 H   0  0  0  0  0  0  0  0  0  0  0  0
    1.0107    1.7438   -0.0224 C   0  0  0  0  0  0  0  0  0  0  0  0
    1.4958    0.7827   -0.1450 H   0  0  0  0  0  0  0  0  0  0  0  0
   -0.8664    0.0378    1.7736 C   0  0  0  0  0  0  0  0  0  0  0  0
    0.2529   -0.0672    2.2760 O   0  0  0  0  0  0  0  0  0  0  0  0
   -1.8947    0.5991    2.4221 N   0  0  0  0  0  0  0  0  0  0  0  0
   -2.7942    0.5936    1.9635 H   0  0  0  0  0  0  0  0  0  0  0  0
   -1.8170    1.1453    3.7750 C   0  0  0  0  0  0  0  0  0  0  0  0
   -0.9697    1.8290    3.8506 H   0  0  0  0  0  0  0  0  0  0  0  0
   -2.7354    1.6828    4.0167 H   0  0  0  0  0  0  0  0  0  0  0  0
   -1.6754    0.3334    4.4914 H   0  0  0  0  0  0  0  0  0  0  0  0
  5  6  2  0  0  0  0
  5  7  1  0  0  0  0
  2  3  1  0  0  0  0
  2  4  1  0  0  0  0
  2  5  1  0  0  0  0
  1  2  1  0  0  0  0
 26 27  2  0  0  0  0
 26 28  1  0  0  0  0
 24 25  1  0  0  0  0
 22 23  1  0  0  0  0
 22 24  2  0  0  0  0
 20 21  1  0  0  0  0
 19 20  1  0  0  0  0
 19 22  1  0  0  0  0
 17 18  1  0  0  0  0
 17 19  2  0  0  0  0
 15 16  1  0  0  0  0
 15 17  1  0  0  0  0
 14 15  2  0  0  0  0
 14 24  1  0  0  0  0
 11 12  1  0  0  0  0
 11 13  1  0  0  0  0
 11 14  1  0  0  0  0
  9 10  1  0  0  0  0
  9 11  1  0  0  0  0
  9 26  1  0  0  0  0
  7  8  1  0  0  0  0
  7  9  1  0  0  0  0
 30 31  1  0  0  0  0
 30 32  1  0  0  0  0
 30 33  1  0  0  0  0
 28 29  1  0  0  0  0
 28 30  1  0  0  0  0
M  END
$$$$
default_name
  -OEChem-02102213163D

 33 33  0     1  0  0  0  0  0999 V2000
   -4.0702   -3.8485    1.4554 H   0  0  0  0  0  0  0  0  0  0  0  0
   -4.0012   -2.9605    0.8284 C   0  0  0  0  0  0  0  0  0  0  0  0
   -4.7652   -2.2435    1.1234 H   0  0  0  0  0  0  0  0  0  0  0  0
   -4.1352   -3.2385   -0.2156 H   0  0  0  0  0  0  0  0  0  0  0  0
   -2.6362   -2.3395    1.0094 C   0  0  0  0  0  0  0  0  0  0  0  0
   -1.8292   -2.8395    1.7814 O   0  0  0  0  0  0  0  0  0  0  0  0
   -2.3832   -1.2445    0.2964 N   0  0  0  0  0  0  0  0  0  0  0  0
   -3.1102   -0.8685   -0.2946 H   0  0  0  0  0  0  0  0  0  0  0  0
   -1.1292   -0.4875    0.3524 C   0  0  1  0  0  0  0  0  0  0  0  0
   -0.3087   -1.1556    0.0882 H   0  0  0  0  0  0  0  0  0  0  0  0
   -1.1749    0.6534   -0.6787 C   0  0  0  0  0  0  0  0  0  0  0  0
   -0.7889    0.2865   -1.6305 H   0  0  0  0  0  0  0  0  0  0  0  0
   -2.2146    0.9443   -0.8380 H   0  0  0  0  0  0  0  0  0  0  0  0
   -0.3672    1.8741   -0.2821 C   0  0  0  0  0  0  0  0  0  0  0  0
   -1.0160    3.0387    0.1751 C   0  0  0  0  0  0  0  0  0  0  0  0
   -2.0967    3.0742    0.2197 H   0  0  0  0  0  0  0  0  0  0  0  0
   -0.2598    4.1557    0.5805 C   0  0  0  0  0  0  0  0  0  0  0  0
   -0.7600    5.0463    0.9286 H   0  0  0  0  0  0  0  0  0  0  0  0
    1.1505    4.1059    0.5319 C   0  0  0  0  0  0  0  0  0  0  0  0
    1.8888    5.1767    0.9235 O   0  0  0  0  0  0  0  0  0  0  0  0
    1.3427    5.9375    1.1254 H   0  0  0  0  0  0  0  0  0  0  0  0
    1.7981    2.9380    0.0788 C   0  0  0  0  0  0  0  0  0  0  0  0
    2.8769    2.9137    0.0421 H   0  0  0  0  0  0  0  0  0  0  0  0
    1.0394    1.8248   -0.3301 C   0  0  0  0  0  0  0  0  0  0  0  0
    1.5375    0.9312   -0.6869 H   0  0  0  0  0  0  0  0  0  0  0  0
   -0.8664    0.0378    1.7736 C   0  0  0  0  0  0  0  0  0  0  0  0
    0.2529   -0.0672    2.2760 O   0  0  0  0  0  0  0  0  0  0  0  0
   -1.8947    0.5991    2.4221 N   0  0  0  0  0  0  0  0  0  0  0  0
   -2.7942    0.5936    1.9635 H   0  0  0  0  0  0  0  0  0  0  0  0
   -1.8170    1.1453    3.7750 C   0  0  0  0  0  0  0  0  0  0  0  0
   -0.9697    1.8290    3.8506 H   0  0  0  0  0  0  0  0  0  0  0  0
   -2.7354    1.6828    4.0167 H   0  0  0  0  0  0  0  0  0  0  0  0
   -1.6754    0.3334    4.4914 H   0  0  0  0  0  0  0  0  0  0  0  0
  5  6  2  0  0  0  0
  5  7  1  0  0  0  0
  2  3  1  0  0  0  0
  2  4  1  0  0  0  0
  2  5  1  0  0  0  0
  1  2  1  0  0  0  0
 26 27  2  0  0  0  0
 26 28  1  0  0  0  0
 24 25  1  0  0  0  0
 22 23  1  0  0  0  0
 22 24  2  0  0  0  0
 20 21  1  0  0  0  0
 19 20  1  0  0  0  0
 19 22  1  0  0  0  0
 17 18  1  0  0  0  0
 17 19  2  0  0  0  0
 15 16  1  0  0  0  0
 15 17  1  0  0  0  0
 14 15  2  0  0  0  0
 14 24  1  0  0  0  0
 11 12  1  0  0  0  0
 11 13  1  0  0  0  0
 11 14  1  0  0  0  0
  9 10  1  0  0  0  0
  9 11  1  0  0  0  0
  9 26  1  0  0  0  0
  7  8  1  0  0  0  0
  7  9  1  0  0  0  0
 30 31  1  0  0  0  0
 30 32  1  0  0  0  0
 30 33  1  0  0  0  0
 28 29  1  0  0  0  0
 28 30  1  0  0  0  0
M  END
$$$$
default_name
  -OEChem-02102213163D

 33 33  0     1  0  0  0  0  0999 V2000
   -4.0702   -3.8485    1.4554 H   0  0  0  0  0  0  0  0  0  0  0  0
   -4.0012   -2.9605    0.8284 C   0  0  0  0  0  0  0  0  0  0  0  0
   -4.7652   -2.2435    1.1234 H   0  0  0  0  0  0  0  0  0  0  0  0
   -4.1352   -3.2385   -0.2156 H   0  0  0  0  0  0  0  0  0  0  0  0
   -2.6362   -2.3395    1.0094 C   0  0  0  0  0  0  0  0  0  0  0  0
   -1.8292   -2.8395    1.7814 O   0  0  0  0  0  0  0  0  0  0  0  0
   -2.3832   -1.2445    0.2964 N   0  0  0  0  0  0  0  0  0  0  0  0
   -3.1102   -0.8685   -0.2946 H   0  0  0  0  0  0  0  0  0  0  0  0
   -1.1292   -0.4875    0.3524 C   0  0  1  0  0  0  0  0  0  0  0  0
   -0.3087   -1.1556    0.0882 H   0  0  0  0  0  0  0  0  0  0  0  0
   -1.1749    0.6534   -0.6787 C   0  0  0  0  0  0  0  0  0  0  0  0
   -0.7889    0.2865   -1.6305 H   0  0  0  0  0  0  0  0  0  0  0  0
   -2.2146    0.9443   -0.8380 H   0  0  0  0  0  0  0  0  0  0  0  0
   -0.3672    1.8741   -0.2821 C   0  0  0  0  0  0  0  0  0  0  0  0
   -0.9646    2.9116    0.4615 C   0  0  0  0  0  0  0  0  0  0  0  0
   -2.0112    2.8519    0.7299 H   0  0  0  0  0  0  0  0  0  0  0  0
   -0.1997    4.0244    0.8621 C   0  0  0  0  0  0  0  0  0  0  0  0
   -0.6607    4.8177    1.4301 H   0  0  0  0  0  0  0  0  0  0  0  0
    1.1685    4.0976    0.5208 C   0  0  0  0  0  0  0  0  0  0  0  0
    1.9154    5.1651    0.9049 O   0  0  0  0  0  0  0  0  0  0  0  0
    1.3852    5.8456    1.3219 H   0  0  0  0  0  0  0  0  0  0  0  0
    1.7658    3.0562   -0.2192 C   0  0  0  0  0  0  0  0  0  0  0  0
    2.8116    3.1258   -0.4779 H   0  0  0  0  0  0  0  0  0  0  0  0
    0.9974    1.9474   -0.6221 C   0  0  0  0  0  0  0  0  0  0  0  0
    1.4548    1.1521   -1.1986 H   0  0  0  0  0  0  0  0  0  0  0  0
   -0.8664    0.0378    1.7736 C   0  0  0  0  0  0  0  0  0  0  0  0
    0.2529   -0.0672    2.2760 O   0  0  0  0  0  0  0  0  0  0  0  0
   -1.8947    0.5991    2.4221 N   0  0  0  0  0  0  0  0  0  0  0  0
   -2.7942    0.5936    1.9635 H   0  0  0  0  0  0  0  0  0  0  0  0
   -1.8170    1.1453    3.7750 C   0  0  0  0  0  0  0  0  0  0  0  0
   -0.9697    1.8290    3.8506 H   0  0  0  0  0  0  0  0  0  0  0  0
   -2.7354    1.6828    4.0167 H   0  0  0  0  0  0  0  0  0  0  0  0
   -1.6754    0.3334    4.4914 H   0  0  0  0  0  0  0  0  0  0  0  0
  5  6  2  0  0  0  0
  5  7  1  0  0  0  0
  2  3  1  0  0  0  0
  2  4  1  0  0  0  0
  2  5  1  0  0  0  0
  1  2  1  0  0  0  0
 26 27  2  0  0  0  0
 26 28  1  0  0  0  0
 24 25  1  0  0  0  0
 22 23  1  0  0  0  0
 22 24  2  0  0  0  0
 20 21  1  0  0  0  0
 19 20  1  0  0  0  0
 19 22  1  0  0  0  0
 17 18  1  0  0  0  0
 17 19  2  0  0  0  0
 15 16  1  0  0  0  0
 15 17  1  0  0  0  0
 14 15  2  0  0  0  0
 14 24  1  0  0  0  0
 11 12  1  0  0  0  0
 11 13  1  0  0  0  0
 11 14  1  0  0  0  0
  9 10  1  0  0  0  0
  9 11  1  0  0  0  0
  9 26  1  0  0  0  0
  7  8  1  0  0  0  0
  7  9  1  0  0  0  0
 30 31  1  0  0  0  0
 30 32  1  0  0  0  0
 30 33  1  0  0  0  0
 28 29  1  0  0  0  0
 28 30  1  0  0  0  0
M  END
$$$$
default_name
  -OEChem-02102213163D

 33 33  0     1  0  0  0  0  0999 V2000
   -4.0702   -3.8485    1.4554 H   0  0  0  0  0  0  0  0  0  0  0  0
   -4.0012   -2.9605    0.8284 C   0  0  0  0  0  0  0  0  0  0  0  0
   -4.7652   -2.2435    1.1234 H   0  0  0  0  0  0  0  0  0  0  0  0
   -4.1352   -3.2385   -0.2156 H   0  0  0  0  0  0  0  0  0  0  0  0
   -2.6362   -2.3395    1.0094 C   0  0  0  0  0  0  0  0  0  0  0  0
   -1.8292   -2.8395    1.7814 O   0  0  0  0  0  0  0  0  0  0  0  0
   -2.3832   -1.2445    0.2964 N   0  0  0  0  0  0  0  0  0  0  0  0
   -3.1102   -0.8685   -0.2946 H   0  0  0  0  0  0  0  0  0  0  0  0
   -1.1292   -0.4875    0.3524 C   0  0  1  0  0  0  0  0  0  0  0  0
   -0.3087   -1.1556    0.0882 H   0  0  0  0  0  0  0  0  0  0  0  0
   -1.1749    0.6534   -0.6787 C   0  0  0  0  0  0  0  0  0  0  0  0
   -0.7889    0.2865   -1.6305 H   0  0  0  0  0  0  0  0  0  0  0  0
   -2.2146    0.9443   -0.8380 H   0  0  0  0  0  0  0  0  0  0  0  0
   -0.3672    1.8741   -0.2821 C   0  0  0  0  0  0  0  0  0  0  0  0
   -0.8466    2.7528    0.7100 C   0  0  0  0  0  0  0  0  0  0  0  0
   -1.8073    2.5726    1.1743 H   0  0  0  0  0  0  0  0  0  0  0  0
   -0.0740    3.8629    1.1035 C   0  0  0  0  0  0  0  0  0  0  0  0
   -0.4449    4.5345    1.8624 H   0  0  0  0  0  0  0  0  0  0  0  0
    1.1841    4.0924    0.5051 C   0  0  0  0  0  0  0  0  0  0  0  0
    1.9380    5.1583    0.8798 O   0  0  0  0  0  0  0  0  0  0  0  0
    1.4735    5.7325    1.4901 H   0  0  0  0  0  0  0  0  0  0  0  0
    1.6644    3.2093   -0.4840 C   0  0  0  0  0  0  0  0  0  0  0  0
    2.6259    3.3979   -0.9373 H   0  0  0  0  0  0  0  0  0  0  0  0
    0.8878    2.1033   -0.8785 C   0  0  0  0  0  0  0  0  0  0  0  0
    1.2533    1.4305   -1.6451 H   0  0  0  0  0  0  0  0  0  0  0  0
   -0.8664    0.0378    1.7736 C   0  0  0  0  0  0  0  0  0  0  0  0
    0.2529   -0.0672    2.2760 O   0  0  0  0  0  0  0  0  0  0  0  0
   -1.8947    0.5991    2.4221 N   0  0  0  0  0  0  0  0  0  0  0  0
   -2.7942    0.5936    1.9635 H   0  0  0  0  0  0  0  0  0  0  0  0
   -1.8170    1.1453    3.7750 C   0  0  0  0  0  0  0  0  0  0  0  0
   -0.9697    1.8290    3.8506 H   0  0  0  0  0  0  0  0  0  0  0  0
   -2.7354    1.6828    4.0167 H   0  0  0  0  0  0  0  0  0  0  0  0
   -1.6754    0.3334    4.4914 H   0  0  0  0  0  0  0  0  0  0  0  0
  5  6  2  0  0  0  0
  5  7  1  0  0  0  0
  2  3  1  0  0  0  0
  2  4  1  0  0  0  0
  2  5  1  0  0  0  0
  1  2  1  0  0  0  0
 26 27  2  0  0  0  0
 26 28  1  0  0  0  0
 24 25  1  0  0  0  0
 22 23  1  0  0  0  0
 22 24  2  0  0  0  0
 20 21  1  0  0  0  0
 19 20  1  0  0  0  0
 19 22  1  0  0  0  0
 17 18  1  0  0  0  0
 17 19  2  0  0  0  0
 15 16  1  0  0  0  0
 15 17  1  0  0  0  0
 14 15  2  0  0  0  0
 14 24  1  0  0  0  0
 11 12  1  0  0  0  0
 11 13  1  0  0  0  0
 11 14  1  0  0  0  0
  9 10  1  0  0  0  0
  9 11  1  0  0  0  0
  9 26  1  0  0  0  0
  7  8  1  0  0  0  0
  7  9  1  0  0  0  0
 30 31  1  0  0  0  0
 30 32  1  0  0  0  0
 30 33  1  0  0  0  0
 28 29  1  0  0  0  0
 28 30  1  0  0  0  0
M  END
$$$$
default_name
  -OEChem-02102213163D

 33 33  0     1  0  0  0  0  0999 V2000
   -4.0702   -3.8485    1.4554 H   0  0  0  0  0  0  0  0  0  0  0  0
   -4.0012   -2.9605    0.8284 C   0  0  0  0  0  0  0  0  0  0  0  0
   -4.7652   -2.2435    1.1234 H   0  0  0  0  0  0  0  0  0  0  0  0
   -4.1352   -3.2385   -0.2156 H   0  0  0  0  0  0  0  0  0  0  0  0
   -2.6362   -2.3395    1.0094 C   0  0  0  0  0  0  0  0  0  0  0  0
   -1.8292   -2.8395    1.7814 O   0  0  0  0  0  0  0  0  0  0  0  0
   -2.3832   -1.2445    0.2964 N   0  0  0  0  0  0  0  0  0  0  0  0
   -3.1102   -0.8685   -0.2946 H   0  0  0  0  0  0  0  0  0  0  0  0
   -1.1292   -0.4875    0.3524 C   0  0  1  0  0  0  0  0  0  0  0  0
   -0.3087   -1.1556    0.0882 H   0  0  0  0  0  0  0  0  0  0  0  0
   -1.1749    0.6534   -0.6787 C   0  0  0  0  0  0  0  0  0  0  0  0
   -0.7889    0.2865   -1.6305 H   0  0  0  0  0  0  0  0  0  0  0  0
   -2.2146    0.9443   -0.8380 H   0  0  0  0  0  0  0  0  0  0  0  0
   -0.3672    1.8741   -0.2821 C   0  0  0  0  0  0  0  0  0  0  0  0
   -0.6701    2.5732    0.9035 C   0  0  0  0  0  0  0  0  0  0  0  0
   -1.4989    2.2554    1.5226 H   0  0  0  0  0  0  0  0  0  0  0  0
    0.1085    3.6820    1.2883 C   0  0  0  0  0  0  0  0  0  0  0  0
   -0.1272    4.2159    2.1960 H   0  0  0  0  0  0  0  0  0  0  0  0
    1.1962    4.0905    0.4860 C   0  0  0  0  0  0  0  0  0  0  0  0
    1.9551    5.1568    0.8499 O   0  0  0  0  0  0  0  0  0  0  0  0
    1.6015    5.6061    1.6187 H   0  0  0  0  0  0  0  0  0  0  0  0
    1.5009    3.3868   -0.6976 C   0  0  0  0  0  0  0  0  0  0  0  0
    2.3324    3.7115   -1.3049 H   0  0  0  0  0  0  0  0  0  0  0  0
    0.7179    2.2817   -1.0818 C   0  0  0  0  0  0  0  0  0  0  0  0
    0.9469    1.7473   -1.9961 H   0  0  0  0  0  0  0  0  0  0  0  0
   -0.8664    0.0378    1.7736 C   0  0  0  0  0  0  0  0  0  0  0  0
    0.2529   -0.0672    2.2760 O   0  0  0  0  0  0  0  0  0  0  0  0
   -1.8947    0.5991    2.4221 N   0  0  0  0  0  0  0  0  0  0  0  0
   -2.7942    0.5936    1.9635 H   0  0  0  0  0  0  0  0  0  0  0  0
   -1.8170    1.1453    3.7750 C   0  0  0  0  0  0  0  0  0  0  0  0
   -0.9697    1.8290    3.8506 H   0  0  0  0  0  0  0  0  0  0  0  0
   -2.7354    1.6828    4.0167 H   0  0  0  0  0  0  0  0  0  0  0  0
   -1.6754    0.3334    4.4914 H   0  0  0  0  0  0  0  0  0  0  0  0
  5  6  2  0  0  0  0
  5  7  1  0  0  0  0
  2  3  1  0  0  0  0
  2  4  1  0  0  0  0
  2  5  1  0  0  0  0
  1  2  1  0  0  0  0
 26 27  2  0  0  0  0
 26 28  1  0  0  0  0
 24 25  1  0  0  0  0
 22 23  1  0  0  0  0
 22 24  2  0  0  0  0
 20 21  1  0  0  0  0
 19 20  1  0  0  0  0
 19 22  1  0  0  0  0
 17 18  1  0  0  0  0
 17 19  2  0  0  0  0
 15 16  1  0  0  0  0
 15 17  1  0  0  0  0
 14 15  2  0  0  0  0
 14 24  1  0  0  0  0
 11 12  1  0  0  0  0
 11 13  1  0  0  0  0
 11 14  1  0  0  0  0
  9 10  1  0  0  0  0
  9 11  1  0  0  0  0
  9 26  1  0  0  0  0
  7  8  1  0  0  0  0
  7  9  1  0  0  0  0
 30 31  1  0  0  0  0
 30 32  1  0  0  0  0
 30 33  1  0  0  0  0
 28 29  1  0  0  0  0
 28 30  1  0  0  0  0
M  END
$$$$
default_name
  -OEChem-02102213163D

 33 33  0     1  0  0  0  0  0999 V2000
   -4.0702   -3.8485    1.4554 H   0  0  0  0  0  0  0  0  0  0  0  0
   -4.0012   -2.9605    0.8284 C   0  0  0  0  0  0  0  0  0  0  0  0
   -4.7652   -2.2435    1.1234 H   0  0  0  0  0  0  0  0  0  0  0  0
   -4.1352   -3.2385   -0.2156 H   0  0  0  0  0  0  0  0  0  0  0  0
   -2.6362   -2.3395    1.0094 C   0  0  0  0  0  0  0  0  0  0  0  0
   -1.8292   -2.8395    1.7814 O   0  0  0  0  0  0  0  0  0  0  0  0
   -2.3832   -1.2445    0.2964 N   0  0  0  0  0  0  0  0  0  0  0  0
   -3.1102   -0.8685   -0.2946 H   0  0  0  0  0  0  0  0  0  0  0  0
   -1.1292   -0.4875    0.3524 C   0  0  1  0  0  0  0  0  0  0  0  0
   -0.3087   -1.1556    0.0882 H   0  0  0  0  0  0  0  0  0  0  0  0
   -1.1749    0.6534   -0.6787 C   0  0  0  0  0  0  0  0  0  0  0  0
   -0.7889    0.2865   -1.6305 H   0  0  0  0  0  0  0  0  0  0  0  0
   -2.2146    0.9443   -0.8380 H   0  0  0  0  0  0  0  0  0  0  0  0
   -0.3672    1.8741   -0.2821 C   0  0  0  0  0  0  0  0  0  0  0  0
   -0.4472    2.3849    1.0289 C   0  0  0  0  0  0  0  0  0  0  0  0
   -1.1070    1.9219    1.7510 H   0  0  0  0  0  0  0  0  0  0  0  0
    0.3356    3.4943    1.4037 C   0  0  0  0  0  0  0  0  0  0  0  0
    0.2707    3.8837    2.4081 H   0  0  0  0  0  0  0  0  0  0  0  0
    1.2041    4.0922    0.4647 C   0  0  0  0  0  0  0  0  0  0  0  0
    1.9654    5.1606    0.8172 O   0  0  0  0  0  0  0  0  0  0  0  0
    1.7604    5.4749    1.6988 H   0  0  0  0  0  0  0  0  0  0  0  0
    1.2865    3.5767   -0.8454 C   0  0  0  0  0  0  0  0  0  0  0  0
    1.9511    4.0453   -1.5556 H   0  0  0  0  0  0  0  0  0  0  0  0
    0.4994    2.4706   -1.2183 C   0  0  0  0  0  0  0  0  0  0  0  0
    0.5564    2.0809   -2.2277 H   0  0  0  0  0  0  0  0  0  0  0  0
   -0.8664    0.0378    1.7736 C   0  0  0  0  0  0  0  0  0  0  0  0
    0.2529   -0.0672    2.2760 O   0  0  0  0  0  0  0  0  0  0  0  0
   -1.8947    0.5991    2.4221 N   0  0  0  0  0  0  0  0  0  0  0  0
   -2.7942    0.5936    1.9635 H   0  0  0  0  0  0  0  0  0  0  0  0
   -1.8170    1.1453    3.7750 C   0  0  0  0  0  0  0  0  0  0  0  0
   -0.9697    1.8290    3.8506 H   0  0  0  0  0  0  0  0  0  0  0  0
   -2.7354    1.6828    4.0167 H   0  0  0  0  0  0  0  0  0  0  0  0
   -1.6754    0.3334    4.4914 H   0  0  0  0  0  0  0  0  0  0  0  0
  5  6  2  0  0  0  0
  5  7  1  0  0  0  0
  2  3  1  0  0  0  0
  2  4  1  0  0  0  0
  2  5  1  0  0  0  0
  1  2  1  0  0  0  0
 26 27  2  0  0  0  0
 26 28  1  0  0  0  0
 24 25  1  0  0  0  0
 22 23  1  0  0  0  0
 22 24  2  0  0  0  0
 20 21  1  0  0  0  0
 19 20  1  0  0  0  0
 19 22  1  0  0  0  0
 17 18  1  0  0  0  0
 17 19  2  0  0  0  0
 15 16  1  0  0  0  0
 15 17  1  0  0  0  0
 14 15  2  0  0  0  0
 14 24  1  0  0  0  0
 11 12  1  0  0  0  0
 11 13  1  0  0  0  0
 11 14  1  0  0  0  0
  9 10  1  0  0  0  0
  9 11  1  0  0  0  0
  9 26  1  0  0  0  0
  7  8  1  0  0  0  0
  7  9  1  0  0  0  0
 30 31  1  0  0  0  0
 30 32  1  0  0  0  0
 30 33  1  0  0  0  0
 28 29  1  0  0  0  0
 28 30  1  0  0  0  0
M  END
$$$$
default_name
  -OEChem-02102213163D

 33 33  0     1  0  0  0  0  0999 V2000
   -4.0702   -3.8485    1.4554 H   0  0  0  0  0  0  0  0  0  0  0  0
   -4.0012   -2.9605    0.8284 C   0  0  0  0  0  0  0  0  0  0  0  0
   -4.7652   -2.2435    1.1234 H   0  0  0  0  0  0  0  0  0  0  0  0
   -4.1352   -3.2385   -0.2156 H   0  0  0  0  0  0  0  0  0  0  0  0
   -2.6362   -2.3395    1.0094 C   0  0  0  0  0  0  0  0  0  0  0  0
   -1.8292   -2.8395    1.7814 O   0  0  0  0  0  0  0  0  0  0  0  0
   -2.3832   -1.2445    0.2964 N   0  0  0  0  0  0  0  0  0  0  0  0
   -3.1102   -0.8685   -0.2946 H   0  0  0  0  0  0  0  0  0  0  0  0
   -1.1292   -0.4875    0.3524 C   0  0  1  0  0  0  0  0  0  0  0  0
   -0.3087   -1.1556    0.0882 H   0  0  0  0  0  0  0  0  0  0  0  0
   -1.1749    0.6534   -0.6787 C   0  0  0  0  0  0  0  0  0  0  0  0
   -0.7889    0.2865   -1.6305 H   0  0  0  0  0  0  0  0  0  0  0  0
   -2.2146    0.9443   -0.8380 H   0  0  0  0  0  0  0  0  0  0  0  0
   -0.3672    1.8741   -0.2821 C   0  0  0  0  0  0  0  0  0  0  0  0
   -0.1930    2.2009    1.0777 C   0  0  0  0  0  0  0  0  0  0  0  0
   -0.6582    1.5948    1.8440 H   0  0  0  0  0  0  0  0  0  0  0  0
    0.5917    3.3124    1.4421 C   0  0  0  0  0  0  0  0  0  0  0  0
    0.7217    3.5606    2.4843 H   0  0  0  0  0  0  0  0  0  0  0  0
    1.2072    4.0973    0.4428 C   0  0  0  0  0  0  0  0  0  0  0  0
    1.9683    5.1694    0.7840 O   0  0  0  0  0  0  0  0  0  0  0  0
    1.9395    5.3479    1.7249 H   0  0  0  0  0  0  0  0  0  0  0  0
    1.0358    3.7660   -0.9173 C   0  0  0  0  0  0  0  0  0  0  0  0
    1.5079    4.3764   -1.6723 H   0  0  0  0  0  0  0  0  0  0  0  0
    0.2471    2.6571   -1.2785 C   0  0  0  0  0  0  0  0  0  0  0  0
    0.1083    2.4087   -2.3239 H   0  0  0  0  0  0  0  0  0  0  0  0
   -0.8664    0.0378    1.7736 C   0  0  0  0  0  0  0  0  0  0  0  0
    0.2529   -0.0672    2.2760 O   0  0  0  0  0  0  0  0  0  0  0  0
   -1.8947    0.5991    2.4221 N   0  0  0  0  0  0  0  0  0  0  0  0
   -2.7942    0.5936    1.9635 H   0  0  0  0  0  0  0  0  0  0  0  0
   -1.8170    1.1453    3.7750 C   0  0  0  0  0  0  0  0  0  0  0  0
   -0.9697    1.8290    3.8506 H   0  0  0  0  0  0  0  0  0  0  0  0
   -2.7354    1.6828    4.0167 H   0  0  0  0  0  0  0  0  0  0  0  0
   -1.6754    0.3334    4.4914 H   0  0  0  0  0  0  0  0  0  0  0  0
  5  6  2  0  0  0  0
  5  7  1  0  0  0  0
  2  3  1  0  0  0  0
  2  4  1  0  0  0  0
  2  5  1  0  0  0  0
  1  2  1  0  0  0  0
 26 27  2  0  0  0  0
 26 28  1  0  0  0  0
 24 25  1  0  0  0  0
 22 23  1  0  0  0  0
 22 24  2  0  0  0  0
 20 21  1  0  0  0  0
 19 20  1  0  0  0  0
 19 22  1  0  0  0  0
 17 18  1  0  0  0  0
 17 19  2  0  0  0  0
 15 16  1  0  0  0  0
 15 17  1  0  0  0  0
 14 15  2  0  0  0  0
 14 24  1  0  0  0  0
 11 12  1  0  0  0  0
 11 13  1  0  0  0  0
 11 14  1  0  0  0  0
  9 10  1  0  0  0  0
  9 11  1  0  0  0  0
  9 26  1  0  0  0  0
  7  8  1  0  0  0  0
  7  9  1  0  0  0  0
 30 31  1  0  0  0  0
 30 32  1  0  0  0  0
 30 33  1  0  0  0  0
 28 29  1  0  0  0  0
 28 30  1  0  0  0  0
M  END
$$$$
default_name
  -OEChem-02102213163D

 33 33  0     1  0  0  0  0  0999 V2000
   -4.0702   -3.8485    1.4554 H   0  0  0  0  0  0  0  0  0  0  0  0
   -4.0012   -2.9605    0.8284 C   0  0  0  0  0  0  0  0  0  0  0  0
   -4.7652   -2.2435    1.1234 H   0  0  0  0  0  0  0  0  0  0  0  0
   -4.1352   -3.2385   -0.2156 H   0  0  0  0  0  0  0  0  0  0  0  0
   -2.6362   -2.3395    1.0094 C   0  0  0  0  0  0  0  0  0  0  0  0
   -1.8292   -2.8395    1.7814 O   0  0  0  0  0  0  0  0  0  0  0  0
   -2.3832   -1.2445    0.2964 N   0  0  0  0  0  0  0  0  0  0  0  0
   -3.1102   -0.8685   -0.2946 H   0  0  0  0  0  0  0  0  0  0  0  0
   -1.1292   -0.4875    0.3524 C   0  0  1  0  0  0  0  0  0  0  0  0
   -0.3087   -1.1556    0.0882 H   0  0  0  0  0  0  0  0  0  0  0  0
   -1.1749    0.6534   -0.6787 C   0  0  0  0  0  0  0  0  0  0  0  0
   -0.7889    0.2865   -1.6305 H   0  0  0  0  0  0  0  0  0  0  0  0
   -2.2146    0.9443   -0.8380 H   0  0  0  0  0  0  0  0  0  0  0  0
   -0.3672    1.8741   -0.2821 C   0  0  0  0  0  0  0  0  0  0  0  0
    0.0752    2.0336    1.0464 C   0  0  0  0  0  0  0  0  0  0  0  0
   -0.1833    1.2963    1.7952 H   0  0  0  0  0  0  0  0  0  0  0  0
    0.8594    3.1487    1.4007 C   0  0  0  0  0  0  0  0  0  0  0  0
    1.1951    3.2684    2.4193 H   0  0  0  0  0  0  0  0  0  0  0  0
    1.2053    4.1054    0.4217 C   0  0  0  0  0  0  0  0  0  0  0  0
    1.9636    5.1827    0.7526 O   0  0  0  0  0  0  0  0  0  0  0  0
    2.1265    5.2337    1.6954 H   0  0  0  0  0  0  0  0  0  0  0  0
    0.7658    3.9417   -0.9084 C   0  0  0  0  0  0  0  0  0  0  0  0
    1.0332    4.6823   -1.6470 H   0  0  0  0  0  0  0  0  0  0  0  0
   -0.0217    2.8285   -1.2584 C   0  0  0  0  0  0  0  0  0  0  0  0
   -0.3668    2.7082   -2.2784 H   0  0  0  0  0  0  0  0  0  0  0  0
   -0.8664    0.0378    1.7736 C   0  0  0  0  0  0  0  0  0  0  0  0
    0.2529   -0.0672    2.2760 O   0  0  0  0  0  0  0  0  0  0  0  0
   -1.8947    0.5991    2.4221 N   0  0  0  0  0  0  0  0  0  0  0  0
   -2.7942    0.5936    1.9635 H   0  0  0  0  0  0  0  0  0  0  0  0
   -1.8170    1.1453    3.7750 C   0  0  0  0  0  0  0  0  0  0  0  0
   -0.9697    1.8290    3.8506 H   0  0  0  0  0  0  0  0  0  0  0  0
   -2.7354    1.6828    4.0167 H   0  0  0  0  0  0  0  0  0  0  0  0
   -1.6754    0.3334    4.4914 H   0  0  0  0  0  0  0  0  0  0  0  0
  5  6  2  0  0  0  0
  5  7  1  0  0  0  0
  2  3  1  0  0  0  0
  2  4  1  0  0  0  0
  2  5  1  0  0  0  0
  1  2  1  0  0  0  0
 26 27  2  0  0  0  0
 26 28  1  0  0  0  0
 24 25  1  0  0  0  0
 22 23  1  0  0  0  0
 22 24  2  0  0  0  0
 20 21  1  0  0  0  0
 19 20  1  0  0  0  0
 19 22  1  0  0  0  0
 17 18  1  0  0  0  0
 17 19  2  0  0  0  0
 15 16  1  0  0  0  0
 15 17  1  0  0  0  0
 14 15  2  0  0  0  0
 14 24  1  0  0  0  0
 11 12  1  0  0  0  0
 11 13  1  0  0  0  0
 11 14  1  0  0  0  0
  9 10  1  0  0  0  0
  9 11  1  0  0  0  0
  9 26  1  0  0  0  0
  7  8  1  0  0  0  0
  7  9  1  0  0  0  0
 30 31  1  0  0  0  0
 30 32  1  0  0  0  0
 30 33  1  0  0  0  0
 28 29  1  0  0  0  0
 28 30  1  0  0  0  0
M  END
$$$$
default_name
  -OEChem-02102213163D

 33 33  0     1  0  0  0  0  0999 V2000
   -4.0702   -3.8485    1.4554 H   0  0  0  0  0  0  0  0  0  0  0  0
   -4.0012   -2.9605    0.8284 C   0  0  0  0  0  0  0  0  0  0  0  0
   -4.7652   -2.2435    1.1234 H   0  0  0  0  0  0  0  0  0  0  0  0
   -4.1352   -3.2385   -0.2156 H   0  0  0  0  0  0  0  0  0  0  0  0
   -2.6362   -2.3395    1.0094 C   0  0  0  0  0  0  0  0  0  0  0  0
   -1.8292   -2.8395    1.7814 O   0  0  0  0  0  0  0  0  0  0  0  0
   -2.3832   -1.2445    0.2964 N   0  0  0  0  0  0  0  0  0  0  0  0
   -3.1102   -0.8685   -0.2946 H   0  0  0  0  0  0  0  0  0  0  0  0
   -1.1292   -0.4875    0.3524 C   0  0  1  0  0  0  0  0  0  0  0  0
   -0.3087   -1.1556    0.0882 H   0  0  0  0  0  0  0  0  0  0  0  0
   -1.1749    0.6534   -0.6787 C   0  0  0  0  0  0  0  0  0  0  0  0
   -0.7889    0.2865   -1.6305 H   0  0  0  0  0  0  0  0  0  0  0  0
   -2.2146    0.9443   -0.8380 H   0  0  0  0  0  0  0  0  0  0  0  0
   -0.3672    1.8741   -0.2821 C   0  0  0  0  0  0  0  0  0  0  0  0
    0.3390    1.8945    0.9373 C   0  0  0  0  0  0  0  0  0  0  0  0
    0.2856    1.0469    1.6080 H   0  0  0  0  0  0  0  0  0  0  0  0
    1.1204    3.0144    1.2824 C   0  0  0  0  0  0  0  0  0  0  0  0
    1.6586    3.0272    2.2177 H   0  0  0  0  0  0  0  0  0  0  0  0
    1.1985    4.1161    0.4028 C   0  0  0  0  0  0  0  0  0  0  0  0
    1.9516    5.1996    0.7250 O   0  0  0  0  0  0  0  0  0  0  0  0
    2.3088    5.1402    1.6121 H   0  0  0  0  0  0  0  0  0  0  0  0
    0.4950    4.0920   -0.8193 C   0  0  0  0  0  0  0  0  0  0  0  0
    0.5591    4.9422   -1.4815 H   0  0  0  0  0  0  0  0  0  0  0  0
   -0.2888    2.9730   -1.1593 C   0  0  0  0  0  0  0  0  0  0  0  0
   -0.8364    2.9591   -2.0942 H   0  0  0  0  0  0  0  0  0  0  0  0
   -0.8664    0.0378    1.7736 C   0  0  0  0  0  0  0  0  0  0  0  0
    0.2529   -0.0672    2.2760 O   0  0  0  0  0  0  0  0  0  0  0  0
   -1.8947    0.5991    2.4221 N   0  0  0  0  0  0  0  0  0  0  0  0
   -2.7942    0.5936    1.9635 H   0  0  0  0  0  0  0  0  0  0  0  0
   -1.8170    1.1453    3.7750 C   0  0  0  0  0  0  0  0  0  0  0  0
   -0.9697    1.8290    3.8506 H   0  0  0  0  0  0  0  0  0  0  0  0
   -2.7354    1.6828    4.0167 H   0  0  0  0  0  0  0  0  0  0  0  0
   -1.6754    0.3334    4.4914 H   0  0  0  0  0  0  0  0  0  0  0  0
  5  6  2  0  0  0  0
  5  7  1  0  0  0  0
  2  3  1  0  0  0  0
  2  4  1  0  0  0  0
  2  5  1  0  0  0  0
  1  2  1  0  0  0  0
 26 27  2  0  0  0  0
 26 28  1  0  0  0  0
 24 25  1  0  0  0  0
 22 23  1  0  0  0  0
 22 24  2  0  0  0  0
 20 21  1  0  0  0  0
 19 20  1  0  0  0  0
 19 22  1  0  0  0  0
 17 18  1  0  0  0  0
 17 19  2  0  0  0  0
 15 16  1  0  0  0  0
 15 17  1  0  0  0  0
 14 15  2  0  0  0  0
 14 24  1  0  0  0  0
 11 12  1  0  0  0  0
 11 13  1  0  0  0  0
 11 14  1  0  0  0  0
  9 10  1  0  0  0  0
  9 11  1  0  0  0  0
  9 26  1  0  0  0  0
  7  8  1  0  0  0  0
  7  9  1  0  0  0  0
 30 31  1  0  0  0  0
 30 32  1  0  0  0  0
 30 33  1  0  0  0  0
 28 29  1  0  0  0  0
 28 30  1  0  0  0  0
M  END
$$$$
default_name
  -OEChem-02102213163D

 33 33  0     1  0  0  0  0  0999 V2000
   -4.0702   -3.8485    1.4554 H   0  0  0  0  0  0  0  0  0  0  0  0
   -4.0012   -2.9605    0.8284 C   0  0  0  0  0  0  0  0  0  0  0  0
   -4.7652   -2.2435    1.1234 H   0  0  0  0  0  0  0  0  0  0  0  0
   -4.1352   -3.2385   -0.2156 H   0  0  0  0  0  0  0  0  0  0  0  0
   -2.6362   -2.3395    1.0094 C   0  0  0  0  0  0  0  0  0  0  0  0
   -1.8292   -2.8395    1.7814 O   0  0  0  0  0  0  0  0  0  0  0  0
   -2.3832   -1.2445    0.2964 N   0  0  0  0  0  0  0  0  0  0  0  0
   -3.1102   -0.8685   -0.2946 H   0  0  0  0  0  0  0  0  0  0  0  0
   -1.1292   -0.4875    0.3524 C   0  0  1  0  0  0  0  0  0  0  0  0
   -0.3087   -1.1556    0.0882 H   0  0  0  0  0  0  0  0  0  0  0  0
   -1.1749    0.6534   -0.6787 C   0  0  0  0  0  0  0  0  0  0  0  0
   -0.7889    0.2865   -1.6305 H   0  0  0  0  0  0  0  0  0  0  0  0
   -2.2146    0.9443   -0.8380 H   0  0  0  0  0  0  0  0  0  0  0  0
   -0.3672    1.8741   -0.2821 C   0  0  0  0  0  0  0  0  0  0  0  0
    0.5806    1.7930    0.7578 C   0  0  0  0  0  0  0  0  0  0  0  0
    0.7163    0.8635    1.2951 H   0  0  0  0  0  0  0  0  0  0  0  0
    1.3570    2.9187    1.0952 C   0  0  0  0  0  0  0  0  0  0  0  0
    2.0807    2.8534    1.8931 H   0  0  0  0  0  0  0  0  0  0  0  0
    1.1872    4.1285    0.3874 C   0  0  0  0  0  0  0  0  0  0  0  0
    1.9332    5.2189    0.7032 O   0  0  0  0  0  0  0  0  0  0  0  0
    2.4738    5.0737    1.4808 H   0  0  0  0  0  0  0  0  0  0  0  0
    0.2418    4.2065   -0.6562 C   0  0  0  0  0  0  0  0  0  0  0  0
    0.1181    5.1384   -1.1871 H   0  0  0  0  0  0  0  0  0  0  0  0
   -0.5360    3.0809   -0.9881 C   0  0  0  0  0  0  0  0  0  0  0  0
   -1.2686    3.1443   -1.7838 H   0  0  0  0  0  0  0  0  0  0  0  0
   -0.8664    0.0378    1.7736 C   0  0  0  0  0  0  0  0  0  0  0  0
    0.2529   -0.0672    2.2760 O   0  0  0  0  0  0  0  0  0  0  0  0
   -1.8947    0.5991    2.4221 N   0  0  0  0  0  0  0  0  0  0  0  0
   -2.7942    0.5936    1.9635 H   0  0  0  0  0  0  0  0  0  0  0  0
   -1.8170    1.1453    3.7750 C   0  0  0  0  0  0  0  0  0  0  0  0
   -0.9697    1.8290    3.8506 H   0  0  0  0  0  0  0  0  0  0  0  0
   -2.7354    1.6828    4.0167 H   0  0  0  0  0  0  0  0  0  0  0  0
   -1.6754    0.3334    4.4914 H   0  0  0  0  0  0  0  0  0  0  0  0
  5  6  2  0  0  0  0
  5  7  1  0  0  0  0
  2  3  1  0  0  0  0
  2  4  1  0  0  0  0
  2  5  1  0  0  0  0
  1  2  1  0  0  0  0
 26 27  2  0  0  0  0
 26 28  1  0  0  0  0
 24 25  1  0  0  0  0
 22 23  1  0  0  0  0
 22 24  2  0  0  0  0
 20 21  1  0  0  0  0
 19 20  1  0  0  0  0
 19 22  1  0  0  0  0
 17 18  1  0  0  0  0
 17 19  2  0  0  0  0
 15 16  1  0  0  0  0
 15 17  1  0  0  0  0
 14 15  2  0  0  0  0
 14 24  1  0  0  0  0
 11 12  1  0  0  0  0
 11 13  1  0  0  0  0
 11 14  1  0  0  0  0
  9 10  1  0  0  0  0
  9 11  1  0  0  0  0
  9 26  1  0  0  0  0
  7  8  1  0  0  0  0
  7  9  1  0  0  0  0
 30 31  1  0  0  0  0
 30 32  1  0  0  0  0
 30 33  1  0  0  0  0
 28 29  1  0  0  0  0
 28 30  1  0  0  0  0
M  END
$$$$
default_name
  -OEChem-02102213163D

 33 33  0     1  0  0  0  0  0999 V2000
   -4.0702   -3.8485    1.4554 H   0  0  0  0  0  0  0  0  0  0  0  0
   -4.0012   -2.9605    0.8284 C   0  0  0  0  0  0  0  0  0  0  0  0
   -4.7652   -2.2435    1.1234 H   0  0  0  0  0  0  0  0  0  0  0  0
   -4.1352   -3.2385   -0.2156 H   0  0  0  0  0  0  0  0  0  0  0  0
   -2.6362   -2.3395    1.0094 C   0  0  0  0  0  0  0  0  0  0  0  0
   -1.8292   -2.8395    1.7814 O   0  0  0  0  0  0  0  0  0  0  0  0
   -2.3832   -1.2445    0.2964 N   0  0  0  0  0  0  0  0  0  0  0  0
   -3.1102   -0.8685   -0.2946 H   0  0  0  0  0  0  0  0  0  0  0  0
   -1.1292   -0.4875    0.3524 C   0  0  1  0  0  0  0  0  0  0  0  0
   -0.3087   -1.1556    0.0882 H   0  0  0  0  0  0  0  0  0  0  0  0
   -1.1749    0.6534   -0.6787 C   0  0  0  0  0  0  0  0  0  0  0  0
   -0.7889    0.2865   -1.6305 H   0  0  0  0  0  0  0  0  0  0  0  0
   -2.2146    0.9443   -0.8380 H   0  0  0  0  0  0  0  0  0  0  0  0
   -0.3672    1.8741   -0.2821 C   0  0  0  0  0  0  0  0  0  0  0  0
    0.7833    1.7361    0.5200 C   0  0  0  0  0  0  0  0  0  0  0  0
    1.0795    0.7587    0.8779 H   0  0  0  0  0  0  0  0  0  0  0  0
    1.5529    2.8680    0.8520 C   0  0  0  0  0  0  0  0  0  0  0  0
    2.4325    2.7588    1.4677 H   0  0  0  0  0  0  0  0  0  0  0  0
    1.1723    4.1419    0.3766 C   0  0  0  0  0  0  0  0  0  0  0  0
    1.9095    5.2393    0.6887 O   0  0  0  0  0  0  0  0  0  0  0  0
    2.6103    5.0387    1.3105 H   0  0  0  0  0  0  0  0  0  0  0  0
    0.0235    4.2775   -0.4300 C   0  0  0  0  0  0  0  0  0  0  0  0
   -0.2597    5.2574   -0.7838 H   0  0  0  0  0  0  0  0  0  0  0  0
   -0.7463    3.1448   -0.7563 C   0  0  0  0  0  0  0  0  0  0  0  0
   -1.6340    3.2511   -1.3684 H   0  0  0  0  0  0  0  0  0  0  0  0
   -0.8664    0.0378    1.7736 C   0  0  0  0  0  0  0  0  0  0  0  0
    0.2529   -0.0672    2.2760 O   0  0  0  0  0  0  0  0  0  0  0  0
   -1.8947    0.5991    2.4221 N   0  0  0  0  0  0  0  0  0  0  0  0
   -2.7942    0.5936    1.9635 H   0  0  0  0  0  0  0  0  0  0  0  0
   -1.8170    1.1453    3.7750 C   0  0  0  0  0  0  0  0  0  0  0  0
   -0.9697    1.8290    3.8506 H   0  0  0  0  0  0  0  0  0  0  0  0
   -2.7354    1.6828    4.0167 H   0  0  0  0  0  0  0  0  0  0  0  0
   -1.6754    0.3334    4.4914 H   0  0  0  0  0  0  0  0  0  0  0  0
  5  6  2  0  0  0  0
  5  7  1  0  0  0  0
  2  3  1  0  0  0  0
  2  4  1  0  0  0  0
  2  5  1  0  0  0  0
  1  2  1  0  0  0  0
 26 27  2  0  0  0  0
 26 28  1  0  0  0  0
 24 25  1  0  0  0  0
 22 23  1  0  0  0  0
 22 24  2  0  0  0  0
 20 21  1  0  0  0  0
 19 20  1  0  0  0  0
 19 22  1  0  0  0  0
 17 18  1  0  0  0  0
 17 19  2  0  0  0  0
 15 16  1  0  0  0  0
 15 17  1  0  0  0  0
 14 15  2  0  0  0  0
 14 24  1  0  0  0  0
 11 12  1  0  0  0  0
 11 13  1  0  0  0  0
 11 14  1  0  0  0  0
  9 10  1  0  0  0  0
  9 11  1  0  0  0  0
  9 26  1  0  0  0  0
  7  8  1  0  0  0  0
  7  9  1  0  0  0  0
 30 31  1  0  0  0  0
 30 32  1  0  0  0  0
 30 33  1  0  0  0  0
 28 29  1  0  0  0  0
 28 30  1  0  0  0  0
M  END
$$$$
default_name
  -OEChem-02102213163D

 33 33  0     1  0  0  0  0  0999 V2000
   -4.0702   -3.8485    1.4554 H   0  0  0  0  0  0  0  0  0  0  0  0
   -4.0012   -2.9605    0.8284 C   0  0  0  0  0  0  0  0  0  0  0  0
   -4.7652   -2.2435    1.1234 H   0  0  0  0  0  0  0  0  0  0  0  0
   -4.1352   -3.2385   -0.2156 H   0  0  0  0  0  0  0  0  0  0  0  0
   -2.6362   -2.3395    1.0094 C   0  0  0  0  0  0  0  0  0  0  0  0
   -1.8292   -2.8395    1.7814 O   0  0  0  0  0  0  0  0  0  0  0  0
   -2.3832   -1.2445    0.2964 N   0  0  0  0  0  0  0  0  0  0  0  0
   -3.1102   -0.8685   -0.2946 H   0  0  0  0  0  0  0  0  0  0  0  0
   -1.1292   -0.4875    0.3524 C   0  0  1  0  0  0  0  0  0  0  0  0
   -0.3087   -1.1556    0.0882 H   0  0  0  0  0  0  0  0  0  0  0  0
   -1.1749    0.6534   -0.6787 C   0  0  0  0  0  0  0  0  0  0  0  0
   -0.7889    0.2865   -1.6305 H   0  0  0  0  0  0  0  0  0  0  0  0
   -2.2146    0.9443   -0.8380 H   0  0  0  0  0  0  0  0  0  0  0  0
   -0.3672    1.8741   -0.2821 C   0  0  0  0  0  0  0  0  0  0  0  0
    0.9335    1.7276    0.2403 C   0  0  0  0  0  0  0  0  0  0  0  0
    1.3506    0.7395    0.3848 H   0  0  0  0  0  0  0  0  0  0  0  0
    1.6950    2.8659    0.5692 C   0  0  0  0  0  0  0  0  0  0  0  0
    2.6900    2.7499    0.9705 H   0  0  0  0  0  0  0  0  0  0  0  0
    1.1548    4.1553    0.3712 C   0  0  0  0  0  0  0  0  0  0  0  0
    1.8822    5.2594    0.6824 O   0  0  0  0  0  0  0  0  0  0  0  0
    2.7090    5.0376    1.1127 H   0  0  0  0  0  0  0  0  0  0  0  0
   -0.1451    4.3002   -0.1563 C   0  0  0  0  0  0  0  0  0  0  0  0
   -0.5488    5.2912   -0.2990 H   0  0  0  0  0  0  0  0  0  0  0  0
   -0.9055    3.1604   -0.4798 C   0  0  0  0  0  0  0  0  0  0  0  0
   -1.9076    3.2723   -0.8763 H   0  0  0  0  0  0  0  0  0  0  0  0
   -0.8664    0.0378    1.7736 C   0  0  0  0  0  0  0  0  0  0  0  0
    0.2529   -0.0672    2.2760 O   0  0  0  0  0  0  0  0  0  0  0  0
   -1.8947    0.5991    2.4221 N   0  0  0  0  0  0  0  0  0  0  0  0
   -2.7942    0.5936    1.9635 H   0  0  0  0  0  0  0  0  0  0  0  0
   -1.8170    1.1453    3.7750 C   0  0  0  0  0  0  0  0  0  0  0  0
   -0.9697    1.8290    3.8506 H   0  0  0  0  0  0  0  0  0  0  0  0
   -2.7354    1.6828    4.0167 H   0  0  0  0  0  0  0  0  0  0  0  0
   -1.6754    0.3334    4.4914 H   0  0  0  0  0  0  0  0  0  0  0  0
  5  6  2  0  0  0  0
  5  7  1  0  0  0  0
  2  3  1  0  0  0  0
  2  4  1  0  0  0  0
  2  5  1  0  0  0  0
  1  2  1  0  0  0  0
 26 27  2  0  0  0  0
 26 28  1  0  0  0  0
 24 25  1  0  0  0  0
 22 23  1  0  0  0  0
 22 24  2  0  0  0  0
 20 21  1  0  0  0  0
 19 20  1  0  0  0  0
 19 22  1  0  0  0  0
 17 18  1  0  0  0  0
 17 19  2  0  0  0  0
 15 16  1  0  0  0  0
 15 17  1  0  0  0  0
 14 15  2  0  0  0  0
 14 24  1  0  0  0  0
 11 12  1  0  0  0  0
 11 13  1  0  0  0  0
 11 14  1  0  0  0  0
  9 10  1  0  0  0  0
  9 11  1  0  0  0  0
  9 26  1  0  0  0  0
  7  8  1  0  0  0  0
  7  9  1  0  0  0  0
 30 31  1  0  0  0  0
 30 32  1  0  0  0  0
 30 33  1  0  0  0  0
 28 29  1  0  0  0  0
 28 30  1  0  0  0  0
M  END
$$$$
default_name
  -OEChem-02102213163D

 33 33  0     1  0  0  0  0  0999 V2000
   -4.0702   -3.8485    1.4554 H   0  0  0  0  0  0  0  0  0  0  0  0
   -4.0012   -2.9605    0.8284 C   0  0  0  0  0  0  0  0  0  0  0  0
   -4.7652   -2.2435    1.1234 H   0  0  0  0  0  0  0  0  0  0  0  0
   -4.1352   -3.2385   -0.2156 H   0  0  0  0  0  0  0  0  0  0  0  0
   -2.6362   -2.3395    1.0094 C   0  0  0  0  0  0  0  0  0  0  0  0
   -1.8292   -2.8395    1.7814 O   0  0  0  0  0  0  0  0  0  0  0  0
   -2.3832   -1.2445    0.2964 N   0  0  0  0  0  0  0  0  0  0  0  0
   -3.1102   -0.8685   -0.2946 H   0  0  0  0  0  0  0  0  0  0  0  0
   -1.1292   -0.4875    0.3524 C   0  0  1  0  0  0  0  0  0  0  0  0
   -0.3087   -1.1556    0.0882 H   0  0  0  0  0  0  0  0  0  0  0  0
   -1.1749    0.6534   -0.6787 C   0  0  0  0  0  0  0  0  0  0  0  0
   -0.7889    0.2865   -1.6305 H   0  0  0  0  0  0  0  0  0  0  0  0
   -2.2146    0.9443   -0.8380 H   0  0  0  0  0  0  0  0  0  0  0  0
   -0.3672    1.8741   -0.2821 C   0  0  0  0  0  0  0  0  0  0  0  0
    1.0208    1.7681   -0.0623 C   0  0  0  0  0  0  0  0  0  0  0  0
    1.5110    0.8073   -0.1507 H   0  0  0  0  0  0  0  0  0  0  0  0
    1.7734    2.9124    0.2661 C   0  0  0  0  0  0  0  0  0  0  0  0
    2.8359    2.8272    0.4353 H   0  0  0  0  0  0  0  0  0  0  0  0
    1.1358    4.1678    0.3714 C   0  0  0  0  0  0  0  0  0  0  0  0
    1.8532    5.2778    0.6848 O   0  0  0  0  0  0  0  0  0  0  0  0
    2.7633    5.0705    0.9009 H   0  0  0  0  0  0  0  0  0  0  0  0
   -0.2525    4.2729    0.1463 C   0  0  0  0  0  0  0  0  0  0  0  0
   -0.7293    5.2375    0.2340 H   0  0  0  0  0  0  0  0  0  0  0  0
   -1.0027    3.1265   -0.1774 C   0  0  0  0  0  0  0  0  0  0  0  0
   -2.0708    3.2065   -0.3411 H   0  0  0  0  0  0  0  0  0  0  0  0
   -0.8664    0.0378    1.7736 C   0  0  0  0  0  0  0  0  0  0  0  0
    0.2529   -0.0672    2.2760 O   0  0  0  0  0  0  0  0  0  0  0  0
   -1.8947    0.5991    2.4221 N   0  0  0  0  0  0  0  0  0  0  0  0
   -2.7942    0.5936    1.9635 H   0  0  0  0  0  0  0  0  0  0  0  0
   -1.8170    1.1453    3.7750 C   0  0  0  0  0  0  0  0  0  0  0  0
   -0.9697    1.8290    3.8506 H   0  0  0  0  0  0  0  0  0  0  0  0
   -2.7354    1.6828    4.0167 H   0  0  0  0  0  0  0  0  0  0  0  0
   -1.6754    0.3334    4.4914 H   0  0  0  0  0  0  0  0  0  0  0  0
  5  6  2  0  0  0  0
  5  7  1  0  0  0  0
  2  3  1  0  0  0  0
  2  4  1  0  0  0  0
  2  5  1  0  0  0  0
  1  2  1  0  0  0  0
 26 27  2  0  0  0  0
 26 28  1  0  0  0  0
 24 25  1  0  0  0  0
 22 23  1  0  0  0  0
 22 24  2  0  0  0  0
 20 21  1  0  0  0  0
 19 20  1  0  0  0  0
 19 22  1  0  0  0  0
 17 18  1  0  0  0  0
 17 19  2  0  0  0  0
 15 16  1  0  0  0  0
 15 17  1  0  0  0  0
 14 15  2  0  0  0  0
 14 24  1  0  0  0  0
 11 12  1  0  0  0  0
 11 13  1  0  0  0  0
 11 14  1  0  0  0  0
  9 10  1  0  0  0  0
  9 11  1  0  0  0  0
  9 26  1  0  0  0  0
  7  8  1  0  0  0  0
  7  9  1  0  0  0  0
 30 31  1  0  0  0  0
 30 32  1  0  0  0  0
 30 33  1  0  0  0  0
 28 29  1  0  0  0  0
 28 30  1  0  0  0  0
M  END
$$$$
default_name
  -OEChem-02102213163D

 33 33  0     1  0  0  0  0  0999 V2000
   -4.0702   -3.8485    1.4554 H   0  0  0  0  0  0  0  0  0  0  0  0
   -4.0012   -2.9605    0.8284 C   0  0  0  0  0  0  0  0  0  0  0  0
   -4.7652   -2.2435    1.1234 H   0  0  0  0  0  0  0  0  0  0  0  0
   -4.1352   -3.2385   -0.2156 H   0  0  0  0  0  0  0  0  0  0  0  0
   -2.6362   -2.3395    1.0094 C   0  0  0  0  0  0  0  0  0  0  0  0
   -1.8292   -2.8395    1.7814 O   0  0  0  0  0  0  0  0  0  0  0  0
   -2.3832   -1.2445    0.2964 N   0  0  0  0  0  0  0  0  0  0  0  0
   -3.1102   -0.8685   -0.2946 H   0  0  0  0  0  0  0  0  0  0  0  0
   -1.1292   -0.4875    0.3524 C   0  0  1  0  0  0  0  0  0  0  0  0
   -0.3087   -1.1556    0.0882 H   0  0  0  0  0  0  0  0  0  0  0  0
   -1.1749    0.6534   -0.6787 C   0  0  0  0  0  0  0  0  0  0  0  0
   -0.7889    0.2865   -1.6305 H   0  0  0  0  0  0  0  0  0  0  0  0
   -2.2146    0.9443   -0.8380 H   0  0  0  0  0  0  0  0  0  0  0  0
   -0.3672    1.8741   -0.2821 C   0  0  0  0  0  0  0  0  0  0  0  0
    1.0394    1.8548   -0.3673 C   0  0  0  0  0  0  0  0  0  0  0  0
    1.5498    0.9575   -0.6919 H   0  0  0  0  0  0  0  0  0  0  0  0
    1.7829    3.0044   -0.0365 C   0  0  0  0  0  0  0  0  0  0  0  0
    2.8600    2.9856   -0.1014 H   0  0  0  0  0  0  0  0  0  0  0  0
    1.1166    4.1785    0.3773 C   0  0  0  0  0  0  0  0  0  0  0  0
    1.8244    5.2933    0.6956 O   0  0  0  0  0  0  0  0  0  0  0  0
    2.7694    5.1351    0.6895 H   0  0  0  0  0  0  0  0  0  0  0  0
   -0.2913    4.1976    0.4572 C   0  0  0  0  0  0  0  0  0  0  0  0
   -0.7890    5.0999    0.7791 H   0  0  0  0  0  0  0  0  0  0  0  0
   -1.0313    3.0455    0.1303 C   0  0  0  0  0  0  0  0  0  0  0  0
   -2.1125    3.0580    0.2009 H   0  0  0  0  0  0  0  0  0  0  0  0
   -0.8664    0.0378    1.7736 C   0  0  0  0  0  0  0  0  0  0  0  0
    0.2529   -0.0672    2.2760 O   0  0  0  0  0  0  0  0  0  0  0  0
   -1.8947    0.5991    2.4221 N   0  0  0  0  0  0  0  0  0  0  0  0
   -2.7942    0.5936    1.9635 H   0  0  0  0  0  0  0  0  0  0  0  0
   -1.8170    1.1453    3.7750 C   0  0  0  0  0  0  0  0  0  0  0  0
   -0.9697    1.8290    3.8506 H   0  0  0  0  0  0  0  0  0  0  0  0
   -2.7354    1.6828    4.0167 H   0  0  0  0  0  0  0  0  0  0  0  0
   -1.6754    0.3334    4.4914 H   0  0  0  0  0  0  0  0  0  0  0  0
  5  6  2  0  0  0  0
  5  7  1  0  0  0  0
  2  3  1  0  0  0  0
  2  4  1  0  0  0  0
  2  5  1  0  0  0  0
  1  2  1  0  0  0  0
 26 27  2  0  0  0  0
 26 28  1  0  0  0  0
 24 25  1  0  0  0  0
 22 23  1  0  0  0  0
 22 24  2  0  0  0  0
 20 21  1  0  0  0  0
 19 20  1  0  0  0  0
 19 22  1  0  0  0  0
 17 18  1  0  0  0  0
 17 19  2  0  0  0  0
 15 16  1  0  0  0  0
 15 17  1  0  0  0  0
 14 15  2  0  0  0  0
 14 24  1  0  0  0  0
 11 12  1  0  0  0  0
 11 13  1  0  0  0  0
 11 14  1  0  0  0  0
  9 10  1  0  0  0  0
  9 11  1  0  0  0  0
  9 26  1  0  0  0  0
  7  8  1  0  0  0  0
  7  9  1  0  0  0  0
 30 31  1  0  0  0  0
 30 32  1  0  0  0  0
 30 33  1  0  0  0  0
 28 29  1  0  0  0  0
 28 30  1  0  0  0  0
M  END
$$$$
default_name
  -OEChem-02102213163D

 33 33  0     1  0  0  0  0  0999 V2000
   -4.0702   -3.8485    1.4554 H   0  0  0  0  0  0  0  0  0  0  0  0
   -4.0012   -2.9605    0.8284 C   0  0  0  0  0  0  0  0  0  0  0  0
   -4.7652   -2.2435    1.1234 H   0  0  0  0  0  0  0  0  0  0  0  0
   -4.1352   -3.2385   -0.2156 H   0  0  0  0  0  0  0  0  0  0  0  0
   -2.6362   -2.3395    1.0094 C   0  0  0  0  0  0  0  0  0  0  0  0
   -1.8292   -2.8395    1.7814 O   0  0  0  0  0  0  0  0  0  0  0  0
   -2.3832   -1.2445    0.2964 N   0  0  0  0  0  0  0  0  0  0  0  0
   -3.1102   -0.8685   -0.2946 H   0  0  0  0  0  0  0  0  0  0  0  0
   -1.1292   -0.4875    0.3524 C   0  0  1  0  0  0  0  0  0  0  0  0
   -0.3087   -1.1556    0.0882 H   0  0  0  0  0  0  0  0  0  0  0  0
   -1.1749    0.6534   -0.6787 C   0  0  0  0  0  0  0  0  0  0  0  0
   -0.7889    0.2865   -1.6305 H   0  0  0  0  0  0  0  0  0  0  0  0
   -2.2146    0.9443   -0.8380 H   0  0  0  0  0  0  0  0  0  0  0  0
   -0.3672    1.8741   -0.2821 C   0  0  0  0  0  0  0  0  0  0  0  0
    0.9880    1.9819   -0.6538 C   0  0  0  0  0  0  0  0  0  0  0  0
    1.4643    1.1798   -1.2022 H   0  0  0  0  0  0  0  0  0  0  0  0
    1.7228    3.1357   -0.3181 C   0  0  0  0  0  0  0  0  0  0  0  0
    2.7607    3.2142   -0.6030 H   0  0  0  0  0  0  0  0  0  0  0  0
    1.0986    4.1868    0.3884 C   0  0  0  0  0  0  0  0  0  0  0  0
    1.7978    5.3049    0.7143 O   0  0  0  0  0  0  0  0  0  0  0  0
    2.7268    5.2271    0.4930 H   0  0  0  0  0  0  0  0  0  0  0  0
   -0.2589    4.0793    0.7552 C   0  0  0  0  0  0  0  0  0  0  0  0
   -0.7237    4.8878    1.2991 H   0  0  0  0  0  0  0  0  0  0  0  0
   -0.9894    2.9229    0.4223 C   0  0  0  0  0  0  0  0  0  0  0  0
   -2.0298    2.8371    0.7126 H   0  0  0  0  0  0  0  0  0  0  0  0
   -0.8664    0.0378    1.7736 C   0  0  0  0  0  0  0  0  0  0  0  0
    0.2529   -0.0672    2.2760 O   0  0  0  0  0  0  0  0  0  0  0  0
   -1.8947    0.5991    2.4221 N   0  0  0  0  0  0  0  0  0  0  0  0
   -2.7942    0.5936    1.9635 H   0  0  0  0  0  0  0  0  0  0  0  0
   -1.8170    1.1453    3.7750 C   0  0  0  0  0  0  0  0  0  0  0  0
   -0.9697    1.8290    3.8506 H   0  0  0  0  0  0  0  0  0  0  0  0
   -2.7354    1.6828    4.0167 H   0  0  0  0  0  0  0  0  0  0  0  0
   -1.6754    0.3334    4.4914 H   0  0  0  0  0  0  0  0  0  0  0  0
  5  6  2  0  0  0  0
  5  7  1  0  0  0  0
  2  3  1  0  0  0  0
  2  4  1  0  0  0  0
  2  5  1  0  0  0  0
  1  2  1  0  0  0  0
 26 27  2  0  0  0  0
 26 28  1  0  0  0  0
 24 25  1  0  0  0  0
 22 23  1  0  0  0  0
 22 24  2  0  0  0  0
 20 21  1  0  0  0  0
 19 20  1  0  0  0  0
 19 22  1  0  0  0  0
 17 18  1  0  0  0  0
 17 19  2  0  0  0  0
 15 16  1  0  0  0  0
 15 17  1  0  0  0  0
 14 15  2  0  0  0  0
 14 24  1  0  0  0  0
 11 12  1  0  0  0  0
 11 13  1  0  0  0  0
 11 14  1  0  0  0  0
  9 10  1  0  0  0  0
  9 11  1  0  0  0  0
  9 26  1  0  0  0  0
  7  8  1  0  0  0  0
  7  9  1  0  0  0  0
 30 31  1  0  0  0  0
 30 32  1  0  0  0  0
 30 33  1  0  0  0  0
 28 29  1  0  0  0  0
 28 30  1  0  0  0  0
M  END
$$$$
default_name
  -OEChem-02102213163D

 33 33  0     1  0  0  0  0  0999 V2000
   -4.0702   -3.8485    1.4554 H   0  0  0  0  0  0  0  0  0  0  0  0
   -4.0012   -2.9605    0.8284 C   0  0  0  0  0  0  0  0  0  0  0  0
   -4.7652   -2.2435    1.1234 H   0  0  0  0  0  0  0  0  0  0  0  0
   -4.1352   -3.2385   -0.2156 H   0  0  0  0  0  0  0  0  0  0  0  0
   -2.6362   -2.3395    1.0094 C   0  0  0  0  0  0  0  0  0  0  0  0
   -1.8292   -2.8395    1.7814 O   0  0  0  0  0  0  0  0  0  0  0  0
   -2.3832   -1.2445    0.2964 N   0  0  0  0  0  0  0  0  0  0  0  0
   -3.1102   -0.8685   -0.2946 H   0  0  0  0  0  0  0  0  0  0  0  0
   -1.1292   -0.4875    0.3524 C   0  0  1  0  0  0  0  0  0  0  0  0
   -0.3087   -1.1556    0.0882 H   0  0  0  0  0  0  0  0  0  0  0  0
   -1.1749    0.6534   -0.6787 C   0  0  0  0  0  0  0  0  0  0  0  0
   -0.7889    0.2865   -1.6305 H   0  0  0  0  0  0  0  0  0  0  0  0
   -2.2146    0.9443   -0.8380 H   0  0  0  0  0  0  0  0  0  0  0  0
   -0.3672    1.8741   -0.2821 C   0  0  0  0  0  0  0  0  0  0  0  0
    0.8700    2.1407   -0.9022 C   0  0  0  0  0  0  0  0  0  0  0  0
    1.2604    1.4590   -1.6465 H   0  0  0  0  0  0  0  0  0  0  0  0
    1.5972    3.2972   -0.5595 C   0  0  0  0  0  0  0  0  0  0  0  0
    2.5449    3.4974   -1.0352 H   0  0  0  0  0  0  0  0  0  0  0  0
    1.0830    4.1920    0.4041 C   0  0  0  0  0  0  0  0  0  0  0  0
    1.7753    5.3116    0.7394 O   0  0  0  0  0  0  0  0  0  0  0  0
    2.6385    5.3401    0.3248 H   0  0  0  0  0  0  0  0  0  0  0  0
   -0.1575    3.9262    1.0201 C   0  0  0  0  0  0  0  0  0  0  0  0
   -0.5380    4.6157    1.7586 H   0  0  0  0  0  0  0  0  0  0  0  0
   -0.8798    2.7670    0.6787 C   0  0  0  0  0  0  0  0  0  0  0  0
   -1.8284    2.5587    1.1591 H   0  0  0  0  0  0  0  0  0  0  0  0
   -0.8664    0.0378    1.7736 C   0  0  0  0  0  0  0  0  0  0  0  0
    0.2529   -0.0672    2.2760 O   0  0  0  0  0  0  0  0  0  0  0  0
   -1.8947    0.5991    2.4221 N   0  0  0  0  0  0  0  0  0  0  0  0
   -2.7942    0.5936    1.9635 H   0  0  0  0  0  0  0  0  0  0  0  0
   -1.8170    1.1453    3.7750 C   0  0  0  0  0  0  0  0  0  0  0  0
   -0.9697    1.8290    3.8506 H   0  0  0  0  0  0  0  0  0  0  0  0
   -2.7354    1.6828    4.0167 H   0  0  0  0  0  0  0  0  0  0  0  0
   -1.6754    0.3334    4.4914 H   0  0  0  0  0  0  0  0  0  0  0  0
  5  6  2  0  0  0  0
  5  7  1  0  0  0  0
  2  3  1  0  0  0  0
  2  4  1  0  0  0  0
  2  5  1  0  0  0  0
  1  2  1  0  0  0  0
 26 27  2  0  0  0  0
 26 28  1  0  0  0  0
 24 25  1  0  0  0  0
 22 23  1  0  0  0  0
 22 24  2  0  0  0  0
 20 21  1  0  0  0  0
 19 20  1  0  0  0  0
 19 22  1  0  0  0  0
 17 18  1  0  0  0  0
 17 19  2  0  0  0  0
 15 16  1  0  0  0  0
 15 17  1  0  0  0  0
 14 15  2  0  0  0  0
 14 24  1  0  0  0  0
 11 12  1  0  0  0  0
 11 13  1  0  0  0  0
 11 14  1  0  0  0  0
  9 10  1  0  0  0  0
  9 11  1  0  0  0  0
  9 26  1  0  0  0  0
  7  8  1  0  0  0  0
  7  9  1  0  0  0  0
 30 31  1  0  0  0  0
 30 32  1  0  0  0  0
 30 33  1  0  0  0  0
 28 29  1  0  0  0  0
 28 30  1  0  0  0  0
M  END
$$$$
default_name
  -OEChem-02102213163D

 33 33  0     1  0  0  0  0  0999 V2000
   -4.0702   -3.8485    1.4554 H   0  0  0  0  0  0  0  0  0  0  0  0
   -4.0012   -2.9605    0.8284 C   0  0  0  0  0  0  0  0  0  0  0  0
   -4.7652   -2.2435    1.1234 H   0  0  0  0  0  0  0  0  0  0  0  0
   -4.1352   -3.2385   -0.2156 H   0  0  0  0  0  0  0  0  0  0  0  0
   -2.6362   -2.3395    1.0094 C   0  0  0  0  0  0  0  0  0  0  0  0
   -1.8292   -2.8395    1.7814 O   0  0  0  0  0  0  0  0  0  0  0  0
   -2.3832   -1.2445    0.2964 N   0  0  0  0  0  0  0  0  0  0  0  0
   -3.1102   -0.8685   -0.2946 H   0  0  0  0  0  0  0  0  0  0  0  0
   -1.1292   -0.4875    0.3524 C   0  0  1  0  0  0  0  0  0  0  0  0
   -0.3087   -1.1556    0.0882 H   0  0  0  0  0  0  0  0  0  0  0  0
   -1.1749    0.6534   -0.6787 C   0  0  0  0  0  0  0  0  0  0  0  0
   -0.7889    0.2865   -1.6305 H   0  0  0  0  0  0  0  0  0  0  0  0
   -2.2146    0.9443   -0.8380 H   0  0  0  0  0  0  0  0  0  0  0  0
   -0.3672    1.8741   -0.2821 C   0  0  0  0  0  0  0  0  0  0  0  0
    0.6935    2.3204   -1.0958 C   0  0  0  0  0  0  0  0  0  0  0  0
    0.9520    1.7763   -1.9948 H   0  0  0  0  0  0  0  0  0  0  0  0
    1.4146    3.4781   -0.7443 C   0  0  0  0  0  0  0  0  0  0  0  0
    2.2272    3.8160   -1.3688 H   0  0  0  0  0  0  0  0  0  0  0  0
    1.0709    4.1939    0.4232 C   0  0  0  0  0  0  0  0  0  0  0  0
    1.7582    5.3132    0.7693 O   0  0  0  0  0  0  0  0  0  0  0  0
    2.5106    5.4666    0.1962 H   0  0  0  0  0  0  0  0  0  0  0  0
    0.0060    3.7487    1.2336 C   0  0  0  0  0  0  0  0  0  0  0  0
   -0.2445    4.3021    2.1262 H   0  0  0  0  0  0  0  0  0  0  0  0
   -0.7099    2.5886    0.8820 C   0  0  0  0  0  0  0  0  0  0  0  0
   -1.5219    2.2419    1.5101 H   0  0  0  0  0  0  0  0  0  0  0  0
   -0.8664    0.0378    1.7736 C   0  0  0  0  0  0  0  0  0  0  0  0
    0.2529   -0.0672    2.2760 O   0  0  0  0  0  0  0  0  0  0  0  0
   -1.8947    0.5991    2.4221 N   0  0  0  0  0  0  0  0  0  0  0  0
   -2.7942    0.5936    1.9635 H   0  0  0  0  0  0  0  0  0  0  0  0
   -1.8170    1.1453    3.7750 C   0  0  0  0  0  0  0  0  0  0  0  0
   -0.9697    1.8290    3.8506 H   0  0  0  0  0  0  0  0  0  0  0  0
   -2.7354    1.6828    4.0167 H   0  0  0  0  0  0  0  0  0  0  0  0
   -1.6754    0.3334    4.4914 H   0  0  0  0  0  0  0  0  0  0  0  0
  5  6  2  0  0  0  0
  5  7  1  0  0  0  0
  2  3  1  0  0  0  0
  2  4  1  0  0  0  0
  2  5  1  0  0  0  0
  1  2  1  0  0  0  0
 26 27  2  0  0  0  0
 26 28  1  0  0  0  0
 24 25  1  0  0  0  0
 22 23  1  0  0  0  0
 22 24  2  0  0  0  0
 20 21  1  0  0  0  0
 19 20  1  0  0  0  0
 19 22  1  0  0  0  0
 17 18  1  0  0  0  0
 17 19  2  0  0  0  0
 15 16  1  0  0  0  0
 15 17  1  0  0  0  0
 14 15  2  0  0  0  0
 14 24  1  0  0  0  0
 11 12  1  0  0  0  0
 11 13  1  0  0  0  0
 11 14  1  0  0  0  0
  9 10  1  0  0  0  0
  9 11  1  0  0  0  0
  9 26  1  0  0  0  0
  7  8  1  0  0  0  0
  7  9  1  0  0  0  0
 30 31  1  0  0  0  0
 30 32  1  0  0  0  0
 30 33  1  0  0  0  0
 28 29  1  0  0  0  0
 28 30  1  0  0  0  0
M  END
$$$$
default_name
  -OEChem-02102213163D

 33 33  0     1  0  0  0  0  0999 V2000
   -4.0702   -3.8485    1.4554 H   0  0  0  0  0  0  0  0  0  0  0  0
   -4.0012   -2.9605    0.8284 C   0  0  0  0  0  0  0  0  0  0  0  0
   -4.7652   -2.2435    1.1234 H   0  0  0  0  0  0  0  0  0  0  0  0
   -4.1352   -3.2385   -0.2156 H   0  0  0  0  0  0  0  0  0  0  0  0
   -2.6362   -2.3395    1.0094 C   0  0  0  0  0  0  0  0  0  0  0  0
   -1.8292   -2.8395    1.7814 O   0  0  0  0  0  0  0  0  0  0  0  0
   -2.3832   -1.2445    0.2964 N   0  0  0  0  0  0  0  0  0  0  0  0
   -3.1102   -0.8685   -0.2946 H   0  0  0  0  0  0  0  0  0  0  0  0
   -1.1292   -0.4875    0.3524 C   0  0  1  0  0  0  0  0  0  0  0  0
   -0.3087   -1.1556    0.0882 H   0  0  0  0  0  0  0  0  0  0  0  0
   -1.1749    0.6534   -0.6787 C   0  0  0  0  0  0  0  0  0  0  0  0
   -0.7889    0.2865   -1.6305 H   0  0  0  0  0  0  0  0  0  0  0  0
   -2.2146    0.9443   -0.8380 H   0  0  0  0  0  0  0  0  0  0  0  0
   -0.3672    1.8741   -0.2821 C   0  0  0  0  0  0  0  0  0  0  0  0
    0.4706    2.5086   -1.2212 C   0  0  0  0  0  0  0  0  0  0  0  0
    0.5600    2.1098   -2.2232 H   0  0  0  0  0  0  0  0  0  0  0  0
    1.1875    3.6658   -0.8597 C   0  0  0  0  0  0  0  0  0  0  0  0
    1.8293    4.1482   -1.5809 H   0  0  0  0  0  0  0  0  0  0  0  0
    1.0630    4.1922    0.4445 C   0  0  0  0  0  0  0  0  0  0  0  0
    1.7479    5.3094    0.8020 O   0  0  0  0  0  0  0  0  0  0  0  0
    2.3516    5.5978    0.1162 H   0  0  0  0  0  0  0  0  0  0  0  0
    0.2204    3.5588    1.3814 C   0  0  0  0  0  0  0  0  0  0  0  0
    0.1369    3.9683    2.3768 H   0  0  0  0  0  0  0  0  0  0  0  0
   -0.4914    2.3997    1.0185 C   0  0  0  0  0  0  0  0  0  0  0  0
   -1.1314    1.9083    1.7417 H   0  0  0  0  0  0  0  0  0  0  0  0
   -0.8664    0.0378    1.7736 C   0  0  0  0  0  0  0  0  0  0  0  0
    0.2529   -0.0672    2.2760 O   0  0  0  0  0  0  0  0  0  0  0  0
   -1.8947    0.5991    2.4221 N   0  0  0  0  0  0  0  0  0  0  0  0
   -2.7942    0.5936    1.9635 H   0  0  0  0  0  0  0  0  0  0  0  0
   -1.8170    1.1453    3.7750 C   0  0  0  0  0  0  0  0  0  0  0  0
   -0.9697    1.8290    3.8506 H   0  0  0  0  0  0  0  0  0  0  0  0
   -2.7354    1.6828    4.0167 H   0  0  0  0  0  0  0  0  0  0  0  0
   -1.6754    0.3334    4.4914 H   0  0  0  0  0  0  0  0  0  0  0  0
  5  6  2  0  0  0  0
  5  7  1  0  0  0  0
  2  3  1  0  0  0  0
  2  4  1  0  0  0  0
  2  5  1  0  0  0  0
  1  2  1  0  0  0  0
 26 27  2  0  0  0  0
 26 28  1  0  0  0  0
 24 25  1  0  0  0  0
 22 23  1  0  0  0  0
 22 24  2  0  0  0  0
 20 21  1  0  0  0  0
 19 20  1  0  0  0  0
 19 22  1  0  0  0  0
 17 18  1  0  0  0  0
 17 19  2  0  0  0  0
 15 16  1  0  0  0  0
 15 17  1  0  0  0  0
 14 15  2  0  0  0  0
 14 24  1  0  0  0  0
 11 12  1  0  0  0  0
 11 13  1  0  0  0  0
 11 14  1  0  0  0  0
  9 10  1  0  0  0  0
  9 11  1  0  0  0  0
  9 26  1  0  0  0  0
  7  8  1  0  0  0  0
  7  9  1  0  0  0  0
 30 31  1  0  0  0  0
 30 32  1  0  0  0  0
 30 33  1  0  0  0  0
 28 29  1  0  0  0  0
 28 30  1  0  0  0  0
M  END
$$$$
default_name
  -OEChem-02102213163D

 33 33  0     1  0  0  0  0  0999 V2000
   -4.0702   -3.8485    1.4554 H   0  0  0  0  0  0  0  0  0  0  0  0
   -4.0012   -2.9605    0.8284 C   0  0  0  0  0  0  0  0  0  0  0  0
   -4.7652   -2.2435    1.1234 H   0  0  0  0  0  0  0  0  0  0  0  0
   -4.1352   -3.2385   -0.2156 H   0  0  0  0  0  0  0  0  0  0  0  0
   -2.6362   -2.3395    1.0094 C   0  0  0  0  0  0  0  0  0  0  0  0
   -1.8292   -2.8395    1.7814 O   0  0  0  0  0  0  0  0  0  0  0  0
   -2.3832   -1.2445    0.2964 N   0  0  0  0  0  0  0  0  0  0  0  0
   -3.1102   -0.8685   -0.2946 H   0  0  0  0  0  0  0  0  0  0  0  0
   -1.1292   -0.4875    0.3524 C   0  0  1  0  0  0  0  0  0  0  0  0
   -0.3087   -1.1556    0.0882 H   0  0  0  0  0  0  0  0  0  0  0  0
   -1.1749    0.6534   -0.6787 C   0  0  0  0  0  0  0  0  0  0  0  0
   -0.7889    0.2865   -1.6305 H   0  0  0  0  0  0  0  0  0  0  0  0
   -2.2146    0.9443   -0.8380 H   0  0  0  0  0  0  0  0  0  0  0  0
   -0.3672    1.8741   -0.2821 C   0  0  0  0  0  0  0  0  0  0  0  0
    0.2164    2.6927   -1.2699 C   0  0  0  0  0  0  0  0  0  0  0  0
    0.1113    2.4369   -2.3162 H   0  0  0  0  0  0  0  0  0  0  0  0
    0.9314    3.8477   -0.8981 C   0  0  0  0  0  0  0  0  0  0  0  0
    1.3783    4.4714   -1.6571 H   0  0  0  0  0  0  0  0  0  0  0  0
    1.0599    4.1871    0.4664 C   0  0  0  0  0  0  0  0  0  0  0  0
    1.7450    5.3006    0.8351 O   0  0  0  0  0  0  0  0  0  0  0  0
    2.1726    5.7248    0.0900 H   0  0  0  0  0  0  0  0  0  0  0  0
    0.4711    3.3696    1.4533 C   0  0  0  0  0  0  0  0  0  0  0  0
    0.5800    3.6372    2.4935 H   0  0  0  0  0  0  0  0  0  0  0  0
   -0.2391    2.2132    1.0787 C   0  0  0  0  0  0  0  0  0  0  0  0
   -0.6833    1.5805    1.8379 H   0  0  0  0  0  0  0  0  0  0  0  0
   -0.8664    0.0378    1.7736 C   0  0  0  0  0  0  0  0  0  0  0  0
    0.2529   -0.0672    2.2760 O   0  0  0  0  0  0  0  0  0  0  0  0
   -1.8947    0.5991    2.4221 N   0  0  0  0  0  0  0  0  0  0  0  0
   -2.7942    0.5936    1.9635 H   0  0  0  0  0  0  0  0  0  0  0  0
   -1.8170    1.1453    3.7750 C   0  0  0  0  0  0  0  0  0  0  0  0
   -0.9697    1.8290    3.8506 H   0  0  0  0  0  0  0  0  0  0  0  0
   -2.7354    1.6828    4.0167 H   0  0  0  0  0  0  0  0  0  0  0  0
   -1.6754    0.3334    4.4914 H   0  0  0  0  0  0  0  0  0  0  0  0
  5  6  2  0  0  0  0
  5  7  1  0  0  0  0
  2  3  1  0  0  0  0
  2  4  1  0  0  0  0
  2  5  1  0  0  0  0
  1  2  1  0  0  0  0
 26 27  2  0  0  0  0
 26 28  1  0  0  0  0
 24 25  1  0  0  0  0
 22 23  1  0  0  0  0
 22 24  2  0  0  0  0
 20 21  1  0  0  0  0
 19 20  1  0  0  0  0
 19 22  1  0  0  0  0
 17 18  1  0  0  0  0
 17 19  2  0  0  0  0
 15 16  1  0  0  0  0
 15 17  1  0  0  0  0
 14 15  2  0  0  0  0
 14 24  1  0  0  0  0
 11 12  1  0  0  0  0
 11 13  1  0  0  0  0
 11 14  1  0  0  0  0
  9 10  1  0  0  0  0
  9 11  1  0  0  0  0
  9 26  1  0  0  0  0
  7  8  1  0  0  0  0
  7  9  1  0  0  0  0
 30 31  1  0  0  0  0
 30 32  1  0  0  0  0
 30 33  1  0  0  0  0
 28 29  1  0  0  0  0
 28 30  1  0  0  0  0
M  END
$$$$
default_name
  -OEChem-02102213163D

 33 33  0     1  0  0  0  0  0999 V2000
   -4.0702   -3.8485    1.4554 H   0  0  0  0  0  0  0  0  0  0  0  0
   -4.0012   -2.9605    0.8284 C   0  0  0  0  0  0  0  0  0  0  0  0
   -4.7652   -2.2435    1.1234 H   0  0  0  0  0  0  0  0  0  0  0  0
   -4.1352   -3.2385   -0.2156 H   0  0  0  0  0  0  0  0  0  0  0  0
   -2.6362   -2.3395    1.0094 C   0  0  0  0  0  0  0  0  0  0  0  0
   -1.8292   -2.8395    1.7814 O   0  0  0  0  0  0  0  0  0  0  0  0
   -2.3832   -1.2445    0.2964 N   0  0  0  0  0  0  0  0  0  0  0  0
   -3.1102   -0.8685   -0.2946 H   0  0  0  0  0  0  0  0  0  0  0  0
   -1.1292   -0.4875    0.3524 C   0  0  1  0  0  0  0  0  0  0  0  0
   -0.3087   -1.1556    0.0882 H   0  0  0  0  0  0  0  0  0  0  0  0
   -1.1749    0.6534   -0.6787 C   0  0  0  0  0  0  0  0  0  0  0  0
   -0.7889    0.2865   -1.6305 H   0  0  0  0  0  0  0  0  0  0  0  0
   -2.2146    0.9443   -0.8380 H   0  0  0  0  0  0  0  0  0  0  0  0
   -0.3672    1.8741   -0.2821 C   0  0  0  0  0  0  0  0  0  0  0  0
   -0.0518    2.8599   -1.2387 C   0  0  0  0  0  0  0  0  0  0  0  0
   -0.3637    2.7354   -2.2674 H   0  0  0  0  0  0  0  0  0  0  0  0
    0.6637    4.0114   -0.8567 C   0  0  0  0  0  0  0  0  0  0  0  0
    0.9049    4.7635   -1.5921 H   0  0  0  0  0  0  0  0  0  0  0  0
    1.0618    4.1790    0.4876 C   0  0  0  0  0  0  0  0  0  0  0  0
    1.7497    5.2873    0.8666 O   0  0  0  0  0  0  0  0  0  0  0  0
    1.9855    5.8389    0.1196 H   0  0  0  0  0  0  0  0  0  0  0  0
    0.7411    3.1938    1.4444 C   0  0  0  0  0  0  0  0  0  0  0  0
    1.0548    3.3313    2.4682 H   0  0  0  0  0  0  0  0  0  0  0  0
    0.0297    2.0418    1.0586 C   0  0  0  0  0  0  0  0  0  0  0  0
   -0.2083    1.2810    1.7924 H   0  0  0  0  0  0  0  0  0  0  0  0
   -0.8664    0.0378    1.7736 C   0  0  0  0  0  0  0  0  0  0  0  0
    0.2529   -0.0672    2.2760 O   0  0  0  0  0  0  0  0  0  0  0  0
   -1.8947    0.5991    2.4221 N   0  0  0  0  0  0  0  0  0  0  0  0
   -2.7942    0.5936    1.9635 H   0  0  0  0  0  0  0  0  0  0  0  0
   -1.8170    1.1453    3.7750 C   0  0  0  0  0  0  0  0  0  0  0  0
   -0.9697    1.8290    3.8506 H   0  0  0  0  0  0  0  0  0  0  0  0
   -2.7354    1.6828    4.0167 H   0  0  0  0  0  0  0  0  0  0  0  0
   -1.6754    0.3334    4.4914 H   0  0  0  0  0  0  0  0  0  0  0  0
  5  6  2  0  0  0  0
  5  7  1  0  0  0  0
  2  3  1  0  0  0  0
  2  4  1  0  0  0  0
  2  5  1  0  0  0  0
  1  2  1  0  0  0  0
 26 27  2  0  0  0  0
 26 28  1  0  0  0  0
 24 25  1  0  0  0  0
 22 23  1  0  0  0  0
 22 24  2  0  0  0  0
 20 21  1  0  0  0  0
 19 20  1  0  0  0  0
 19 22  1  0  0  0  0
 17 18  1  0  0  0  0
 17 19  2  0  0  0  0
 15 16  1  0  0  0  0
 15 17  1  0  0  0  0
 14 15  2  0  0  0  0
 14 24  1  0  0  0  0
 11 12  1  0  0  0  0
 11 13  1  0  0  0  0
 11 14  1  0  0  0  0
  9 10  1  0  0  0  0
  9 11  1  0  0  0  0
  9 26  1  0  0  0  0
  7  8  1  0  0  0  0
  7  9  1  0  0  0  0
 30 31  1  0  0  0  0
 30 32  1  0  0  0  0
 30 33  1  0  0  0  0
 28 29  1  0  0  0  0
 28 30  1  0  0  0  0
M  END
$$$$
default_name
  -OEChem-02102213163D

 33 33  0     1  0  0  0  0  0999 V2000
   -4.0702   -3.8485    1.4554 H   0  0  0  0  0  0  0  0  0  0  0  0
   -4.0012   -2.9605    0.8284 C   0  0  0  0  0  0  0  0  0  0  0  0
   -4.7652   -2.2435    1.1234 H   0  0  0  0  0  0  0  0  0  0  0  0
   -4.1352   -3.2385   -0.2156 H   0  0  0  0  0  0  0  0  0  0  0  0
   -2.6362   -2.3395    1.0094 C   0  0  0  0  0  0  0  0  0  0  0  0
   -1.8292   -2.8395    1.7814 O   0  0  0  0  0  0  0  0  0  0  0  0
   -2.3832   -1.2445    0.2964 N   0  0  0  0  0  0  0  0  0  0  0  0
   -3.1102   -0.8685   -0.2946 H   0  0  0  0  0  0  0  0  0  0  0  0
   -1.1292   -0.4875    0.3524 C   0  0  1  0  0  0  0  0  0  0  0  0
   -0.3087   -1.1556    0.0882 H   0  0  0  0  0  0  0  0  0  0  0  0
   -1.1749    0.6534   -0.6787 C   0  0  0  0  0  0  0  0  0  0  0  0
   -1.0487    0.2337   -1.6775 H   0  0  0  0  0  0  0  0  0  0  0  0
   -2.1597    1.1224   -0.6433 H   0  0  0  0  0  0  0  0  0  0  0  0
   -0.1075    1.7110   -0.4741 C   0  0  0  0  0  0  0  0  0  0  0  0
   -0.0266    2.8176   -1.3432 C   0  0  0  0  0  0  0  0  0  0  0  0
   -0.7115    2.9023   -2.1768 H   0  0  0  0  0  0  0  0  0  0  0  0
    0.9407    3.8179   -1.1250 C   0  0  0  0  0  0  0  0  0  0  0  0
    1.0007    4.6630   -1.7934 H   0  0  0  0  0  0  0  0  0  0  0  0
    1.8276    3.7126   -0.0314 C   0  0  0  0  0  0  0  0  0  0  0  0
    2.7620    4.6735    0.1893 O   0  0  0  0  0  0  0  0  0  0  0  0
    2.7834    5.3245   -0.5133 H   0  0  0  0  0  0  0  0  0  0  0  0
    1.7420    2.6071    0.8401 C   0  0  0  0  0  0  0  0  0  0  0  0
    2.4286    2.5357    1.6701 H   0  0  0  0  0  0  0  0  0  0  0  0
    0.7771    1.6067    0.6166 C   0  0  0  0  0  0  0  0  0  0  0  0
    0.7180    0.7529    1.2813 H   0  0  0  0  0  0  0  0  0  0  0  0
   -0.8664    0.0378    1.7736 C   0  0  0  0  0  0  0  0  0  0  0  0
    0.2529   -0.0672    2.2760 O   0  0  0  0  0  0  0  0  0  0  0  0
   -1.8947    0.5991    2.4221 N   0  0  0  0  0  0  0  0  0  0  0  0
   -2.7942    0.5936    1.9635 H   0  0  0  0  0  0  0  0  0  0  0  0
   -1.8170    1.1453    3.7750 C   0  0  0  0  0  0  0  0  0  0  0  0
   -0.9697    1.8290    3.8506 H   0  0  0  0  0  0  0  0  0  0  0  0
   -2.7354    1.6828    4.0167 H   0  0  0  0  0  0  0  0  0  0  0  0
   -1.6754    0.3334    4.4914 H   0  0  0  0  0  0  0  0  0  0  0  0
  5  6  2  0  0  0  0
  5  7  1  0  0  0  0
  2  3  1  0  0  0  0
  2  4  1  0  0  0  0
  2  5  1  0  0  0  0
  1  2  1  0  0  0  0
 26 27  2  0  0  0  0
 26 28  1  0  0  0  0
 24 25  1  0  0  0  0
 22 23  1  0  0  0  0
 22 24  2  0  0  0  0
 20 21  1  0  0  0  0
 19 20  1  0  0  0  0
 19 22  1  0  0  0  0
 17 18  1  0  0  0  0
 17 19  2  0  0  0  0
 15 16  1  0  0  0  0
 15 17  1  0  0  0  0
 14 15  2  0  0  0  0
 14 24  1  0  0  0  0
 11 12  1  0  0  0  0
 11 13  1  0  0  0  0
 11 14  1  0  0  0  0
  9 10  1  0  0  0  0
  9 11  1  0  0  0  0
  9 26  1  0  0  0  0
  7  8  1  0  0  0  0
  7  9  1  0  0  0  0
 30 31  1  0  0  0  0
 30 32  1  0  0  0  0
 30 33  1  0  0  0  0
 28 29  1  0  0  0  0
 28 30  1  0  0  0  0
M  END
$$$$
default_name
  -OEChem-02102213163D

 33 33  0     1  0  0  0  0  0999 V2000
   -4.0702   -3.8485    1.4554 H   0  0  0  0  0  0  0  0  0  0  0  0
   -4.0012   -2.9605    0.8284 C   0  0  0  0  0  0  0  0  0  0  0  0
   -4.7652   -2.2435    1.1234 H   0  0  0  0  0  0  0  0  0  0  0  0
   -4.1352   -3.2385   -0.2156 H   0  0  0  0  0  0  0  0  0  0  0  0
   -2.6362   -2.3395    1.0094 C   0  0  0  0  0  0  0  0  0  0  0  0
   -1.8292   -2.8395    1.7814 O   0  0  0  0  0  0  0  0  0  0  0  0
   -2.3832   -1.2445    0.2964 N   0  0  0  0  0  0  0  0  0  0  0  0
   -3.1102   -0.8685   -0.2946 H   0  0  0  0  0  0  0  0  0  0  0  0
   -1.1292   -0.4875    0.3524 C   0  0  1  0  0  0  0  0  0  0  0  0
   -0.3087   -1.1556    0.0882 H   0  0  0  0  0  0  0  0  0  0  0  0
   -1.1749    0.6534   -0.6787 C   0  0  0  0  0  0  0  0  0  0  0  0
   -1.0487    0.2337   -1.6775 H   0  0  0  0  0  0  0  0  0  0  0  0
   -2.1597    1.1224   -0.6433 H   0  0  0  0  0  0  0  0  0  0  0  0
   -0.1075    1.7110   -0.4741 C   0  0  0  0  0  0  0  0  0  0  0  0
   -0.2078    2.9579   -1.1233 C   0  0  0  0  0  0  0  0  0  0  0  0
   -1.0356    3.1550   -1.7920 H   0  0  0  0  0  0  0  0  0  0  0  0
    0.7647    3.9516   -0.8985 C   0  0  0  0  0  0  0  0  0  0  0  0
    0.6856    4.9047   -1.3985 H   0  0  0  0  0  0  0  0  0  0  0  0
    1.8392    3.6983   -0.0182 C   0  0  0  0  0  0  0  0  0  0  0  0
    2.7807    4.6511    0.2076 O   0  0  0  0  0  0  0  0  0  0  0  0
    2.6608    5.4176   -0.3546 H   0  0  0  0  0  0  0  0  0  0  0  0
    1.9354    2.4518    0.6344 C   0  0  0  0  0  0  0  0  0  0  0  0
    2.7640    2.2685    1.3017 H   0  0  0  0  0  0  0  0  0  0  0  0
    0.9642    1.4589    0.4040 C   0  0  0  0  0  0  0  0  0  0  0  0
    1.0438    0.4982    0.8986 H   0  0  0  0  0  0  0  0  0  0  0  0
   -0.8664    0.0378    1.7736 C   0  0  0  0  0  0  0  0  0  0  0  0
    0.2529   -0.0672    2.2760 O   0  0  0  0  0  0  0  0  0  0  0  0
   -1.8947    0.5991    2.4221 N   0  0  0  0  0  0  0  0  0  0  0  0
   -2.7942    0.5936    1.9635 H   0  0  0  0  0  0  0  0  0  0  0  0
   -1.8170    1.1453    3.7750 C   0  0  0  0  0  0  0  0  0  0  0  0
   -0.9697    1.8290    3.8506 H   0  0  0  0  0  0  0  0  0  0  0  0
   -2.7354    1.6828    4.0167 H   0  0  0  0  0  0  0  0  0  0  0  0
   -1.6754    0.3334    4.4914 H   0  0  0  0  0  0  0  0  0  0  0  0
  5  6  2  0  0  0  0
  5  7  1  0  0  0  0
  2  3  1  0  0  0  0
  2  4  1  0  0  0  0
  2  5  1  0  0  0  0
  1  2  1  0  0  0  0
 26 27  2  0  0  0  0
 26 28  1  0  0  0  0
 24 25  1  0  0  0  0
 22 23  1  0  0  0  0
 22 24  2  0  0  0  0
 20 21  1  0  0  0  0
 19 20  1  0  0  0  0
 19 22  1  0  0  0  0
 17 18  1  0  0  0  0
 17 19  2  0  0  0  0
 15 16  1  0  0  0  0
 15 17  1  0  0  0  0
 14 15  2  0  0  0  0
 14 24  1  0  0  0  0
 11 12  1  0  0  0  0
 11 13  1  0  0  0  0
 11 14  1  0  0  0  0
  9 10  1  0  0  0  0
  9 11  1  0  0  0  0
  9 26  1  0  0  0  0
  7  8  1  0  0  0  0
  7  9  1  0  0  0  0
 30 31  1  0  0  0  0
 30 32  1  0  0  0  0
 30 33  1  0  0  0  0
 28 29  1  0  0  0  0
 28 30  1  0  0  0  0
M  END
$$$$
default_name
  -OEChem-02102213163D

 33 33  0     1  0  0  0  0  0999 V2000
   -4.0702   -3.8485    1.4554 H   0  0  0  0  0  0  0  0  0  0  0  0
   -4.0012   -2.9605    0.8284 C   0  0  0  0  0  0  0  0  0  0  0  0
   -4.7652   -2.2435    1.1234 H   0  0  0  0  0  0  0  0  0  0  0  0
   -4.1352   -3.2385   -0.2156 H   0  0  0  0  0  0  0  0  0  0  0  0
   -2.6362   -2.3395    1.0094 C   0  0  0  0  0  0  0  0  0  0  0  0
   -1.8292   -2.8395    1.7814 O   0  0  0  0  0  0  0  0  0  0  0  0
   -2.3832   -1.2445    0.2964 N   0  0  0  0  0  0  0  0  0  0  0  0
   -3.1102   -0.8685   -0.2946 H   0  0  0  0  0  0  0  0  0  0  0  0
   -1.1292   -0.4875    0.3524 C   0  0  1  0  0  0  0  0  0  0  0  0
   -0.3087   -1.1556    0.0882 H   0  0  0  0  0  0  0  0  0  0  0  0
   -1.1749    0.6534   -0.6787 C   0  0  0  0  0  0  0  0  0  0  0  0
   -1.0487    0.2337   -1.6775 H   0  0  0  0  0  0  0  0  0  0  0  0
   -2.1597    1.1224   -0.6433 H   0  0  0  0  0  0  0  0  0  0  0  0
   -0.1075    1.7110   -0.4741 C   0  0  0  0  0  0  0  0  0  0  0  0
   -0.3481    3.0471   -0.8527 C   0  0  0  0  0  0  0  0  0  0  0  0
   -1.2880    3.3177   -1.3157 H   0  0  0  0  0  0  0  0  0  0  0  0
    0.6310    4.0334   -0.6235 C   0  0  0  0  0  0  0  0  0  0  0  0
    0.4441    5.0552   -0.9161 H   0  0  0  0  0  0  0  0  0  0  0  0
    1.8534    3.6824   -0.0102 C   0  0  0  0  0  0  0  0  0  0  0  0
    2.8028    4.6267    0.2178 O   0  0  0  0  0  0  0  0  0  0  0  0
    2.5678    5.4742   -0.1622 H   0  0  0  0  0  0  0  0  0  0  0  0
    2.0904    2.3459    0.3725 C   0  0  0  0  0  0  0  0  0  0  0  0
    3.0308    2.0891    0.8366 H   0  0  0  0  0  0  0  0  0  0  0  0
    1.1117    1.3615    0.1379 C   0  0  0  0  0  0  0  0  0  0  0  0
    1.2982    0.3332    0.4237 H   0  0  0  0  0  0  0  0  0  0  0  0
   -0.8664    0.0378    1.7736 C   0  0  0  0  0  0  0  0  0  0  0  0
    0.2529   -0.0672    2.2760 O   0  0  0  0  0  0  0  0  0  0  0  0
   -1.8947    0.5991    2.4221 N   0  0  0  0  0  0  0  0  0  0  0  0
   -2.7942    0.5936    1.9635 H   0  0  0  0  0  0  0  0  0  0  0  0
   -1.8170    1.1453    3.7750 C   0  0  0  0  0  0  0  0  0  0  0  0
   -0.9697    1.8290    3.8506 H   0  0  0  0  0  0  0  0  0  0  0  0
   -2.7354    1.6828    4.0167 H   0  0  0  0  0  0  0  0  0  0  0  0
   -1.6754    0.3334    4.4914 H   0  0  0  0  0  0  0  0  0  0  0  0
  5  6  2  0  0  0  0
  5  7  1  0  0  0  0
  2  3  1  0  0  0  0
  2  4  1  0  0  0  0
  2  5  1  0  0  0  0
  1  2  1  0  0  0  0
 26 27  2  0  0  0  0
 26 28  1  0  0  0  0
 24 25  1  0  0  0  0
 22 23  1  0  0  0  0
 22 24  2  0  0  0  0
 20 21  1  0  0  0  0
 19 20  1  0  0  0  0
 19 22  1  0  0  0  0
 17 18  1  0  0  0  0
 17 19  2  0  0  0  0
 15 16  1  0  0  0  0
 15 17  1  0  0  0  0
 14 15  2  0  0  0  0
 14 24  1  0  0  0  0
 11 12  1  0  0  0  0
 11 13  1  0  0  0  0
 11 14  1  0  0  0  0
  9 10  1  0  0  0  0
  9 11  1  0  0  0  0
  9 26  1  0  0  0  0
  7  8  1  0  0  0  0
  7  9  1  0  0  0  0
 30 31  1  0  0  0  0
 30 32  1  0  0  0  0
 30 33  1  0  0  0  0
 28 29  1  0  0  0  0
 28 30  1  0  0  0  0
M  END
$$$$
default_name
  -OEChem-02102213163D

 33 33  0     1  0  0  0  0  0999 V2000
   -4.0702   -3.8485    1.4554 H   0  0  0  0  0  0  0  0  0  0  0  0
   -4.0012   -2.9605    0.8284 C   0  0  0  0  0  0  0  0  0  0  0  0
   -4.7652   -2.2435    1.1234 H   0  0  0  0  0  0  0  0  0  0  0  0
   -4.1352   -3.2385   -0.2156 H   0  0  0  0  0  0  0  0  0  0  0  0
   -2.6362   -2.3395    1.0094 C   0  0  0  0  0  0  0  0  0  0  0  0
   -1.8292   -2.8395    1.7814 O   0  0  0  0  0  0  0  0  0  0  0  0
   -2.3832   -1.2445    0.2964 N   0  0  0  0  0  0  0  0  0  0  0  0
   -3.1102   -0.8685   -0.2946 H   0  0  0  0  0  0  0  0  0  0  0  0
   -1.1292   -0.4875    0.3524 C   0  0  1  0  0  0  0  0  0  0  0  0
   -0.3087   -1.1556    0.0882 H   0  0  0  0  0  0  0  0  0  0  0  0
   -1.1749    0.6534   -0.6787 C   0  0  0  0  0  0  0  0  0  0  0  0
   -1.0487    0.2337   -1.6775 H   0  0  0  0  0  0  0  0  0  0  0  0
   -2.1597    1.1224   -0.6433 H   0  0  0  0  0  0  0  0  0  0  0  0
   -0.1075    1.7110   -0.4741 C   0  0  0  0  0  0  0  0  0  0  0  0
   -0.4378    3.0791   -0.5497 C   0  0  0  0  0  0  0  0  0  0  0  0
   -1.4515    3.3792   -0.7804 H   0  0  0  0  0  0  0  0  0  0  0  0
    0.5487    4.0576   -0.3189 C   0  0  0  0  0  0  0  0  0  0  0  0
    0.2926    5.1042   -0.3792 H   0  0  0  0  0  0  0  0  0  0  0  0
    1.8691    3.6661   -0.0078 C   0  0  0  0  0  0  0  0  0  0  0  0
    2.8269    4.6021    0.2193 O   0  0  0  0  0  0  0  0  0  0  0  0
    2.5107    5.4907    0.0507 H   0  0  0  0  0  0  0  0  0  0  0  0
    2.1967    2.2967    0.0722 C   0  0  0  0  0  0  0  0  0  0  0  0
    3.2108    2.0100    0.3066 H   0  0  0  0  0  0  0  0  0  0  0  0
    1.2095    1.3211   -0.1635 C   0  0  0  0  0  0  0  0  0  0  0  0
    1.4641    0.2692   -0.1109 H   0  0  0  0  0  0  0  0  0  0  0  0
   -0.8664    0.0378    1.7736 C   0  0  0  0  0  0  0  0  0  0  0  0
    0.2529   -0.0672    2.2760 O   0  0  0  0  0  0  0  0  0  0  0  0
   -1.8947    0.5991    2.4221 N   0  0  0  0  0  0  0  0  0  0  0  0
   -2.7942    0.5936    1.9635 H   0  0  0  0  0  0  0  0  0  0  0  0
   -1.8170    1.1453    3.7750 C   0  0  0  0  0  0  0  0  0  0  0  0
   -0.9697    1.8290    3.8506 H   0  0  0  0  0  0  0  0  0  0  0  0
   -2.7354    1.6828    4.0167 H   0  0  0  0  0  0  0  0  0  0  0  0
   -1.6754    0.3334    4.4914 H   0  0  0  0  0  0  0  0  0  0  0  0
  5  6  2  0  0  0  0
  5  7  1  0  0  0  0
  2  3  1  0  0  0  0
  2  4  1  0  0  0  0
  2  5  1  0  0  0  0
  1  2  1  0  0  0  0
 26 27  2  0  0  0  0
 26 28  1  0  0  0  0
 24 25  1  0  0  0  0
 22 23  1  0  0  0  0
 22 24  2  0  0  0  0
 20 21  1  0  0  0  0
 19 20  1  0  0  0  0
 19 22  1  0  0  0  0
 17 18  1  0  0  0  0
 17 19  2  0  0  0  0
 15 16  1  0  0  0  0
 15 17  1  0  0  0  0
 14 15  2  0  0  0  0
 14 24  1  0  0  0  0
 11 12  1  0  0  0  0
 11 13  1  0  0  0  0
 11 14  1  0  0  0  0
  9 10  1  0  0  0  0
  9 11  1  0  0  0  0
  9 26  1  0  0  0  0
  7  8  1  0  0  0  0
  7  9  1  0  0  0  0
 30 31  1  0  0  0  0
 30 32  1  0  0  0  0
 30 33  1  0  0  0  0
 28 29  1  0  0  0  0
 28 30  1  0  0  0  0
M  END
$$$$
default_name
  -OEChem-02102213163D

 33 33  0     1  0  0  0  0  0999 V2000
   -4.0702   -3.8485    1.4554 H   0  0  0  0  0  0  0  0  0  0  0  0
   -4.0012   -2.9605    0.8284 C   0  0  0  0  0  0  0  0  0  0  0  0
   -4.7652   -2.2435    1.1234 H   0  0  0  0  0  0  0  0  0  0  0  0
   -4.1352   -3.2385   -0.2156 H   0  0  0  0  0  0  0  0  0  0  0  0
   -2.6362   -2.3395    1.0094 C   0  0  0  0  0  0  0  0  0  0  0  0
   -1.8292   -2.8395    1.7814 O   0  0  0  0  0  0  0  0  0  0  0  0
   -2.3832   -1.2445    0.2964 N   0  0  0  0  0  0  0  0  0  0  0  0
   -3.1102   -0.8685   -0.2946 H   0  0  0  0  0  0  0  0  0  0  0  0
   -1.1292   -0.4875    0.3524 C   0  0  1  0  0  0  0  0  0  0  0  0
   -0.3087   -1.1556    0.0882 H   0  0  0  0  0  0  0  0  0  0  0  0
   -1.1749    0.6534   -0.6787 C   0  0  0  0  0  0  0  0  0  0  0  0
   -1.0487    0.2337   -1.6775 H   0  0  0  0  0  0  0  0  0  0  0  0
   -2.1597    1.1224   -0.6433 H   0  0  0  0  0  0  0  0  0  0  0  0
   -0.1075    1.7110   -0.4741 C   0  0  0  0  0  0  0  0  0  0  0  0
   -0.4709    3.0516   -0.2350 C   0  0  0  0  0  0  0  0  0  0  0  0
   -1.5150    3.3355   -0.2227 H   0  0  0  0  0  0  0  0  0  0  0  0
    0.5232    4.0226   -0.0054 C   0  0  0  0  0  0  0  0  0  0  0  0
    0.2415    5.0485    0.1758 H   0  0  0  0  0  0  0  0  0  0  0  0
    1.8852    3.6505   -0.0114 C   0  0  0  0  0  0  0  0  0  0  0  0
    2.8513    4.5789    0.2119 O   0  0  0  0  0  0  0  0  0  0  0  0
    2.4934    5.4658    0.2697 H   0  0  0  0  0  0  0  0  0  0  0  0
    2.2468    2.3077   -0.2459 C   0  0  0  0  0  0  0  0  0  0  0  0
    3.2917    2.0364   -0.2523 H   0  0  0  0  0  0  0  0  0  0  0  0
    1.2510    1.3403   -0.4796 C   0  0  0  0  0  0  0  0  0  0  0  0
    1.5300    0.3106   -0.6690 H   0  0  0  0  0  0  0  0  0  0  0  0
   -0.8664    0.0378    1.7736 C   0  0  0  0  0  0  0  0  0  0  0  0
    0.2529   -0.0672    2.2760 O   0  0  0  0  0  0  0  0  0  0  0  0
   -1.8947    0.5991    2.4221 N   0  0  0  0  0  0  0  0  0  0  0  0
   -2.7942    0.5936    1.9635 H   0  0  0  0  0  0  0  0  0  0  0  0
   -1.8170    1.1453    3.7750 C   0  0  0  0  0  0  0  0  0  0  0  0
   -0.9697    1.8290    3.8506 H   0  0  0  0  0  0  0  0  0  0  0  0
   -2.7354    1.6828    4.0167 H   0  0  0  0  0  0  0  0  0  0  0  0
   -1.6754    0.3334    4.4914 H   0  0  0  0  0  0  0  0  0  0  0  0
  5  6  2  0  0  0  0
  5  7  1  0  0  0  0
  2  3  1  0  0  0  0
  2  4  1  0  0  0  0
  2  5  1  0  0  0  0
  1  2  1  0  0  0  0
 26 27  2  0  0  0  0
 26 28  1  0  0  0  0
 24 25  1  0  0  0  0
 22 23  1  0  0  0  0
 22 24  2  0  0  0  0
 20 21  1  0  0  0  0
 19 20  1  0  0  0  0
 19 22  1  0  0  0  0
 17 18  1  0  0  0  0
 17 19  2  0  0  0  0
 15 16  1  0  0  0  0
 15 17  1  0  0  0  0
 14 15  2  0  0  0  0
 14 24  1  0  0  0  0
 11 12  1  0  0  0  0
 11 13  1  0  0  0  0
 11 14  1  0  0  0  0
  9 10  1  0  0  0  0
  9 11  1  0  0  0  0
  9 26  1  0  0  0  0
  7  8  1  0  0  0  0
  7  9  1  0  0  0  0
 30 31  1  0  0  0  0
 30 32  1  0  0  0  0
 30 33  1  0  0  0  0
 28 29  1  0  0  0  0
 28 30  1  0  0  0  0
M  END
$$$$
default_name
  -OEChem-02102213163D

 33 33  0     1  0  0  0  0  0999 V2000
   -4.0702   -3.8485    1.4554 H   0  0  0  0  0  0  0  0  0  0  0  0
   -4.0012   -2.9605    0.8284 C   0  0  0  0  0  0  0  0  0  0  0  0
   -4.7652   -2.2435    1.1234 H   0  0  0  0  0  0  0  0  0  0  0  0
   -4.1352   -3.2385   -0.2156 H   0  0  0  0  0  0  0  0  0  0  0  0
   -2.6362   -2.3395    1.0094 C   0  0  0  0  0  0  0  0  0  0  0  0
   -1.8292   -2.8395    1.7814 O   0  0  0  0  0  0  0  0  0  0  0  0
   -2.3832   -1.2445    0.2964 N   0  0  0  0  0  0  0  0  0  0  0  0
   -3.1102   -0.8685   -0.2946 H   0  0  0  0  0  0  0  0  0  0  0  0
   -1.1292   -0.4875    0.3524 C   0  0  1  0  0  0  0  0  0  0  0  0
   -0.3087   -1.1556    0.0882 H   0  0  0  0  0  0  0  0  0  0  0  0
   -1.1749    0.6534   -0.6787 C   0  0  0  0  0  0  0  0  0  0  0  0
   -1.0487    0.2337   -1.6775 H   0  0  0  0  0  0  0  0  0  0  0  0
   -2.1597    1.1224   -0.6433 H   0  0  0  0  0  0  0  0  0  0  0  0
   -0.1075    1.7110   -0.4741 C   0  0  0  0  0  0  0  0  0  0  0  0
   -0.4450    2.9666    0.0699 C   0  0  0  0  0  0  0  0  0  0  0  0
   -1.4742    3.1893    0.3196 H   0  0  0  0  0  0  0  0  0  0  0  0
    0.5565    3.9309    0.2956 C   0  0  0  0  0  0  0  0  0  0  0  0
    0.2942    4.8918    0.7109 H   0  0  0  0  0  0  0  0  0  0  0  0
    1.9007    3.6367   -0.0205 C   0  0  0  0  0  0  0  0  0  0  0  0
    2.8743    4.5587    0.1961 O   0  0  0  0  0  0  0  0  0  0  0  0
    2.5171    5.4012    0.4799 H   0  0  0  0  0  0  0  0  0  0  0  0
    2.2374    2.3780   -0.5603 C   0  0  0  0  0  0  0  0  0  0  0  0
    3.2681    2.1665   -0.8020 H   0  0  0  0  0  0  0  0  0  0  0  0
    1.2334    1.4179   -0.7890 C   0  0  0  0  0  0  0  0  0  0  0  0
    1.4915    0.4545   -1.2123 H   0  0  0  0  0  0  0  0  0  0  0  0
   -0.8664    0.0378    1.7736 C   0  0  0  0  0  0  0  0  0  0  0  0
    0.2529   -0.0672    2.2760 O   0  0  0  0  0  0  0  0  0  0  0  0
   -1.8947    0.5991    2.4221 N   0  0  0  0  0  0  0  0  0  0  0  0
   -2.7942    0.5936    1.9635 H   0  0  0  0  0  0  0  0  0  0  0  0
   -1.8170    1.1453    3.7750 C   0  0  0  0  0  0  0  0  0  0  0  0
   -0.9697    1.8290    3.8506 H   0  0  0  0  0  0  0  0  0  0  0  0
   -2.7354    1.6828    4.0167 H   0  0  0  0  0  0  0  0  0  0  0  0
   -1.6754    0.3334    4.4914 H   0  0  0  0  0  0  0  0  0  0  0  0
  5  6  2  0  0  0  0
  5  7  1  0  0  0  0
  2  3  1  0  0  0  0
  2  4  1  0  0  0  0
  2  5  1  0  0  0  0
  1  2  1  0  0  0  0
 26 27  2  0  0  0  0
 26 28  1  0  0  0  0
 24 25  1  0  0  0  0
 22 23  1  0  0  0  0
 22 24  2  0  0  0  0
 20 21  1  0  0  0  0
 19 20  1  0  0  0  0
 19 22  1  0  0  0  0
 17 18  1  0  0  0  0
 17 19  2  0  0  0  0
 15 16  1  0  0  0  0
 15 17  1  0  0  0  0
 14 15  2  0  0  0  0
 14 24  1  0  0  0  0
 11 12  1  0  0  0  0
 11 13  1  0  0  0  0
 11 14  1  0  0  0  0
  9 10  1  0  0  0  0
  9 11  1  0  0  0  0
  9 26  1  0  0  0  0
  7  8  1  0  0  0  0
  7  9  1  0  0  0  0
 30 31  1  0  0  0  0
 30 32  1  0  0  0  0
 30 33  1  0  0  0  0
 28 29  1  0  0  0  0
 28 30  1  0  0  0  0
M  END
$$$$
default_name
  -OEChem-02102213163D

 33 33  0     1  0  0  0  0  0999 V2000
   -4.0702   -3.8485    1.4554 H   0  0  0  0  0  0  0  0  0  0  0  0
   -4.0012   -2.9605    0.8284 C   0  0  0  0  0  0  0  0  0  0  0  0
   -4.7652   -2.2435    1.1234 H   0  0  0  0  0  0  0  0  0  0  0  0
   -4.1352   -3.2385   -0.2156 H   0  0  0  0  0  0  0  0  0  0  0  0
   -2.6362   -2.3395    1.0094 C   0  0  0  0  0  0  0  0  0  0  0  0
   -1.8292   -2.8395    1.7814 O   0  0  0  0  0  0  0  0  0  0  0  0
   -2.3832   -1.2445    0.2964 N   0  0  0  0  0  0  0  0  0  0  0  0
   -3.1102   -0.8685   -0.2946 H   0  0  0  0  0  0  0  0  0  0  0  0
   -1.1292   -0.4875    0.3524 C   0  0  1  0  0  0  0  0  0  0  0  0
   -0.3087   -1.1556    0.0882 H   0  0  0  0  0  0  0  0  0  0  0  0
   -1.1749    0.6534   -0.6787 C   0  0  0  0  0  0  0  0  0  0  0  0
   -1.0487    0.2337   -1.6775 H   0  0  0  0  0  0  0  0  0  0  0  0
   -2.1597    1.1224   -0.6433 H   0  0  0  0  0  0  0  0  0  0  0  0
   -0.1075    1.7110   -0.4741 C   0  0  0  0  0  0  0  0  0  0  0  0
   -0.3621    2.8298    0.3443 C   0  0  0  0  0  0  0  0  0  0  0  0
   -1.3317    2.9509    0.8093 H   0  0  0  0  0  0  0  0  0  0  0  0
    0.6461    3.7885    0.5637 C   0  0  0  0  0  0  0  0  0  0  0  0
    0.4472    4.6448    1.1897 H   0  0  0  0  0  0  0  0  0  0  0  0
    1.9145    3.6255   -0.0347 C   0  0  0  0  0  0  0  0  0  0  0  0
    2.8945    4.5429    0.1730 O   0  0  0  0  0  0  0  0  0  0  0  0
    2.5801    5.3014    0.6668 H   0  0  0  0  0  0  0  0  0  0  0  0
    2.1691    2.5028   -0.8494 C   0  0  0  0  0  0  0  0  0  0  0  0
    3.1416    2.3915   -1.3050 H   0  0  0  0  0  0  0  0  0  0  0  0
    1.1578    1.5486   -1.0705 C   0  0  0  0  0  0  0  0  0  0  0  0
    1.3512    0.6912   -1.7040 H   0  0  0  0  0  0  0  0  0  0  0  0
   -0.8664    0.0378    1.7736 C   0  0  0  0  0  0  0  0  0  0  0  0
    0.2529   -0.0672    2.2760 O   0  0  0  0  0  0  0  0  0  0  0  0
   -1.8947    0.5991    2.4221 N   0  0  0  0  0  0  0  0  0  0  0  0
   -2.7942    0.5936    1.9635 H   0  0  0  0  0  0  0  0  0  0  0  0
   -1.8170    1.1453    3.7750 C   0  0  0  0  0  0  0  0  0  0  0  0
   -0.9697    1.8290    3.8506 H   0  0  0  0  0  0  0  0  0  0  0  0
   -2.7354    1.6828    4.0167 H   0  0  0  0  0  0  0  0  0  0  0  0
   -1.6754    0.3334    4.4914 H   0  0  0  0  0  0  0  0  0  0  0  0
  5  6  2  0  0  0  0
  5  7  1  0  0  0  0
  2  3  1  0  0  0  0
  2  4  1  0  0  0  0
  2  5  1  0  0  0  0
  1  2  1  0  0  0  0
 26 27  2  0  0  0  0
 26 28  1  0  0  0  0
 24 25  1  0  0  0  0
 22 23  1  0  0  0  0
 22 24  2  0  0  0  0
 20 21  1  0  0  0  0
 19 20  1  0  0  0  0
 19 22  1  0  0  0  0
 17 18  1  0  0  0  0
 17 19  2  0  0  0  0
 15 16  1  0  0  0  0
 15 17  1  0  0  0  0
 14 15  2  0  0  0  0
 14 24  1  0  0  0  0
 11 12  1  0  0  0  0
 11 13  1  0  0  0  0
 11 14  1  0  0  0  0
  9 10  1  0  0  0  0
  9 11  1  0  0  0  0
  9 26  1  0  0  0  0
  7  8  1  0  0  0  0
  7  9  1  0  0  0  0
 30 31  1  0  0  0  0
 30 32  1  0  0  0  0
 30 33  1  0  0  0  0
 28 29  1  0  0  0  0
 28 30  1  0  0  0  0
M  END
$$$$
default_name
  -OEChem-02102213163D

 33 33  0     1  0  0  0  0  0999 V2000
   -4.0702   -3.8485    1.4554 H   0  0  0  0  0  0  0  0  0  0  0  0
   -4.0012   -2.9605    0.8284 C   0  0  0  0  0  0  0  0  0  0  0  0
   -4.7652   -2.2435    1.1234 H   0  0  0  0  0  0  0  0  0  0  0  0
   -4.1352   -3.2385   -0.2156 H   0  0  0  0  0  0  0  0  0  0  0  0
   -2.6362   -2.3395    1.0094 C   0  0  0  0  0  0  0  0  0  0  0  0
   -1.8292   -2.8395    1.7814 O   0  0  0  0  0  0  0  0  0  0  0  0
   -2.3832   -1.2445    0.2964 N   0  0  0  0  0  0  0  0  0  0  0  0
   -3.1102   -0.8685   -0.2946 H   0  0  0  0  0  0  0  0  0  0  0  0
   -1.1292   -0.4875    0.3524 C   0  0  1  0  0  0  0  0  0  0  0  0
   -0.3087   -1.1556    0.0882 H   0  0  0  0  0  0  0  0  0  0  0  0
   -1.1749    0.6534   -0.6787 C   0  0  0  0  0  0  0  0  0  0  0  0
   -1.0487    0.2337   -1.6775 H   0  0  0  0  0  0  0  0  0  0  0  0
   -2.1597    1.1224   -0.6433 H   0  0  0  0  0  0  0  0  0  0  0  0
   -0.1075    1.7110   -0.4741 C   0  0  0  0  0  0  0  0  0  0  0  0
   -0.2277    2.6506    0.5694 C   0  0  0  0  0  0  0  0  0  0  0  0
   -1.0974    2.6362    1.2132 H   0  0  0  0  0  0  0  0  0  0  0  0
    0.7861    3.6054    0.7805 C   0  0  0  0  0  0  0  0  0  0  0  0
    0.6900    4.3243    1.5796 H   0  0  0  0  0  0  0  0  0  0  0  0
    1.9257    3.6177   -0.0530 C   0  0  0  0  0  0  0  0  0  0  0  0
    2.9103    4.5325    0.1442 O   0  0  0  0  0  0  0  0  0  0  0  0
    2.6783    5.1732    0.8178 H   0  0  0  0  0  0  0  0  0  0  0  0
    2.0466    2.6737   -1.0937 C   0  0  0  0  0  0  0  0  0  0  0  0
    2.9207    2.6961   -1.7270 H   0  0  0  0  0  0  0  0  0  0  0  0
    1.0295    1.7236   -1.3050 C   0  0  0  0  0  0  0  0  0  0  0  0
    1.1187    1.0045   -2.1106 H   0  0  0  0  0  0  0  0  0  0  0  0
   -0.8664    0.0378    1.7736 C   0  0  0  0  0  0  0  0  0  0  0  0
    0.2529   -0.0672    2.2760 O   0  0  0  0  0  0  0  0  0  0  0  0
   -1.8947    0.5991    2.4221 N   0  0  0  0  0  0  0  0  0  0  0  0
   -2.7942    0.5936    1.9635 H   0  0  0  0  0  0  0  0  0  0  0  0
   -1.8170    1.1453    3.7750 C   0  0  0  0  0  0  0  0  0  0  0  0
   -0.9697    1.8290    3.8506 H   0  0  0  0  0  0  0  0  0  0  0  0
   -2.7354    1.6828    4.0167 H   0  0  0  0  0  0  0  0  0  0  0  0
   -1.6754    0.3334    4.4914 H   0  0  0  0  0  0  0  0  0  0  0  0
  5  6  2  0  0  0  0
  5  7  1  0  0  0  0
  2  3  1  0  0  0  0
  2  4  1  0  0  0  0
  2  5  1  0  0  0  0
  1  2  1  0  0  0  0
 26 27  2  0  0  0  0
 26 28  1  0  0  0  0
 24 25  1  0  0  0  0
 22 23  1  0  0  0  0
 22 24  2  0  0  0  0
 20 21  1  0  0  0  0
 19 20  1  0  0  0  0
 19 22  1  0  0  0  0
 17 18  1  0  0  0  0
 17 19  2  0  0  0  0
 15 16  1  0  0  0  0
 15 17  1  0  0  0  0
 14 15  2  0  0  0  0
 14 24  1  0  0  0  0
 11 12  1  0  0  0  0
 11 13  1  0  0  0  0
 11 14  1  0  0  0  0
  9 10  1  0  0  0  0
  9 11  1  0  0  0  0
  9 26  1  0  0  0  0
  7  8  1  0  0  0  0
  7  9  1  0  0  0  0
 30 31  1  0  0  0  0
 30 32  1  0  0  0  0
 30 33  1  0  0  0  0
 28 29  1  0  0  0  0
 28 30  1  0  0  0  0
M  END
$$$$
default_name
  -OEChem-02102213163D

 33 33  0     1  0  0  0  0  0999 V2000
   -4.0702   -3.8485    1.4554 H   0  0  0  0  0  0  0  0  0  0  0  0
   -4.0012   -2.9605    0.8284 C   0  0  0  0  0  0  0  0  0  0  0  0
   -4.7652   -2.2435    1.1234 H   0  0  0  0  0  0  0  0  0  0  0  0
   -4.1352   -3.2385   -0.2156 H   0  0  0  0  0  0  0  0  0  0  0  0
   -2.6362   -2.3395    1.0094 C   0  0  0  0  0  0  0  0  0  0  0  0
   -1.8292   -2.8395    1.7814 O   0  0  0  0  0  0  0  0  0  0  0  0
   -2.3832   -1.2445    0.2964 N   0  0  0  0  0  0  0  0  0  0  0  0
   -3.1102   -0.8685   -0.2946 H   0  0  0  0  0  0  0  0  0  0  0  0
   -1.1292   -0.4875    0.3524 C   0  0  1  0  0  0  0  0  0  0  0  0
   -0.3087   -1.1556    0.0882 H   0  0  0  0  0  0  0  0  0  0  0  0
   -1.1749    0.6534   -0.6787 C   0  0  0  0  0  0  0  0  0  0  0  0
   -1.0487    0.2337   -1.6775 H   0  0  0  0  0  0  0  0  0  0  0  0
   -2.1597    1.1224   -0.6433 H   0  0  0  0  0  0  0  0  0  0  0  0
   -0.1075    1.7110   -0.4741 C   0  0  0  0  0  0  0  0  0  0  0  0
   -0.0510    2.4412    0.7300 C   0  0  0  0  0  0  0  0  0  0  0  0
   -0.7872    2.2670    1.5038 H   0  0  0  0  0  0  0  0  0  0  0  0
    0.9668    3.3938    0.9313 C   0  0  0  0  0  0  0  0  0  0  0  0
    1.0061    3.9522    1.8539 H   0  0  0  0  0  0  0  0  0  0  0  0
    1.9335    3.6140   -0.0740 C   0  0  0  0  0  0  0  0  0  0  0  0
    2.9207    4.5283    0.1116 O   0  0  0  0  0  0  0  0  0  0  0  0
    2.8048    5.0252    0.9226 H   0  0  0  0  0  0  0  0  0  0  0  0
    1.8783    2.8789   -1.2763 C   0  0  0  0  0  0  0  0  0  0  0  0
    2.6205    3.0594   -2.0393 H   0  0  0  0  0  0  0  0  0  0  0  0
    0.8570    1.9307   -1.4764 C   0  0  0  0  0  0  0  0  0  0  0  0
    0.8098    1.3730   -2.4042 H   0  0  0  0  0  0  0  0  0  0  0  0
   -0.8664    0.0378    1.7736 C   0  0  0  0  0  0  0  0  0  0  0  0
    0.2529   -0.0672    2.2760 O   0  0  0  0  0  0  0  0  0  0  0  0
   -1.8947    0.5991    2.4221 N   0  0  0  0  0  0  0  0  0  0  0  0
   -2.7942    0.5936    1.9635 H   0  0  0  0  0  0  0  0  0  0  0  0
   -1.8170    1.1453    3.7750 C   0  0  0  0  0  0  0  0  0  0  0  0
   -0.9697    1.8290    3.8506 H   0  0  0  0  0  0  0  0  0  0  0  0
   -2.7354    1.6828    4.0167 H   0  0  0  0  0  0  0  0  0  0  0  0
   -1.6754    0.3334    4.4914 H   0  0  0  0  0  0  0  0  0  0  0  0
  5  6  2  0  0  0  0
  5  7  1  0  0  0  0
  2  3  1  0  0  0  0
  2  4  1  0  0  0  0
  2  5  1  0  0  0  0
  1  2  1  0  0  0  0
 26 27  2  0  0  0  0
 26 28  1  0  0  0  0
 24 25  1  0  0  0  0
 22 23  1  0  0  0  0
 22 24  2  0  0  0  0
 20 21  1  0  0  0  0
 19 20  1  0  0  0  0
 19 22  1  0  0  0  0
 17 18  1  0  0  0  0
 17 19  2  0  0  0  0
 15 16  1  0  0  0  0
 15 17  1  0  0  0  0
 14 15  2  0  0  0  0
 14 24  1  0  0  0  0
 11 12  1  0  0  0  0
 11 13  1  0  0  0  0
 11 14  1  0  0  0  0
  9 10  1  0  0  0  0
  9 11  1  0  0  0  0
  9 26  1  0  0  0  0
  7  8  1  0  0  0  0
  7  9  1  0  0  0  0
 30 31  1  0  0  0  0
 30 32  1  0  0  0  0
 30 33  1  0  0  0  0
 28 29  1  0  0  0  0
 28 30  1  0  0  0  0
M  END
$$$$
default_name
  -OEChem-02102213163D

 33 33  0     1  0  0  0  0  0999 V2000
   -4.0702   -3.8485    1.4554 H   0  0  0  0  0  0  0  0  0  0  0  0
   -4.0012   -2.9605    0.8284 C   0  0  0  0  0  0  0  0  0  0  0  0
   -4.7652   -2.2435    1.1234 H   0  0  0  0  0  0  0  0  0  0  0  0
   -4.1352   -3.2385   -0.2156 H   0  0  0  0  0  0  0  0  0  0  0  0
   -2.6362   -2.3395    1.0094 C   0  0  0  0  0  0  0  0  0  0  0  0
   -1.8292   -2.8395    1.7814 O   0  0  0  0  0  0  0  0  0  0  0  0
   -2.3832   -1.2445    0.2964 N   0  0  0  0  0  0  0  0  0  0  0  0
   -3.1102   -0.8685   -0.2946 H   0  0  0  0  0  0  0  0  0  0  0  0
   -1.1292   -0.4875    0.3524 C   0  0  1  0  0  0  0  0  0  0  0  0
   -0.3087   -1.1556    0.0882 H   0  0  0  0  0  0  0  0  0  0  0  0
   -1.1749    0.6534   -0.6787 C   0  0  0  0  0  0  0  0  0  0  0  0
   -1.0487    0.2337   -1.6775 H   0  0  0  0  0  0  0  0  0  0  0  0
   -2.1597    1.1224   -0.6433 H   0  0  0  0  0  0  0  0  0  0  0  0
   -0.1075    1.7110   -0.4741 C   0  0  0  0  0  0  0  0  0  0  0  0
    0.1560    2.2158    0.8151 C   0  0  0  0  0  0  0  0  0  0  0  0
   -0.4222    1.8681    1.6611 H   0  0  0  0  0  0  0  0  0  0  0  0
    1.1759    3.1683    1.0058 C   0  0  0  0  0  0  0  0  0  0  0  0
    1.3739    3.5538    1.9941 H   0  0  0  0  0  0  0  0  0  0  0  0
    1.9373    3.6144   -0.0964 C   0  0  0  0  0  0  0  0  0  0  0  0
    2.9250    4.5305    0.0775 O   0  0  0  0  0  0  0  0  0  0  0  0
    2.9511    4.8676    0.9740 H   0  0  0  0  0  0  0  0  0  0  0  0
    1.6755    3.1046   -1.3850 C   0  0  0  0  0  0  0  0  0  0  0  0
    2.2615    3.4568   -2.2205 H   0  0  0  0  0  0  0  0  0  0  0  0
    0.6523    2.1561   -1.5731 C   0  0  0  0  0  0  0  0  0  0  0  0
    0.4456    1.7717   -2.5649 H   0  0  0  0  0  0  0  0  0  0  0  0
   -0.8664    0.0378    1.7736 C   0  0  0  0  0  0  0  0  0  0  0  0
    0.2529   -0.0672    2.2760 O   0  0  0  0  0  0  0  0  0  0  0  0
   -1.8947    0.5991    2.4221 N   0  0  0  0  0  0  0  0  0  0  0  0
   -2.7942    0.5936    1.9635 H   0  0  0  0  0  0  0  0  0  0  0  0
   -1.8170    1.1453    3.7750 C   0  0  0  0  0  0  0  0  0  0  0  0
   -0.9697    1.8290    3.8506 H   0  0  0  0  0  0  0  0  0  0  0  0
   -2.7354    1.6828    4.0167 H   0  0  0  0  0  0  0  0  0  0  0  0
   -1.6754    0.3334    4.4914 H   0  0  0  0  0  0  0  0  0  0  0  0
  5  6  2  0  0  0  0
  5  7  1  0  0  0  0
  2  3  1  0  0  0  0
  2  4  1  0  0  0  0
  2  5  1  0  0  0  0
  1  2  1  0  0  0  0
 26 27  2  0  0  0  0
 26 28  1  0  0  0  0
 24 25  1  0  0  0  0
 22 23  1  0  0  0  0
 22 24  2  0  0  0  0
 20 21  1  0  0  0  0
 19 20  1  0  0  0  0
 19 22  1  0  0  0  0
 17 18  1  0  0  0  0
 17 19  2  0  0  0  0
 15 16  1  0  0  0  0
 15 17  1  0  0  0  0
 14 15  2  0  0  0  0
 14 24  1  0  0  0  0
 11 12  1  0  0  0  0
 11 13  1  0  0  0  0
 11 14  1  0  0  0  0
  9 10  1  0  0  0  0
  9 11  1  0  0  0  0
  9 26  1  0  0  0  0
  7  8  1  0  0  0  0
  7  9  1  0  0  0  0
 30 31  1  0  0  0  0
 30 32  1  0  0  0  0
 30 33  1  0  0  0  0
 28 29  1  0  0  0  0
 28 30  1  0  0  0  0
M  END
$$$$
default_name
  -OEChem-02102213163D

 33 33  0     1  0  0  0  0  0999 V2000
   -4.0702   -3.8485    1.4554 H   0  0  0  0  0  0  0  0  0  0  0  0
   -4.0012   -2.9605    0.8284 C   0  0  0  0  0  0  0  0  0  0  0  0
   -4.7652   -2.2435    1.1234 H   0  0  0  0  0  0  0  0  0  0  0  0
   -4.1352   -3.2385   -0.2156 H   0  0  0  0  0  0  0  0  0  0  0  0
   -2.6362   -2.3395    1.0094 C   0  0  0  0  0  0  0  0  0  0  0  0
   -1.8292   -2.8395    1.7814 O   0  0  0  0  0  0  0  0  0  0  0  0
   -2.3832   -1.2445    0.2964 N   0  0  0  0  0  0  0  0  0  0  0  0
   -3.1102   -0.8685   -0.2946 H   0  0  0  0  0  0  0  0  0  0  0  0
   -1.1292   -0.4875    0.3524 C   0  0  1  0  0  0  0  0  0  0  0  0
   -0.3087   -1.1556    0.0882 H   0  0  0  0  0  0  0  0  0  0  0  0
   -1.1749    0.6534   -0.6787 C   0  0  0  0  0  0  0  0  0  0  0  0
   -1.0487    0.2337   -1.6775 H   0  0  0  0  0  0  0  0  0  0  0  0
   -2.1597    1.1224   -0.6433 H   0  0  0  0  0  0  0  0  0  0  0  0
   -0.1075    1.7110   -0.4741 C   0  0  0  0  0  0  0  0  0  0  0  0
    0.3792    1.9899    0.8188 C   0  0  0  0  0  0  0  0  0  0  0  0
   -0.0273    1.4670    1.6746 H   0  0  0  0  0  0  0  0  0  0  0  0
    1.3993    2.9442    0.9989 C   0  0  0  0  0  0  0  0  0  0  0  0
    1.7685    3.1563    1.9906 H   0  0  0  0  0  0  0  0  0  0  0  0
    1.9369    3.6191   -0.1187 C   0  0  0  0  0  0  0  0  0  0  0  0
    2.9230    4.5390    0.0442 O   0  0  0  0  0  0  0  0  0  0  0  0
    3.1072    4.7111    0.9685 H   0  0  0  0  0  0  0  0  0  0  0  0
    1.4521    3.3353   -1.4123 C   0  0  0  0  0  0  0  0  0  0  0  0
    1.8682    3.8611   -2.2584 H   0  0  0  0  0  0  0  0  0  0  0  0
    0.4292    2.3842   -1.5885 C   0  0  0  0  0  0  0  0  0  0  0  0
    0.0508    2.1734   -2.5817 H   0  0  0  0  0  0  0  0  0  0  0  0
   -0.8664    0.0378    1.7736 C   0  0  0  0  0  0  0  0  0  0  0  0
    0.2529   -0.0672    2.2760 O   0  0  0  0  0  0  0  0  0  0  0  0
   -1.8947    0.5991    2.4221 N   0  0  0  0  0  0  0  0  0  0  0  0
   -2.7942    0.5936    1.9635 H   0  0  0  0  0  0  0  0  0  0  0  0
   -1.8170    1.1453    3.7750 C   0  0  0  0  0  0  0  0  0  0  0  0
   -0.9697    1.8290    3.8506 H   0  0  0  0  0  0  0  0  0  0  0  0
   -2.7354    1.6828    4.0167 H   0  0  0  0  0  0  0  0  0  0  0  0
   -1.6754    0.3334    4.4914 H   0  0  0  0  0  0  0  0  0  0  0  0
  5  6  2  0  0  0  0
  5  7  1  0  0  0  0
  2  3  1  0  0  0  0
  2  4  1  0  0  0  0
  2  5  1  0  0  0  0
  1  2  1  0  0  0  0
 26 27  2  0  0  0  0
 26 28  1  0  0  0  0
 24 25  1  0  0  0  0
 22 23  1  0  0  0  0
 22 24  2  0  0  0  0
 20 21  1  0  0  0  0
 19 20  1  0  0  0  0
 19 22  1  0  0  0  0
 17 18  1  0  0  0  0
 17 19  2  0  0  0  0
 15 16  1  0  0  0  0
 15 17  1  0  0  0  0
 14 15  2  0  0  0  0
 14 24  1  0  0  0  0
 11 12  1  0  0  0  0
 11 13  1  0  0  0  0
 11 14  1  0  0  0  0
  9 10  1  0  0  0  0
  9 11  1  0  0  0  0
  9 26  1  0  0  0  0
  7  8  1  0  0  0  0
  7  9  1  0  0  0  0
 30 31  1  0  0  0  0
 30 32  1  0  0  0  0
 30 33  1  0  0  0  0
 28 29  1  0  0  0  0
 28 30  1  0  0  0  0
M  END
$$$$
default_name
  -OEChem-02102213163D

 33 33  0     1  0  0  0  0  0999 V2000
   -4.0702   -3.8485    1.4554 H   0  0  0  0  0  0  0  0  0  0  0  0
   -4.0012   -2.9605    0.8284 C   0  0  0  0  0  0  0  0  0  0  0  0
   -4.7652   -2.2435    1.1234 H   0  0  0  0  0  0  0  0  0  0  0  0
   -4.1352   -3.2385   -0.2156 H   0  0  0  0  0  0  0  0  0  0  0  0
   -2.6362   -2.3395    1.0094 C   0  0  0  0  0  0  0  0  0  0  0  0
   -1.8292   -2.8395    1.7814 O   0  0  0  0  0  0  0  0  0  0  0  0
   -2.3832   -1.2445    0.2964 N   0  0  0  0  0  0  0  0  0  0  0  0
   -3.1102   -0.8685   -0.2946 H   0  0  0  0  0  0  0  0  0  0  0  0
   -1.1292   -0.4875    0.3524 C   0  0  1  0  0  0  0  0  0  0  0  0
   -0.3087   -1.1556    0.0882 H   0  0  0  0  0  0  0  0  0  0  0  0
   -1.1749    0.6534   -0.6787 C   0  0  0  0  0  0  0  0  0  0  0  0
   -1.0487    0.2337   -1.6775 H   0  0  0  0  0  0  0  0  0  0  0  0
   -2.1597    1.1224   -0.6433 H   0  0  0  0  0  0  0  0  0  0  0  0
   -0.1075    1.7110   -0.4741 C   0  0  0  0  0  0  0  0  0  0  0  0
    0.6033    1.7787    0.7410 C   0  0  0  0  0  0  0  0  0  0  0  0
    0.3705    1.0908    1.5433 H   0  0  0  0  0  0  0  0  0  0  0  0
    1.6216    2.7368    0.9112 C   0  0  0  0  0  0  0  0  0  0  0  0
    2.1628    2.7868    1.8435 H   0  0  0  0  0  0  0  0  0  0  0  0
    1.9324    3.6277   -0.1392 C   0  0  0  0  0  0  0  0  0  0  0  0
    2.9147    4.5533    0.0139 O   0  0  0  0  0  0  0  0  0  0  0  0
    3.2625    4.5664    0.9066 H   0  0  0  0  0  0  0  0  0  0  0  0
    1.2234    3.5553   -1.3562 C   0  0  0  0  0  0  0  0  0  0  0  0
    1.4673    4.2448   -2.1504 H   0  0  0  0  0  0  0  0  0  0  0  0
    0.2030    2.5996   -1.5216 C   0  0  0  0  0  0  0  0  0  0  0  0
   -0.3475    2.5507   -2.4536 H   0  0  0  0  0  0  0  0  0  0  0  0
   -0.8664    0.0378    1.7736 C   0  0  0  0  0  0  0  0  0  0  0  0
    0.2529   -0.0672    2.2760 O   0  0  0  0  0  0  0  0  0  0  0  0
   -1.8947    0.5991    2.4221 N   0  0  0  0  0  0  0  0  0  0  0  0
   -2.7942    0.5936    1.9635 H   0  0  0  0  0  0  0  0  0  0  0  0
   -1.8170    1.1453    3.7750 C   0  0  0  0  0  0  0  0  0  0  0  0
   -0.9697    1.8290    3.8506 H   0  0  0  0  0  0  0  0  0  0  0  0
   -2.7354    1.6828    4.0167 H   0  0  0  0  0  0  0  0  0  0  0  0
   -1.6754    0.3334    4.4914 H   0  0  0  0  0  0  0  0  0  0  0  0
  5  6  2  0  0  0  0
  5  7  1  0  0  0  0
  2  3  1  0  0  0  0
  2  4  1  0  0  0  0
  2  5  1  0  0  0  0
  1  2  1  0  0  0  0
 26 27  2  0  0  0  0
 26 28  1  0  0  0  0
 24 25  1  0  0  0  0
 22 23  1  0  0  0  0
 22 24  2  0  0  0  0
 20 21  1  0  0  0  0
 19 20  1  0  0  0  0
 19 22  1  0  0  0  0
 17 18  1  0  0  0  0
 17 19  2  0  0  0  0
 15 16  1  0  0  0  0
 15 17  1  0  0  0  0
 14 15  2  0  0  0  0
 14 24  1  0  0  0  0
 11 12  1  0  0  0  0
 11 13  1  0  0  0  0
 11 14  1  0  0  0  0
  9 10  1  0  0  0  0
  9 11  1  0  0  0  0
  9 26  1  0  0  0  0
  7  8  1  0  0  0  0
  7  9  1  0  0  0  0
 30 31  1  0  0  0  0
 30 32  1  0  0  0  0
 30 33  1  0  0  0  0
 28 29  1  0  0  0  0
 28 30  1  0  0  0  0
M  END
$$$$
default_name
  -OEChem-02102213163D

 33 33  0     1  0  0  0  0  0999 V2000
   -4.0702   -3.8485    1.4554 H   0  0  0  0  0  0  0  0  0  0  0  0
   -4.0012   -2.9605    0.8284 C   0  0  0  0  0  0  0  0  0  0  0  0
   -4.7652   -2.2435    1.1234 H   0  0  0  0  0  0  0  0  0  0  0  0
   -4.1352   -3.2385   -0.2156 H   0  0  0  0  0  0  0  0  0  0  0  0
   -2.6362   -2.3395    1.0094 C   0  0  0  0  0  0  0  0  0  0  0  0
   -1.8292   -2.8395    1.7814 O   0  0  0  0  0  0  0  0  0  0  0  0
   -2.3832   -1.2445    0.2964 N   0  0  0  0  0  0  0  0  0  0  0  0
   -3.1102   -0.8685   -0.2946 H   0  0  0  0  0  0  0  0  0  0  0  0
   -1.1292   -0.4875    0.3524 C   0  0  1  0  0  0  0  0  0  0  0  0
   -0.3087   -1.1556    0.0882 H   0  0  0  0  0  0  0  0  0  0  0  0
   -1.1749    0.6534   -0.6787 C   0  0  0  0  0  0  0  0  0  0  0  0
   -1.0487    0.2337   -1.6775 H   0  0  0  0  0  0  0  0  0  0  0  0
   -2.1597    1.1224   -0.6433 H   0  0  0  0  0  0  0  0  0  0  0  0
   -0.1075    1.7110   -0.4741 C   0  0  0  0  0  0  0  0  0  0  0  0
    0.8131    1.5968    0.5869 C   0  0  0  0  0  0  0  0  0  0  0  0
    0.7442    0.7653    1.2761 H   0  0  0  0  0  0  0  0  0  0  0  0
    1.8278    2.5602    0.7485 C   0  0  0  0  0  0  0  0  0  0  0  0
    2.5300    2.4704    1.5629 H   0  0  0  0  0  0  0  0  0  0  0  0
    1.9240    3.6395   -0.1567 C   0  0  0  0  0  0  0  0  0  0  0  0
    2.9007    4.5722   -0.0112 O   0  0  0  0  0  0  0  0  0  0  0  0
    3.4063    4.4433    0.7923 H   0  0  0  0  0  0  0  0  0  0  0  0
    1.0049    3.7496   -1.2208 C   0  0  0  0  0  0  0  0  0  0  0  0
    1.0862    4.5818   -1.9037 H   0  0  0  0  0  0  0  0  0  0  0  0
   -0.0110    2.7875   -1.3769 C   0  0  0  0  0  0  0  0  0  0  0  0
   -0.7224    2.8779   -2.1891 H   0  0  0  0  0  0  0  0  0  0  0  0
   -0.8664    0.0378    1.7736 C   0  0  0  0  0  0  0  0  0  0  0  0
    0.2529   -0.0672    2.2760 O   0  0  0  0  0  0  0  0  0  0  0  0
   -1.8947    0.5991    2.4221 N   0  0  0  0  0  0  0  0  0  0  0  0
   -2.7942    0.5936    1.9635 H   0  0  0  0  0  0  0  0  0  0  0  0
   -1.8170    1.1453    3.7750 C   0  0  0  0  0  0  0  0  0  0  0  0
   -0.9697    1.8290    3.8506 H   0  0  0  0  0  0  0  0  0  0  0  0
   -2.7354    1.6828    4.0167 H   0  0  0  0  0  0  0  0  0  0  0  0
   -1.6754    0.3334    4.4914 H   0  0  0  0  0  0  0  0  0  0  0  0
  5  6  2  0  0  0  0
  5  7  1  0  0  0  0
  2  3  1  0  0  0  0
  2  4  1  0  0  0  0
  2  5  1  0  0  0  0
  1  2  1  0  0  0  0
 26 27  2  0  0  0  0
 26 28  1  0  0  0  0
 24 25  1  0  0  0  0
 22 23  1  0  0  0  0
 22 24  2  0  0  0  0
 20 21  1  0  0  0  0
 19 20  1  0  0  0  0
 19 22  1  0  0  0  0
 17 18  1  0  0  0  0
 17 19  2  0  0  0  0
 15 16  1  0  0  0  0
 15 17  1  0  0  0  0
 14 15  2  0  0  0  0
 14 24  1  0  0  0  0
 11 12  1  0  0  0  0
 11 13  1  0  0  0  0
 11 14  1  0  0  0  0
  9 10  1  0  0  0  0
  9 11  1  0  0  0  0
  9 26  1  0  0  0  0
  7  8  1  0  0  0  0
  7  9  1  0  0  0  0
 30 31  1  0  0  0  0
 30 32  1  0  0  0  0
 30 33  1  0  0  0  0
 28 29  1  0  0  0  0
 28 30  1  0  0  0  0
M  END
$$$$
default_name
  -OEChem-02102213163D

 33 33  0     1  0  0  0  0  0999 V2000
   -4.0702   -3.8485    1.4554 H   0  0  0  0  0  0  0  0  0  0  0  0
   -4.0012   -2.9605    0.8284 C   0  0  0  0  0  0  0  0  0  0  0  0
   -4.7652   -2.2435    1.1234 H   0  0  0  0  0  0  0  0  0  0  0  0
   -4.1352   -3.2385   -0.2156 H   0  0  0  0  0  0  0  0  0  0  0  0
   -2.6362   -2.3395    1.0094 C   0  0  0  0  0  0  0  0  0  0  0  0
   -1.8292   -2.8395    1.7814 O   0  0  0  0  0  0  0  0  0  0  0  0
   -2.3832   -1.2445    0.2964 N   0  0  0  0  0  0  0  0  0  0  0  0
   -3.1102   -0.8685   -0.2946 H   0  0  0  0  0  0  0  0  0  0  0  0
   -1.1292   -0.4875    0.3524 C   0  0  1  0  0  0  0  0  0  0  0  0
   -0.3087   -1.1556    0.0882 H   0  0  0  0  0  0  0  0  0  0  0  0
   -1.1749    0.6534   -0.6787 C   0  0  0  0  0  0  0  0  0  0  0  0
   -1.0487    0.2337   -1.6775 H   0  0  0  0  0  0  0  0  0  0  0  0
   -2.1597    1.1224   -0.6433 H   0  0  0  0  0  0  0  0  0  0  0  0
   -0.1075    1.7110   -0.4741 C   0  0  0  0  0  0  0  0  0  0  0  0
    0.9943    1.4564    0.3670 C   0  0  0  0  0  0  0  0  0  0  0  0
    1.0684    0.5126    0.8912 H   0  0  0  0  0  0  0  0  0  0  0  0
    2.0037    2.4264    0.5219 C   0  0  0  0  0  0  0  0  0  0  0  0
    2.8451    2.2287    1.1680 H   0  0  0  0  0  0  0  0  0  0  0  0
    1.9123    3.6539   -0.1700 C   0  0  0  0  0  0  0  0  0  0  0  0
    2.8820    4.5946   -0.0296 O   0  0  0  0  0  0  0  0  0  0  0  0
    3.5289    4.3503    0.6336 H   0  0  0  0  0  0  0  0  0  0  0  0
    0.8116    3.9050   -1.0151 C   0  0  0  0  0  0  0  0  0  0  0  0
    0.7508    4.8491   -1.5353 H   0  0  0  0  0  0  0  0  0  0  0  0
   -0.1981    2.9353   -1.1642 C   0  0  0  0  0  0  0  0  0  0  0  0
   -1.0481    3.1326   -1.8065 H   0  0  0  0  0  0  0  0  0  0  0  0
   -0.8664    0.0378    1.7736 C   0  0  0  0  0  0  0  0  0  0  0  0
    0.2529   -0.0672    2.2760 O   0  0  0  0  0  0  0  0  0  0  0  0
   -1.8947    0.5991    2.4221 N   0  0  0  0  0  0  0  0  0  0  0  0
   -2.7942    0.5936    1.9635 H   0  0  0  0  0  0  0  0  0  0  0  0
   -1.8170    1.1453    3.7750 C   0  0  0  0  0  0  0  0  0  0  0  0
   -0.9697    1.8290    3.8506 H   0  0  0  0  0  0  0  0  0  0  0  0
   -2.7354    1.6828    4.0167 H   0  0  0  0  0  0  0  0  0  0  0  0
   -1.6754    0.3334    4.4914 H   0  0  0  0  0  0  0  0  0  0  0  0
  5  6  2  0  0  0  0
  5  7  1  0  0  0  0
  2  3  1  0  0  0  0
  2  4  1  0  0  0  0
  2  5  1  0  0  0  0
  1  2  1  0  0  0  0
 26 27  2  0  0  0  0
 26 28  1  0  0  0  0
 24 25  1  0  0  0  0
 22 23  1  0  0  0  0
 22 24  2  0  0  0  0
 20 21  1  0  0  0  0
 19 20  1  0  0  0  0
 19 22  1  0  0  0  0
 17 18  1  0  0  0  0
 17 19  2  0  0  0  0
 15 16  1  0  0  0  0
 15 17  1  0  0  0  0
 14 15  2  0  0  0  0
 14 24  1  0  0  0  0
 11 12  1  0  0  0  0
 11 13  1  0  0  0  0
 11 14  1  0  0  0  0
  9 10  1  0  0  0  0
  9 11  1  0  0  0  0
  9 26  1  0  0  0  0
  7  8  1  0  0  0  0
  7  9  1  0  0  0  0
 30 31  1  0  0  0  0
 30 32  1  0  0  0  0
 30 33  1  0  0  0  0
 28 29  1  0  0  0  0
 28 30  1  0  0  0  0
M  END
$$$$
default_name
  -OEChem-02102213163D

 33 33  0     1  0  0  0  0  0999 V2000
   -4.0702   -3.8485    1.4554 H   0  0  0  0  0  0  0  0  0  0  0  0
   -4.0012   -2.9605    0.8284 C   0  0  0  0  0  0  0  0  0  0  0  0
   -4.7652   -2.2435    1.1234 H   0  0  0  0  0  0  0  0  0  0  0  0
   -4.1352   -3.2385   -0.2156 H   0  0  0  0  0  0  0  0  0  0  0  0
   -2.6362   -2.3395    1.0094 C   0  0  0  0  0  0  0  0  0  0  0  0
   -1.8292   -2.8395    1.7814 O   0  0  0  0  0  0  0  0  0  0  0  0
   -2.3832   -1.2445    0.2964 N   0  0  0  0  0  0  0  0  0  0  0  0
   -3.1102   -0.8685   -0.2946 H   0  0  0  0  0  0  0  0  0  0  0  0
   -1.1292   -0.4875    0.3524 C   0  0  1  0  0  0  0  0  0  0  0  0
   -0.3087   -1.1556    0.0882 H   0  0  0  0  0  0  0  0  0  0  0  0
   -1.1749    0.6534   -0.6787 C   0  0  0  0  0  0  0  0  0  0  0  0
   -1.0487    0.2337   -1.6775 H   0  0  0  0  0  0  0  0  0  0  0  0
   -2.1597    1.1224   -0.6433 H   0  0  0  0  0  0  0  0  0  0  0  0
   -0.1075    1.7110   -0.4741 C   0  0  0  0  0  0  0  0  0  0  0  0
    1.1345    1.3672    0.0963 C   0  0  0  0  0  0  0  0  0  0  0  0
    1.3208    0.3499    0.4149 H   0  0  0  0  0  0  0  0  0  0  0  0
    2.1374    2.3447    0.2470 C   0  0  0  0  0  0  0  0  0  0  0  0
    3.0867    2.0782    0.6856 H   0  0  0  0  0  0  0  0  0  0  0  0
    1.8982    3.6697   -0.1780 C   0  0  0  0  0  0  0  0  0  0  0  0
    2.8599    4.6190   -0.0398 O   0  0  0  0  0  0  0  0  0  0  0  0
    3.6219    4.2936    0.4412 H   0  0  0  0  0  0  0  0  0  0  0  0
    0.6565    4.0109   -0.7532 C   0  0  0  0  0  0  0  0  0  0  0  0
    0.4840    5.0284   -1.0702 H   0  0  0  0  0  0  0  0  0  0  0  0
   -0.3456    3.0327   -0.8982 C   0  0  0  0  0  0  0  0  0  0  0  0
   -1.3026    3.2976   -1.3316 H   0  0  0  0  0  0  0  0  0  0  0  0
   -0.8664    0.0378    1.7736 C   0  0  0  0  0  0  0  0  0  0  0  0
    0.2529   -0.0672    2.2760 O   0  0  0  0  0  0  0  0  0  0  0  0
   -1.8947    0.5991    2.4221 N   0  0  0  0  0  0  0  0  0  0  0  0
   -2.7942    0.5936    1.9635 H   0  0  0  0  0  0  0  0  0  0  0  0
   -1.8170    1.1453    3.7750 C   0  0  0  0  0  0  0  0  0  0  0  0
   -0.9697    1.8290    3.8506 H   0  0  0  0  0  0  0  0  0  0  0  0
   -2.7354    1.6828    4.0167 H   0  0  0  0  0  0  0  0  0  0  0  0
   -1.6754    0.3334    4.4914 H   0  0  0  0  0  0  0  0  0  0  0  0
  5  6  2  0  0  0  0
  5  7  1  0  0  0  0
  2  3  1  0  0  0  0
  2  4  1  0  0  0  0
  2  5  1  0  0  0  0
  1  2  1  0  0  0  0
 26 27  2  0  0  0  0
 26 28  1  0  0  0  0
 24 25  1  0  0  0  0
 22 23  1  0  0  0  0
 22 24  2  0  0  0  0
 20 21  1  0  0  0  0
 19 20  1  0  0  0  0
 19 22  1  0  0  0  0
 17 18  1  0  0  0  0
 17 19  2  0  0  0  0
 15 16  1  0  0  0  0
 15 17  1  0  0  0  0
 14 15  2  0  0  0  0
 14 24  1  0  0  0  0
 11 12  1  0  0  0  0
 11 13  1  0  0  0  0
 11 14  1  0  0  0  0
  9 10  1  0  0  0  0
  9 11  1  0  0  0  0
  9 26  1  0  0  0  0
  7  8  1  0  0  0  0
  7  9  1  0  0  0  0
 30 31  1  0  0  0  0
 30 32  1  0  0  0  0
 30 33  1  0  0  0  0
 28 29  1  0  0  0  0
 28 30  1  0  0  0  0
M  END
$$$$
default_name
  -OEChem-02102213163D

 33 33  0     1  0  0  0  0  0999 V2000
   -4.0702   -3.8485    1.4554 H   0  0  0  0  0  0  0  0  0  0  0  0
   -4.0012   -2.9605    0.8284 C   0  0  0  0  0  0  0  0  0  0  0  0
   -4.7652   -2.2435    1.1234 H   0  0  0  0  0  0  0  0  0  0  0  0
   -4.1352   -3.2385   -0.2156 H   0  0  0  0  0  0  0  0  0  0  0  0
   -2.6362   -2.3395    1.0094 C   0  0  0  0  0  0  0  0  0  0  0  0
   -1.8292   -2.8395    1.7814 O   0  0  0  0  0  0  0  0  0  0  0  0
   -2.3832   -1.2445    0.2964 N   0  0  0  0  0  0  0  0  0  0  0  0
   -3.1102   -0.8685   -0.2946 H   0  0  0  0  0  0  0  0  0  0  0  0
   -1.1292   -0.4875    0.3524 C   0  0  1  0  0  0  0  0  0  0  0  0
   -0.3087   -1.1556    0.0882 H   0  0  0  0  0  0  0  0  0  0  0  0
   -1.1749    0.6534   -0.6787 C   0  0  0  0  0  0  0  0  0  0  0  0
   -1.0487    0.2337   -1.6775 H   0  0  0  0  0  0  0  0  0  0  0  0
   -2.1597    1.1224   -0.6433 H   0  0  0  0  0  0  0  0  0  0  0  0
   -0.1075    1.7110   -0.4741 C   0  0  0  0  0  0  0  0  0  0  0  0
    1.2242    1.3353   -0.2066 C   0  0  0  0  0  0  0  0  0  0  0  0
    1.4843    0.2884   -0.1203 H   0  0  0  0  0  0  0  0  0  0  0  0
    2.2198    2.3204   -0.0576 C   0  0  0  0  0  0  0  0  0  0  0  0
    3.2382    2.0292    0.1487 H   0  0  0  0  0  0  0  0  0  0  0  0
    1.8825    3.6860   -0.1804 C   0  0  0  0  0  0  0  0  0  0  0  0
    2.8358    4.6436   -0.0413 O   0  0  0  0  0  0  0  0  0  0  0  0
    3.6790    4.2771    0.2283 H   0  0  0  0  0  0  0  0  0  0  0  0
    0.5503    4.0600   -0.4529 C   0  0  0  0  0  0  0  0  0  0  0  0
    0.3040    5.1075   -0.5401 H   0  0  0  0  0  0  0  0  0  0  0  0
   -0.4434    3.0731   -0.5968 C   0  0  0  0  0  0  0  0  0  0  0  0
   -1.4684    3.3616   -0.7970 H   0  0  0  0  0  0  0  0  0  0  0  0
   -0.8664    0.0378    1.7736 C   0  0  0  0  0  0  0  0  0  0  0  0
    0.2529   -0.0672    2.2760 O   0  0  0  0  0  0  0  0  0  0  0  0
   -1.8947    0.5991    2.4221 N   0  0  0  0  0  0  0  0  0  0  0  0
   -2.7942    0.5936    1.9635 H   0  0  0  0  0  0  0  0  0  0  0  0
   -1.8170    1.1453    3.7750 C   0  0  0  0  0  0  0  0  0  0  0  0
   -0.9697    1.8290    3.8506 H   0  0  0  0  0  0  0  0  0  0  0  0
   -2.7354    1.6828    4.0167 H   0  0  0  0  0  0  0  0  0  0  0  0
   -1.6754    0.3334    4.4914 H   0  0  0  0  0  0  0  0  0  0  0  0
  5  6  2  0  0  0  0
  5  7  1  0  0  0  0
  2  3  1  0  0  0  0
  2  4  1  0  0  0  0
  2  5  1  0  0  0  0
  1  2  1  0  0  0  0
 26 27  2  0  0  0  0
 26 28  1  0  0  0  0
 24 25  1  0  0  0  0
 22 23  1  0  0  0  0
 22 24  2  0  0  0  0
 20 21  1  0  0  0  0
 19 20  1  0  0  0  0
 19 22  1  0  0  0  0
 17 18  1  0  0  0  0
 17 19  2  0  0  0  0
 15 16  1  0  0  0  0
 15 17  1  0  0  0  0
 14 15  2  0  0  0  0
 14 24  1  0  0  0  0
 11 12  1  0  0  0  0
 11 13  1  0  0  0  0
 11 14  1  0  0  0  0
  9 10  1  0  0  0  0
  9 11  1  0  0  0  0
  9 26  1  0  0  0  0
  7  8  1  0  0  0  0
  7  9  1  0  0  0  0
 30 31  1  0  0  0  0
 30 32  1  0  0  0  0
 30 33  1  0  0  0  0
 28 29  1  0  0  0  0
 28 30  1  0  0  0  0
M  END
$$$$
default_name
  -OEChem-02102213163D

 33 33  0     1  0  0  0  0  0999 V2000
   -4.0702   -3.8485    1.4554 H   0  0  0  0  0  0  0  0  0  0  0  0
   -4.0012   -2.9605    0.8284 C   0  0  0  0  0  0  0  0  0  0  0  0
   -4.7652   -2.2435    1.1234 H   0  0  0  0  0  0  0  0  0  0  0  0
   -4.1352   -3.2385   -0.2156 H   0  0  0  0  0  0  0  0  0  0  0  0
   -2.6362   -2.3395    1.0094 C   0  0  0  0  0  0  0  0  0  0  0  0
   -1.8292   -2.8395    1.7814 O   0  0  0  0  0  0  0  0  0  0  0  0
   -2.3832   -1.2445    0.2964 N   0  0  0  0  0  0  0  0  0  0  0  0
   -3.1102   -0.8685   -0.2946 H   0  0  0  0  0  0  0  0  0  0  0  0
   -1.1292   -0.4875    0.3524 C   0  0  1  0  0  0  0  0  0  0  0  0
   -0.3087   -1.1556    0.0882 H   0  0  0  0  0  0  0  0  0  0  0  0
   -1.1749    0.6534   -0.6787 C   0  0  0  0  0  0  0  0  0  0  0  0
   -1.0487    0.2337   -1.6775 H   0  0  0  0  0  0  0  0  0  0  0  0
   -2.1597    1.1224   -0.6433 H   0  0  0  0  0  0  0  0  0  0  0  0
   -0.1075    1.7110   -0.4741 C   0  0  0  0  0  0  0  0  0  0  0  0
    1.2573    1.3627   -0.5213 C   0  0  0  0  0  0  0  0  0  0  0  0
    1.5478    0.3322   -0.6781 H   0  0  0  0  0  0  0  0  0  0  0  0
    2.2452    2.3554   -0.3711 C   0  0  0  0  0  0  0  0  0  0  0  0
    3.2893    2.0849   -0.4063 H   0  0  0  0  0  0  0  0  0  0  0  0
    1.8663    3.7016   -0.1768 C   0  0  0  0  0  0  0  0  0  0  0  0
    2.8114    4.6668   -0.0339 O   0  0  0  0  0  0  0  0  0  0  0  0
    3.6963    4.3020    0.0092 H   0  0  0  0  0  0  0  0  0  0  0  0
    0.5001    4.0491   -0.1348 C   0  0  0  0  0  0  0  0  0  0  0  0
    0.2230    5.0812    0.0188 H   0  0  0  0  0  0  0  0  0  0  0  0
   -0.4849    3.0539   -0.2806 C   0  0  0  0  0  0  0  0  0  0  0  0
   -1.5344    3.3203   -0.2389 H   0  0  0  0  0  0  0  0  0  0  0  0
   -0.8664    0.0378    1.7736 C   0  0  0  0  0  0  0  0  0  0  0  0
    0.2529   -0.0672    2.2760 O   0  0  0  0  0  0  0  0  0  0  0  0
   -1.8947    0.5991    2.4221 N   0  0  0  0  0  0  0  0  0  0  0  0
   -2.7942    0.5936    1.9635 H   0  0  0  0  0  0  0  0  0  0  0  0
   -1.8170    1.1453    3.7750 C   0  0  0  0  0  0  0  0  0  0  0  0
   -0.9697    1.8290    3.8506 H   0  0  0  0  0  0  0  0  0  0  0  0
   -2.7354    1.6828    4.0167 H   0  0  0  0  0  0  0  0  0  0  0  0
   -1.6754    0.3334    4.4914 H   0  0  0  0  0  0  0  0  0  0  0  0
  5  6  2  0  0  0  0
  5  7  1  0  0  0  0
  2  3  1  0  0  0  0
  2  4  1  0  0  0  0
  2  5  1  0  0  0  0
  1  2  1  0  0  0  0
 26 27  2  0  0  0  0
 26 28  1  0  0  0  0
 24 25  1  0  0  0  0
 22 23  1  0  0  0  0
 22 24  2  0  0  0  0
 20 21  1  0  0  0  0
 19 20  1  0  0  0  0
 19 22  1  0  0  0  0
 17 18  1  0  0  0  0
 17 19  2  0  0  0  0
 15 16  1  0  0  0  0
 15 17  1  0  0  0  0
 14 15  2  0  0  0  0
 14 24  1  0  0  0  0
 11 12  1  0  0  0  0
 11 13  1  0  0  0  0
 11 14  1  0  0  0  0
  9 10  1  0  0  0  0
  9 11  1  0  0  0  0
  9 26  1  0  0  0  0
  7  8  1  0  0  0  0
  7  9  1  0  0  0  0
 30 31  1  0  0  0  0
 30 32  1  0  0  0  0
 30 33  1  0  0  0  0
 28 29  1  0  0  0  0
 28 30  1  0  0  0  0
M  END
$$$$
default_name
  -OEChem-02102213163D

 33 33  0     1  0  0  0  0  0999 V2000
   -4.0702   -3.8485    1.4554 H   0  0  0  0  0  0  0  0  0  0  0  0
   -4.0012   -2.9605    0.8284 C   0  0  0  0  0  0  0  0  0  0  0  0
   -4.7652   -2.2435    1.1234 H   0  0  0  0  0  0  0  0  0  0  0  0
   -4.1352   -3.2385   -0.2156 H   0  0  0  0  0  0  0  0  0  0  0  0
   -2.6362   -2.3395    1.0094 C   0  0  0  0  0  0  0  0  0  0  0  0
   -1.8292   -2.8395    1.7814 O   0  0  0  0  0  0  0  0  0  0  0  0
   -2.3832   -1.2445    0.2964 N   0  0  0  0  0  0  0  0  0  0  0  0
   -3.1102   -0.8685   -0.2946 H   0  0  0  0  0  0  0  0  0  0  0  0
   -1.1292   -0.4875    0.3524 C   0  0  1  0  0  0  0  0  0  0  0  0
   -0.3087   -1.1556    0.0882 H   0  0  0  0  0  0  0  0  0  0  0  0
   -1.1749    0.6534   -0.6787 C   0  0  0  0  0  0  0  0  0  0  0  0
   -1.0487    0.2337   -1.6775 H   0  0  0  0  0  0  0  0  0  0  0  0
   -2.1597    1.1224   -0.6433 H   0  0  0  0  0  0  0  0  0  0  0  0
   -0.1075    1.7110   -0.4741 C   0  0  0  0  0  0  0  0  0  0  0  0
    1.2315    1.4478   -0.8262 C   0  0  0  0  0  0  0  0  0  0  0  0
    1.5070    0.4783   -1.2203 H   0  0  0  0  0  0  0  0  0  0  0  0
    2.2119    2.4472   -0.6722 C   0  0  0  0  0  0  0  0  0  0  0  0
    3.2366    2.2416   -0.9414 H   0  0  0  0  0  0  0  0  0  0  0  0
    1.8508    3.7155   -0.1676 C   0  0  0  0  0  0  0  0  0  0  0  0
    2.7884    4.6869   -0.0181 O   0  0  0  0  0  0  0  0  0  0  0  0
    3.6726    4.3666   -0.2009 H   0  0  0  0  0  0  0  0  0  0  0  0
    0.5095    3.9788    0.1796 C   0  0  0  0  0  0  0  0  0  0  0  0
    0.2466    4.9510    0.5685 H   0  0  0  0  0  0  0  0  0  0  0  0
   -0.4673    2.9763    0.0288 C   0  0  0  0  0  0  0  0  0  0  0  0
   -1.4959    3.1763    0.3045 H   0  0  0  0  0  0  0  0  0  0  0  0
   -0.8664    0.0378    1.7736 C   0  0  0  0  0  0  0  0  0  0  0  0
    0.2529   -0.0672    2.2760 O   0  0  0  0  0  0  0  0  0  0  0  0
   -1.8947    0.5991    2.4221 N   0  0  0  0  0  0  0  0  0  0  0  0
   -2.7942    0.5936    1.9635 H   0  0  0  0  0  0  0  0  0  0  0  0
   -1.8170    1.1453    3.7750 C   0  0  0  0  0  0  0  0  0  0  0  0
   -0.9697    1.8290    3.8506 H   0  0  0  0  0  0  0  0  0  0  0  0
   -2.7354    1.6828    4.0167 H   0  0  0  0  0  0  0  0  0  0  0  0
   -1.6754    0.3334    4.4914 H   0  0  0  0  0  0  0  0  0  0  0  0
  5  6  2  0  0  0  0
  5  7  1  0  0  0  0
  2  3  1  0  0  0  0
  2  4  1  0  0  0  0
  2  5  1  0  0  0  0
  1  2  1  0  0  0  0
 26 27  2  0  0  0  0
 26 28  1  0  0  0  0
 24 25  1  0  0  0  0
 22 23  1  0  0  0  0
 22 24  2  0  0  0  0
 20 21  1  0  0  0  0
 19 20  1  0  0  0  0
 19 22  1  0  0  0  0
 17 18  1  0  0  0  0
 17 19  2  0  0  0  0
 15 16  1  0  0  0  0
 15 17  1  0  0  0  0
 14 15  2  0  0  0  0
 14 24  1  0  0  0  0
 11 12  1  0  0  0  0
 11 13  1  0  0  0  0
 11 14  1  0  0  0  0
  9 10  1  0  0  0  0
  9 11  1  0  0  0  0
  9 26  1  0  0  0  0
  7  8  1  0  0  0  0
  7  9  1  0  0  0  0
 30 31  1  0  0  0  0
 30 32  1  0  0  0  0
 30 33  1  0  0  0  0
 28 29  1  0  0  0  0
 28 30  1  0  0  0  0
M  END
$$$$
default_name
  -OEChem-02102213163D

 33 33  0     1  0  0  0  0  0999 V2000
   -4.0702   -3.8485    1.4554 H   0  0  0  0  0  0  0  0  0  0  0  0
   -4.0012   -2.9605    0.8284 C   0  0  0  0  0  0  0  0  0  0  0  0
   -4.7652   -2.2435    1.1234 H   0  0  0  0  0  0  0  0  0  0  0  0
   -4.1352   -3.2385   -0.2156 H   0  0  0  0  0  0  0  0  0  0  0  0
   -2.6362   -2.3395    1.0094 C   0  0  0  0  0  0  0  0  0  0  0  0
   -1.8292   -2.8395    1.7814 O   0  0  0  0  0  0  0  0  0  0  0  0
   -2.3832   -1.2445    0.2964 N   0  0  0  0  0  0  0  0  0  0  0  0
   -3.1102   -0.8685   -0.2946 H   0  0  0  0  0  0  0  0  0  0  0  0
   -1.1292   -0.4875    0.3524 C   0  0  1  0  0  0  0  0  0  0  0  0
   -0.3087   -1.1556    0.0882 H   0  0  0  0  0  0  0  0  0  0  0  0
   -1.1749    0.6534   -0.6787 C   0  0  0  0  0  0  0  0  0  0  0  0
   -1.0487    0.2337   -1.6775 H   0  0  0  0  0  0  0  0  0  0  0  0
   -2.1597    1.1224   -0.6433 H   0  0  0  0  0  0  0  0  0  0  0  0
   -0.1075    1.7110   -0.4741 C   0  0  0  0  0  0  0  0  0  0  0  0
    1.1486    1.5845   -1.1006 C   0  0  0  0  0  0  0  0  0  0  0  0
    1.3645    0.7168   -1.7101 H   0  0  0  0  0  0  0  0  0  0  0  0
    2.1223    2.5895   -0.9402 C   0  0  0  0  0  0  0  0  0  0  0  0
    3.0836    2.4886   -1.4202 H   0  0  0  0  0  0  0  0  0  0  0  0
    1.8370    3.7267   -0.1534 C   0  0  0  0  0  0  0  0  0  0  0  0
    2.7683    4.7028    0.0050 O   0  0  0  0  0  0  0  0  0  0  0  0
    3.6096    4.4664   -0.3878 H   0  0  0  0  0  0  0  0  0  0  0  0
    0.5778    3.8540    0.4688 C   0  0  0  0  0  0  0  0  0  0  0  0
    0.3732    4.7260    1.0714 H   0  0  0  0  0  0  0  0  0  0  0  0
   -0.3917    2.8456    0.3103 C   0  0  0  0  0  0  0  0  0  0  0  0
   -1.3556    2.9396    0.7962 H   0  0  0  0  0  0  0  0  0  0  0  0
   -0.8664    0.0378    1.7736 C   0  0  0  0  0  0  0  0  0  0  0  0
    0.2529   -0.0672    2.2760 O   0  0  0  0  0  0  0  0  0  0  0  0
   -1.8947    0.5991    2.4221 N   0  0  0  0  0  0  0  0  0  0  0  0
   -2.7942    0.5936    1.9635 H   0  0  0  0  0  0  0  0  0  0  0  0
   -1.8170    1.1453    3.7750 C   0  0  0  0  0  0  0  0  0  0  0  0
   -0.9697    1.8290    3.8506 H   0  0  0  0  0  0  0  0  0  0  0  0
   -2.7354    1.6828    4.0167 H   0  0  0  0  0  0  0  0  0  0  0  0
   -1.6754    0.3334    4.4914 H   0  0  0  0  0  0  0  0  0  0  0  0
  5  6  2  0  0  0  0
  5  7  1  0  0  0  0
  2  3  1  0  0  0  0
  2  4  1  0  0  0  0
  2  5  1  0  0  0  0
  1  2  1  0  0  0  0
 26 27  2  0  0  0  0
 26 28  1  0  0  0  0
 24 25  1  0  0  0  0
 22 23  1  0  0  0  0
 22 24  2  0  0  0  0
 20 21  1  0  0  0  0
 19 20  1  0  0  0  0
 19 22  1  0  0  0  0
 17 18  1  0  0  0  0
 17 19  2  0  0  0  0
 15 16  1  0  0  0  0
 15 17  1  0  0  0  0
 14 15  2  0  0  0  0
 14 24  1  0  0  0  0
 11 12  1  0  0  0  0
 11 13  1  0  0  0  0
 11 14  1  0  0  0  0
  9 10  1  0  0  0  0
  9 11  1  0  0  0  0
  9 26  1  0  0  0  0
  7  8  1  0  0  0  0
  7  9  1  0  0  0  0
 30 31  1  0  0  0  0
 30 32  1  0  0  0  0
 30 33  1  0  0  0  0
 28 29  1  0  0  0  0
 28 30  1  0  0  0  0
M  END
$$$$
default_name
  -OEChem-02102213163D

 33 33  0     1  0  0  0  0  0999 V2000
   -4.0702   -3.8485    1.4554 H   0  0  0  0  0  0  0  0  0  0  0  0
   -4.0012   -2.9605    0.8284 C   0  0  0  0  0  0  0  0  0  0  0  0
   -4.7652   -2.2435    1.1234 H   0  0  0  0  0  0  0  0  0  0  0  0
   -4.1352   -3.2385   -0.2156 H   0  0  0  0  0  0  0  0  0  0  0  0
   -2.6362   -2.3395    1.0094 C   0  0  0  0  0  0  0  0  0  0  0  0
   -1.8292   -2.8395    1.7814 O   0  0  0  0  0  0  0  0  0  0  0  0
   -2.3832   -1.2445    0.2964 N   0  0  0  0  0  0  0  0  0  0  0  0
   -3.1102   -0.8685   -0.2946 H   0  0  0  0  0  0  0  0  0  0  0  0
   -1.1292   -0.4875    0.3524 C   0  0  1  0  0  0  0  0  0  0  0  0
   -0.3087   -1.1556    0.0882 H   0  0  0  0  0  0  0  0  0  0  0  0
   -1.1749    0.6534   -0.6787 C   0  0  0  0  0  0  0  0  0  0  0  0
   -1.0487    0.2337   -1.6775 H   0  0  0  0  0  0  0  0  0  0  0  0
   -2.1597    1.1224   -0.6433 H   0  0  0  0  0  0  0  0  0  0  0  0
   -0.1075    1.7110   -0.4741 C   0  0  0  0  0  0  0  0  0  0  0  0
    1.0142    1.7637   -1.3258 C   0  0  0  0  0  0  0  0  0  0  0  0
    1.1302    1.0314   -2.1140 H   0  0  0  0  0  0  0  0  0  0  0  0
    1.9823    2.7727   -1.1571 C   0  0  0  0  0  0  0  0  0  0  0  0
    2.8408    2.8091   -1.8100 H   0  0  0  0  0  0  0  0  0  0  0  0
    1.8259    3.7344   -0.1352 C   0  0  0  0  0  0  0  0  0  0  0  0
    2.7525    4.7131    0.0338 O   0  0  0  0  0  0  0  0  0  0  0  0
    3.5114    4.5947   -0.5388 H   0  0  0  0  0  0  0  0  0  0  0  0
    0.7003    3.6831    0.7130 C   0  0  0  0  0  0  0  0  0  0  0  0
    0.5941    4.4215    1.4934 H   0  0  0  0  0  0  0  0  0  0  0  0
   -0.2633    2.6706    0.5447 C   0  0  0  0  0  0  0  0  0  0  0  0
   -1.1231    2.6264    1.2027 H   0  0  0  0  0  0  0  0  0  0  0  0
   -0.8664    0.0378    1.7736 C   0  0  0  0  0  0  0  0  0  0  0  0
    0.2529   -0.0672    2.2760 O   0  0  0  0  0  0  0  0  0  0  0  0
   -1.8947    0.5991    2.4221 N   0  0  0  0  0  0  0  0  0  0  0  0
   -2.7942    0.5936    1.9635 H   0  0  0  0  0  0  0  0  0  0  0  0
   -1.8170    1.1453    3.7750 C   0  0  0  0  0  0  0  0  0  0  0  0
   -0.9697    1.8290    3.8506 H   0  0  0  0  0  0  0  0  0  0  0  0
   -2.7354    1.6828    4.0167 H   0  0  0  0  0  0  0  0  0  0  0  0
   -1.6754    0.3334    4.4914 H   0  0  0  0  0  0  0  0  0  0  0  0
  5  6  2  0  0  0  0
  5  7  1  0  0  0  0
  2  3  1  0  0  0  0
  2  4  1  0  0  0  0
  2  5  1  0  0  0  0
  1  2  1  0  0  0  0
 26 27  2  0  0  0  0
 26 28  1  0  0  0  0
 24 25  1  0  0  0  0
 22 23  1  0  0  0  0
 22 24  2  0  0  0  0
 20 21  1  0  0  0  0
 19 20  1  0  0  0  0
 19 22  1  0  0  0  0
 17 18  1  0  0  0  0
 17 19  2  0  0  0  0
 15 16  1  0  0  0  0
 15 17  1  0  0  0  0
 14 15  2  0  0  0  0
 14 24  1  0  0  0  0
 11 12  1  0  0  0  0
 11 13  1  0  0  0  0
 11 14  1  0  0  0  0
  9 10  1  0  0  0  0
  9 11  1  0  0  0  0
  9 26  1  0  0  0  0
  7  8  1  0  0  0  0
  7  9  1  0  0  0  0
 30 31  1  0  0  0  0
 30 32  1  0  0  0  0
 30 33  1  0  0  0  0
 28 29  1  0  0  0  0
 28 30  1  0  0  0  0
M  END
$$$$
default_name
  -OEChem-02102213163D

 33 33  0     1  0  0  0  0  0999 V2000
   -4.0702   -3.8485    1.4554 H   0  0  0  0  0  0  0  0  0  0  0  0
   -4.0012   -2.9605    0.8284 C   0  0  0  0  0  0  0  0  0  0  0  0
   -4.7652   -2.2435    1.1234 H   0  0  0  0  0  0  0  0  0  0  0  0
   -4.1352   -3.2385   -0.2156 H   0  0  0  0  0  0  0  0  0  0  0  0
   -2.6362   -2.3395    1.0094 C   0  0  0  0  0  0  0  0  0  0  0  0
   -1.8292   -2.8395    1.7814 O   0  0  0  0  0  0  0  0  0  0  0  0
   -2.3832   -1.2445    0.2964 N   0  0  0  0  0  0  0  0  0  0  0  0
   -3.1102   -0.8685   -0.2946 H   0  0  0  0  0  0  0  0  0  0  0  0
   -1.1292   -0.4875    0.3524 C   0  0  1  0  0  0  0  0  0  0  0  0
   -0.3087   -1.1556    0.0882 H   0  0  0  0  0  0  0  0  0  0  0  0
   -1.1749    0.6534   -0.6787 C   0  0  0  0  0  0  0  0  0  0  0  0
   -1.0487    0.2337   -1.6775 H   0  0  0  0  0  0  0  0  0  0  0  0
   -2.1597    1.1224   -0.6433 H   0  0  0  0  0  0  0  0  0  0  0  0
   -0.1075    1.7110   -0.4741 C   0  0  0  0  0  0  0  0  0  0  0  0
    0.8374    1.9731   -1.4864 C   0  0  0  0  0  0  0  0  0  0  0  0
    0.8200    1.4007   -2.4045 H   0  0  0  0  0  0  0  0  0  0  0  0
    1.8016    2.9842   -1.3079 C   0  0  0  0  0  0  0  0  0  0  0  0
    2.5247    3.1812   -2.0844 H   0  0  0  0  0  0  0  0  0  0  0  0
    1.8181    3.7382   -0.1142 C   0  0  0  0  0  0  0  0  0  0  0  0
    2.7420    4.7174    0.0664 O   0  0  0  0  0  0  0  0  0  0  0  0
    3.3849    4.7426   -0.6436 H   0  0  0  0  0  0  0  0  0  0  0  0
    0.8687    3.4778    0.8957 C   0  0  0  0  0  0  0  0  0  0  0  0
    0.8943    4.0581    1.8057 H   0  0  0  0  0  0  0  0  0  0  0  0
   -0.0909    2.4635    0.7162 C   0  0  0  0  0  0  0  0  0  0  0  0
   -0.8142    2.2578    1.4963 H   0  0  0  0  0  0  0  0  0  0  0  0
   -0.8664    0.0378    1.7736 C   0  0  0  0  0  0  0  0  0  0  0  0
    0.2529   -0.0672    2.2760 O   0  0  0  0  0  0  0  0  0  0  0  0
   -1.8947    0.5991    2.4221 N   0  0  0  0  0  0  0  0  0  0  0  0
   -2.7942    0.5936    1.9635 H   0  0  0  0  0  0  0  0  0  0  0  0
   -1.8170    1.1453    3.7750 C   0  0  0  0  0  0  0  0  0  0  0  0
   -0.9697    1.8290    3.8506 H   0  0  0  0  0  0  0  0  0  0  0  0
   -2.7354    1.6828    4.0167 H   0  0  0  0  0  0  0  0  0  0  0  0
   -1.6754    0.3334    4.4914 H   0  0  0  0  0  0  0  0  0  0  0  0
  5  6  2  0  0  0  0
  5  7  1  0  0  0  0
  2  3  1  0  0  0  0
  2  4  1  0  0  0  0
  2  5  1  0  0  0  0
  1  2  1  0  0  0  0
 26 27  2  0  0  0  0
 26 28  1  0  0  0  0
 24 25  1  0  0  0  0
 22 23  1  0  0  0  0
 22 24  2  0  0  0  0
 20 21  1  0  0  0  0
 19 20  1  0  0  0  0
 19 22  1  0  0  0  0
 17 18  1  0  0  0  0
 17 19  2  0  0  0  0
 15 16  1  0  0  0  0
 15 17  1  0  0  0  0
 14 15  2  0  0  0  0
 14 24  1  0  0  0  0
 11 12  1  0  0  0  0
 11 13  1  0  0  0  0
 11 14  1  0  0  0  0
  9 10  1  0  0  0  0
  9 11  1  0  0  0  0
  9 26  1  0  0  0  0
  7  8  1  0  0  0  0
  7  9  1  0  0  0  0
 30 31  1  0  0  0  0
 30 32  1  0  0  0  0
 30 33  1  0  0  0  0
 28 29  1  0  0  0  0
 28 30  1  0  0  0  0
M  END
$$$$
default_name
  -OEChem-02102213163D

 33 33  0     1  0  0  0  0  0999 V2000
   -4.0702   -3.8485    1.4554 H   0  0  0  0  0  0  0  0  0  0  0  0
   -4.0012   -2.9605    0.8284 C   0  0  0  0  0  0  0  0  0  0  0  0
   -4.7652   -2.2435    1.1234 H   0  0  0  0  0  0  0  0  0  0  0  0
   -4.1352   -3.2385   -0.2156 H   0  0  0  0  0  0  0  0  0  0  0  0
   -2.6362   -2.3395    1.0094 C   0  0  0  0  0  0  0  0  0  0  0  0
   -1.8292   -2.8395    1.7814 O   0  0  0  0  0  0  0  0  0  0  0  0
   -2.3832   -1.2445    0.2964 N   0  0  0  0  0  0  0  0  0  0  0  0
   -3.1102   -0.8685   -0.2946 H   0  0  0  0  0  0  0  0  0  0  0  0
   -1.1292   -0.4875    0.3524 C   0  0  1  0  0  0  0  0  0  0  0  0
   -0.3087   -1.1556    0.0882 H   0  0  0  0  0  0  0  0  0  0  0  0
   -1.1749    0.6534   -0.6787 C   0  0  0  0  0  0  0  0  0  0  0  0
   -1.0487    0.2337   -1.6775 H   0  0  0  0  0  0  0  0  0  0  0  0
   -2.1597    1.1224   -0.6433 H   0  0  0  0  0  0  0  0  0  0  0  0
   -0.1075    1.7110   -0.4741 C   0  0  0  0  0  0  0  0  0  0  0  0
    0.6304    2.1985   -1.5714 C   0  0  0  0  0  0  0  0  0  0  0  0
    0.4550    1.7995   -2.5619 H   0  0  0  0  0  0  0  0  0  0  0  0
    1.5925    3.2097   -1.3824 C   0  0  0  0  0  0  0  0  0  0  0  0
    2.1568    3.5796   -2.2246 H   0  0  0  0  0  0  0  0  0  0  0  0
    1.8143    3.7377   -0.0918 C   0  0  0  0  0  0  0  0  0  0  0  0
    2.7377    4.7152    0.1005 O   0  0  0  0  0  0  0  0  0  0  0  0
    3.2386    4.9002   -0.6950 H   0  0  0  0  0  0  0  0  0  0  0  0
    1.0715    3.2522    1.0043 C   0  0  0  0  0  0  0  0  0  0  0  0
    1.2532    3.6607    1.9870 H   0  0  0  0  0  0  0  0  0  0  0  0
    0.1138    2.2381    0.8129 C   0  0  0  0  0  0  0  0  0  0  0  0
   -0.4499    1.8591    1.6570 H   0  0  0  0  0  0  0  0  0  0  0  0
   -0.8664    0.0378    1.7736 C   0  0  0  0  0  0  0  0  0  0  0  0
    0.2529   -0.0672    2.2760 O   0  0  0  0  0  0  0  0  0  0  0  0
   -1.8947    0.5991    2.4221 N   0  0  0  0  0  0  0  0  0  0  0  0
   -2.7942    0.5936    1.9635 H   0  0  0  0  0  0  0  0  0  0  0  0
   -1.8170    1.1453    3.7750 C   0  0  0  0  0  0  0  0  0  0  0  0
   -0.9697    1.8290    3.8506 H   0  0  0  0  0  0  0  0  0  0  0  0
   -2.7354    1.6828    4.0167 H   0  0  0  0  0  0  0  0  0  0  0  0
   -1.6754    0.3334    4.4914 H   0  0  0  0  0  0  0  0  0  0  0  0
  5  6  2  0  0  0  0
  5  7  1  0  0  0  0
  2  3  1  0  0  0  0
  2  4  1  0  0  0  0
  2  5  1  0  0  0  0
  1  2  1  0  0  0  0
 26 27  2  0  0  0  0
 26 28  1  0  0  0  0
 24 25  1  0  0  0  0
 22 23  1  0  0  0  0
 22 24  2  0  0  0  0
 20 21  1  0  0  0  0
 19 20  1  0  0  0  0
 19 22  1  0  0  0  0
 17 18  1  0  0  0  0
 17 19  2  0  0  0  0
 15 16  1  0  0  0  0
 15 17  1  0  0  0  0
 14 15  2  0  0  0  0
 14 24  1  0  0  0  0
 11 12  1  0  0  0  0
 11 13  1  0  0  0  0
 11 14  1  0  0  0  0
  9 10  1  0  0  0  0
  9 11  1  0  0  0  0
  9 26  1  0  0  0  0
  7  8  1  0  0  0  0
  7  9  1  0  0  0  0
 30 31  1  0  0  0  0
 30 32  1  0  0  0  0
 30 33  1  0  0  0  0
 28 29  1  0  0  0  0
 28 30  1  0  0  0  0
M  END
$$$$
default_name
  -OEChem-02102213163D

 33 33  0     1  0  0  0  0  0999 V2000
   -4.0702   -3.8485    1.4554 H   0  0  0  0  0  0  0  0  0  0  0  0
   -4.0012   -2.9605    0.8284 C   0  0  0  0  0  0  0  0  0  0  0  0
   -4.7652   -2.2435    1.1234 H   0  0  0  0  0  0  0  0  0  0  0  0
   -4.1352   -3.2385   -0.2156 H   0  0  0  0  0  0  0  0  0  0  0  0
   -2.6362   -2.3395    1.0094 C   0  0  0  0  0  0  0  0  0  0  0  0
   -1.8292   -2.8395    1.7814 O   0  0  0  0  0  0  0  0  0  0  0  0
   -2.3832   -1.2445    0.2964 N   0  0  0  0  0  0  0  0  0  0  0  0
   -3.1102   -0.8685   -0.2946 H   0  0  0  0  0  0  0  0  0  0  0  0
   -1.1292   -0.4875    0.3524 C   0  0  1  0  0  0  0  0  0  0  0  0
   -0.3087   -1.1556    0.0882 H   0  0  0  0  0  0  0  0  0  0  0  0
   -1.1749    0.6534   -0.6787 C   0  0  0  0  0  0  0  0  0  0  0  0
   -1.0487    0.2337   -1.6775 H   0  0  0  0  0  0  0  0  0  0  0  0
   -2.1597    1.1224   -0.6433 H   0  0  0  0  0  0  0  0  0  0  0  0
   -0.1075    1.7110   -0.4741 C   0  0  0  0  0  0  0  0  0  0  0  0
    0.4073    2.4245   -1.5751 C   0  0  0  0  0  0  0  0  0  0  0  0
    0.0601    2.2006   -2.5754 H   0  0  0  0  0  0  0  0  0  0  0  0
    1.3691    3.4338   -1.3755 C   0  0  0  0  0  0  0  0  0  0  0  0
    1.7623    3.9771   -2.2211 H   0  0  0  0  0  0  0  0  0  0  0  0
    1.8146    3.7330   -0.0695 C   0  0  0  0  0  0  0  0  0  0  0  0
    2.7397    4.7066    0.1338 O   0  0  0  0  0  0  0  0  0  0  0  0
    3.0825    5.0567   -0.6895 H   0  0  0  0  0  0  0  0  0  0  0  0
    1.2948    3.0215    1.0316 C   0  0  0  0  0  0  0  0  0  0  0  0
    1.6466    3.2564    2.0248 H   0  0  0  0  0  0  0  0  0  0  0  0
    0.3369    2.0100    0.8283 C   0  0  0  0  0  0  0  0  0  0  0  0
   -0.0552    1.4574    1.6738 H   0  0  0  0  0  0  0  0  0  0  0  0
   -0.8664    0.0378    1.7736 C   0  0  0  0  0  0  0  0  0  0  0  0
    0.2529   -0.0672    2.2760 O   0  0  0  0  0  0  0  0  0  0  0  0
   -1.8947    0.5991    2.4221 N   0  0  0  0  0  0  0  0  0  0  0  0
   -2.7942    0.5936    1.9635 H   0  0  0  0  0  0  0  0  0  0  0  0
   -1.8170    1.1453    3.7750 C   0  0  0  0  0  0  0  0  0  0  0  0
   -0.9697    1.8290    3.8506 H   0  0  0  0  0  0  0  0  0  0  0  0
   -2.7354    1.6828    4.0167 H   0  0  0  0  0  0  0  0  0  0  0  0
   -1.6754    0.3334    4.4914 H   0  0  0  0  0  0  0  0  0  0  0  0
  5  6  2  0  0  0  0
  5  7  1  0  0  0  0
  2  3  1  0  0  0  0
  2  4  1  0  0  0  0
  2  5  1  0  0  0  0
  1  2  1  0  0  0  0
 26 27  2  0  0  0  0
 26 28  1  0  0  0  0
 24 25  1  0  0  0  0
 22 23  1  0  0  0  0
 22 24  2  0  0  0  0
 20 21  1  0  0  0  0
 19 20  1  0  0  0  0
 19 22  1  0  0  0  0
 17 18  1  0  0  0  0
 17 19  2  0  0  0  0
 15 16  1  0  0  0  0
 15 17  1  0  0  0  0
 14 15  2  0  0  0  0
 14 24  1  0  0  0  0
 11 12  1  0  0  0  0
 11 13  1  0  0  0  0
 11 14  1  0  0  0  0
  9 10  1  0  0  0  0
  9 11  1  0  0  0  0
  9 26  1  0  0  0  0
  7  8  1  0  0  0  0
  7  9  1  0  0  0  0
 30 31  1  0  0  0  0
 30 32  1  0  0  0  0
 30 33  1  0  0  0  0
 28 29  1  0  0  0  0
 28 30  1  0  0  0  0
M  END
$$$$
default_name
  -OEChem-02102213163D

 33 33  0     1  0  0  0  0  0999 V2000
   -4.0702   -3.8485    1.4554 H   0  0  0  0  0  0  0  0  0  0  0  0
   -4.0012   -2.9605    0.8284 C   0  0  0  0  0  0  0  0  0  0  0  0
   -4.7652   -2.2435    1.1234 H   0  0  0  0  0  0  0  0  0  0  0  0
   -4.1352   -3.2385   -0.2156 H   0  0  0  0  0  0  0  0  0  0  0  0
   -2.6362   -2.3395    1.0094 C   0  0  0  0  0  0  0  0  0  0  0  0
   -1.8292   -2.8395    1.7814 O   0  0  0  0  0  0  0  0  0  0  0  0
   -2.3832   -1.2445    0.2964 N   0  0  0  0  0  0  0  0  0  0  0  0
   -3.1102   -0.8685   -0.2946 H   0  0  0  0  0  0  0  0  0  0  0  0
   -1.1292   -0.4875    0.3524 C   0  0  1  0  0  0  0  0  0  0  0  0
   -0.3087   -1.1556    0.0882 H   0  0  0  0  0  0  0  0  0  0  0  0
   -1.1749    0.6534   -0.6787 C   0  0  0  0  0  0  0  0  0  0  0  0
   -1.0487    0.2337   -1.6775 H   0  0  0  0  0  0  0  0  0  0  0  0
   -2.1597    1.1224   -0.6433 H   0  0  0  0  0  0  0  0  0  0  0  0
   -0.1075    1.7110   -0.4741 C   0  0  0  0  0  0  0  0  0  0  0  0
    0.1832    2.6356   -1.4973 C   0  0  0  0  0  0  0  0  0  0  0  0
   -0.3377    2.5768   -2.4440 H   0  0  0  0  0  0  0  0  0  0  0  0
    1.1468    3.6413   -1.2877 C   0  0  0  0  0  0  0  0  0  0  0  0
    1.3680    4.3466   -2.0740 H   0  0  0  0  0  0  0  0  0  0  0  0
    1.8192    3.7245   -0.0489 C   0  0  0  0  0  0  0  0  0  0  0  0
    2.7480    4.6924    0.1641 O   0  0  0  0  0  0  0  0  0  0  0  0
    2.9272    5.2014   -0.6276 H   0  0  0  0  0  0  0  0  0  0  0  0
    1.5235    2.8015    0.9755 C   0  0  0  0  0  0  0  0  0  0  0  0
    2.0475    2.8727    1.9168 H   0  0  0  0  0  0  0  0  0  0  0  0
    0.5631    1.7946    0.7614 C   0  0  0  0  0  0  0  0  0  0  0  0
    0.3432    1.0801    1.5457 H   0  0  0  0  0  0  0  0  0  0  0  0
   -0.8664    0.0378    1.7736 C   0  0  0  0  0  0  0  0  0  0  0  0
    0.2529   -0.0672    2.2760 O   0  0  0  0  0  0  0  0  0  0  0  0
   -1.8947    0.5991    2.4221 N   0  0  0  0  0  0  0  0  0  0  0  0
   -2.7942    0.5936    1.9635 H   0  0  0  0  0  0  0  0  0  0  0  0
   -1.8170    1.1453    3.7750 C   0  0  0  0  0  0  0  0  0  0  0  0
   -0.9697    1.8290    3.8506 H   0  0  0  0  0  0  0  0  0  0  0  0
   -2.7354    1.6828    4.0167 H   0  0  0  0  0  0  0  0  0  0  0  0
   -1.6754    0.3334    4.4914 H   0  0  0  0  0  0  0  0  0  0  0  0
  5  6  2  0  0  0  0
  5  7  1  0  0  0  0
  2  3  1  0  0  0  0
  2  4  1  0  0  0  0
  2  5  1  0  0  0  0
  1  2  1  0  0  0  0
 26 27  2  0  0  0  0
 26 28  1  0  0  0  0
 24 25  1  0  0  0  0
 22 23  1  0  0  0  0
 22 24  2  0  0  0  0
 20 21  1  0  0  0  0
 19 20  1  0  0  0  0
 19 22  1  0  0  0  0
 17 18  1  0  0  0  0
 17 19  2  0  0  0  0
 15 16  1  0  0  0  0
 15 17  1  0  0  0  0
 14 15  2  0  0  0  0
 14 24  1  0  0  0  0
 11 12  1  0  0  0  0
 11 13  1  0  0  0  0
 11 14  1  0  0  0  0
  9 10  1  0  0  0  0
  9 11  1  0  0  0  0
  9 26  1  0  0  0  0
  7  8  1  0  0  0  0
  7  9  1  0  0  0  0
 30 31  1  0  0  0  0
 30 32  1  0  0  0  0
 30 33  1  0  0  0  0
 28 29  1  0  0  0  0
 28 30  1  0  0  0  0
M  END
$$$$
