
  -OEChem-02062319103D

 51 50  0     1  0  0  0  0  0999 V2000
    1.6889   -4.3962   -0.8806 C   0  0  0  0  0  0  0  0  0  0  0  0
    1.3324   -4.2539   -2.0404 O   0  0  0  0  0  0  0  0  0  0  0  0
    2.8863   -5.2689   -0.5544 C   0  0  0  0  0  0  0  0  0  0  0  0
    3.2787   -5.7270   -1.4666 H   0  0  0  0  0  0  0  0  0  0  0  0
    3.6742   -4.6658   -0.0962 H   0  0  0  0  0  0  0  0  0  0  0  0
    2.5929   -6.0610    0.1385 H   0  0  0  0  0  0  0  0  0  0  0  0
    1.0212   -3.7426    0.1344 N   0  0  0  0  0  0  0  0  0  0  0  0
    0.0405   -2.6796   -0.1218 C   0  0  2  0  0  0  0  0  0  0  0  0
    0.7085   -1.2901   -0.1510 C   0  0  0  0  0  0  0  0  0  0  0  0
    1.5861   -1.0188    0.6583 O   0  0  0  0  0  0  0  0  0  0  0  0
   -1.0228   -2.7421    0.9761 C   0  0  0  0  0  0  0  0  0  0  0  0
    1.5042   -3.7104    1.0289 H   0  0  0  0  0  0  0  0  0  0  0  0
   -0.4564   -2.8449   -1.0835 H   0  0  0  0  0  0  0  0  0  0  0  0
   -0.5794   -2.5334    1.9552 H   0  0  0  0  0  0  0  0  0  0  0  0
   -1.8078   -2.0034    0.7880 H   0  0  0  0  0  0  0  0  0  0  0  0
   -1.4831   -3.7344    1.0043 H   0  0  0  0  0  0  0  0  0  0  0  0
    0.2991   -0.3344   -1.0645 N   0  0  0  0  0  0  0  0  0  0  0  0
    0.8736    1.0222   -1.1732 C   0  0  2  0  0  0  0  0  0  0  0  0
    0.6994    1.8099    0.1465 C   0  0  0  0  0  0  0  0  0  0  0  0
    1.5898    2.5342    0.5743 O   0  0  0  0  0  0  0  0  0  0  0  0
    0.2189    1.7485   -2.3828 C   0  0  2  0  0  0  0  0  0  0  0  0
    0.5162    0.9851   -3.6999 C   0  0  0  0  0  0  0  0  0  0  0  0
    0.7237    3.2029   -2.4927 C   0  0  0  0  0  0  0  0  0  0  0  0
   -0.2752    1.5183   -4.8990 C   0  0  0  0  0  0  0  0  0  0  0  0
   -0.3516   -0.6402   -1.7821 H   0  0  0  0  0  0  0  0  0  0  0  0
    1.9513    0.9387   -1.3549 H   0  0  0  0  0  0  0  0  0  0  0  0
   -0.8651    1.7731   -2.2255 H   0  0  0  0  0  0  0  0  0  0  0  0
    1.5875    1.0369   -3.9213 H   0  0  0  0  0  0  0  0  0  0  0  0
    0.2589   -0.0719   -3.5881 H   0  0  0  0  0  0  0  0  0  0  0  0
    1.8111    3.2224   -2.6184 H   0  0  0  0  0  0  0  0  0  0  0  0
    0.2662    3.7184   -3.3407 H   0  0  0  0  0  0  0  0  0  0  0  0
    0.4683    3.7780   -1.5979 H   0  0  0  0  0  0  0  0  0  0  0  0
   -1.3438    1.5591   -4.6664 H   0  0  0  0  0  0  0  0  0  0  0  0
   -0.1341    0.8573   -5.7596 H   0  0  0  0  0  0  0  0  0  0  0  0
    0.0630    2.5179   -5.1850 H   0  0  0  0  0  0  0  0  0  0  0  0
   -0.5199    1.7746    0.7947 N   0  0  0  0  0  0  0  0  0  0  0  0
   -0.6928    2.1589    2.1985 C   0  0  2  0  0  0  0  0  0  0  0  0
   -1.4745    1.0715    2.9648 C   0  0  0  0  0  0  0  0  0  0  0  0
   -2.1309    0.2356    2.3494 O   0  0  0  0  0  0  0  0  0  0  0  0
   -1.4306    3.4977    2.2388 C   0  0  0  0  0  0  0  0  0  0  0  0
   -1.1535    1.0490    0.4639 H   0  0  0  0  0  0  0  0  0  0  0  0
    0.2813    2.2690    2.6872 H   0  0  0  0  0  0  0  0  0  0  0  0
   -2.4133    3.4077    1.7648 H   0  0  0  0  0  0  0  0  0  0  0  0
   -1.5694    3.8287    3.2723 H   0  0  0  0  0  0  0  0  0  0  0  0
   -0.8536    4.2601    1.7054 H   0  0  0  0  0  0  0  0  0  0  0  0
   -1.4442    1.0248    4.3460 N   0  0  0  0  0  0  0  0  0  0  0  0
   -2.1322    0.0045    5.1275 C   0  0  0  0  0  0  0  0  0  0  0  0
   -0.8530    1.6975    4.8258 H   0  0  0  0  0  0  0  0  0  0  0  0
   -3.2126    0.0548    4.9557 H   0  0  0  0  0  0  0  0  0  0  0  0
   -1.7773   -0.9944    4.8523 H   0  0  0  0  0  0  0  0  0  0  0  0
   -1.9452    0.1562    6.1949 H   0  0  0  0  0  0  0  0  0  0  0  0
  1  2  2  0  0  0  0
  1  3  1  0  0  0  0
  1  7  1  0  0  0  0
  3  4  1  0  0  0  0
  3  5  1  0  0  0  0
  3  6  1  0  0  0  0
  7  8  1  0  0  0  0
  7 12  1  0  0  0  0
  8  9  1  0  0  0  0
  8 11  1  0  0  0  0
  8 13  1  0  0  0  0
  9 10  2  0  0  0  0
  9 17  1  0  0  0  0
 11 14  1  0  0  0  0
 11 15  1  0  0  0  0
 11 16  1  0  0  0  0
 17 18  1  0  0  0  0
 17 25  1  0  0  0  0
 18 19  1  0  0  0  0
 18 21  1  0  0  0  0
 18 26  1  0  0  0  0
 19 20  2  0  0  0  0
 19 36  1  0  0  0  0
 21 22  1  0  0  0  0
 21 23  1  0  0  0  0
 21 27  1  0  0  0  0
 22 24  1  0  0  0  0
 22 28  1  0  0  0  0
 22 29  1  0  0  0  0
 23 30  1  0  0  0  0
 23 31  1  0  0  0  0
 23 32  1  0  0  0  0
 24 33  1  0  0  0  0
 24 34  1  0  0  0  0
 24 35  1  0  0  0  0
 36 37  1  0  0  0  0
 36 41  1  0  0  0  0
 37 38  1  0  0  0  0
 37 40  1  0  0  0  0
 37 42  1  0  0  0  0
 38 39  2  0  0  0  0
 38 46  1  0  0  0  0
 40 43  1  0  0  0  0
 40 44  1  0  0  0  0
 40 45  1  0  0  0  0
 46 47  1  0  0  0  0
 46 48  1  0  0  0  0
 47 49  1  0  0  0  0
 47 50  1  0  0  0  0
 47 51  1  0  0  0  0
M  END
$$$$

  -OEChem-02062319103D

 51 50  0     1  0  0  0  0  0999 V2000
    0.1768   -3.4180   -1.5300 C   0  0  0  0  0  0  0  0  0  0  0  0
   -0.6188   -2.5871   -1.9428 O   0  0  0  0  0  0  0  0  0  0  0  0
    0.7997   -4.4199   -2.4835 C   0  0  0  0  0  0  0  0  0  0  0  0
    0.4156   -4.2655   -3.4960 H   0  0  0  0  0  0  0  0  0  0  0  0
    1.8857   -4.2988   -2.4980 H   0  0  0  0  0  0  0  0  0  0  0  0
    0.5573   -5.4376   -2.1678 H   0  0  0  0  0  0  0  0  0  0  0  0
    0.5538   -3.3906   -0.2026 N   0  0  0  0  0  0  0  0  0  0  0  0
   -0.0255   -2.4847    0.8037 C   0  0  2  0  0  0  0  0  0  0  0  0
    0.5302   -1.0411    0.7144 C   0  0  0  0  0  0  0  0  0  0  0  0
    1.1414   -0.5326    1.6438 O   0  0  0  0  0  0  0  0  0  0  0  0
    0.2025   -3.1226    2.1803 C   0  0  0  0  0  0  0  0  0  0  0  0
    1.2554   -4.0619    0.0978 H   0  0  0  0  0  0  0  0  0  0  0  0
   -1.1078   -2.4173    0.6471 H   0  0  0  0  0  0  0  0  0  0  0  0
    1.2728   -3.2105    2.3935 H   0  0  0  0  0  0  0  0  0  0  0  0
   -0.2554   -2.5084    2.9627 H   0  0  0  0  0  0  0  0  0  0  0  0
   -0.2471   -4.1193    2.2196 H   0  0  0  0  0  0  0  0  0  0  0  0
    0.4435   -0.3568   -0.4845 N   0  0  0  0  0  0  0  0  0  0  0  0
    1.1898    0.8740   -0.8103 C   0  0  2  0  0  0  0  0  0  0  0  0
    0.8516    2.0208    0.1695 C   0  0  0  0  0  0  0  0  0  0  0  0
    1.7362    2.7155    0.6542 O   0  0  0  0  0  0  0  0  0  0  0  0
    0.9018    1.2442   -2.2908 C   0  0  2  0  0  0  0  0  0  0  0  0
    1.5089    0.1730   -3.2319 C   0  0  0  0  0  0  0  0  0  0  0  0
    1.4757    2.6312   -2.6473 C   0  0  0  0  0  0  0  0  0  0  0  0
    0.9450    0.2409   -4.6541 C   0  0  0  0  0  0  0  0  0  0  0  0
    0.0203   -0.8857   -1.2531 H   0  0  0  0  0  0  0  0  0  0  0  0
    2.2623    0.6785   -0.7021 H   0  0  0  0  0  0  0  0  0  0  0  0
   -0.1840    1.2741   -2.4342 H   0  0  0  0  0  0  0  0  0  0  0  0
    2.5975    0.2876   -3.2658 H   0  0  0  0  0  0  0  0  0  0  0  0
    1.3029   -0.8290   -2.8474 H   0  0  0  0  0  0  0  0  0  0  0  0
    2.5507    2.6661   -2.4428 H   0  0  0  0  0  0  0  0  0  0  0  0
    1.3165    2.8641   -3.7031 H   0  0  0  0  0  0  0  0  0  0  0  0
    0.9866    3.4198   -2.0674 H   0  0  0  0  0  0  0  0  0  0  0  0
   -0.1462    0.1578   -4.6380 H   0  0  0  0  0  0  0  0  0  0  0  0
    1.3445   -0.5853   -5.2499 H   0  0  0  0  0  0  0  0  0  0  0  0
    1.2197    1.1769   -5.1471 H   0  0  0  0  0  0  0  0  0  0  0  0
   -0.4649    2.2679    0.5123 N   0  0  0  0  0  0  0  0  0  0  0  0
   -0.8711    3.2164    1.5596 C   0  0  2  0  0  0  0  0  0  0  0  0
   -0.7540    2.6020    2.9755 C   0  0  0  0  0  0  0  0  0  0  0  0
   -1.7158    2.5520    3.7345 O   0  0  0  0  0  0  0  0  0  0  0  0
   -2.2918    3.6845    1.2238 C   0  0  0  0  0  0  0  0  0  0  0  0
   -1.1316    1.5584    0.2229 H   0  0  0  0  0  0  0  0  0  0  0  0
   -0.2169    4.0947    1.5373 H   0  0  0  0  0  0  0  0  0  0  0  0
   -2.9912    2.8428    1.2500 H   0  0  0  0  0  0  0  0  0  0  0  0
   -2.6246    4.4337    1.9491 H   0  0  0  0  0  0  0  0  0  0  0  0
   -2.3187    4.1338    0.2265 H   0  0  0  0  0  0  0  0  0  0  0  0
    0.4504    2.0617    3.3787 N   0  0  0  0  0  0  0  0  0  0  0  0
    0.6171    1.2909    4.6018 C   0  0  0  0  0  0  0  0  0  0  0  0
    1.1761    2.0018    2.6608 H   0  0  0  0  0  0  0  0  0  0  0  0
    0.3752    1.9029    5.4768 H   0  0  0  0  0  0  0  0  0  0  0  0
   -0.0351    0.4117    4.5912 H   0  0  0  0  0  0  0  0  0  0  0  0
    1.6534    0.9519    4.6920 H   0  0  0  0  0  0  0  0  0  0  0  0
  1  2  2  0  0  0  0
  1  3  1  0  0  0  0
  1  7  1  0  0  0  0
  3  4  1  0  0  0  0
  3  5  1  0  0  0  0
  3  6  1  0  0  0  0
  7  8  1  0  0  0  0
  7 12  1  0  0  0  0
  8  9  1  0  0  0  0
  8 11  1  0  0  0  0
  8 13  1  0  0  0  0
  9 10  2  0  0  0  0
  9 17  1  0  0  0  0
 11 14  1  0  0  0  0
 11 15  1  0  0  0  0
 11 16  1  0  0  0  0
 17 18  1  0  0  0  0
 17 25  1  0  0  0  0
 18 19  1  0  0  0  0
 18 21  1  0  0  0  0
 18 26  1  0  0  0  0
 19 20  2  0  0  0  0
 19 36  1  0  0  0  0
 21 22  1  0  0  0  0
 21 23  1  0  0  0  0
 21 27  1  0  0  0  0
 22 24  1  0  0  0  0
 22 28  1  0  0  0  0
 22 29  1  0  0  0  0
 23 30  1  0  0  0  0
 23 31  1  0  0  0  0
 23 32  1  0  0  0  0
 24 33  1  0  0  0  0
 24 34  1  0  0  0  0
 24 35  1  0  0  0  0
 36 37  1  0  0  0  0
 36 41  1  0  0  0  0
 37 38  1  0  0  0  0
 37 40  1  0  0  0  0
 37 42  1  0  0  0  0
 38 39  2  0  0  0  0
 38 46  1  0  0  0  0
 40 43  1  0  0  0  0
 40 44  1  0  0  0  0
 40 45  1  0  0  0  0
 46 47  1  0  0  0  0
 46 48  1  0  0  0  0
 47 49  1  0  0  0  0
 47 50  1  0  0  0  0
 47 51  1  0  0  0  0
M  END
$$$$

  -OEChem-02062319103D

 51 50  0     1  0  0  0  0  0999 V2000
    0.3834   -3.5542   -1.3576 C   0  0  0  0  0  0  0  0  0  0  0  0
   -0.4983   -2.8638   -1.8451 O   0  0  0  0  0  0  0  0  0  0  0  0
    1.1095   -4.5858   -2.1993 C   0  0  0  0  0  0  0  0  0  0  0  0
    0.6727   -4.6298   -3.2012 H   0  0  0  0  0  0  0  0  0  0  0  0
    2.1660   -4.3204   -2.2876 H   0  0  0  0  0  0  0  0  0  0  0  0
    1.0259   -5.5723   -1.7366 H   0  0  0  0  0  0  0  0  0  0  0  0
    0.7500   -3.3368   -0.0467 N   0  0  0  0  0  0  0  0  0  0  0  0
    0.1020   -2.3493    0.8292 C   0  0  2  0  0  0  0  0  0  0  0  0
    0.6109   -0.9091    0.5761 C   0  0  0  0  0  0  0  0  0  0  0  0
    1.3165   -0.3437    1.4002 O   0  0  0  0  0  0  0  0  0  0  0  0
    0.3150   -2.8116    2.2764 C   0  0  0  0  0  0  0  0  0  0  0  0
    1.5337   -3.8721    0.3179 H   0  0  0  0  0  0  0  0  0  0  0  0
   -0.9776   -2.3457    0.6426 H   0  0  0  0  0  0  0  0  0  0  0  0
    1.3813   -2.8290    2.5244 H   0  0  0  0  0  0  0  0  0  0  0  0
   -0.1897   -2.1305    2.9692 H   0  0  0  0  0  0  0  0  0  0  0  0
   -0.0950   -3.8158    2.4213 H   0  0  0  0  0  0  0  0  0  0  0  0
    0.3950   -0.3074   -0.6541 N   0  0  0  0  0  0  0  0  0  0  0  0
    1.3106    0.7049   -1.2320 C   0  0  2  0  0  0  0  0  0  0  0  0
    1.4503    1.9579   -0.3335 C   0  0  0  0  0  0  0  0  0  0  0  0
    2.5445    2.4753   -0.1545 O   0  0  0  0  0  0  0  0  0  0  0  0
    0.8445    1.1099   -2.6634 C   0  0  2  0  0  0  0  0  0  0  0  0
    0.6014   -0.1424   -3.5437 C   0  0  0  0  0  0  0  0  0  0  0  0
    1.8806    2.0463   -3.3228 C   0  0  0  0  0  0  0  0  0  0  0  0
    0.2856    0.1622   -5.0116 C   0  0  0  0  0  0  0  0  0  0  0  0
   -0.0784   -0.9247   -1.3202 H   0  0  0  0  0  0  0  0  0  0  0  0
    2.3080    0.2578   -1.3080 H   0  0  0  0  0  0  0  0  0  0  0  0
   -0.1009    1.6573   -2.5812 H   0  0  0  0  0  0  0  0  0  0  0  0
    1.4740   -0.8024   -3.4976 H   0  0  0  0  0  0  0  0  0  0  0  0
   -0.2565   -0.6888   -3.1463 H   0  0  0  0  0  0  0  0  0  0  0  0
    2.8330    1.5258   -3.4643 H   0  0  0  0  0  0  0  0  0  0  0  0
    1.5271    2.4018   -4.2941 H   0  0  0  0  0  0  0  0  0  0  0  0
    2.0601    2.9354   -2.7124 H   0  0  0  0  0  0  0  0  0  0  0  0
   -0.5174    0.9019   -5.0867 H   0  0  0  0  0  0  0  0  0  0  0  0
   -0.0388   -0.7522   -5.5174 H   0  0  0  0  0  0  0  0  0  0  0  0
    1.1684    0.5405   -5.5352 H   0  0  0  0  0  0  0  0  0  0  0  0
    0.3267    2.5351    0.2285 N   0  0  0  0  0  0  0  0  0  0  0  0
    0.3575    3.7001    1.1277 C   0  0  2  0  0  0  0  0  0  0  0  0
    0.5615    3.3355    2.6193 C   0  0  0  0  0  0  0  0  0  0  0  0
    0.2268    4.1211    3.4985 O   0  0  0  0  0  0  0  0  0  0  0  0
   -0.9493    4.4698    0.9008 C   0  0  0  0  0  0  0  0  0  0  0  0
   -0.5300    1.9943    0.1605 H   0  0  0  0  0  0  0  0  0  0  0  0
    1.1887    4.3565    0.8489 H   0  0  0  0  0  0  0  0  0  0  0  0
   -1.8088    3.8698    1.2155 H   0  0  0  0  0  0  0  0  0  0  0  0
   -0.9482    5.4012    1.4761 H   0  0  0  0  0  0  0  0  0  0  0  0
   -1.0647    4.7224   -0.1575 H   0  0  0  0  0  0  0  0  0  0  0  0
    1.0767    2.1090    2.9951 N   0  0  0  0  0  0  0  0  0  0  0  0
    1.3235    1.7232    4.3766 C   0  0  0  0  0  0  0  0  0  0  0  0
    1.3681    1.4704    2.2503 H   0  0  0  0  0  0  0  0  0  0  0  0
    2.0779    2.3763    4.8269 H   0  0  0  0  0  0  0  0  0  0  0  0
    0.4024    1.7891    4.9644 H   0  0  0  0  0  0  0  0  0  0  0  0
    1.6867    0.6919    4.4178 H   0  0  0  0  0  0  0  0  0  0  0  0
  1  2  2  0  0  0  0
  1  3  1  0  0  0  0
  1  7  1  0  0  0  0
  3  4  1  0  0  0  0
  3  5  1  0  0  0  0
  3  6  1  0  0  0  0
  7  8  1  0  0  0  0
  7 12  1  0  0  0  0
  8  9  1  0  0  0  0
  8 11  1  0  0  0  0
  8 13  1  0  0  0  0
  9 10  2  0  0  0  0
  9 17  1  0  0  0  0
 11 14  1  0  0  0  0
 11 15  1  0  0  0  0
 11 16  1  0  0  0  0
 17 18  1  0  0  0  0
 17 25  1  0  0  0  0
 18 19  1  0  0  0  0
 18 21  1  0  0  0  0
 18 26  1  0  0  0  0
 19 20  2  0  0  0  0
 19 36  1  0  0  0  0
 21 22  1  0  0  0  0
 21 23  1  0  0  0  0
 21 27  1  0  0  0  0
 22 24  1  0  0  0  0
 22 28  1  0  0  0  0
 22 29  1  0  0  0  0
 23 30  1  0  0  0  0
 23 31  1  0  0  0  0
 23 32  1  0  0  0  0
 24 33  1  0  0  0  0
 24 34  1  0  0  0  0
 24 35  1  0  0  0  0
 36 37  1  0  0  0  0
 36 41  1  0  0  0  0
 37 38  1  0  0  0  0
 37 40  1  0  0  0  0
 37 42  1  0  0  0  0
 38 39  2  0  0  0  0
 38 46  1  0  0  0  0
 40 43  1  0  0  0  0
 40 44  1  0  0  0  0
 40 45  1  0  0  0  0
 46 47  1  0  0  0  0
 46 48  1  0  0  0  0
 47 49  1  0  0  0  0
 47 50  1  0  0  0  0
 47 51  1  0  0  0  0
M  END
$$$$

  -OEChem-02062319103D

 51 50  0     1  0  0  0  0  0999 V2000
    1.6956   -4.7492   -0.3724 C   0  0  0  0  0  0  0  0  0  0  0  0
    0.8505   -5.2393   -1.1052 O   0  0  0  0  0  0  0  0  0  0  0  0
    2.9897   -5.4920   -0.0983 C   0  0  0  0  0  0  0  0  0  0  0  0
    3.0044   -6.4389   -0.6450 H   0  0  0  0  0  0  0  0  0  0  0  0
    3.8415   -4.8877   -0.4198 H   0  0  0  0  0  0  0  0  0  0  0  0
    3.0814   -5.7003    0.9704 H   0  0  0  0  0  0  0  0  0  0  0  0
    1.4866   -3.5093    0.1935 N   0  0  0  0  0  0  0  0  0  0  0  0
    0.3904   -2.6067   -0.1824 C   0  0  2  0  0  0  0  0  0  0  0  0
    0.8746   -1.1483   -0.3246 C   0  0  0  0  0  0  0  0  0  0  0  0
    1.9533   -0.8339    0.1617 O   0  0  0  0  0  0  0  0  0  0  0  0
   -0.6990   -2.7018    0.8873 C   0  0  0  0  0  0  0  0  0  0  0  0
    2.2838   -3.0785    0.6613 H   0  0  0  0  0  0  0  0  0  0  0  0
   -0.0302   -2.9091   -1.1471 H   0  0  0  0  0  0  0  0  0  0  0  0
   -0.3078   -2.3889    1.8608 H   0  0  0  0  0  0  0  0  0  0  0  0
   -1.5470   -2.0598    0.6303 H   0  0  0  0  0  0  0  0  0  0  0  0
   -1.0580   -3.7326    0.9705 H   0  0  0  0  0  0  0  0  0  0  0  0
    0.2716   -0.3217   -1.2593 N   0  0  0  0  0  0  0  0  0  0  0  0
    1.0329    0.5689   -2.1631 C   0  0  2  0  0  0  0  0  0  0  0  0
    1.8861    1.6079   -1.3961 C   0  0  0  0  0  0  0  0  0  0  0  0
    3.0128    1.8985   -1.7815 O   0  0  0  0  0  0  0  0  0  0  0  0
    0.0350    1.2385   -3.1520 C   0  0  2  0  0  0  0  0  0  0  0  0
   -0.6550    0.1593   -4.0287 C   0  0  0  0  0  0  0  0  0  0  0  0
    0.7481    2.2716   -4.0508 C   0  0  0  0  0  0  0  0  0  0  0  0
   -1.7782    0.7133   -4.9113 C   0  0  0  0  0  0  0  0  0  0  0  0
   -0.5885   -0.6984   -1.6460 H   0  0  0  0  0  0  0  0  0  0  0  0
    1.7391   -0.0377   -2.7406 H   0  0  0  0  0  0  0  0  0  0  0  0
   -0.7292    1.7645   -2.5688 H   0  0  0  0  0  0  0  0  0  0  0  0
    0.0913   -0.3311   -4.6629 H   0  0  0  0  0  0  0  0  0  0  0  0
   -1.0994   -0.6109   -3.3929 H   0  0  0  0  0  0  0  0  0  0  0  0
    1.5466    1.7927   -4.6265 H   0  0  0  0  0  0  0  0  0  0  0  0
    0.0493    2.7410   -4.7471 H   0  0  0  0  0  0  0  0  0  0  0  0
    1.1861    3.0777   -3.4550 H   0  0  0  0  0  0  0  0  0  0  0  0
   -2.4921    1.2853   -4.3106 H   0  0  0  0  0  0  0  0  0  0  0  0
   -2.3129   -0.1122   -5.3910 H   0  0  0  0  0  0  0  0  0  0  0  0
   -1.3821    1.3582   -5.7003 H   0  0  0  0  0  0  0  0  0  0  0  0
    1.3283    2.2902   -0.3333 N   0  0  0  0  0  0  0  0  0  0  0  0
    2.1138    3.0709    0.6258 C   0  0  2  0  0  0  0  0  0  0  0  0
    1.5545    2.9122    2.0548 C   0  0  0  0  0  0  0  0  0  0  0  0
    0.4169    2.4859    2.2316 O   0  0  0  0  0  0  0  0  0  0  0  0
    2.0890    4.5391    0.1928 C   0  0  0  0  0  0  0  0  0  0  0  0
    0.4665    1.8858    0.0317 H   0  0  0  0  0  0  0  0  0  0  0  0
    3.1485    2.7115    0.6376 H   0  0  0  0  0  0  0  0  0  0  0  0
    1.0613    4.9156    0.1800 H   0  0  0  0  0  0  0  0  0  0  0  0
    2.6774    5.1535    0.8807 H   0  0  0  0  0  0  0  0  0  0  0  0
    2.5113    4.6439   -0.8117 H   0  0  0  0  0  0  0  0  0  0  0  0
    2.3262    3.2569    3.1492 N   0  0  0  0  0  0  0  0  0  0  0  0
    1.8714    3.1107    4.5265 C   0  0  0  0  0  0  0  0  0  0  0  0
    3.2803    3.5585    2.9737 H   0  0  0  0  0  0  0  0  0  0  0  0
    0.9540    3.6859    4.6901 H   0  0  0  0  0  0  0  0  0  0  0  0
    1.6726    2.0584    4.7555 H   0  0  0  0  0  0  0  0  0  0  0  0
    2.6357    3.4773    5.2186 H   0  0  0  0  0  0  0  0  0  0  0  0
  1  2  2  0  0  0  0
  1  3  1  0  0  0  0
  1  7  1  0  0  0  0
  3  4  1  0  0  0  0
  3  5  1  0  0  0  0
  3  6  1  0  0  0  0
  7  8  1  0  0  0  0
  7 12  1  0  0  0  0
  8  9  1  0  0  0  0
  8 11  1  0  0  0  0
  8 13  1  0  0  0  0
  9 10  2  0  0  0  0
  9 17  1  0  0  0  0
 11 14  1  0  0  0  0
 11 15  1  0  0  0  0
 11 16  1  0  0  0  0
 17 18  1  0  0  0  0
 17 25  1  0  0  0  0
 18 19  1  0  0  0  0
 18 21  1  0  0  0  0
 18 26  1  0  0  0  0
 19 20  2  0  0  0  0
 19 36  1  0  0  0  0
 21 22  1  0  0  0  0
 21 23  1  0  0  0  0
 21 27  1  0  0  0  0
 22 24  1  0  0  0  0
 22 28  1  0  0  0  0
 22 29  1  0  0  0  0
 23 30  1  0  0  0  0
 23 31  1  0  0  0  0
 23 32  1  0  0  0  0
 24 33  1  0  0  0  0
 24 34  1  0  0  0  0
 24 35  1  0  0  0  0
 36 37  1  0  0  0  0
 36 41  1  0  0  0  0
 37 38  1  0  0  0  0
 37 40  1  0  0  0  0
 37 42  1  0  0  0  0
 38 39  2  0  0  0  0
 38 46  1  0  0  0  0
 40 43  1  0  0  0  0
 40 44  1  0  0  0  0
 40 45  1  0  0  0  0
 46 47  1  0  0  0  0
 46 48  1  0  0  0  0
 47 49  1  0  0  0  0
 47 50  1  0  0  0  0
 47 51  1  0  0  0  0
M  END
$$$$

  -OEChem-02062319103D

 51 50  0     1  0  0  0  0  0999 V2000
    1.7140   -4.5937   -0.5576 C   0  0  0  0  0  0  0  0  0  0  0  0
    0.8561   -5.0188   -1.3156 O   0  0  0  0  0  0  0  0  0  0  0  0
    3.0459   -5.3102   -0.4399 C   0  0  0  0  0  0  0  0  0  0  0  0
    3.0681   -6.1787   -1.1041 H   0  0  0  0  0  0  0  0  0  0  0  0
    3.8587   -4.6341   -0.7170 H   0  0  0  0  0  0  0  0  0  0  0  0
    3.1971   -5.6494    0.5877 H   0  0  0  0  0  0  0  0  0  0  0  0
    1.4847   -3.4540    0.1846 N   0  0  0  0  0  0  0  0  0  0  0  0
    0.3487   -2.5478   -0.0341 C   0  0  2  0  0  0  0  0  0  0  0  0
    0.8138   -1.0915   -0.2450 C   0  0  0  0  0  0  0  0  0  0  0  0
    1.9159   -0.7625    0.1743 O   0  0  0  0  0  0  0  0  0  0  0  0
   -0.5776   -2.6386    1.1798 C   0  0  0  0  0  0  0  0  0  0  0  0
    2.2989   -3.0464    0.6430 H   0  0  0  0  0  0  0  0  0  0  0  0
   -0.2115   -2.8469   -0.9262 H   0  0  0  0  0  0  0  0  0  0  0  0
   -0.0511   -2.3286    2.0884 H   0  0  0  0  0  0  0  0  0  0  0  0
   -1.4502   -1.9920    1.0456 H   0  0  0  0  0  0  0  0  0  0  0  0
   -0.9264   -3.6676    1.3130 H   0  0  0  0  0  0  0  0  0  0  0  0
    0.1883   -0.3250   -1.2150 N   0  0  0  0  0  0  0  0  0  0  0  0
    0.9297    0.2629   -2.3529 C   0  0  2  0  0  0  0  0  0  0  0  0
    2.0487    1.2365   -1.9095 C   0  0  0  0  0  0  0  0  0  0  0  0
    3.1341    1.2371   -2.4787 O   0  0  0  0  0  0  0  0  0  0  0  0
   -0.0947    0.9387   -3.3091 C   0  0  2  0  0  0  0  0  0  0  0  0
   -1.0793   -0.1179   -3.8770 C   0  0  0  0  0  0  0  0  0  0  0  0
    0.6184    1.6664   -4.4690 C   0  0  0  0  0  0  0  0  0  0  0  0
   -2.2374    0.4947   -4.6708 C   0  0  0  0  0  0  0  0  0  0  0  0
   -0.7319   -0.6766   -1.4609 H   0  0  0  0  0  0  0  0  0  0  0  0
    1.4302   -0.5447   -2.8989 H   0  0  0  0  0  0  0  0  0  0  0  0
   -0.6616    1.6817   -2.7371 H   0  0  0  0  0  0  0  0  0  0  0  0
   -0.5354   -0.8212   -4.5167 H   0  0  0  0  0  0  0  0  0  0  0  0
   -1.5227   -0.6954   -3.0620 H   0  0  0  0  0  0  0  0  0  0  0  0
    1.2261    0.9630   -5.0475 H   0  0  0  0  0  0  0  0  0  0  0  0
   -0.1012    2.1399   -5.1411 H   0  0  0  0  0  0  0  0  0  0  0  0
    1.2702    2.4616   -4.0954 H   0  0  0  0  0  0  0  0  0  0  0  0
   -2.7360    1.2719   -4.0833 H   0  0  0  0  0  0  0  0  0  0  0  0
   -2.9713   -0.2803   -4.9124 H   0  0  0  0  0  0  0  0  0  0  0  0
   -1.8882    0.9305   -5.6107 H   0  0  0  0  0  0  0  0  0  0  0  0
    1.7877    2.1700   -0.9260 N   0  0  0  0  0  0  0  0  0  0  0  0
    2.8335    2.9314   -0.2383 C   0  0  2  0  0  0  0  0  0  0  0  0
    2.4711    3.1519    1.2455 C   0  0  0  0  0  0  0  0  0  0  0  0
    1.3144    3.0089    1.6307 O   0  0  0  0  0  0  0  0  0  0  0  0
    3.0155    4.2708   -0.9574 C   0  0  0  0  0  0  0  0  0  0  0  0
    0.9440    1.9929   -0.3811 H   0  0  0  0  0  0  0  0  0  0  0  0
    3.7747    2.3718   -0.2662 H   0  0  0  0  0  0  0  0  0  0  0  0
    2.0874    4.8504   -0.9262 H   0  0  0  0  0  0  0  0  0  0  0  0
    3.8090    4.8564   -0.4840 H   0  0  0  0  0  0  0  0  0  0  0  0
    3.2876    4.1040   -2.0046 H   0  0  0  0  0  0  0  0  0  0  0  0
    3.4444    3.5256    2.1541 N   0  0  0  0  0  0  0  0  0  0  0  0
    3.1799    3.7264    3.5736 C   0  0  0  0  0  0  0  0  0  0  0  0
    4.4004    3.5880    1.8167 H   0  0  0  0  0  0  0  0  0  0  0  0
    2.4327    4.5143    3.7169 H   0  0  0  0  0  0  0  0  0  0  0  0
    2.8094    2.8020    4.0294 H   0  0  0  0  0  0  0  0  0  0  0  0
    4.0976    4.0238    4.0901 H   0  0  0  0  0  0  0  0  0  0  0  0
  1  2  2  0  0  0  0
  1  3  1  0  0  0  0
  1  7  1  0  0  0  0
  3  4  1  0  0  0  0
  3  5  1  0  0  0  0
  3  6  1  0  0  0  0
  7  8  1  0  0  0  0
  7 12  1  0  0  0  0
  8  9  1  0  0  0  0
  8 11  1  0  0  0  0
  8 13  1  0  0  0  0
  9 10  2  0  0  0  0
  9 17  1  0  0  0  0
 11 14  1  0  0  0  0
 11 15  1  0  0  0  0
 11 16  1  0  0  0  0
 17 18  1  0  0  0  0
 17 25  1  0  0  0  0
 18 19  1  0  0  0  0
 18 21  1  0  0  0  0
 18 26  1  0  0  0  0
 19 20  2  0  0  0  0
 19 36  1  0  0  0  0
 21 22  1  0  0  0  0
 21 23  1  0  0  0  0
 21 27  1  0  0  0  0
 22 24  1  0  0  0  0
 22 28  1  0  0  0  0
 22 29  1  0  0  0  0
 23 30  1  0  0  0  0
 23 31  1  0  0  0  0
 23 32  1  0  0  0  0
 24 33  1  0  0  0  0
 24 34  1  0  0  0  0
 24 35  1  0  0  0  0
 36 37  1  0  0  0  0
 36 41  1  0  0  0  0
 37 38  1  0  0  0  0
 37 40  1  0  0  0  0
 37 42  1  0  0  0  0
 38 39  2  0  0  0  0
 38 46  1  0  0  0  0
 40 43  1  0  0  0  0
 40 44  1  0  0  0  0
 40 45  1  0  0  0  0
 46 47  1  0  0  0  0
 46 48  1  0  0  0  0
 47 49  1  0  0  0  0
 47 50  1  0  0  0  0
 47 51  1  0  0  0  0
M  END
$$$$

  -OEChem-02062319103D

 51 50  0     1  0  0  0  0  0999 V2000
    2.2553   -4.2518   -0.6745 C   0  0  0  0  0  0  0  0  0  0  0  0
    1.9042   -4.3941   -1.8348 O   0  0  0  0  0  0  0  0  0  0  0  0
    3.5775   -4.8289   -0.2048 C   0  0  0  0  0  0  0  0  0  0  0  0
    4.0524   -5.3904   -1.0144 H   0  0  0  0  0  0  0  0  0  0  0  0
    4.2471   -4.0225    0.1037 H   0  0  0  0  0  0  0  0  0  0  0  0
    3.4135   -5.5014    0.6406 H   0  0  0  0  0  0  0  0  0  0  0  0
    1.4654   -3.5437    0.2080 N   0  0  0  0  0  0  0  0  0  0  0  0
    0.3104   -2.7407   -0.2156 C   0  0  2  0  0  0  0  0  0  0  0  0
    0.6979   -1.2603   -0.3933 C   0  0  0  0  0  0  0  0  0  0  0  0
    1.2831   -0.6689    0.5019 O   0  0  0  0  0  0  0  0  0  0  0  0
   -0.7859   -2.9040    0.8397 C   0  0  0  0  0  0  0  0  0  0  0  0
    1.8971   -3.2970    1.0952 H   0  0  0  0  0  0  0  0  0  0  0  0
   -0.0834   -3.1006   -1.1724 H   0  0  0  0  0  0  0  0  0  0  0  0
   -0.4433   -2.5376    1.8128 H   0  0  0  0  0  0  0  0  0  0  0  0
   -1.6783   -2.3403    0.5506 H   0  0  0  0  0  0  0  0  0  0  0  0
   -1.0599   -3.9589    0.9392 H   0  0  0  0  0  0  0  0  0  0  0  0
   -0.0238   -0.4348   -1.2196 N   0  0  0  0  0  0  0  0  0  0  0  0
    0.5957   -0.1010   -2.5161 C   0  0  2  0  0  0  0  0  0  0  0  0
    1.9570    0.6242   -2.3596 C   0  0  0  0  0  0  0  0  0  0  0  0
    2.9049    0.2985   -3.0615 O   0  0  0  0  0  0  0  0  0  0  0  0
   -0.4158    0.7408   -3.3456 C   0  0  2  0  0  0  0  0  0  0  0  0
   -1.7202   -0.0642   -3.5852 C   0  0  0  0  0  0  0  0  0  0  0  0
    0.1965    1.1702   -4.6963 C   0  0  0  0  0  0  0  0  0  0  0  0
   -2.8311    0.7576   -4.2474 C   0  0  0  0  0  0  0  0  0  0  0  0
   -0.2901    0.3956   -0.6974 H   0  0  0  0  0  0  0  0  0  0  0  0
    0.7957   -1.0310   -3.0620 H   0  0  0  0  0  0  0  0  0  0  0  0
   -0.6606    1.6456   -2.7787 H   0  0  0  0  0  0  0  0  0  0  0  0
   -1.5026   -0.9419   -4.2028 H   0  0  0  0  0  0  0  0  0  0  0  0
   -2.1138   -0.4265   -2.6310 H   0  0  0  0  0  0  0  0  0  0  0  0
    0.4645    0.2919   -5.2925 H   0  0  0  0  0  0  0  0  0  0  0  0
   -0.5045    1.7808   -5.2706 H   0  0  0  0  0  0  0  0  0  0  0  0
    1.0951    1.7767   -4.5500 H   0  0  0  0  0  0  0  0  0  0  0  0
   -3.0029    1.6857   -3.6935 H   0  0  0  0  0  0  0  0  0  0  0  0
   -3.7622    0.1827   -4.2561 H   0  0  0  0  0  0  0  0  0  0  0  0
   -2.5798    1.0040   -5.2825 H   0  0  0  0  0  0  0  0  0  0  0  0
    2.1141    1.6552   -1.4526 N   0  0  0  0  0  0  0  0  0  0  0  0
    3.3858    2.3273   -1.1666 C   0  0  2  0  0  0  0  0  0  0  0  0
    3.3510    3.0069    0.2183 C   0  0  0  0  0  0  0  0  0  0  0  0
    2.2777    3.2416    0.7645 O   0  0  0  0  0  0  0  0  0  0  0  0
    3.6591    3.3712   -2.2555 C   0  0  0  0  0  0  0  0  0  0  0  0
    1.3874    1.7638   -0.7461 H   0  0  0  0  0  0  0  0  0  0  0  0
    4.1939    1.5883   -1.1568 H   0  0  0  0  0  0  0  0  0  0  0  0
    2.8549    4.1134   -2.2817 H   0  0  0  0  0  0  0  0  0  0  0  0
    4.6046    3.8874   -2.0635 H   0  0  0  0  0  0  0  0  0  0  0  0
    3.7234    2.8930   -3.2377 H   0  0  0  0  0  0  0  0  0  0  0  0
    4.5261    3.3744    0.8479 N   0  0  0  0  0  0  0  0  0  0  0  0
    4.5643    4.0160    2.1561 C   0  0  0  0  0  0  0  0  0  0  0  0
    5.4005    3.1504    0.3820 H   0  0  0  0  0  0  0  0  0  0  0  0
    4.0345    4.9740    2.1273 H   0  0  0  0  0  0  0  0  0  0  0  0
    4.0955    3.3758    2.9110 H   0  0  0  0  0  0  0  0  0  0  0  0
    5.5999    4.2024    2.4561 H   0  0  0  0  0  0  0  0  0  0  0  0
  1  2  2  0  0  0  0
  1  3  1  0  0  0  0
  1  7  1  0  0  0  0
  3  4  1  0  0  0  0
  3  5  1  0  0  0  0
  3  6  1  0  0  0  0
  7  8  1  0  0  0  0
  7 12  1  0  0  0  0
  8  9  1  0  0  0  0
  8 11  1  0  0  0  0
  8 13  1  0  0  0  0
  9 10  2  0  0  0  0
  9 17  1  0  0  0  0
 11 14  1  0  0  0  0
 11 15  1  0  0  0  0
 11 16  1  0  0  0  0
 17 18  1  0  0  0  0
 17 25  1  0  0  0  0
 18 19  1  0  0  0  0
 18 21  1  0  0  0  0
 18 26  1  0  0  0  0
 19 20  2  0  0  0  0
 19 36  1  0  0  0  0
 21 22  1  0  0  0  0
 21 23  1  0  0  0  0
 21 27  1  0  0  0  0
 22 24  1  0  0  0  0
 22 28  1  0  0  0  0
 22 29  1  0  0  0  0
 23 30  1  0  0  0  0
 23 31  1  0  0  0  0
 23 32  1  0  0  0  0
 24 33  1  0  0  0  0
 24 34  1  0  0  0  0
 24 35  1  0  0  0  0
 36 37  1  0  0  0  0
 36 41  1  0  0  0  0
 37 38  1  0  0  0  0
 37 40  1  0  0  0  0
 37 42  1  0  0  0  0
 38 39  2  0  0  0  0
 38 46  1  0  0  0  0
 40 43  1  0  0  0  0
 40 44  1  0  0  0  0
 40 45  1  0  0  0  0
 46 47  1  0  0  0  0
 46 48  1  0  0  0  0
 47 49  1  0  0  0  0
 47 50  1  0  0  0  0
 47 51  1  0  0  0  0
M  END
$$$$

  -OEChem-02062319103D

 51 50  0     1  0  0  0  0  0999 V2000
    2.3092   -4.5760   -0.3282 C   0  0  0  0  0  0  0  0  0  0  0  0
    1.7755   -5.1713   -1.2504 O   0  0  0  0  0  0  0  0  0  0  0  0
    3.6144   -5.0890    0.2507 C   0  0  0  0  0  0  0  0  0  0  0  0
    3.8959   -6.0295   -0.2316 H   0  0  0  0  0  0  0  0  0  0  0  0
    4.4085   -4.3565    0.0857 H   0  0  0  0  0  0  0  0  0  0  0  0
    3.5049   -5.2634    1.3237 H   0  0  0  0  0  0  0  0  0  0  0  0
    1.7385   -3.4289    0.1826 N   0  0  0  0  0  0  0  0  0  0  0  0
    0.5978   -2.7299   -0.4246 C   0  0  2  0  0  0  0  0  0  0  0  0
    0.8826   -1.2210   -0.5596 C   0  0  0  0  0  0  0  0  0  0  0  0
    1.5460   -0.6379    0.2850 O   0  0  0  0  0  0  0  0  0  0  0  0
   -0.6316   -2.9813    0.4522 C   0  0  0  0  0  0  0  0  0  0  0  0
    2.2829   -2.9074    0.8677 H   0  0  0  0  0  0  0  0  0  0  0  0
    0.4009   -3.1142   -1.4312 H   0  0  0  0  0  0  0  0  0  0  0  0
   -0.4700   -2.5893    1.4615 H   0  0  0  0  0  0  0  0  0  0  0  0
   -1.5127   -2.4928    0.0248 H   0  0  0  0  0  0  0  0  0  0  0  0
   -0.8321   -4.0551    0.5220 H   0  0  0  0  0  0  0  0  0  0  0  0
    0.0589   -0.3905   -1.2792 N   0  0  0  0  0  0  0  0  0  0  0  0
    0.3683   -0.2242   -2.7110 C   0  0  2  0  0  0  0  0  0  0  0  0
    1.7847    0.3616   -2.9343 C   0  0  0  0  0  0  0  0  0  0  0  0
    2.5308   -0.1585   -3.7521 O   0  0  0  0  0  0  0  0  0  0  0  0
   -0.7327    0.6558   -3.3673 C   0  0  2  0  0  0  0  0  0  0  0  0
   -2.1253   -0.0069   -3.2004 C   0  0  0  0  0  0  0  0  0  0  0  0
   -0.4311    0.8841   -4.8638 C   0  0  0  0  0  0  0  0  0  0  0  0
   -3.2807    0.8684   -3.6973 C   0  0  0  0  0  0  0  0  0  0  0  0
   -0.0322    0.4927   -0.7835 H   0  0  0  0  0  0  0  0  0  0  0  0
    0.3505   -1.2068   -3.1968 H   0  0  0  0  0  0  0  0  0  0  0  0
   -0.7452    1.6302   -2.8665 H   0  0  0  0  0  0  0  0  0  0  0  0
   -2.1437   -0.9648   -3.7311 H   0  0  0  0  0  0  0  0  0  0  0  0
   -2.3114   -0.2156   -2.1428 H   0  0  0  0  0  0  0  0  0  0  0  0
   -0.4114   -0.0700   -5.4006 H   0  0  0  0  0  0  0  0  0  0  0  0
   -1.1855    1.5275   -5.3236 H   0  0  0  0  0  0  0  0  0  0  0  0
    0.5341    1.3797   -5.0030 H   0  0  0  0  0  0  0  0  0  0  0  0
   -3.2225    1.8675   -3.2542 H   0  0  0  0  0  0  0  0  0  0  0  0
   -4.2362    0.4182   -3.4109 H   0  0  0  0  0  0  0  0  0  0  0  0
   -3.2673    0.9623   -4.7868 H   0  0  0  0  0  0  0  0  0  0  0  0
    2.2408    1.4321   -2.1889 N   0  0  0  0  0  0  0  0  0  0  0  0
    3.6193    1.9339   -2.2045 C   0  0  2  0  0  0  0  0  0  0  0  0
    3.9320    2.7197   -0.9142 C   0  0  0  0  0  0  0  0  0  0  0  0
    3.0176    3.1713   -0.2325 O   0  0  0  0  0  0  0  0  0  0  0  0
    3.8152    2.8349   -3.4291 C   0  0  0  0  0  0  0  0  0  0  0  0
    1.6665    1.7335   -1.4024 H   0  0  0  0  0  0  0  0  0  0  0  0
    4.3137    1.0888   -2.2581 H   0  0  0  0  0  0  0  0  0  0  0  0
    3.1196    3.6795   -3.3962 H   0  0  0  0  0  0  0  0  0  0  0  0
    4.8368    3.2257   -3.4585 H   0  0  0  0  0  0  0  0  0  0  0  0
    3.6370    2.2725   -4.3509 H   0  0  0  0  0  0  0  0  0  0  0  0
    5.2406    2.9307   -0.5205 N   0  0  0  0  0  0  0  0  0  0  0  0
    5.6029    3.6530    0.6928 C   0  0  0  0  0  0  0  0  0  0  0  0
    5.9762    2.5252   -1.0917 H   0  0  0  0  0  0  0  0  0  0  0  0
    5.2387    4.6847    0.6471 H   0  0  0  0  0  0  0  0  0  0  0  0
    5.1709    3.1654    1.5730 H   0  0  0  0  0  0  0  0  0  0  0  0
    6.6906    3.6757    0.8094 H   0  0  0  0  0  0  0  0  0  0  0  0
  1  2  2  0  0  0  0
  1  3  1  0  0  0  0
  1  7  1  0  0  0  0
  3  4  1  0  0  0  0
  3  5  1  0  0  0  0
  3  6  1  0  0  0  0
  7  8  1  0  0  0  0
  7 12  1  0  0  0  0
  8  9  1  0  0  0  0
  8 11  1  0  0  0  0
  8 13  1  0  0  0  0
  9 10  2  0  0  0  0
  9 17  1  0  0  0  0
 11 14  1  0  0  0  0
 11 15  1  0  0  0  0
 11 16  1  0  0  0  0
 17 18  1  0  0  0  0
 17 25  1  0  0  0  0
 18 19  1  0  0  0  0
 18 21  1  0  0  0  0
 18 26  1  0  0  0  0
 19 20  2  0  0  0  0
 19 36  1  0  0  0  0
 21 22  1  0  0  0  0
 21 23  1  0  0  0  0
 21 27  1  0  0  0  0
 22 24  1  0  0  0  0
 22 28  1  0  0  0  0
 22 29  1  0  0  0  0
 23 30  1  0  0  0  0
 23 31  1  0  0  0  0
 23 32  1  0  0  0  0
 24 33  1  0  0  0  0
 24 34  1  0  0  0  0
 24 35  1  0  0  0  0
 36 37  1  0  0  0  0
 36 41  1  0  0  0  0
 37 38  1  0  0  0  0
 37 40  1  0  0  0  0
 37 42  1  0  0  0  0
 38 39  2  0  0  0  0
 38 46  1  0  0  0  0
 40 43  1  0  0  0  0
 40 44  1  0  0  0  0
 40 45  1  0  0  0  0
 46 47  1  0  0  0  0
 46 48  1  0  0  0  0
 47 49  1  0  0  0  0
 47 50  1  0  0  0  0
 47 51  1  0  0  0  0
M  END
$$$$

  -OEChem-02062319103D

 51 50  0     1  0  0  0  0  0999 V2000
    2.3376   -4.7105   -0.0693 C   0  0  0  0  0  0  0  0  0  0  0  0
    1.7795   -5.4273   -0.8845 O   0  0  0  0  0  0  0  0  0  0  0  0
    3.5445   -5.2225    0.6940 C   0  0  0  0  0  0  0  0  0  0  0  0
    3.7291   -6.2719    0.4476 H   0  0  0  0  0  0  0  0  0  0  0  0
    4.4284   -4.6371    0.4291 H   0  0  0  0  0  0  0  0  0  0  0  0
    3.3691   -5.1391    1.7693 H   0  0  0  0  0  0  0  0  0  0  0  0
    1.8787   -3.4305    0.1566 N   0  0  0  0  0  0  0  0  0  0  0  0
    0.8105   -2.7809   -0.6132 C   0  0  2  0  0  0  0  0  0  0  0  0
    1.0352   -1.2558   -0.6972 C   0  0  0  0  0  0  0  0  0  0  0  0
    1.7611   -0.6859    0.1038 O   0  0  0  0  0  0  0  0  0  0  0  0
   -0.5318   -3.1038    0.0509 C   0  0  0  0  0  0  0  0  0  0  0  0
    2.4265   -2.8358    0.7771 H   0  0  0  0  0  0  0  0  0  0  0  0
    0.8066   -3.1672   -1.6384 H   0  0  0  0  0  0  0  0  0  0  0  0
   -0.5571   -2.7126    1.0728 H   0  0  0  0  0  0  0  0  0  0  0  0
   -1.3566   -2.6597   -0.5145 H   0  0  0  0  0  0  0  0  0  0  0  0
   -0.6852   -4.1871    0.0876 H   0  0  0  0  0  0  0  0  0  0  0  0
    0.1525   -0.4114   -1.3258 N   0  0  0  0  0  0  0  0  0  0  0  0
    0.1326   -0.4060   -2.7985 C   0  0  2  0  0  0  0  0  0  0  0  0
    1.5084   -0.0050   -3.3809 C   0  0  0  0  0  0  0  0  0  0  0  0
    2.0114   -0.6845   -4.2640 O   0  0  0  0  0  0  0  0  0  0  0  0
   -0.9992    0.5393   -3.2883 C   0  0  2  0  0  0  0  0  0  0  0  0
   -2.3727    0.0621   -2.7491 C   0  0  0  0  0  0  0  0  0  0  0  0
   -1.0292    0.6039   -4.8300 C   0  0  0  0  0  0  0  0  0  0  0  0
   -3.5177    1.0310   -3.0606 C   0  0  0  0  0  0  0  0  0  0  0  0
    0.2047    0.5110   -0.9000 H   0  0  0  0  0  0  0  0  0  0  0  0
   -0.0896   -1.4163   -3.1604 H   0  0  0  0  0  0  0  0  0  0  0  0
   -0.8019    1.5470   -2.9059 H   0  0  0  0  0  0  0  0  0  0  0  0
   -2.6105   -0.9228   -3.1645 H   0  0  0  0  0  0  0  0  0  0  0  0
   -2.3276   -0.0445   -1.6614 H   0  0  0  0  0  0  0  0  0  0  0  0
   -1.2313   -0.3861   -5.2516 H   0  0  0  0  0  0  0  0  0  0  0  0
   -1.7999    1.2955   -5.1796 H   0  0  0  0  0  0  0  0  0  0  0  0
   -0.0770    0.9624   -5.2313 H   0  0  0  0  0  0  0  0  0  0  0  0
   -3.2596    2.0453   -2.7410 H   0  0  0  0  0  0  0  0  0  0  0  0
   -4.4212    0.7201   -2.5273 H   0  0  0  0  0  0  0  0  0  0  0  0
   -3.7463    1.0437   -4.1297 H   0  0  0  0  0  0  0  0  0  0  0  0
    2.2130    1.0664   -2.8671 N   0  0  0  0  0  0  0  0  0  0  0  0
    3.5954    1.4044   -3.2217 C   0  0  2  0  0  0  0  0  0  0  0  0
    4.2613    2.2327   -2.1032 C   0  0  0  0  0  0  0  0  0  0  0  0
    3.5671    2.8258   -1.2843 O   0  0  0  0  0  0  0  0  0  0  0  0
    3.5952    2.1922   -4.5362 C   0  0  0  0  0  0  0  0  0  0  0  0
    1.8440    1.5154   -2.0292 H   0  0  0  0  0  0  0  0  0  0  0  0
    4.1757    0.4841   -3.3475 H   0  0  0  0  0  0  0  0  0  0  0  0
    3.0099    3.1113   -4.4300 H   0  0  0  0  0  0  0  0  0  0  0  0
    4.6165    2.4599   -4.8228 H   0  0  0  0  0  0  0  0  0  0  0  0
    3.1588    1.5929   -5.3415 H   0  0  0  0  0  0  0  0  0  0  0  0
    5.6386    2.3149   -2.0130 N   0  0  0  0  0  0  0  0  0  0  0  0
    6.3265    3.0509   -0.9591 C   0  0  0  0  0  0  0  0  0  0  0  0
    6.1881    1.7869   -2.6845 H   0  0  0  0  0  0  0  0  0  0  0  0
    6.0498    4.1102   -0.9878 H   0  0  0  0  0  0  0  0  0  0  0  0
    6.0660    2.6453    0.0243 H   0  0  0  0  0  0  0  0  0  0  0  0
    7.4104    2.9738   -1.0886 H   0  0  0  0  0  0  0  0  0  0  0  0
  1  2  2  0  0  0  0
  1  3  1  0  0  0  0
  1  7  1  0  0  0  0
  3  4  1  0  0  0  0
  3  5  1  0  0  0  0
  3  6  1  0  0  0  0
  7  8  1  0  0  0  0
  7 12  1  0  0  0  0
  8  9  1  0  0  0  0
  8 11  1  0  0  0  0
  8 13  1  0  0  0  0
  9 10  2  0  0  0  0
  9 17  1  0  0  0  0
 11 14  1  0  0  0  0
 11 15  1  0  0  0  0
 11 16  1  0  0  0  0
 17 18  1  0  0  0  0
 17 25  1  0  0  0  0
 18 19  1  0  0  0  0
 18 21  1  0  0  0  0
 18 26  1  0  0  0  0
 19 20  2  0  0  0  0
 19 36  1  0  0  0  0
 21 22  1  0  0  0  0
 21 23  1  0  0  0  0
 21 27  1  0  0  0  0
 22 24  1  0  0  0  0
 22 28  1  0  0  0  0
 22 29  1  0  0  0  0
 23 30  1  0  0  0  0
 23 31  1  0  0  0  0
 23 32  1  0  0  0  0
 24 33  1  0  0  0  0
 24 34  1  0  0  0  0
 24 35  1  0  0  0  0
 36 37  1  0  0  0  0
 36 41  1  0  0  0  0
 37 38  1  0  0  0  0
 37 40  1  0  0  0  0
 37 42  1  0  0  0  0
 38 39  2  0  0  0  0
 38 46  1  0  0  0  0
 40 43  1  0  0  0  0
 40 44  1  0  0  0  0
 40 45  1  0  0  0  0
 46 47  1  0  0  0  0
 46 48  1  0  0  0  0
 47 49  1  0  0  0  0
 47 50  1  0  0  0  0
 47 51  1  0  0  0  0
M  END
$$$$

  -OEChem-02062319103D

 51 50  0     1  0  0  0  0  0999 V2000
    2.3488   -4.7228   -0.0723 C   0  0  0  0  0  0  0  0  0  0  0  0
    1.7544   -5.4457   -0.8559 O   0  0  0  0  0  0  0  0  0  0  0  0
    3.5798   -5.2358    0.6505 C   0  0  0  0  0  0  0  0  0  0  0  0
    3.7433   -6.2908    0.4138 H   0  0  0  0  0  0  0  0  0  0  0  0
    4.4583   -4.6649    0.3410 H   0  0  0  0  0  0  0  0  0  0  0  0
    3.4490   -5.1340    1.7302 H   0  0  0  0  0  0  0  0  0  0  0  0
    1.9098   -3.4349    0.1505 N   0  0  0  0  0  0  0  0  0  0  0  0
    0.8199   -2.7871   -0.5907 C   0  0  2  0  0  0  0  0  0  0  0  0
    1.0341   -1.2593   -0.6750 C   0  0  0  0  0  0  0  0  0  0  0  0
    1.7948   -0.6897    0.0930 O   0  0  0  0  0  0  0  0  0  0  0  0
   -0.5057   -3.1154    0.1045 C   0  0  0  0  0  0  0  0  0  0  0  0
    2.4844   -2.8356    0.7418 H   0  0  0  0  0  0  0  0  0  0  0  0
    0.7950   -3.1724   -1.6158 H   0  0  0  0  0  0  0  0  0  0  0  0
   -0.5052   -2.7315    1.1296 H   0  0  0  0  0  0  0  0  0  0  0  0
   -1.3446   -2.6670   -0.4365 H   0  0  0  0  0  0  0  0  0  0  0  0
   -0.6583   -4.1988    0.1370 H   0  0  0  0  0  0  0  0  0  0  0  0
    0.1534   -0.4102   -1.3026 N   0  0  0  0  0  0  0  0  0  0  0  0
   -0.1379   -0.5924   -2.7350 C   0  0  2  0  0  0  0  0  0  0  0  0
    1.1417   -0.4601   -3.5934 C   0  0  0  0  0  0  0  0  0  0  0  0
    1.3917   -1.3089   -4.4368 O   0  0  0  0  0  0  0  0  0  0  0  0
   -1.2318    0.4232   -3.1676 C   0  0  2  0  0  0  0  0  0  0  0  0
   -2.5188    0.2148   -2.3276 C   0  0  0  0  0  0  0  0  0  0  0  0
   -1.5464    0.2787   -4.6721 C   0  0  0  0  0  0  0  0  0  0  0  0
   -3.6232    1.2308   -2.6354 C   0  0  0  0  0  0  0  0  0  0  0  0
    0.3030    0.5483   -0.9962 H   0  0  0  0  0  0  0  0  0  0  0  0
   -0.5333   -1.6012   -2.8987 H   0  0  0  0  0  0  0  0  0  0  0  0
   -0.8576    1.4378   -2.9915 H   0  0  0  0  0  0  0  0  0  0  0  0
   -2.9058   -0.7964   -2.4913 H   0  0  0  0  0  0  0  0  0  0  0  0
   -2.2824    0.3067   -1.2633 H   0  0  0  0  0  0  0  0  0  0  0  0
   -1.9420   -0.7192   -4.8871 H   0  0  0  0  0  0  0  0  0  0  0  0
   -2.2808    1.0219   -4.9929 H   0  0  0  0  0  0  0  0  0  0  0  0
   -0.6526    0.4351   -5.2828 H   0  0  0  0  0  0  0  0  0  0  0  0
   -3.2321    2.2514   -2.5808 H   0  0  0  0  0  0  0  0  0  0  0  0
   -4.4327    1.1308   -1.9060 H   0  0  0  0  0  0  0  0  0  0  0  0
   -4.0462    1.0653   -3.6301 H   0  0  0  0  0  0  0  0  0  0  0  0
    2.0454    0.5620   -3.3758 N   0  0  0  0  0  0  0  0  0  0  0  0
    3.3513    0.6777   -4.0351 C   0  0  2  0  0  0  0  0  0  0  0  0
    4.3192    1.5430   -3.2022 C   0  0  0  0  0  0  0  0  0  0  0  0
    3.8809    2.2925   -2.3362 O   0  0  0  0  0  0  0  0  0  0  0  0
    3.1547    1.2936   -5.4247 C   0  0  0  0  0  0  0  0  0  0  0  0
    1.8874    1.1727   -2.5745 H   0  0  0  0  0  0  0  0  0  0  0  0
    3.7985   -0.3169   -4.1373 H   0  0  0  0  0  0  0  0  0  0  0  0
    2.6879    2.2803   -5.3421 H   0  0  0  0  0  0  0  0  0  0  0  0
    4.1164    1.4040   -5.9344 H   0  0  0  0  0  0  0  0  0  0  0  0
    2.5124    0.6549   -6.0391 H   0  0  0  0  0  0  0  0  0  0  0  0
    5.6828    1.4821   -3.4226 N   0  0  0  0  0  0  0  0  0  0  0  0
    6.6513    2.2565   -2.6561 C   0  0  0  0  0  0  0  0  0  0  0  0
    6.0182    0.8352   -4.1305 H   0  0  0  0  0  0  0  0  0  0  0  0
    6.4604    3.3287   -2.7698 H   0  0  0  0  0  0  0  0  0  0  0  0
    6.5932    1.9992   -1.5932 H   0  0  0  0  0  0  0  0  0  0  0  0
    7.6663    2.0475   -3.0071 H   0  0  0  0  0  0  0  0  0  0  0  0
  1  2  2  0  0  0  0
  1  3  1  0  0  0  0
  1  7  1  0  0  0  0
  3  4  1  0  0  0  0
  3  5  1  0  0  0  0
  3  6  1  0  0  0  0
  7  8  1  0  0  0  0
  7 12  1  0  0  0  0
  8  9  1  0  0  0  0
  8 11  1  0  0  0  0
  8 13  1  0  0  0  0
  9 10  2  0  0  0  0
  9 17  1  0  0  0  0
 11 14  1  0  0  0  0
 11 15  1  0  0  0  0
 11 16  1  0  0  0  0
 17 18  1  0  0  0  0
 17 25  1  0  0  0  0
 18 19  1  0  0  0  0
 18 21  1  0  0  0  0
 18 26  1  0  0  0  0
 19 20  2  0  0  0  0
 19 36  1  0  0  0  0
 21 22  1  0  0  0  0
 21 23  1  0  0  0  0
 21 27  1  0  0  0  0
 22 24  1  0  0  0  0
 22 28  1  0  0  0  0
 22 29  1  0  0  0  0
 23 30  1  0  0  0  0
 23 31  1  0  0  0  0
 23 32  1  0  0  0  0
 24 33  1  0  0  0  0
 24 34  1  0  0  0  0
 24 35  1  0  0  0  0
 36 37  1  0  0  0  0
 36 41  1  0  0  0  0
 37 38  1  0  0  0  0
 37 40  1  0  0  0  0
 37 42  1  0  0  0  0
 38 39  2  0  0  0  0
 38 46  1  0  0  0  0
 40 43  1  0  0  0  0
 40 44  1  0  0  0  0
 40 45  1  0  0  0  0
 46 47  1  0  0  0  0
 46 48  1  0  0  0  0
 47 49  1  0  0  0  0
 47 50  1  0  0  0  0
 47 51  1  0  0  0  0
M  END
$$$$

  -OEChem-02062319103D

 51 50  0     1  0  0  0  0  0999 V2000
    2.4900   -4.6200   -0.1109 C   0  0  0  0  0  0  0  0  0  0  0  0
    1.8987   -5.3708   -0.8698 O   0  0  0  0  0  0  0  0  0  0  0  0
    3.7595   -5.0824    0.5794 C   0  0  0  0  0  0  0  0  0  0  0  0
    4.0380   -6.0796    0.2271 H   0  0  0  0  0  0  0  0  0  0  0  0
    4.5772   -4.3914    0.3612 H   0  0  0  0  0  0  0  0  0  0  0  0
    3.6025   -5.1212    1.6600 H   0  0  0  0  0  0  0  0  0  0  0  0
    2.0087   -3.3492    0.1211 N   0  0  0  0  0  0  0  0  0  0  0  0
    0.8669   -2.7476   -0.5799 C   0  0  2  0  0  0  0  0  0  0  0  0
    1.0318   -1.2148   -0.6921 C   0  0  0  0  0  0  0  0  0  0  0  0
    1.8380   -0.6165    0.0045 O   0  0  0  0  0  0  0  0  0  0  0  0
   -0.4110   -3.1076    0.1861 C   0  0  0  0  0  0  0  0  0  0  0  0
    2.5829   -2.7240    0.6855 H   0  0  0  0  0  0  0  0  0  0  0  0
    0.8055   -3.1501   -1.5972 H   0  0  0  0  0  0  0  0  0  0  0  0
   -0.3747   -2.7033    1.2026 H   0  0  0  0  0  0  0  0  0  0  0  0
   -1.2923   -2.7014   -0.3189 H   0  0  0  0  0  0  0  0  0  0  0  0
   -0.5221   -4.1949    0.2468 H   0  0  0  0  0  0  0  0  0  0  0  0
    0.1298   -0.3889   -1.3223 N   0  0  0  0  0  0  0  0  0  0  0  0
   -0.4482   -0.7296   -2.6336 C   0  0  2  0  0  0  0  0  0  0  0  0
    0.6482   -0.8787   -3.7125 C   0  0  0  0  0  0  0  0  0  0  0  0
    0.6333   -1.8482   -4.4567 O   0  0  0  0  0  0  0  0  0  0  0  0
   -1.5022    0.3434   -3.0227 C   0  0  2  0  0  0  0  0  0  0  0  0
   -2.6204    0.4093   -1.9502 C   0  0  0  0  0  0  0  0  0  0  0  0
   -2.1090    0.0347   -4.4082 C   0  0  0  0  0  0  0  0  0  0  0  0
   -3.6521    1.5118   -2.2075 C   0  0  0  0  0  0  0  0  0  0  0  0
    0.3312    0.5921   -1.1433 H   0  0  0  0  0  0  0  0  0  0  0  0
   -0.9624   -1.6943   -2.5628 H   0  0  0  0  0  0  0  0  0  0  0  0
   -1.0065    1.3189   -3.0749 H   0  0  0  0  0  0  0  0  0  0  0  0
   -3.1340   -0.5562   -1.8941 H   0  0  0  0  0  0  0  0  0  0  0  0
   -2.1789    0.6025   -0.9680 H   0  0  0  0  0  0  0  0  0  0  0  0
   -2.6221   -0.9324   -4.3951 H   0  0  0  0  0  0  0  0  0  0  0  0
   -2.8249    0.8054   -4.7050 H   0  0  0  0  0  0  0  0  0  0  0  0
   -1.3373    0.0060   -5.1831 H   0  0  0  0  0  0  0  0  0  0  0  0
   -3.1553    2.4733   -2.3699 H   0  0  0  0  0  0  0  0  0  0  0  0
   -4.3155    1.6073   -1.3425 H   0  0  0  0  0  0  0  0  0  0  0  0
   -4.2693    1.2791   -3.0796 H   0  0  0  0  0  0  0  0  0  0  0  0
    1.6728    0.0413   -3.8229 N   0  0  0  0  0  0  0  0  0  0  0  0
    2.8196   -0.0978   -4.7285 C   0  0  2  0  0  0  0  0  0  0  0  0
    4.0592    0.6352   -4.1767 C   0  0  0  0  0  0  0  0  0  0  0  0
    3.9232    1.5196   -3.3384 O   0  0  0  0  0  0  0  0  0  0  0  0
    2.4313    0.4649   -6.0997 C   0  0  0  0  0  0  0  0  0  0  0  0
    1.7489    0.7546   -3.0977 H   0  0  0  0  0  0  0  0  0  0  0  0
    3.0806   -1.1566   -4.8310 H   0  0  0  0  0  0  0  0  0  0  0  0
    2.1684    1.5245   -6.0174 H   0  0  0  0  0  0  0  0  0  0  0  0
    3.2619    0.3651   -6.8049 H   0  0  0  0  0  0  0  0  0  0  0  0
    1.5706   -0.0772   -6.5040 H   0  0  0  0  0  0  0  0  0  0  0  0
    5.3282    0.2960   -4.6090 N   0  0  0  0  0  0  0  0  0  0  0  0
    6.5411    0.9154   -4.0884 C   0  0  0  0  0  0  0  0  0  0  0  0
    5.4120   -0.4656   -5.2762 H   0  0  0  0  0  0  0  0  0  0  0  0
    6.5413    1.9910   -4.2948 H   0  0  0  0  0  0  0  0  0  0  0  0
    6.6143    0.7639   -3.0061 H   0  0  0  0  0  0  0  0  0  0  0  0
    7.4246    0.4731   -4.5591 H   0  0  0  0  0  0  0  0  0  0  0  0
  1  2  2  0  0  0  0
  1  3  1  0  0  0  0
  1  7  1  0  0  0  0
  3  4  1  0  0  0  0
  3  5  1  0  0  0  0
  3  6  1  0  0  0  0
  7  8  1  0  0  0  0
  7 12  1  0  0  0  0
  8  9  1  0  0  0  0
  8 11  1  0  0  0  0
  8 13  1  0  0  0  0
  9 10  2  0  0  0  0
  9 17  1  0  0  0  0
 11 14  1  0  0  0  0
 11 15  1  0  0  0  0
 11 16  1  0  0  0  0
 17 18  1  0  0  0  0
 17 25  1  0  0  0  0
 18 19  1  0  0  0  0
 18 21  1  0  0  0  0
 18 26  1  0  0  0  0
 19 20  2  0  0  0  0
 19 36  1  0  0  0  0
 21 22  1  0  0  0  0
 21 23  1  0  0  0  0
 21 27  1  0  0  0  0
 22 24  1  0  0  0  0
 22 28  1  0  0  0  0
 22 29  1  0  0  0  0
 23 30  1  0  0  0  0
 23 31  1  0  0  0  0
 23 32  1  0  0  0  0
 24 33  1  0  0  0  0
 24 34  1  0  0  0  0
 24 35  1  0  0  0  0
 36 37  1  0  0  0  0
 36 41  1  0  0  0  0
 37 38  1  0  0  0  0
 37 40  1  0  0  0  0
 37 42  1  0  0  0  0
 38 39  2  0  0  0  0
 38 46  1  0  0  0  0
 40 43  1  0  0  0  0
 40 44  1  0  0  0  0
 40 45  1  0  0  0  0
 46 47  1  0  0  0  0
 46 48  1  0  0  0  0
 47 49  1  0  0  0  0
 47 50  1  0  0  0  0
 47 51  1  0  0  0  0
M  END
$$$$

  -OEChem-02062319103D

 51 50  0     1  0  0  0  0  0999 V2000
    3.1519   -3.7261   -1.4673 C   0  0  0  0  0  0  0  0  0  0  0  0
    2.8892   -3.6688   -2.6602 O   0  0  0  0  0  0  0  0  0  0  0  0
    4.5539   -4.0995   -1.0256 C   0  0  0  0  0  0  0  0  0  0  0  0
    5.1429   -4.4385   -1.8824 H   0  0  0  0  0  0  0  0  0  0  0  0
    5.0464   -3.2319   -0.5790 H   0  0  0  0  0  0  0  0  0  0  0  0
    4.5113   -4.9054   -0.2889 H   0  0  0  0  0  0  0  0  0  0  0  0
    2.2079   -3.3948   -0.5175 N   0  0  0  0  0  0  0  0  0  0  0  0
    0.9350   -2.7437   -0.8591 C   0  0  2  0  0  0  0  0  0  0  0  0
    1.0933   -1.2120   -1.0203 C   0  0  0  0  0  0  0  0  0  0  0  0
    2.0187   -0.6130   -0.4934 O   0  0  0  0  0  0  0  0  0  0  0  0
   -0.0625   -3.0720    0.2544 C   0  0  0  0  0  0  0  0  0  0  0  0
    2.5725   -3.2283    0.4163 H   0  0  0  0  0  0  0  0  0  0  0  0
    0.5530   -3.1565   -1.7989 H   0  0  0  0  0  0  0  0  0  0  0  0
    0.2833   -2.6685    1.2114 H   0  0  0  0  0  0  0  0  0  0  0  0
   -1.0433   -2.6418    0.0315 H   0  0  0  0  0  0  0  0  0  0  0  0
   -0.1770   -4.1561    0.3522 H   0  0  0  0  0  0  0  0  0  0  0  0
    0.1269   -0.3758   -1.5340 N   0  0  0  0  0  0  0  0  0  0  0  0
   -0.8674   -0.7942   -2.5375 C   0  0  2  0  0  0  0  0  0  0  0  0
   -0.1677   -1.2745   -3.8266 C   0  0  0  0  0  0  0  0  0  0  0  0
   -0.4506   -2.3763   -4.2740 O   0  0  0  0  0  0  0  0  0  0  0  0
   -1.8458    0.3809   -2.8104 C   0  0  2  0  0  0  0  0  0  0  0  0
   -2.5782    0.7844   -1.5046 C   0  0  0  0  0  0  0  0  0  0  0  0
   -2.8705   -0.0062   -3.8978 C   0  0  0  0  0  0  0  0  0  0  0  0
   -3.4559    2.0308   -1.6572 C   0  0  0  0  0  0  0  0  0  0  0  0
    0.3900    0.6059   -1.4910 H   0  0  0  0  0  0  0  0  0  0  0  0
   -1.4502   -1.6354   -2.1472 H   0  0  0  0  0  0  0  0  0  0  0  0
   -1.2693    1.2402   -3.1710 H   0  0  0  0  0  0  0  0  0  0  0  0
   -3.1960   -0.0500   -1.1559 H   0  0  0  0  0  0  0  0  0  0  0  0
   -1.8460    0.9992   -0.7206 H   0  0  0  0  0  0  0  0  0  0  0  0
   -3.4751   -0.8581   -3.5702 H   0  0  0  0  0  0  0  0  0  0  0  0
   -3.5384    0.8289   -4.1237 H   0  0  0  0  0  0  0  0  0  0  0  0
   -2.3731   -0.2760   -4.8341 H   0  0  0  0  0  0  0  0  0  0  0  0
   -2.8808    2.8553   -2.0902 H   0  0  0  0  0  0  0  0  0  0  0  0
   -3.8259    2.3451   -0.6764 H   0  0  0  0  0  0  0  0  0  0  0  0
   -4.3219    1.8304   -2.2939 H   0  0  0  0  0  0  0  0  0  0  0  0
    0.8775   -0.5531   -4.3688 N   0  0  0  0  0  0  0  0  0  0  0  0
    1.9369   -1.1686   -5.1758 C   0  0  2  0  0  0  0  0  0  0  0  0
    3.3138   -0.6919   -4.6738 C   0  0  0  0  0  0  0  0  0  0  0  0
    3.5685    0.5075   -4.6507 O   0  0  0  0  0  0  0  0  0  0  0  0
    1.7152   -0.7936   -6.6428 C   0  0  0  0  0  0  0  0  0  0  0  0
    1.1336    0.3039   -3.8824 H   0  0  0  0  0  0  0  0  0  0  0  0
    1.9107   -2.2604   -5.0830 H   0  0  0  0  0  0  0  0  0  0  0  0
    1.7311    0.2936   -6.7696 H   0  0  0  0  0  0  0  0  0  0  0  0
    2.5001   -1.2285   -7.2685 H   0  0  0  0  0  0  0  0  0  0  0  0
    0.7473   -1.1715   -6.9865 H   0  0  0  0  0  0  0  0  0  0  0  0
    4.2201   -1.5932   -4.1514 N   0  0  0  0  0  0  0  0  0  0  0  0
    5.4263   -1.1698   -3.4524 C   0  0  0  0  0  0  0  0  0  0  0  0
    3.8377   -2.5158   -3.9253 H   0  0  0  0  0  0  0  0  0  0  0  0
    6.0380   -0.5269   -4.0941 H   0  0  0  0  0  0  0  0  0  0  0  0
    5.1669   -0.6172   -2.5430 H   0  0  0  0  0  0  0  0  0  0  0  0
    6.0243   -2.0420   -3.1718 H   0  0  0  0  0  0  0  0  0  0  0  0
  1  2  2  0  0  0  0
  1  3  1  0  0  0  0
  1  7  1  0  0  0  0
  3  4  1  0  0  0  0
  3  5  1  0  0  0  0
  3  6  1  0  0  0  0
  7  8  1  0  0  0  0
  7 12  1  0  0  0  0
  8  9  1  0  0  0  0
  8 11  1  0  0  0  0
  8 13  1  0  0  0  0
  9 10  2  0  0  0  0
  9 17  1  0  0  0  0
 11 14  1  0  0  0  0
 11 15  1  0  0  0  0
 11 16  1  0  0  0  0
 17 18  1  0  0  0  0
 17 25  1  0  0  0  0
 18 19  1  0  0  0  0
 18 21  1  0  0  0  0
 18 26  1  0  0  0  0
 19 20  2  0  0  0  0
 19 36  1  0  0  0  0
 21 22  1  0  0  0  0
 21 23  1  0  0  0  0
 21 27  1  0  0  0  0
 22 24  1  0  0  0  0
 22 28  1  0  0  0  0
 22 29  1  0  0  0  0
 23 30  1  0  0  0  0
 23 31  1  0  0  0  0
 23 32  1  0  0  0  0
 24 33  1  0  0  0  0
 24 34  1  0  0  0  0
 24 35  1  0  0  0  0
 36 37  1  0  0  0  0
 36 41  1  0  0  0  0
 37 38  1  0  0  0  0
 37 40  1  0  0  0  0
 37 42  1  0  0  0  0
 38 39  2  0  0  0  0
 38 46  1  0  0  0  0
 40 43  1  0  0  0  0
 40 44  1  0  0  0  0
 40 45  1  0  0  0  0
 46 47  1  0  0  0  0
 46 48  1  0  0  0  0
 47 49  1  0  0  0  0
 47 50  1  0  0  0  0
 47 51  1  0  0  0  0
M  END
$$$$

  -OEChem-02062319103D

 51 50  0     1  0  0  0  0  0999 V2000
    2.8589   -4.0183   -1.6525 C   0  0  0  0  0  0  0  0  0  0  0  0
    2.4143   -4.1114   -2.7878 O   0  0  0  0  0  0  0  0  0  0  0  0
    4.3074   -4.3817   -1.3860 C   0  0  0  0  0  0  0  0  0  0  0  0
    4.7559   -4.8311   -2.2763 H   0  0  0  0  0  0  0  0  0  0  0  0
    4.8720   -3.4845   -1.1202 H   0  0  0  0  0  0  0  0  0  0  0  0
    4.3681   -5.0988   -0.5638 H   0  0  0  0  0  0  0  0  0  0  0  0
    2.0822   -3.5344   -0.6199 N   0  0  0  0  0  0  0  0  0  0  0  0
    0.7880   -2.8669   -0.8275 C   0  0  2  0  0  0  0  0  0  0  0  0
    0.9523   -1.3299   -0.9278 C   0  0  0  0  0  0  0  0  0  0  0  0
    1.9138   -0.7701   -0.4224 O   0  0  0  0  0  0  0  0  0  0  0  0
   -0.1124   -3.2341    0.3543 C   0  0  0  0  0  0  0  0  0  0  0  0
    2.5950   -3.2710    0.2179 H   0  0  0  0  0  0  0  0  0  0  0  0
    0.3202   -3.2376   -1.7437 H   0  0  0  0  0  0  0  0  0  0  0  0
    0.3205   -2.8756    1.2939 H   0  0  0  0  0  0  0  0  0  0  0  0
   -1.1034   -2.7862    0.2364 H   0  0  0  0  0  0  0  0  0  0  0  0
   -0.2312   -4.3204    0.4155 H   0  0  0  0  0  0  0  0  0  0  0  0
    0.0209   -0.4545   -1.4442 N   0  0  0  0  0  0  0  0  0  0  0  0
   -1.1480   -0.8172   -2.2650 C   0  0  2  0  0  0  0  0  0  0  0  0
   -0.7068   -1.5254   -3.5628 C   0  0  0  0  0  0  0  0  0  0  0  0
   -1.2014   -2.6070   -3.8460 O   0  0  0  0  0  0  0  0  0  0  0  0
   -1.9868    0.4573   -2.5571 C   0  0  2  0  0  0  0  0  0  0  0  0
   -2.4708    1.0985   -1.2309 C   0  0  0  0  0  0  0  0  0  0  0  0
   -3.1954    0.1196   -3.4561 C   0  0  0  0  0  0  0  0  0  0  0  0
   -3.1979    2.4324   -1.4284 C   0  0  0  0  0  0  0  0  0  0  0  0
    0.3023    0.5215   -1.3906 H   0  0  0  0  0  0  0  0  0  0  0  0
   -1.7793   -1.5178   -1.7082 H   0  0  0  0  0  0  0  0  0  0  0  0
   -1.3546    1.1783   -3.0873 H   0  0  0  0  0  0  0  0  0  0  0  0
   -3.1331    0.4023   -0.7055 H   0  0  0  0  0  0  0  0  0  0  0  0
   -1.6143    1.2900   -0.5780 H   0  0  0  0  0  0  0  0  0  0  0  0
   -3.8630   -0.5867   -2.9522 H   0  0  0  0  0  0  0  0  0  0  0  0
   -3.7639    1.0194   -3.7048 H   0  0  0  0  0  0  0  0  0  0  0  0
   -2.8746   -0.3241   -4.4032 H   0  0  0  0  0  0  0  0  0  0  0  0
   -2.5958    3.1118   -2.0395 H   0  0  0  0  0  0  0  0  0  0  0  0
   -3.3741    2.9058   -0.4578 H   0  0  0  0  0  0  0  0  0  0  0  0
   -4.1677    2.2860   -1.9118 H   0  0  0  0  0  0  0  0  0  0  0  0
    0.3425   -1.0275   -4.3086 N   0  0  0  0  0  0  0  0  0  0  0  0
    1.1603   -1.8607   -5.1964 C   0  0  2  0  0  0  0  0  0  0  0  0
    2.6464   -1.4723   -5.0704 C   0  0  0  0  0  0  0  0  0  0  0  0
    2.9722   -0.2914   -5.1319 O   0  0  0  0  0  0  0  0  0  0  0  0
    0.6645   -1.6830   -6.6328 C   0  0  0  0  0  0  0  0  0  0  0  0
    0.7844   -0.1777   -3.9614 H   0  0  0  0  0  0  0  0  0  0  0  0
    1.0695   -2.9166   -4.9178 H   0  0  0  0  0  0  0  0  0  0  0  0
    0.7435   -0.6353   -6.9399 H   0  0  0  0  0  0  0  0  0  0  0  0
    1.2593   -2.2938   -7.3186 H   0  0  0  0  0  0  0  0  0  0  0  0
   -0.3823   -1.9924   -6.7115 H   0  0  0  0  0  0  0  0  0  0  0  0
    3.6035   -2.4335   -4.8124 N   0  0  0  0  0  0  0  0  0  0  0  0
    4.9858   -2.0950   -4.5008 C   0  0  0  0  0  0  0  0  0  0  0  0
    3.2376   -3.3205   -4.4570 H   0  0  0  0  0  0  0  0  0  0  0  0
    5.4284   -1.5046   -5.3097 H   0  0  0  0  0  0  0  0  0  0  0  0
    5.0385   -1.5170   -3.5724 H   0  0  0  0  0  0  0  0  0  0  0  0
    5.5779   -3.0068   -4.3782 H   0  0  0  0  0  0  0  0  0  0  0  0
  1  2  2  0  0  0  0
  1  3  1  0  0  0  0
  1  7  1  0  0  0  0
  3  4  1  0  0  0  0
  3  5  1  0  0  0  0
  3  6  1  0  0  0  0
  7  8  1  0  0  0  0
  7 12  1  0  0  0  0
  8  9  1  0  0  0  0
  8 11  1  0  0  0  0
  8 13  1  0  0  0  0
  9 10  2  0  0  0  0
  9 17  1  0  0  0  0
 11 14  1  0  0  0  0
 11 15  1  0  0  0  0
 11 16  1  0  0  0  0
 17 18  1  0  0  0  0
 17 25  1  0  0  0  0
 18 19  1  0  0  0  0
 18 21  1  0  0  0  0
 18 26  1  0  0  0  0
 19 20  2  0  0  0  0
 19 36  1  0  0  0  0
 21 22  1  0  0  0  0
 21 23  1  0  0  0  0
 21 27  1  0  0  0  0
 22 24  1  0  0  0  0
 22 28  1  0  0  0  0
 22 29  1  0  0  0  0
 23 30  1  0  0  0  0
 23 31  1  0  0  0  0
 23 32  1  0  0  0  0
 24 33  1  0  0  0  0
 24 34  1  0  0  0  0
 24 35  1  0  0  0  0
 36 37  1  0  0  0  0
 36 41  1  0  0  0  0
 37 38  1  0  0  0  0
 37 40  1  0  0  0  0
 37 42  1  0  0  0  0
 38 39  2  0  0  0  0
 38 46  1  0  0  0  0
 40 43  1  0  0  0  0
 40 44  1  0  0  0  0
 40 45  1  0  0  0  0
 46 47  1  0  0  0  0
 46 48  1  0  0  0  0
 47 49  1  0  0  0  0
 47 50  1  0  0  0  0
 47 51  1  0  0  0  0
M  END
$$$$

  -OEChem-02062319103D

 51 50  0     1  0  0  0  0  0999 V2000
    2.5604   -4.3383   -1.7334 C   0  0  0  0  0  0  0  0  0  0  0  0
    1.9171   -4.6537   -2.7247 O   0  0  0  0  0  0  0  0  0  0  0  0
    4.0245   -4.7234   -1.6402 C   0  0  0  0  0  0  0  0  0  0  0  0
    4.3028   -5.3612   -2.4837 H   0  0  0  0  0  0  0  0  0  0  0  0
    4.6467   -3.8250   -1.6563 H   0  0  0  0  0  0  0  0  0  0  0  0
    4.2091   -5.2689   -0.7115 H   0  0  0  0  0  0  0  0  0  0  0  0
    1.9902   -3.6007   -0.7163 N   0  0  0  0  0  0  0  0  0  0  0  0
    0.6896   -2.9214   -0.8210 C   0  0  2  0  0  0  0  0  0  0  0  0
    0.8666   -1.3830   -0.8905 C   0  0  0  0  0  0  0  0  0  0  0  0
    1.8813   -0.8581   -0.4557 O   0  0  0  0  0  0  0  0  0  0  0  0
   -0.1345   -3.3124    0.4068 C   0  0  0  0  0  0  0  0  0  0  0  0
    2.6453   -3.2046   -0.0450 H   0  0  0  0  0  0  0  0  0  0  0  0
    0.1610   -3.2630   -1.7126 H   0  0  0  0  0  0  0  0  0  0  0  0
    0.3638   -2.9853    1.3252 H   0  0  0  0  0  0  0  0  0  0  0  0
   -1.1263   -2.8533    0.3663 H   0  0  0  0  0  0  0  0  0  0  0  0
   -0.2610   -4.3989    0.4449 H   0  0  0  0  0  0  0  0  0  0  0  0
   -0.0426   -0.4719   -1.3879 N   0  0  0  0  0  0  0  0  0  0  0  0
   -1.3722   -0.7541   -1.9592 C   0  0  2  0  0  0  0  0  0  0  0  0
   -1.2589   -1.6722   -3.1932 C   0  0  0  0  0  0  0  0  0  0  0  0
   -1.9023   -2.7114   -3.2253 O   0  0  0  0  0  0  0  0  0  0  0  0
   -2.0773    0.5871   -2.2994 C   0  0  2  0  0  0  0  0  0  0  0  0
   -2.2557    1.4412   -1.0172 C   0  0  0  0  0  0  0  0  0  0  0  0
   -3.4486    0.3294   -2.9597 C   0  0  0  0  0  0  0  0  0  0  0  0
   -2.8050    2.8442   -1.2926 C   0  0  0  0  0  0  0  0  0  0  0  0
    0.2652    0.4948   -1.3139 H   0  0  0  0  0  0  0  0  0  0  0  0
   -1.9814   -1.2786   -1.2157 H   0  0  0  0  0  0  0  0  0  0  0  0
   -1.4520    1.1406   -3.0091 H   0  0  0  0  0  0  0  0  0  0  0  0
   -2.9237    0.9244   -0.3199 H   0  0  0  0  0  0  0  0  0  0  0  0
   -1.2917    1.5651   -0.5153 H   0  0  0  0  0  0  0  0  0  0  0  0
   -4.1052   -0.2207   -2.2782 H   0  0  0  0  0  0  0  0  0  0  0  0
   -3.9368    1.2686   -3.2314 H   0  0  0  0  0  0  0  0  0  0  0  0
   -3.3437   -0.2505   -3.8812 H   0  0  0  0  0  0  0  0  0  0  0  0
   -2.2074    3.3469   -2.0592 H   0  0  0  0  0  0  0  0  0  0  0  0
   -2.7669    3.4426   -0.3774 H   0  0  0  0  0  0  0  0  0  0  0  0
   -3.8460    2.8046   -1.6242 H   0  0  0  0  0  0  0  0  0  0  0  0
   -0.2978   -1.4241   -4.1523 N   0  0  0  0  0  0  0  0  0  0  0  0
    0.2829   -2.4715   -4.9997 C   0  0  2  0  0  0  0  0  0  0  0  0
    1.7912   -2.2219   -5.1986 C   0  0  0  0  0  0  0  0  0  0  0  0
    2.1996   -1.0772   -5.3651 O   0  0  0  0  0  0  0  0  0  0  0  0
   -0.4473   -2.4822   -6.3440 C   0  0  0  0  0  0  0  0  0  0  0  0
    0.2829   -0.5986   -4.0076 H   0  0  0  0  0  0  0  0  0  0  0  0
    0.1672   -3.4510   -4.5225 H   0  0  0  0  0  0  0  0  0  0  0  0
   -0.3450   -1.5138   -6.8440 H   0  0  0  0  0  0  0  0  0  0  0  0
   -0.0331   -3.2571   -6.9961 H   0  0  0  0  0  0  0  0  0  0  0  0
   -1.5117   -2.6879   -6.1940 H   0  0  0  0  0  0  0  0  0  0  0  0
    2.6934   -3.2648   -5.1298 N   0  0  0  0  0  0  0  0  0  0  0  0
    4.1346   -3.0530   -5.1511 C   0  0  0  0  0  0  0  0  0  0  0  0
    2.3431   -4.1100   -4.6726 H   0  0  0  0  0  0  0  0  0  0  0  0
    4.4343   -2.5442   -6.0736 H   0  0  0  0  0  0  0  0  0  0  0  0
    4.4450   -2.4440   -4.2956 H   0  0  0  0  0  0  0  0  0  0  0  0
    4.6563   -4.0138   -5.1031 H   0  0  0  0  0  0  0  0  0  0  0  0
  1  2  2  0  0  0  0
  1  3  1  0  0  0  0
  1  7  1  0  0  0  0
  3  4  1  0  0  0  0
  3  5  1  0  0  0  0
  3  6  1  0  0  0  0
  7  8  1  0  0  0  0
  7 12  1  0  0  0  0
  8  9  1  0  0  0  0
  8 11  1  0  0  0  0
  8 13  1  0  0  0  0
  9 10  2  0  0  0  0
  9 17  1  0  0  0  0
 11 14  1  0  0  0  0
 11 15  1  0  0  0  0
 11 16  1  0  0  0  0
 17 18  1  0  0  0  0
 17 25  1  0  0  0  0
 18 19  1  0  0  0  0
 18 21  1  0  0  0  0
 18 26  1  0  0  0  0
 19 20  2  0  0  0  0
 19 36  1  0  0  0  0
 21 22  1  0  0  0  0
 21 23  1  0  0  0  0
 21 27  1  0  0  0  0
 22 24  1  0  0  0  0
 22 28  1  0  0  0  0
 22 29  1  0  0  0  0
 23 30  1  0  0  0  0
 23 31  1  0  0  0  0
 23 32  1  0  0  0  0
 24 33  1  0  0  0  0
 24 34  1  0  0  0  0
 24 35  1  0  0  0  0
 36 37  1  0  0  0  0
 36 41  1  0  0  0  0
 37 38  1  0  0  0  0
 37 40  1  0  0  0  0
 37 42  1  0  0  0  0
 38 39  2  0  0  0  0
 38 46  1  0  0  0  0
 40 43  1  0  0  0  0
 40 44  1  0  0  0  0
 40 45  1  0  0  0  0
 46 47  1  0  0  0  0
 46 48  1  0  0  0  0
 47 49  1  0  0  0  0
 47 50  1  0  0  0  0
 47 51  1  0  0  0  0
M  END
$$$$

  -OEChem-02062319103D

 51 50  0     1  0  0  0  0  0999 V2000
    2.2600   -4.6300   -1.6893 C   0  0  0  0  0  0  0  0  0  0  0  0
    1.4525   -5.0909   -2.4850 O   0  0  0  0  0  0  0  0  0  0  0  0
    3.7056   -5.0874   -1.7371 C   0  0  0  0  0  0  0  0  0  0  0  0
    3.8325   -5.8626   -2.4979 H   0  0  0  0  0  0  0  0  0  0  0  0
    4.3554   -4.2433   -1.9816 H   0  0  0  0  0  0  0  0  0  0  0  0
    3.9996   -5.4953   -0.7668 H   0  0  0  0  0  0  0  0  0  0  0  0
    1.8856   -3.6672   -0.7748 N   0  0  0  0  0  0  0  0  0  0  0  0
    0.6018   -2.9510   -0.8044 C   0  0  2  0  0  0  0  0  0  0  0  0
    0.8170   -1.4157   -0.8461 C   0  0  0  0  0  0  0  0  0  0  0  0
    1.8896   -0.9394   -0.5038 O   0  0  0  0  0  0  0  0  0  0  0  0
   -0.1887   -3.3555    0.4412 C   0  0  0  0  0  0  0  0  0  0  0  0
    2.6454   -3.1979   -0.2839 H   0  0  0  0  0  0  0  0  0  0  0  0
    0.0386   -3.2518   -1.6870 H   0  0  0  0  0  0  0  0  0  0  0  0
    0.3446   -3.0580    1.3496 H   0  0  0  0  0  0  0  0  0  0  0  0
   -1.1741   -2.8810    0.4428 H   0  0  0  0  0  0  0  0  0  0  0  0
   -0.3322   -4.4405    0.4594 H   0  0  0  0  0  0  0  0  0  0  0  0
   -0.0603   -0.4624   -1.3250 N   0  0  0  0  0  0  0  0  0  0  0  0
   -1.4958   -0.6343   -1.6213 C   0  0  2  0  0  0  0  0  0  0  0  0
   -1.7214   -1.7135   -2.6999 C   0  0  0  0  0  0  0  0  0  0  0  0
   -2.4386   -2.6715   -2.4498 O   0  0  0  0  0  0  0  0  0  0  0  0
   -2.0920    0.7356   -2.0481 C   0  0  2  0  0  0  0  0  0  0  0  0
   -1.9525    1.7653   -0.8970 C   0  0  0  0  0  0  0  0  0  0  0  0
   -3.5758    0.5858   -2.4476 C   0  0  0  0  0  0  0  0  0  0  0  0
   -2.3752    3.1834   -1.2943 C   0  0  0  0  0  0  0  0  0  0  0  0
    0.3048    0.4841   -1.2503 H   0  0  0  0  0  0  0  0  0  0  0  0
   -2.0144   -0.9639   -0.7145 H   0  0  0  0  0  0  0  0  0  0  0  0
   -1.5368    1.1024   -2.9187 H   0  0  0  0  0  0  0  0  0  0  0  0
   -2.5481    1.4400   -0.0375 H   0  0  0  0  0  0  0  0  0  0  0  0
   -0.9102    1.8194   -0.5697 H   0  0  0  0  0  0  0  0  0  0  0  0
   -4.1647    0.2125   -1.6036 H   0  0  0  0  0  0  0  0  0  0  0  0
   -3.9959    1.5422   -2.7689 H   0  0  0  0  0  0  0  0  0  0  0  0
   -3.6936   -0.1078   -3.2853 H   0  0  0  0  0  0  0  0  0  0  0  0
   -1.8643    3.4939   -2.2109 H   0  0  0  0  0  0  0  0  0  0  0  0
   -2.1121    3.8856   -0.4973 H   0  0  0  0  0  0  0  0  0  0  0  0
   -3.4553    3.2456   -1.4524 H   0  0  0  0  0  0  0  0  0  0  0  0
   -0.9292   -1.7225   -3.8305 N   0  0  0  0  0  0  0  0  0  0  0  0
   -0.6223   -2.9286   -4.6083 C   0  0  2  0  0  0  0  0  0  0  0  0
    0.8208   -2.8564   -5.1481 C   0  0  0  0  0  0  0  0  0  0  0  0
    1.2658   -1.7835   -5.5435 O   0  0  0  0  0  0  0  0  0  0  0  0
   -1.6256   -3.0468   -5.7575 C   0  0  0  0  0  0  0  0  0  0  0  0
   -0.2696   -0.9505   -3.9272 H   0  0  0  0  0  0  0  0  0  0  0  0
   -0.6988   -3.8189   -3.9740 H   0  0  0  0  0  0  0  0  0  0  0  0
   -1.5731   -2.1657   -6.4051 H   0  0  0  0  0  0  0  0  0  0  0  0
   -1.4124   -3.9355   -6.3592 H   0  0  0  0  0  0  0  0  0  0  0  0
   -2.6435   -3.1314   -5.3642 H   0  0  0  0  0  0  0  0  0  0  0  0
    1.6420   -3.9663   -5.1256 N   0  0  0  0  0  0  0  0  0  0  0  0
    3.0562   -3.8976   -5.4691 C   0  0  0  0  0  0  0  0  0  0  0  0
    1.3439   -4.7188   -4.4997 H   0  0  0  0  0  0  0  0  0  0  0  0
    3.1844   -3.5421   -6.4969 H   0  0  0  0  0  0  0  0  0  0  0  0
    3.5824   -3.2171   -4.7918 H   0  0  0  0  0  0  0  0  0  0  0  0
    3.5118   -4.8892   -5.3884 H   0  0  0  0  0  0  0  0  0  0  0  0
  1  2  2  0  0  0  0
  1  3  1  0  0  0  0
  1  7  1  0  0  0  0
  3  4  1  0  0  0  0
  3  5  1  0  0  0  0
  3  6  1  0  0  0  0
  7  8  1  0  0  0  0
  7 12  1  0  0  0  0
  8  9  1  0  0  0  0
  8 11  1  0  0  0  0
  8 13  1  0  0  0  0
  9 10  2  0  0  0  0
  9 17  1  0  0  0  0
 11 14  1  0  0  0  0
 11 15  1  0  0  0  0
 11 16  1  0  0  0  0
 17 18  1  0  0  0  0
 17 25  1  0  0  0  0
 18 19  1  0  0  0  0
 18 21  1  0  0  0  0
 18 26  1  0  0  0  0
 19 20  2  0  0  0  0
 19 36  1  0  0  0  0
 21 22  1  0  0  0  0
 21 23  1  0  0  0  0
 21 27  1  0  0  0  0
 22 24  1  0  0  0  0
 22 28  1  0  0  0  0
 22 29  1  0  0  0  0
 23 30  1  0  0  0  0
 23 31  1  0  0  0  0
 23 32  1  0  0  0  0
 24 33  1  0  0  0  0
 24 34  1  0  0  0  0
 24 35  1  0  0  0  0
 36 37  1  0  0  0  0
 36 41  1  0  0  0  0
 37 38  1  0  0  0  0
 37 40  1  0  0  0  0
 37 42  1  0  0  0  0
 38 39  2  0  0  0  0
 38 46  1  0  0  0  0
 40 43  1  0  0  0  0
 40 44  1  0  0  0  0
 40 45  1  0  0  0  0
 46 47  1  0  0  0  0
 46 48  1  0  0  0  0
 47 49  1  0  0  0  0
 47 50  1  0  0  0  0
 47 51  1  0  0  0  0
M  END
$$$$

  -OEChem-02062319103D

 51 50  0     1  0  0  0  0  0999 V2000
    1.9494   -4.8390   -1.5698 C   0  0  0  0  0  0  0  0  0  0  0  0
    0.9843   -5.3839   -2.0889 O   0  0  0  0  0  0  0  0  0  0  0  0
    3.3389   -5.4132   -1.7726 C   0  0  0  0  0  0  0  0  0  0  0  0
    3.2832   -6.3501   -2.3338 H   0  0  0  0  0  0  0  0  0  0  0  0
    3.9570   -4.7045   -2.3294 H   0  0  0  0  0  0  0  0  0  0  0  0
    3.8065   -5.6111   -0.8050 H   0  0  0  0  0  0  0  0  0  0  0  0
    1.7900   -3.6811   -0.8374 N   0  0  0  0  0  0  0  0  0  0  0  0
    0.5346   -2.9240   -0.7485 C   0  0  2  0  0  0  0  0  0  0  0  0
    0.7855   -1.3942   -0.7632 C   0  0  0  0  0  0  0  0  0  0  0  0
    1.9011   -0.9629   -0.5094 O   0  0  0  0  0  0  0  0  0  0  0  0
   -0.1842   -3.3417    0.5366 C   0  0  0  0  0  0  0  0  0  0  0  0
    2.6371   -3.1919   -0.5500 H   0  0  0  0  0  0  0  0  0  0  0  0
   -0.0880   -3.1824   -1.6015 H   0  0  0  0  0  0  0  0  0  0  0  0
    0.4259   -3.1027    1.4134 H   0  0  0  0  0  0  0  0  0  0  0  0
   -1.1440   -2.8251    0.6279 H   0  0  0  0  0  0  0  0  0  0  0  0
   -0.3766   -4.4192    0.5272 H   0  0  0  0  0  0  0  0  0  0  0  0
   -0.0546   -0.4101   -1.2492 N   0  0  0  0  0  0  0  0  0  0  0  0
   -1.5308   -0.4543   -1.2936 C   0  0  2  0  0  0  0  0  0  0  0  0
   -2.0523   -1.6313   -2.1449 C   0  0  0  0  0  0  0  0  0  0  0  0
   -2.8008   -2.4568   -1.6425 O   0  0  0  0  0  0  0  0  0  0  0  0
   -2.0595    0.9102   -1.8180 C   0  0  2  0  0  0  0  0  0  0  0  0
   -1.6337    2.0541   -0.8607 C   0  0  0  0  0  0  0  0  0  0  0  0
   -3.5967    0.8871   -1.9637 C   0  0  0  0  0  0  0  0  0  0  0  0
   -2.0017    3.4497   -1.3746 C   0  0  0  0  0  0  0  0  0  0  0  0
    0.3824    0.5077   -1.2163 H   0  0  0  0  0  0  0  0  0  0  0  0
   -1.9121   -0.5994   -0.2768 H   0  0  0  0  0  0  0  0  0  0  0  0
   -1.6240    1.0967   -2.8062 H   0  0  0  0  0  0  0  0  0  0  0  0
   -2.0916    1.9014    0.1224 H   0  0  0  0  0  0  0  0  0  0  0  0
   -0.5491    2.0389   -0.7219 H   0  0  0  0  0  0  0  0  0  0  0  0
   -4.0714    0.7070   -0.9940 H   0  0  0  0  0  0  0  0  0  0  0  0
   -3.9684    1.8342   -2.3631 H   0  0  0  0  0  0  0  0  0  0  0  0
   -3.9197    0.1053   -2.6573 H   0  0  0  0  0  0  0  0  0  0  0  0
   -1.6432    3.5888   -2.3992 H   0  0  0  0  0  0  0  0  0  0  0  0
   -1.5386    4.2120   -0.7405 H   0  0  0  0  0  0  0  0  0  0  0  0
   -3.0835    3.6076   -1.3531 H   0  0  0  0  0  0  0  0  0  0  0  0
   -1.4764   -1.8871   -3.3741 N   0  0  0  0  0  0  0  0  0  0  0  0
   -1.4726   -3.1972   -4.0365 C   0  0  2  0  0  0  0  0  0  0  0  0
   -0.1680   -3.3777   -4.8399 C   0  0  0  0  0  0  0  0  0  0  0  0
    0.2999   -2.4226   -5.4515 O   0  0  0  0  0  0  0  0  0  0  0  0
   -2.6915   -3.2953   -4.9561 C   0  0  0  0  0  0  0  0  0  0  0  0
   -0.7789   -1.2173   -3.6994 H   0  0  0  0  0  0  0  0  0  0  0  0
   -1.5236   -3.9986   -3.2911 H   0  0  0  0  0  0  0  0  0  0  0  0
   -2.6689   -2.5004   -5.7086 H   0  0  0  0  0  0  0  0  0  0  0  0
   -2.7035   -4.2618   -5.4692 H   0  0  0  0  0  0  0  0  0  0  0  0
   -3.6141   -3.2003   -4.3748 H   0  0  0  0  0  0  0  0  0  0  0  0
    0.5179   -4.5763   -4.8247 N   0  0  0  0  0  0  0  0  0  0  0  0
    1.8257   -4.7342   -5.4473 C   0  0  0  0  0  0  0  0  0  0  0  0
    0.2876   -5.2063   -4.0524 H   0  0  0  0  0  0  0  0  0  0  0  0
    1.7783   -4.4833   -6.5123 H   0  0  0  0  0  0  0  0  0  0  0  0
    2.5610   -4.0833   -4.9633 H   0  0  0  0  0  0  0  0  0  0  0  0
    2.1630   -5.7709   -5.3526 H   0  0  0  0  0  0  0  0  0  0  0  0
  1  2  2  0  0  0  0
  1  3  1  0  0  0  0
  1  7  1  0  0  0  0
  3  4  1  0  0  0  0
  3  5  1  0  0  0  0
  3  6  1  0  0  0  0
  7  8  1  0  0  0  0
  7 12  1  0  0  0  0
  8  9  1  0  0  0  0
  8 11  1  0  0  0  0
  8 13  1  0  0  0  0
  9 10  2  0  0  0  0
  9 17  1  0  0  0  0
 11 14  1  0  0  0  0
 11 15  1  0  0  0  0
 11 16  1  0  0  0  0
 17 18  1  0  0  0  0
 17 25  1  0  0  0  0
 18 19  1  0  0  0  0
 18 21  1  0  0  0  0
 18 26  1  0  0  0  0
 19 20  2  0  0  0  0
 19 36  1  0  0  0  0
 21 22  1  0  0  0  0
 21 23  1  0  0  0  0
 21 27  1  0  0  0  0
 22 24  1  0  0  0  0
 22 28  1  0  0  0  0
 22 29  1  0  0  0  0
 23 30  1  0  0  0  0
 23 31  1  0  0  0  0
 23 32  1  0  0  0  0
 24 33  1  0  0  0  0
 24 34  1  0  0  0  0
 24 35  1  0  0  0  0
 36 37  1  0  0  0  0
 36 41  1  0  0  0  0
 37 38  1  0  0  0  0
 37 40  1  0  0  0  0
 37 42  1  0  0  0  0
 38 39  2  0  0  0  0
 38 46  1  0  0  0  0
 40 43  1  0  0  0  0
 40 44  1  0  0  0  0
 40 45  1  0  0  0  0
 46 47  1  0  0  0  0
 46 48  1  0  0  0  0
 47 49  1  0  0  0  0
 47 50  1  0  0  0  0
 47 51  1  0  0  0  0
M  END
$$$$

  -OEChem-02062319103D

 51 50  0     1  0  0  0  0  0999 V2000
    1.6509   -4.9751   -1.4004 C   0  0  0  0  0  0  0  0  0  0  0  0
    0.6037   -5.5059   -1.7468 O   0  0  0  0  0  0  0  0  0  0  0  0
    2.9747   -5.6654   -1.6676 C   0  0  0  0  0  0  0  0  0  0  0  0
    2.8093   -6.6087   -2.1958 H   0  0  0  0  0  0  0  0  0  0  0  0
    3.6129   -5.0250   -2.2816 H   0  0  0  0  0  0  0  0  0  0  0  0
    3.4826   -5.8750   -0.7230 H   0  0  0  0  0  0  0  0  0  0  0  0
    1.6345   -3.7385   -0.7897 N   0  0  0  0  0  0  0  0  0  0  0  0
    0.4262   -2.9282   -0.5937 C   0  0  2  0  0  0  0  0  0  0  0  0
    0.7297   -1.4088   -0.5878 C   0  0  0  0  0  0  0  0  0  0  0  0
    1.8725   -1.0345   -0.3664 O   0  0  0  0  0  0  0  0  0  0  0  0
   -0.2149   -3.3422    0.7354 C   0  0  0  0  0  0  0  0  0  0  0  0
    2.5295   -3.2882   -0.6005 H   0  0  0  0  0  0  0  0  0  0  0  0
   -0.2607   -3.1432   -1.4061 H   0  0  0  0  0  0  0  0  0  0  0  0
    0.4838   -3.1830    1.5628 H   0  0  0  0  0  0  0  0  0  0  0  0
   -1.1193   -2.7590    0.9298 H   0  0  0  0  0  0  0  0  0  0  0  0
   -0.4910   -4.4011    0.7106 H   0  0  0  0  0  0  0  0  0  0  0  0
   -0.0355   -0.3908   -1.1267 N   0  0  0  0  0  0  0  0  0  0  0  0
   -1.5019   -0.2599   -0.9847 C   0  0  2  0  0  0  0  0  0  0  0  0
   -2.2732   -1.4605   -1.5762 C   0  0  0  0  0  0  0  0  0  0  0  0
   -3.0298   -2.1097   -0.8696 O   0  0  0  0  0  0  0  0  0  0  0  0
   -1.9579    1.0782   -1.6339 C   0  0  2  0  0  0  0  0  0  0  0  0
   -1.2448    2.2808   -0.9600 C   0  0  0  0  0  0  0  0  0  0  0  0
   -3.4899    1.2439   -1.5277 C   0  0  0  0  0  0  0  0  0  0  0  0
   -1.5880    3.6322   -1.5954 C   0  0  0  0  0  0  0  0  0  0  0  0
    0.4917    0.4787   -1.1449 H   0  0  0  0  0  0  0  0  0  0  0  0
   -1.7459   -0.2214    0.0832 H   0  0  0  0  0  0  0  0  0  0  0  0
   -1.6875    1.0605   -2.6958 H   0  0  0  0  0  0  0  0  0  0  0  0
   -1.5002    2.3110    0.1046 H   0  0  0  0  0  0  0  0  0  0  0  0
   -0.1605    2.1590   -1.0346 H   0  0  0  0  0  0  0  0  0  0  0  0
   -3.7981    1.2977   -0.4787 H   0  0  0  0  0  0  0  0  0  0  0  0
   -3.8225    2.1524   -2.0361 H   0  0  0  0  0  0  0  0  0  0  0  0
   -4.0168    0.4100   -2.0000 H   0  0  0  0  0  0  0  0  0  0  0  0
   -1.4448    3.5943   -2.6798 H   0  0  0  0  0  0  0  0  0  0  0  0
   -0.9357    4.4105   -1.1875 H   0  0  0  0  0  0  0  0  0  0  0  0
   -2.6222    3.9176   -1.3838 H   0  0  0  0  0  0  0  0  0  0  0  0
   -1.9117   -1.9465   -2.8182 N   0  0  0  0  0  0  0  0  0  0  0  0
   -2.2166   -3.2873   -3.3311 C   0  0  2  0  0  0  0  0  0  0  0  0
   -1.1651   -3.6924   -4.3854 C   0  0  0  0  0  0  0  0  0  0  0  0
   -0.8196   -2.8763   -5.2337 O   0  0  0  0  0  0  0  0  0  0  0  0
   -3.6215   -3.2901   -3.9398 C   0  0  0  0  0  0  0  0  0  0  0  0
   -1.2318   -1.3998   -3.3466 H   0  0  0  0  0  0  0  0  0  0  0  0
   -2.1806   -4.0173   -2.5151 H   0  0  0  0  0  0  0  0  0  0  0  0
   -3.6875   -2.5637   -4.7559 H   0  0  0  0  0  0  0  0  0  0  0  0
   -3.8619   -4.2816   -4.3349 H   0  0  0  0  0  0  0  0  0  0  0  0
   -4.3662   -3.0308   -3.1811 H   0  0  0  0  0  0  0  0  0  0  0  0
   -0.5441   -4.9254   -4.3392 N   0  0  0  0  0  0  0  0  0  0  0  0
    0.5687   -5.2687   -5.2149 C   0  0  0  0  0  0  0  0  0  0  0  0
   -0.6007   -5.4186   -3.4446 H   0  0  0  0  0  0  0  0  0  0  0  0
    0.2771   -5.1687   -6.2657 H   0  0  0  0  0  0  0  0  0  0  0  0
    1.4248   -4.6138   -5.0220 H   0  0  0  0  0  0  0  0  0  0  0  0
    0.8769   -6.3041   -5.0410 H   0  0  0  0  0  0  0  0  0  0  0  0
  1  2  2  0  0  0  0
  1  3  1  0  0  0  0
  1  7  1  0  0  0  0
  3  4  1  0  0  0  0
  3  5  1  0  0  0  0
  3  6  1  0  0  0  0
  7  8  1  0  0  0  0
  7 12  1  0  0  0  0
  8  9  1  0  0  0  0
  8 11  1  0  0  0  0
  8 13  1  0  0  0  0
  9 10  2  0  0  0  0
  9 17  1  0  0  0  0
 11 14  1  0  0  0  0
 11 15  1  0  0  0  0
 11 16  1  0  0  0  0
 17 18  1  0  0  0  0
 17 25  1  0  0  0  0
 18 19  1  0  0  0  0
 18 21  1  0  0  0  0
 18 26  1  0  0  0  0
 19 20  2  0  0  0  0
 19 36  1  0  0  0  0
 21 22  1  0  0  0  0
 21 23  1  0  0  0  0
 21 27  1  0  0  0  0
 22 24  1  0  0  0  0
 22 28  1  0  0  0  0
 22 29  1  0  0  0  0
 23 30  1  0  0  0  0
 23 31  1  0  0  0  0
 23 32  1  0  0  0  0
 24 33  1  0  0  0  0
 24 34  1  0  0  0  0
 24 35  1  0  0  0  0
 36 37  1  0  0  0  0
 36 41  1  0  0  0  0
 37 38  1  0  0  0  0
 37 40  1  0  0  0  0
 37 42  1  0  0  0  0
 38 39  2  0  0  0  0
 38 46  1  0  0  0  0
 40 43  1  0  0  0  0
 40 44  1  0  0  0  0
 40 45  1  0  0  0  0
 46 47  1  0  0  0  0
 46 48  1  0  0  0  0
 47 49  1  0  0  0  0
 47 50  1  0  0  0  0
 47 51  1  0  0  0  0
M  END
$$$$

  -OEChem-02062319103D

 51 50  0     1  0  0  0  0  0999 V2000
    1.5654   -4.9297   -1.2971 C   0  0  0  0  0  0  0  0  0  0  0  0
    0.4962   -5.4817   -1.5145 O   0  0  0  0  0  0  0  0  0  0  0  0
    2.8648   -5.6222   -1.6620 C   0  0  0  0  0  0  0  0  0  0  0  0
    2.6615   -6.6198   -2.0612 H   0  0  0  0  0  0  0  0  0  0  0  0
    3.3963   -5.0409   -2.4194 H   0  0  0  0  0  0  0  0  0  0  0  0
    3.4977   -5.7195   -0.7767 H   0  0  0  0  0  0  0  0  0  0  0  0
    1.5960   -3.6771   -0.7204 N   0  0  0  0  0  0  0  0  0  0  0  0
    0.4053   -2.8598   -0.4605 C   0  0  2  0  0  0  0  0  0  0  0  0
    0.7353   -1.3488   -0.4017 C   0  0  0  0  0  0  0  0  0  0  0  0
    1.8879   -1.0064   -0.1786 O   0  0  0  0  0  0  0  0  0  0  0  0
   -0.2062   -3.3129    0.8708 C   0  0  0  0  0  0  0  0  0  0  0  0
    2.5018   -3.2215   -0.6156 H   0  0  0  0  0  0  0  0  0  0  0  0
   -0.3009   -3.0291   -1.2694 H   0  0  0  0  0  0  0  0  0  0  0  0
   -1.0850   -2.7139    1.1222 H   0  0  0  0  0  0  0  0  0  0  0  0
    0.5239   -3.2090    1.6798 H   0  0  0  0  0  0  0  0  0  0  0  0
   -0.5135   -4.3614    0.8120 H   0  0  0  0  0  0  0  0  0  0  0  0
    0.0253   -0.3150   -0.9798 N   0  0  0  0  0  0  0  0  0  0  0  0
   -1.3889   -0.0101   -0.6735 C   0  0  2  0  0  0  0  0  0  0  0  0
   -2.3571   -1.1685   -1.0012 C   0  0  0  0  0  0  0  0  0  0  0  0
   -3.1269   -1.5905   -0.1504 O   0  0  0  0  0  0  0  0  0  0  0  0
   -1.7864    1.2947   -1.4221 C   0  0  2  0  0  0  0  0  0  0  0  0
   -0.9129    2.4815   -0.9356 C   0  0  0  0  0  0  0  0  0  0  0  0
   -3.2816    1.6244   -1.2152 C   0  0  0  0  0  0  0  0  0  0  0  0
   -1.1341    3.7701   -1.7339 C   0  0  0  0  0  0  0  0  0  0  0  0
    0.6289    0.4993   -1.0628 H   0  0  0  0  0  0  0  0  0  0  0  0
   -1.4781    0.1742    0.4031 H   0  0  0  0  0  0  0  0  0  0  0  0
   -1.6138    1.1452   -2.4939 H   0  0  0  0  0  0  0  0  0  0  0  0
   -1.1126    2.6753    0.1236 H   0  0  0  0  0  0  0  0  0  0  0  0
    0.1467    2.2281   -1.0275 H   0  0  0  0  0  0  0  0  0  0  0  0
   -3.4987    1.7731   -0.1525 H   0  0  0  0  0  0  0  0  0  0  0  0
   -3.5637    2.5302   -1.7577 H   0  0  0  0  0  0  0  0  0  0  0  0
   -3.9229    0.8216   -1.5905 H   0  0  0  0  0  0  0  0  0  0  0  0
   -1.0429    3.5775   -2.8076 H   0  0  0  0  0  0  0  0  0  0  0  0
   -0.3825    4.5136   -1.4516 H   0  0  0  0  0  0  0  0  0  0  0  0
   -2.1203    4.1972   -1.5326 H   0  0  0  0  0  0  0  0  0  0  0  0
   -2.2349   -1.8361   -2.2033 N   0  0  0  0  0  0  0  0  0  0  0  0
   -2.8029   -3.1555   -2.5043 C   0  0  2  0  0  0  0  0  0  0  0  0
   -1.9427   -3.8837   -3.5603 C   0  0  0  0  0  0  0  0  0  0  0  0
   -1.1783   -3.2349   -4.2694 O   0  0  0  0  0  0  0  0  0  0  0  0
   -4.2361   -2.9748   -3.0115 C   0  0  0  0  0  0  0  0  0  0  0  0
   -1.5041   -1.5084   -2.8369 H   0  0  0  0  0  0  0  0  0  0  0  0
   -2.8114   -3.7713   -1.5983 H   0  0  0  0  0  0  0  0  0  0  0  0
   -4.2459   -2.3603   -3.9175 H   0  0  0  0  0  0  0  0  0  0  0  0
   -4.6854   -3.9453   -3.2431 H   0  0  0  0  0  0  0  0  0  0  0  0
   -4.8497   -2.4835   -2.2499 H   0  0  0  0  0  0  0  0  0  0  0  0
   -2.0119   -5.2563   -3.7034 N   0  0  0  0  0  0  0  0  0  0  0  0
   -1.1014   -5.9978   -4.5671 C   0  0  0  0  0  0  0  0  0  0  0  0
   -2.4850   -5.7660   -2.9628 H   0  0  0  0  0  0  0  0  0  0  0  0
   -1.1842   -5.6491   -5.6018 H   0  0  0  0  0  0  0  0  0  0  0  0
   -0.0663   -5.8697   -4.2333 H   0  0  0  0  0  0  0  0  0  0  0  0
   -1.3441   -7.0644   -4.5430 H   0  0  0  0  0  0  0  0  0  0  0  0
  1  2  2  0  0  0  0
  1  3  1  0  0  0  0
  1  7  1  0  0  0  0
  3  4  1  0  0  0  0
  3  5  1  0  0  0  0
  3  6  1  0  0  0  0
  7  8  1  0  0  0  0
  7 12  1  0  0  0  0
  8  9  1  0  0  0  0
  8 11  1  0  0  0  0
  8 13  1  0  0  0  0
  9 10  2  0  0  0  0
  9 17  1  0  0  0  0
 11 14  1  0  0  0  0
 11 15  1  0  0  0  0
 11 16  1  0  0  0  0
 17 18  1  0  0  0  0
 17 25  1  0  0  0  0
 18 19  1  0  0  0  0
 18 21  1  0  0  0  0
 18 26  1  0  0  0  0
 19 20  2  0  0  0  0
 19 36  1  0  0  0  0
 21 22  1  0  0  0  0
 21 23  1  0  0  0  0
 21 27  1  0  0  0  0
 22 24  1  0  0  0  0
 22 28  1  0  0  0  0
 22 29  1  0  0  0  0
 23 30  1  0  0  0  0
 23 31  1  0  0  0  0
 23 32  1  0  0  0  0
 24 33  1  0  0  0  0
 24 34  1  0  0  0  0
 24 35  1  0  0  0  0
 36 37  1  0  0  0  0
 36 41  1  0  0  0  0
 37 38  1  0  0  0  0
 37 40  1  0  0  0  0
 37 42  1  0  0  0  0
 38 39  2  0  0  0  0
 38 46  1  0  0  0  0
 40 43  1  0  0  0  0
 40 44  1  0  0  0  0
 40 45  1  0  0  0  0
 46 47  1  0  0  0  0
 46 48  1  0  0  0  0
 47 49  1  0  0  0  0
 47 50  1  0  0  0  0
 47 51  1  0  0  0  0
M  END
$$$$

  -OEChem-02062319103D

 51 50  0     1  0  0  0  0  0999 V2000
    1.3935   -4.9782   -1.1490 C   0  0  0  0  0  0  0  0  0  0  0  0
    0.3036   -5.5083   -1.3046 O   0  0  0  0  0  0  0  0  0  0  0  0
    2.6619   -5.7313   -1.5026 C   0  0  0  0  0  0  0  0  0  0  0  0
    2.4181   -6.7394   -1.8490 H   0  0  0  0  0  0  0  0  0  0  0  0
    3.1974   -5.2059   -2.2970 H   0  0  0  0  0  0  0  0  0  0  0  0
    3.3080   -5.8070   -0.6247 H   0  0  0  0  0  0  0  0  0  0  0  0
    1.4787   -3.6976   -0.6438 N   0  0  0  0  0  0  0  0  0  0  0  0
    0.3271   -2.8341   -0.3551 C   0  0  2  0  0  0  0  0  0  0  0  0
    0.7351   -1.3421   -0.2816 C   0  0  0  0  0  0  0  0  0  0  0  0
    1.9052   -1.0649   -0.0582 O   0  0  0  0  0  0  0  0  0  0  0  0
   -0.2793   -3.2797    0.9827 C   0  0  0  0  0  0  0  0  0  0  0  0
    2.4034   -3.2769   -0.5607 H   0  0  0  0  0  0  0  0  0  0  0  0
   -0.4009   -2.9544   -1.1578 H   0  0  0  0  0  0  0  0  0  0  0  0
    0.4722   -3.2268    1.7769 H   0  0  0  0  0  0  0  0  0  0  0  0
   -1.1203   -2.6432    1.2655 H   0  0  0  0  0  0  0  0  0  0  0  0
   -0.6416   -4.3100    0.9161 H   0  0  0  0  0  0  0  0  0  0  0  0
    0.1079   -0.2923   -0.9208 N   0  0  0  0  0  0  0  0  0  0  0  0
   -1.1898    0.2448   -0.4594 C   0  0  2  0  0  0  0  0  0  0  0  0
   -2.3275   -0.7994   -0.4791 C   0  0  0  0  0  0  0  0  0  0  0  0
   -3.0038   -0.9966    0.5201 O   0  0  0  0  0  0  0  0  0  0  0  0
   -1.5452    1.4956   -1.3136 C   0  0  2  0  0  0  0  0  0  0  0  0
   -0.4629    2.5941   -1.1386 C   0  0  0  0  0  0  0  0  0  0  0  0
   -2.9316    2.0547   -0.9246 C   0  0  0  0  0  0  0  0  0  0  0  0
   -0.6719    3.8114   -2.0456 C   0  0  0  0  0  0  0  0  0  0  0  0
    0.8026    0.4272   -1.1061 H   0  0  0  0  0  0  0  0  0  0  0  0
   -1.0807    0.5647    0.5833 H   0  0  0  0  0  0  0  0  0  0  0  0
   -1.5781    1.1986   -2.3679 H   0  0  0  0  0  0  0  0  0  0  0  0
   -0.4393    2.9243   -0.0946 H   0  0  0  0  0  0  0  0  0  0  0  0
    0.5232    2.1853   -1.3753 H   0  0  0  0  0  0  0  0  0  0  0  0
   -2.9414    2.3574    0.1275 H   0  0  0  0  0  0  0  0  0  0  0  0
   -3.1942    2.9197   -1.5385 H   0  0  0  0  0  0  0  0  0  0  0  0
   -3.7189    1.3108   -1.0781 H   0  0  0  0  0  0  0  0  0  0  0  0
   -0.7983    3.4977   -3.0864 H   0  0  0  0  0  0  0  0  0  0  0  0
    0.1993    4.4708   -1.9868 H   0  0  0  0  0  0  0  0  0  0  0  0
   -1.5489    4.3884   -1.7401 H   0  0  0  0  0  0  0  0  0  0  0  0
   -2.4803   -1.6180   -1.5790 N   0  0  0  0  0  0  0  0  0  0  0  0
   -3.2705   -2.8536   -1.6226 C   0  0  2  0  0  0  0  0  0  0  0  0
   -2.7242   -3.8008   -2.7131 C   0  0  0  0  0  0  0  0  0  0  0  0
   -2.0174   -3.3453   -3.6078 O   0  0  0  0  0  0  0  0  0  0  0  0
   -4.7342   -2.5019   -1.9038 C   0  0  0  0  0  0  0  0  0  0  0  0
   -1.8371   -1.4677   -2.3579 H   0  0  0  0  0  0  0  0  0  0  0  0
   -3.1982   -3.3716   -0.6604 H   0  0  0  0  0  0  0  0  0  0  0  0
   -4.8242   -1.9801   -2.8618 H   0  0  0  0  0  0  0  0  0  0  0  0
   -5.3453   -3.4087   -1.9419 H   0  0  0  0  0  0  0  0  0  0  0  0
   -5.1291   -1.8538   -1.1153 H   0  0  0  0  0  0  0  0  0  0  0  0
   -3.0047   -5.1536   -2.6800 N   0  0  0  0  0  0  0  0  0  0  0  0
   -2.3714   -6.1071   -3.5835 C   0  0  0  0  0  0  0  0  0  0  0  0
   -3.4518   -5.5108   -1.8413 H   0  0  0  0  0  0  0  0  0  0  0  0
   -2.5810   -5.8465   -4.6262 H   0  0  0  0  0  0  0  0  0  0  0  0
   -1.2868   -6.1153   -3.4339 H   0  0  0  0  0  0  0  0  0  0  0  0
   -2.7544   -7.1151   -3.3976 H   0  0  0  0  0  0  0  0  0  0  0  0
  1  2  2  0  0  0  0
  1  3  1  0  0  0  0
  1  7  1  0  0  0  0
  3  4  1  0  0  0  0
  3  5  1  0  0  0  0
  3  6  1  0  0  0  0
  7  8  1  0  0  0  0
  7 12  1  0  0  0  0
  8  9  1  0  0  0  0
  8 11  1  0  0  0  0
  8 13  1  0  0  0  0
  9 10  2  0  0  0  0
  9 17  1  0  0  0  0
 11 14  1  0  0  0  0
 11 15  1  0  0  0  0
 11 16  1  0  0  0  0
 17 18  1  0  0  0  0
 17 25  1  0  0  0  0
 18 19  1  0  0  0  0
 18 21  1  0  0  0  0
 18 26  1  0  0  0  0
 19 20  2  0  0  0  0
 19 36  1  0  0  0  0
 21 22  1  0  0  0  0
 21 23  1  0  0  0  0
 21 27  1  0  0  0  0
 22 24  1  0  0  0  0
 22 28  1  0  0  0  0
 22 29  1  0  0  0  0
 23 30  1  0  0  0  0
 23 31  1  0  0  0  0
 23 32  1  0  0  0  0
 24 33  1  0  0  0  0
 24 34  1  0  0  0  0
 24 35  1  0  0  0  0
 36 37  1  0  0  0  0
 36 41  1  0  0  0  0
 37 38  1  0  0  0  0
 37 40  1  0  0  0  0
 37 42  1  0  0  0  0
 38 39  2  0  0  0  0
 38 46  1  0  0  0  0
 40 43  1  0  0  0  0
 40 44  1  0  0  0  0
 40 45  1  0  0  0  0
 46 47  1  0  0  0  0
 46 48  1  0  0  0  0
 47 49  1  0  0  0  0
 47 50  1  0  0  0  0
 47 51  1  0  0  0  0
M  END
$$$$

  -OEChem-02062319103D

 51 50  0     1  0  0  0  0  0999 V2000
    0.9209   -3.1436   -2.3091 C   0  0  0  0  0  0  0  0  0  0  0  0
    0.2787   -2.1382   -2.5817 O   0  0  0  0  0  0  0  0  0  0  0  0
    1.7530   -3.8289   -3.3755 C   0  0  0  0  0  0  0  0  0  0  0  0
    1.6927   -3.2753   -4.3167 H   0  0  0  0  0  0  0  0  0  0  0  0
    2.7989   -3.8767   -3.0625 H   0  0  0  0  0  0  0  0  0  0  0  0
    1.3828   -4.8439   -3.5412 H   0  0  0  0  0  0  0  0  0  0  0  0
    0.9143   -3.6332   -1.0192 N   0  0  0  0  0  0  0  0  0  0  0  0
   -0.0112   -3.2000    0.0417 C   0  0  2  0  0  0  0  0  0  0  0  0
    0.2936   -1.7765    0.5862 C   0  0  0  0  0  0  0  0  0  0  0  0
    0.2868   -1.5833    1.7933 O   0  0  0  0  0  0  0  0  0  0  0  0
    0.0467   -4.2772    1.1338 C   0  0  0  0  0  0  0  0  0  0  0  0
    1.4338   -4.4929   -0.8629 H   0  0  0  0  0  0  0  0  0  0  0  0
   -1.0272   -3.2039   -0.3463 H   0  0  0  0  0  0  0  0  0  0  0  0
   -0.6764   -4.0558    1.9255 H   0  0  0  0  0  0  0  0  0  0  0  0
    1.0452   -4.3207    1.5803 H   0  0  0  0  0  0  0  0  0  0  0  0
   -0.1968   -5.2590    0.7156 H   0  0  0  0  0  0  0  0  0  0  0  0
    0.0845   -0.6412   -0.1779 N   0  0  0  0  0  0  0  0  0  0  0  0
   -1.2171    0.0613   -0.1321 C   0  0  2  0  0  0  0  0  0  0  0  0
   -2.4322   -0.7910   -0.5712 C   0  0  0  0  0  0  0  0  0  0  0  0
   -3.4526   -0.8192    0.1063 O   0  0  0  0  0  0  0  0  0  0  0  0
   -1.1010    1.3600   -0.9819 C   0  0  2  0  0  0  0  0  0  0  0  0
    0.0376    2.2630   -0.4371 C   0  0  0  0  0  0  0  0  0  0  0  0
   -2.4338    2.1404   -0.9875 C   0  0  0  0  0  0  0  0  0  0  0  0
    0.3013    3.5039   -1.2960 C   0  0  0  0  0  0  0  0  0  0  0  0
    0.3746   -0.8210   -1.1408 H   0  0  0  0  0  0  0  0  0  0  0  0
   -1.4052    0.3538    0.9078 H   0  0  0  0  0  0  0  0  0  0  0  0
   -0.8627    1.0788   -2.0136 H   0  0  0  0  0  0  0  0  0  0  0  0
   -0.1985    2.5756    0.5855 H   0  0  0  0  0  0  0  0  0  0  0  0
    0.9724    1.6965   -0.3965 H   0  0  0  0  0  0  0  0  0  0  0  0
   -2.7090    2.4349    0.0305 H   0  0  0  0  0  0  0  0  0  0  0  0
   -2.3606    3.0403   -1.6029 H   0  0  0  0  0  0  0  0  0  0  0  0
   -3.2460    1.5394   -1.4060 H   0  0  0  0  0  0  0  0  0  0  0  0
    0.4351    3.2231   -2.3452 H   0  0  0  0  0  0  0  0  0  0  0  0
    1.2118    4.0044   -0.9527 H   0  0  0  0  0  0  0  0  0  0  0  0
   -0.5223    4.2191   -1.2220 H   0  0  0  0  0  0  0  0  0  0  0  0
   -2.3793   -1.5817   -1.7047 N   0  0  0  0  0  0  0  0  0  0  0  0
   -3.4467   -2.4974   -2.1304 C   0  0  2  0  0  0  0  0  0  0  0  0
   -3.4982   -3.7750   -1.2592 C   0  0  0  0  0  0  0  0  0  0  0  0
   -3.0808   -4.8535   -1.6664 O   0  0  0  0  0  0  0  0  0  0  0  0
   -3.2210   -2.8030   -3.6157 C   0  0  0  0  0  0  0  0  0  0  0  0
   -1.4796   -1.6342   -2.1899 H   0  0  0  0  0  0  0  0  0  0  0  0
   -4.4167   -1.9978   -2.0352 H   0  0  0  0  0  0  0  0  0  0  0  0
   -2.2520   -3.2900   -3.7671 H   0  0  0  0  0  0  0  0  0  0  0  0
   -4.0058   -3.4691   -3.9889 H   0  0  0  0  0  0  0  0  0  0  0  0
   -3.2431   -1.8794   -4.2022 H   0  0  0  0  0  0  0  0  0  0  0  0
   -3.9414   -3.6752    0.0443 N   0  0  0  0  0  0  0  0  0  0  0  0
   -3.9256   -4.7762    0.9970 C   0  0  0  0  0  0  0  0  0  0  0  0
   -4.1005   -2.7233    0.3874 H   0  0  0  0  0  0  0  0  0  0  0  0
   -4.5308   -5.6105    0.6275 H   0  0  0  0  0  0  0  0  0  0  0  0
   -2.9026   -5.1280    1.1623 H   0  0  0  0  0  0  0  0  0  0  0  0
   -4.3391   -4.4486    1.9558 H   0  0  0  0  0  0  0  0  0  0  0  0
  1  2  2  0  0  0  0
  1  3  1  0  0  0  0
  1  7  1  0  0  0  0
  3  4  1  0  0  0  0
  3  5  1  0  0  0  0
  3  6  1  0  0  0  0
  7  8  1  0  0  0  0
  7 12  1  0  0  0  0
  8  9  1  0  0  0  0
  8 11  1  0  0  0  0
  8 13  1  0  0  0  0
  9 10  2  0  0  0  0
  9 17  1  0  0  0  0
 11 14  1  0  0  0  0
 11 15  1  0  0  0  0
 11 16  1  0  0  0  0
 17 18  1  0  0  0  0
 17 25  1  0  0  0  0
 18 19  1  0  0  0  0
 18 21  1  0  0  0  0
 18 26  1  0  0  0  0
 19 20  2  0  0  0  0
 19 36  1  0  0  0  0
 21 22  1  0  0  0  0
 21 23  1  0  0  0  0
 21 27  1  0  0  0  0
 22 24  1  0  0  0  0
 22 28  1  0  0  0  0
 22 29  1  0  0  0  0
 23 30  1  0  0  0  0
 23 31  1  0  0  0  0
 23 32  1  0  0  0  0
 24 33  1  0  0  0  0
 24 34  1  0  0  0  0
 24 35  1  0  0  0  0
 36 37  1  0  0  0  0
 36 41  1  0  0  0  0
 37 38  1  0  0  0  0
 37 40  1  0  0  0  0
 37 42  1  0  0  0  0
 38 39  2  0  0  0  0
 38 46  1  0  0  0  0
 40 43  1  0  0  0  0
 40 44  1  0  0  0  0
 40 45  1  0  0  0  0
 46 47  1  0  0  0  0
 46 48  1  0  0  0  0
 47 49  1  0  0  0  0
 47 50  1  0  0  0  0
 47 51  1  0  0  0  0
M  END
$$$$

  -OEChem-02062319103D

 51 50  0     1  0  0  0  0  0999 V2000
    0.5593   -3.1376   -2.2137 C   0  0  0  0  0  0  0  0  0  0  0  0
   -0.1676   -2.1784   -2.4341 O   0  0  0  0  0  0  0  0  0  0  0  0
    1.3113   -3.8037   -3.3502 C   0  0  0  0  0  0  0  0  0  0  0  0
    1.0695   -3.3174   -4.2997 H   0  0  0  0  0  0  0  0  0  0  0  0
    2.3887   -3.7293   -3.1816 H   0  0  0  0  0  0  0  0  0  0  0  0
    1.0317   -4.8583   -3.4154 H   0  0  0  0  0  0  0  0  0  0  0  0
    0.7377   -3.5718   -0.9160 N   0  0  0  0  0  0  0  0  0  0  0  0
   -0.0824   -3.1419    0.2306 C   0  0  2  0  0  0  0  0  0  0  0  0
    0.2774   -1.7260    0.7580 C   0  0  0  0  0  0  0  0  0  0  0  0
    0.2375   -1.4962    1.9581 O   0  0  0  0  0  0  0  0  0  0  0  0
    0.0681   -4.2251    1.3070 C   0  0  0  0  0  0  0  0  0  0  0  0
    1.3262   -4.3916   -0.7911 H   0  0  0  0  0  0  0  0  0  0  0  0
   -1.1323   -3.1276   -0.0663 H   0  0  0  0  0  0  0  0  0  0  0  0
   -0.5692   -3.9994    2.1681 H   0  0  0  0  0  0  0  0  0  0  0  0
    1.1052   -4.2839    1.6522 H   0  0  0  0  0  0  0  0  0  0  0  0
   -0.2299   -5.2009    0.9108 H   0  0  0  0  0  0  0  0  0  0  0  0
    0.1788   -0.6281   -0.0782 N   0  0  0  0  0  0  0  0  0  0  0  0
   -0.9391    0.3253    0.0833 C   0  0  2  0  0  0  0  0  0  0  0  0
   -2.3231   -0.3405   -0.1018 C   0  0  0  0  0  0  0  0  0  0  0  0
   -3.2270   -0.1391    0.7007 O   0  0  0  0  0  0  0  0  0  0  0  0
   -0.7311    1.5074   -0.9056 C   0  0  2  0  0  0  0  0  0  0  0  0
    0.6105    2.2278   -0.6096 C   0  0  0  0  0  0  0  0  0  0  0  0
   -1.8996    2.5121   -0.8183 C   0  0  0  0  0  0  0  0  0  0  0  0
    0.9676    3.3007   -1.6437 C   0  0  0  0  0  0  0  0  0  0  0  0
    0.3158   -0.9062   -1.0512 H   0  0  0  0  0  0  0  0  0  0  0  0
   -0.9132    0.7256    1.1038 H   0  0  0  0  0  0  0  0  0  0  0  0
   -0.6974    1.1060   -1.9245 H   0  0  0  0  0  0  0  0  0  0  0  0
    0.5721    2.6833    0.3858 H   0  0  0  0  0  0  0  0  0  0  0  0
    1.4283    1.5011   -0.6032 H   0  0  0  0  0  0  0  0  0  0  0  0
   -1.9745    2.9260    0.1925 H   0  0  0  0  0  0  0  0  0  0  0  0
   -1.7638    3.3363   -1.5227 H   0  0  0  0  0  0  0  0  0  0  0  0
   -2.8518    2.0360   -1.0688 H   0  0  0  0  0  0  0  0  0  0  0  0
    0.9093    2.8915   -2.6570 H   0  0  0  0  0  0  0  0  0  0  0  0
    1.9887    3.6551   -1.4721 H   0  0  0  0  0  0  0  0  0  0  0  0
    0.2972    4.1613   -1.5697 H   0  0  0  0  0  0  0  0  0  0  0  0
   -2.5567   -1.2125   -1.1499 N   0  0  0  0  0  0  0  0  0  0  0  0
   -3.7834   -2.0053   -1.3090 C   0  0  2  0  0  0  0  0  0  0  0  0
   -3.8482   -3.1819   -0.3052 C   0  0  0  0  0  0  0  0  0  0  0  0
   -3.6912   -4.3446   -0.6611 O   0  0  0  0  0  0  0  0  0  0  0  0
   -3.8356   -2.4694   -2.7692 C   0  0  0  0  0  0  0  0  0  0  0  0
   -1.7577   -1.4415   -1.7473 H   0  0  0  0  0  0  0  0  0  0  0  0
   -4.6569   -1.3704   -1.1263 H   0  0  0  0  0  0  0  0  0  0  0  0
   -2.9723   -3.1006   -3.0047 H   0  0  0  0  0  0  0  0  0  0  0  0
   -4.7474   -3.0467   -2.9513 H   0  0  0  0  0  0  0  0  0  0  0  0
   -3.8314   -1.6071   -3.4429 H   0  0  0  0  0  0  0  0  0  0  0  0
   -3.9931   -2.9076    1.0400 N   0  0  0  0  0  0  0  0  0  0  0  0
   -3.9334   -3.9159    2.0886 C   0  0  0  0  0  0  0  0  0  0  0  0
   -3.9519   -1.9175    1.2999 H   0  0  0  0  0  0  0  0  0  0  0  0
   -4.7279   -4.6569    1.9518 H   0  0  0  0  0  0  0  0  0  0  0  0
   -2.9668   -4.4286    2.0748 H   0  0  0  0  0  0  0  0  0  0  0  0
   -4.0636   -3.4470    3.0688 H   0  0  0  0  0  0  0  0  0  0  0  0
  1  2  2  0  0  0  0
  1  3  1  0  0  0  0
  1  7  1  0  0  0  0
  3  4  1  0  0  0  0
  3  5  1  0  0  0  0
  3  6  1  0  0  0  0
  7  8  1  0  0  0  0
  7 12  1  0  0  0  0
  8  9  1  0  0  0  0
  8 11  1  0  0  0  0
  8 13  1  0  0  0  0
  9 10  2  0  0  0  0
  9 17  1  0  0  0  0
 11 14  1  0  0  0  0
 11 15  1  0  0  0  0
 11 16  1  0  0  0  0
 17 18  1  0  0  0  0
 17 25  1  0  0  0  0
 18 19  1  0  0  0  0
 18 21  1  0  0  0  0
 18 26  1  0  0  0  0
 19 20  2  0  0  0  0
 19 36  1  0  0  0  0
 21 22  1  0  0  0  0
 21 23  1  0  0  0  0
 21 27  1  0  0  0  0
 22 24  1  0  0  0  0
 22 28  1  0  0  0  0
 22 29  1  0  0  0  0
 23 30  1  0  0  0  0
 23 31  1  0  0  0  0
 23 32  1  0  0  0  0
 24 33  1  0  0  0  0
 24 34  1  0  0  0  0
 24 35  1  0  0  0  0
 36 37  1  0  0  0  0
 36 41  1  0  0  0  0
 37 38  1  0  0  0  0
 37 40  1  0  0  0  0
 37 42  1  0  0  0  0
 38 39  2  0  0  0  0
 38 46  1  0  0  0  0
 40 43  1  0  0  0  0
 40 44  1  0  0  0  0
 40 45  1  0  0  0  0
 46 47  1  0  0  0  0
 46 48  1  0  0  0  0
 47 49  1  0  0  0  0
 47 50  1  0  0  0  0
 47 51  1  0  0  0  0
M  END
$$$$

  -OEChem-02062319103D

 51 50  0     1  0  0  0  0  0999 V2000
    0.1994   -3.1545   -1.9634 C   0  0  0  0  0  0  0  0  0  0  0  0
   -0.5430   -2.1993   -2.1446 O   0  0  0  0  0  0  0  0  0  0  0  0
    0.7486   -3.9305   -3.1444 C   0  0  0  0  0  0  0  0  0  0  0  0
    0.4412   -3.4588   -4.0821 H   0  0  0  0  0  0  0  0  0  0  0  0
    1.8404   -3.9545   -3.1050 H   0  0  0  0  0  0  0  0  0  0  0  0
    0.3678   -4.9548   -3.1249 H   0  0  0  0  0  0  0  0  0  0  0  0
    0.5757   -3.4878   -0.6782 N   0  0  0  0  0  0  0  0  0  0  0  0
   -0.1110   -3.0075    0.5346 C   0  0  2  0  0  0  0  0  0  0  0  0
    0.2633   -1.5626    0.9595 C   0  0  0  0  0  0  0  0  0  0  0  0
    0.2126   -1.2347    2.1365 O   0  0  0  0  0  0  0  0  0  0  0  0
    0.1882   -4.0278    1.6405 C   0  0  0  0  0  0  0  0  0  0  0  0
    1.1682   -4.3085   -0.5840 H   0  0  0  0  0  0  0  0  0  0  0  0
   -1.1903   -3.0199    0.3572 H   0  0  0  0  0  0  0  0  0  0  0  0
    1.2564   -4.0343    1.8796 H   0  0  0  0  0  0  0  0  0  0  0  0
   -0.3670   -3.7787    2.5504 H   0  0  0  0  0  0  0  0  0  0  0  0
   -0.1103   -5.0326    1.3260 H   0  0  0  0  0  0  0  0  0  0  0  0
    0.2727   -0.5528    0.0143 N   0  0  0  0  0  0  0  0  0  0  0  0
   -0.6075    0.6207    0.1776 C   0  0  2  0  0  0  0  0  0  0  0  0
   -2.0931    0.1930    0.2161 C   0  0  0  0  0  0  0  0  0  0  0  0
   -2.8476    0.6113    1.0862 O   0  0  0  0  0  0  0  0  0  0  0  0
   -0.3311    1.6338   -0.9669 C   0  0  2  0  0  0  0  0  0  0  0  0
    1.1572    2.0674   -0.9563 C   0  0  0  0  0  0  0  0  0  0  0  0
   -1.2475    2.8681   -0.8312 C   0  0  0  0  0  0  0  0  0  0  0  0
    1.5334    2.9868   -2.1226 C   0  0  0  0  0  0  0  0  0  0  0  0
    0.2810   -0.9310   -0.9337 H   0  0  0  0  0  0  0  0  0  0  0  0
   -0.3814    1.1082    1.1333 H   0  0  0  0  0  0  0  0  0  0  0  0
   -0.5478    1.1464   -1.9240 H   0  0  0  0  0  0  0  0  0  0  0  0
    1.3866    2.5717   -0.0116 H   0  0  0  0  0  0  0  0  0  0  0  0
    1.7996    1.1841   -1.0195 H   0  0  0  0  0  0  0  0  0  0  0  0
   -1.0476    3.3910    0.1097 H   0  0  0  0  0  0  0  0  0  0  0  0
   -1.0929    3.5654   -1.6583 H   0  0  0  0  0  0  0  0  0  0  0  0
   -2.3033    2.5836   -0.8507 H   0  0  0  0  0  0  0  0  0  0  0  0
    1.2160    2.5500   -3.0745 H   0  0  0  0  0  0  0  0  0  0  0  0
    2.6186    3.1248   -2.1503 H   0  0  0  0  0  0  0  0  0  0  0  0
    1.0720    3.9720   -2.0128 H   0  0  0  0  0  0  0  0  0  0  0  0
   -2.5797   -0.7258   -0.6975 N   0  0  0  0  0  0  0  0  0  0  0  0
   -3.8931   -1.3732   -0.5876 C   0  0  2  0  0  0  0  0  0  0  0  0
   -3.9073   -2.4476    0.5263 C   0  0  0  0  0  0  0  0  0  0  0  0
   -3.9763   -3.6447    0.2704 O   0  0  0  0  0  0  0  0  0  0  0  0
   -4.2356   -1.9423   -1.9696 C   0  0  0  0  0  0  0  0  0  0  0  0
   -1.8968   -1.1433   -1.3352 H   0  0  0  0  0  0  0  0  0  0  0  0
   -4.6527   -0.6264   -0.3331 H   0  0  0  0  0  0  0  0  0  0  0  0
   -3.4936   -2.6875   -2.2745 H   0  0  0  0  0  0  0  0  0  0  0  0
   -5.2200   -2.4204   -1.9499 H   0  0  0  0  0  0  0  0  0  0  0  0
   -4.2545   -1.1428   -2.7164 H   0  0  0  0  0  0  0  0  0  0  0  0
   -3.7414   -2.0529    1.8388 N   0  0  0  0  0  0  0  0  0  0  0  0
   -3.6136   -2.9723    2.9604 C   0  0  0  0  0  0  0  0  0  0  0  0
   -3.5431   -1.0586    1.9858 H   0  0  0  0  0  0  0  0  0  0  0  0
   -4.5486   -3.5215    3.1116 H   0  0  0  0  0  0  0  0  0  0  0  0
   -2.8077   -3.6907    2.7813 H   0  0  0  0  0  0  0  0  0  0  0  0
   -3.3840   -2.4179    3.8758 H   0  0  0  0  0  0  0  0  0  0  0  0
  1  2  2  0  0  0  0
  1  3  1  0  0  0  0
  1  7  1  0  0  0  0
  3  4  1  0  0  0  0
  3  5  1  0  0  0  0
  3  6  1  0  0  0  0
  7  8  1  0  0  0  0
  7 12  1  0  0  0  0
  8  9  1  0  0  0  0
  8 11  1  0  0  0  0
  8 13  1  0  0  0  0
  9 10  2  0  0  0  0
  9 17  1  0  0  0  0
 11 14  1  0  0  0  0
 11 15  1  0  0  0  0
 11 16  1  0  0  0  0
 17 18  1  0  0  0  0
 17 25  1  0  0  0  0
 18 19  1  0  0  0  0
 18 21  1  0  0  0  0
 18 26  1  0  0  0  0
 19 20  2  0  0  0  0
 19 36  1  0  0  0  0
 21 22  1  0  0  0  0
 21 23  1  0  0  0  0
 21 27  1  0  0  0  0
 22 24  1  0  0  0  0
 22 28  1  0  0  0  0
 22 29  1  0  0  0  0
 23 30  1  0  0  0  0
 23 31  1  0  0  0  0
 23 32  1  0  0  0  0
 24 33  1  0  0  0  0
 24 34  1  0  0  0  0
 24 35  1  0  0  0  0
 36 37  1  0  0  0  0
 36 41  1  0  0  0  0
 37 38  1  0  0  0  0
 37 40  1  0  0  0  0
 37 42  1  0  0  0  0
 38 39  2  0  0  0  0
 38 46  1  0  0  0  0
 40 43  1  0  0  0  0
 40 44  1  0  0  0  0
 40 45  1  0  0  0  0
 46 47  1  0  0  0  0
 46 48  1  0  0  0  0
 47 49  1  0  0  0  0
 47 50  1  0  0  0  0
 47 51  1  0  0  0  0
M  END
$$$$

  -OEChem-02062319103D

 51 50  0     1  0  0  0  0  0999 V2000
    2.2297   -4.7300   -1.0229 C   0  0  0  0  0  0  0  0  0  0  0  0
    1.9404   -4.8650   -2.2016 O   0  0  0  0  0  0  0  0  0  0  0  0
    3.4275   -5.4635   -0.4491 C   0  0  0  0  0  0  0  0  0  0  0  0
    3.8549   -6.1335   -1.2005 H   0  0  0  0  0  0  0  0  0  0  0  0
    4.1919   -4.7458   -0.1407 H   0  0  0  0  0  0  0  0  0  0  0  0
    3.1230   -6.0561    0.4169 H   0  0  0  0  0  0  0  0  0  0  0  0
    1.4866   -3.8982   -0.2106 N   0  0  0  0  0  0  0  0  0  0  0  0
    0.4953   -2.9376   -0.7173 C   0  0  2  0  0  0  0  0  0  0  0  0
    1.0024   -1.4862   -0.5604 C   0  0  0  0  0  0  0  0  0  0  0  0
    1.7717   -1.2289    0.3572 O   0  0  0  0  0  0  0  0  0  0  0  0
   -0.8059   -3.1757    0.0461 C   0  0  0  0  0  0  0  0  0  0  0  0
    1.9107   -3.6682    0.6865 H   0  0  0  0  0  0  0  0  0  0  0  0
    0.3034   -3.1073   -1.7817 H   0  0  0  0  0  0  0  0  0  0  0  0
   -0.6997   -2.8837    1.0960 H   0  0  0  0  0  0  0  0  0  0  0  0
   -1.6130   -2.5954   -0.4052 H   0  0  0  0  0  0  0  0  0  0  0  0
   -1.0853   -4.2333    0.0037 H   0  0  0  0  0  0  0  0  0  0  0  0
    0.3729   -0.4268   -1.1935 N   0  0  0  0  0  0  0  0  0  0  0  0
    0.0863    0.8456   -0.4939 C   0  0  2  0  0  0  0  0  0  0  0  0
   -0.8336    0.6931    0.7420 C   0  0  0  0  0  0  0  0  0  0  0  0
   -0.6000    1.3164    1.7691 O   0  0  0  0  0  0  0  0  0  0  0  0
   -0.4958    1.8573   -1.5250 C   0  0  2  0  0  0  0  0  0  0  0  0
    0.5147    2.0910   -2.6793 C   0  0  0  0  0  0  0  0  0  0  0  0
   -0.8437    3.2010   -0.8483 C   0  0  0  0  0  0  0  0  0  0  0  0
   -0.0347    2.9703   -3.8075 C   0  0  0  0  0  0  0  0  0  0  0  0
   -0.2717   -0.6936   -1.9313 H   0  0  0  0  0  0  0  0  0  0  0  0
    1.0338    1.2522   -0.1212 H   0  0  0  0  0  0  0  0  0  0  0  0
   -1.4169    1.4378   -1.9436 H   0  0  0  0  0  0  0  0  0  0  0  0
    1.4279    2.5457   -2.2809 H   0  0  0  0  0  0  0  0  0  0  0  0
    0.7962    1.1333   -3.1267 H   0  0  0  0  0  0  0  0  0  0  0  0
    0.0491    3.6425   -0.3940 H   0  0  0  0  0  0  0  0  0  0  0  0
   -1.2565    3.9121   -1.5677 H   0  0  0  0  0  0  0  0  0  0  0  0
   -1.5995    3.0686   -0.0690 H   0  0  0  0  0  0  0  0  0  0  0  0
   -1.0045    2.5961   -4.1493 H   0  0  0  0  0  0  0  0  0  0  0  0
    0.6576    2.9605   -4.6548 H   0  0  0  0  0  0  0  0  0  0  0  0
   -0.1494    4.0075   -3.4811 H   0  0  0  0  0  0  0  0  0  0  0  0
   -1.9759   -0.0848    0.6920 N   0  0  0  0  0  0  0  0  0  0  0  0
   -2.9541   -0.2061    1.7814 C   0  0  2  0  0  0  0  0  0  0  0  0
   -3.8343   -1.4610    1.6198 C   0  0  0  0  0  0  0  0  0  0  0  0
   -3.9594   -1.9854    0.5181 O   0  0  0  0  0  0  0  0  0  0  0  0
   -3.8410    1.0450    1.8028 C   0  0  0  0  0  0  0  0  0  0  0  0
   -2.1749   -0.5875   -0.1694 H   0  0  0  0  0  0  0  0  0  0  0  0
   -2.4228   -0.2913    2.7353 H   0  0  0  0  0  0  0  0  0  0  0  0
   -4.3712    1.1547    0.8512 H   0  0  0  0  0  0  0  0  0  0  0  0
   -4.5797    0.9772    2.6072 H   0  0  0  0  0  0  0  0  0  0  0  0
   -3.2366    1.9421    1.9698 H   0  0  0  0  0  0  0  0  0  0  0  0
   -4.4941   -1.9991    2.7085 N   0  0  0  0  0  0  0  0  0  0  0  0
   -5.3504   -3.1756    2.6241 C   0  0  0  0  0  0  0  0  0  0  0  0
   -4.3672   -1.5454    3.6090 H   0  0  0  0  0  0  0  0  0  0  0  0
   -6.1868   -2.9922    1.9411 H   0  0  0  0  0  0  0  0  0  0  0  0
   -4.7819   -4.0386    2.2619 H   0  0  0  0  0  0  0  0  0  0  0  0
   -5.7570   -3.4193    3.6104 H   0  0  0  0  0  0  0  0  0  0  0  0
  1  2  2  0  0  0  0
  1  3  1  0  0  0  0
  1  7  1  0  0  0  0
  3  4  1  0  0  0  0
  3  5  1  0  0  0  0
  3  6  1  0  0  0  0
  7  8  1  0  0  0  0
  7 12  1  0  0  0  0
  8  9  1  0  0  0  0
  8 11  1  0  0  0  0
  8 13  1  0  0  0  0
  9 10  2  0  0  0  0
  9 17  1  0  0  0  0
 11 14  1  0  0  0  0
 11 15  1  0  0  0  0
 11 16  1  0  0  0  0
 17 18  1  0  0  0  0
 17 25  1  0  0  0  0
 18 19  1  0  0  0  0
 18 21  1  0  0  0  0
 18 26  1  0  0  0  0
 19 20  2  0  0  0  0
 19 36  1  0  0  0  0
 21 22  1  0  0  0  0
 21 23  1  0  0  0  0
 21 27  1  0  0  0  0
 22 24  1  0  0  0  0
 22 28  1  0  0  0  0
 22 29  1  0  0  0  0
 23 30  1  0  0  0  0
 23 31  1  0  0  0  0
 23 32  1  0  0  0  0
 24 33  1  0  0  0  0
 24 34  1  0  0  0  0
 24 35  1  0  0  0  0
 36 37  1  0  0  0  0
 36 41  1  0  0  0  0
 37 38  1  0  0  0  0
 37 40  1  0  0  0  0
 37 42  1  0  0  0  0
 38 39  2  0  0  0  0
 38 46  1  0  0  0  0
 40 43  1  0  0  0  0
 40 44  1  0  0  0  0
 40 45  1  0  0  0  0
 46 47  1  0  0  0  0
 46 48  1  0  0  0  0
 47 49  1  0  0  0  0
 47 50  1  0  0  0  0
 47 51  1  0  0  0  0
M  END
$$$$

  -OEChem-02062319103D

 51 50  0     1  0  0  0  0  0999 V2000
    2.0158   -4.7861   -0.9514 C   0  0  0  0  0  0  0  0  0  0  0  0
    1.6371   -4.9639   -2.0985 O   0  0  0  0  0  0  0  0  0  0  0  0
    3.2062   -5.5617   -0.4187 C   0  0  0  0  0  0  0  0  0  0  0  0
    3.5392   -6.2963   -1.1573 H   0  0  0  0  0  0  0  0  0  0  0  0
    4.0309   -4.8769   -0.2059 H   0  0  0  0  0  0  0  0  0  0  0  0
    2.9312   -6.0866    0.4994 H   0  0  0  0  0  0  0  0  0  0  0  0
    1.3838   -3.8663   -0.1402 N   0  0  0  0  0  0  0  0  0  0  0  0
    0.4124   -2.8763   -0.6280 C   0  0  2  0  0  0  0  0  0  0  0  0
    0.9636   -1.4410   -0.4951 C   0  0  0  0  0  0  0  0  0  0  0  0
    1.7905   -1.1908    0.3727 O   0  0  0  0  0  0  0  0  0  0  0  0
   -0.8755   -3.0490    0.1778 C   0  0  0  0  0  0  0  0  0  0  0  0
    1.8770   -3.6219    0.7170 H   0  0  0  0  0  0  0  0  0  0  0  0
    0.1856   -3.0458   -1.6857 H   0  0  0  0  0  0  0  0  0  0  0  0
   -0.7074   -2.8101    1.2331 H   0  0  0  0  0  0  0  0  0  0  0  0
   -1.6572   -2.3908   -0.2105 H   0  0  0  0  0  0  0  0  0  0  0  0
   -1.2323   -4.0813    0.1066 H   0  0  0  0  0  0  0  0  0  0  0  0
    0.3755   -0.3905   -1.1780 N   0  0  0  0  0  0  0  0  0  0  0  0
    0.3784    0.9986   -0.6733 C   0  0  2  0  0  0  0  0  0  0  0  0
   -0.3252    1.1369    0.6982 C   0  0  0  0  0  0  0  0  0  0  0  0
    0.1273    1.8802    1.5593 O   0  0  0  0  0  0  0  0  0  0  0  0
   -0.2495    1.9264   -1.7537 C   0  0  2  0  0  0  0  0  0  0  0  0
    0.5665    1.8451   -3.0712 C   0  0  0  0  0  0  0  0  0  0  0  0
   -0.3081    3.3871   -1.2581 C   0  0  0  0  0  0  0  0  0  0  0  0
   -0.0735    2.6064   -4.2371 C   0  0  0  0  0  0  0  0  0  0  0  0
   -0.3379   -0.6442   -1.8551 H   0  0  0  0  0  0  0  0  0  0  0  0
    1.4186    1.3097   -0.5204 H   0  0  0  0  0  0  0  0  0  0  0  0
   -1.2736    1.5913   -1.9513 H   0  0  0  0  0  0  0  0  0  0  0  0
    1.5773    2.2308   -2.9012 H   0  0  0  0  0  0  0  0  0  0  0  0
    0.6649    0.8018   -3.3848 H   0  0  0  0  0  0  0  0  0  0  0  0
    0.6960    3.7494   -1.0150 H   0  0  0  0  0  0  0  0  0  0  0  0
   -0.7427    4.0457   -2.0137 H   0  0  0  0  0  0  0  0  0  0  0  0
   -0.9336    3.4759   -0.3654 H   0  0  0  0  0  0  0  0  0  0  0  0
   -1.1173    2.3040   -4.3665 H   0  0  0  0  0  0  0  0  0  0  0  0
    0.4674    2.3876   -5.1631 H   0  0  0  0  0  0  0  0  0  0  0  0
   -0.0346    3.6871   -4.0752 H   0  0  0  0  0  0  0  0  0  0  0  0
   -1.5386    0.5165    0.9315 N   0  0  0  0  0  0  0  0  0  0  0  0
   -2.2870    0.5936    2.1917 C   0  0  2  0  0  0  0  0  0  0  0  0
   -3.2093   -0.6278    2.3794 C   0  0  0  0  0  0  0  0  0  0  0  0
   -3.4815   -1.3453    1.4223 O   0  0  0  0  0  0  0  0  0  0  0  0
   -3.1132    1.8842    2.1925 C   0  0  0  0  0  0  0  0  0  0  0  0
   -1.8774   -0.1392    0.2316 H   0  0  0  0  0  0  0  0  0  0  0  0
   -1.5851    0.6102    3.0324 H   0  0  0  0  0  0  0  0  0  0  0  0
   -3.8139    1.8896    1.3514 H   0  0  0  0  0  0  0  0  0  0  0  0
   -3.6843    1.9751    3.1213 H   0  0  0  0  0  0  0  0  0  0  0  0
   -2.4573    2.7564    2.1062 H   0  0  0  0  0  0  0  0  0  0  0  0
   -3.7395   -0.9226    3.6218 N   0  0  0  0  0  0  0  0  0  0  0  0
   -4.6354   -2.0471    3.8646 C   0  0  0  0  0  0  0  0  0  0  0  0
   -3.4921   -0.3131    4.3966 H   0  0  0  0  0  0  0  0  0  0  0  0
   -5.5467   -1.9477    3.2653 H   0  0  0  0  0  0  0  0  0  0  0  0
   -4.1453   -2.9916    3.6057 H   0  0  0  0  0  0  0  0  0  0  0  0
   -4.9191   -2.0832    4.9210 H   0  0  0  0  0  0  0  0  0  0  0  0
  1  2  2  0  0  0  0
  1  3  1  0  0  0  0
  1  7  1  0  0  0  0
  3  4  1  0  0  0  0
  3  5  1  0  0  0  0
  3  6  1  0  0  0  0
  7  8  1  0  0  0  0
  7 12  1  0  0  0  0
  8  9  1  0  0  0  0
  8 11  1  0  0  0  0
  8 13  1  0  0  0  0
  9 10  2  0  0  0  0
  9 17  1  0  0  0  0
 11 14  1  0  0  0  0
 11 15  1  0  0  0  0
 11 16  1  0  0  0  0
 17 18  1  0  0  0  0
 17 25  1  0  0  0  0
 18 19  1  0  0  0  0
 18 21  1  0  0  0  0
 18 26  1  0  0  0  0
 19 20  2  0  0  0  0
 19 36  1  0  0  0  0
 21 22  1  0  0  0  0
 21 23  1  0  0  0  0
 21 27  1  0  0  0  0
 22 24  1  0  0  0  0
 22 28  1  0  0  0  0
 22 29  1  0  0  0  0
 23 30  1  0  0  0  0
 23 31  1  0  0  0  0
 23 32  1  0  0  0  0
 24 33  1  0  0  0  0
 24 34  1  0  0  0  0
 24 35  1  0  0  0  0
 36 37  1  0  0  0  0
 36 41  1  0  0  0  0
 37 38  1  0  0  0  0
 37 40  1  0  0  0  0
 37 42  1  0  0  0  0
 38 39  2  0  0  0  0
 38 46  1  0  0  0  0
 40 43  1  0  0  0  0
 40 44  1  0  0  0  0
 40 45  1  0  0  0  0
 46 47  1  0  0  0  0
 46 48  1  0  0  0  0
 47 49  1  0  0  0  0
 47 50  1  0  0  0  0
 47 51  1  0  0  0  0
M  END
$$$$

  -OEChem-02062319103D

 51 50  0     1  0  0  0  0  0999 V2000
    1.8469   -4.6672   -0.8970 C   0  0  0  0  0  0  0  0  0  0  0  0
    1.5006   -4.7230   -2.0668 O   0  0  0  0  0  0  0  0  0  0  0  0
    3.0230   -5.4958   -0.4157 C   0  0  0  0  0  0  0  0  0  0  0  0
    3.4162   -6.1030   -1.2358 H   0  0  0  0  0  0  0  0  0  0  0  0
    3.8175   -4.8402   -0.0510 H   0  0  0  0  0  0  0  0  0  0  0  0
    2.7069   -6.1587    0.3934 H   0  0  0  0  0  0  0  0  0  0  0  0
    1.1875   -3.8400   -0.0112 N   0  0  0  0  0  0  0  0  0  0  0  0
    0.2273   -2.8087   -0.4300 C   0  0  2  0  0  0  0  0  0  0  0  0
    0.8450   -1.3972   -0.3536 C   0  0  0  0  0  0  0  0  0  0  0  0
    1.7014   -1.1504    0.4857 O   0  0  0  0  0  0  0  0  0  0  0  0
   -0.9981   -2.9141    0.4788 C   0  0  0  0  0  0  0  0  0  0  0  0
    1.6627   -3.6776    0.8743 H   0  0  0  0  0  0  0  0  0  0  0  0
   -0.0957   -2.9786   -1.4622 H   0  0  0  0  0  0  0  0  0  0  0  0
   -0.7283   -2.6986    1.5179 H   0  0  0  0  0  0  0  0  0  0  0  0
   -1.7681   -2.2033    0.1651 H   0  0  0  0  0  0  0  0  0  0  0  0
   -1.4214   -3.9221    0.4294 H   0  0  0  0  0  0  0  0  0  0  0  0
    0.3445   -0.3683   -1.1319 N   0  0  0  0  0  0  0  0  0  0  0  0
    0.6433    1.0616   -0.9118 C   0  0  2  0  0  0  0  0  0  0  0  0
    0.1865    1.5382    0.4870 C   0  0  0  0  0  0  0  0  0  0  0  0
    0.8660    2.3211    1.1389 O   0  0  0  0  0  0  0  0  0  0  0  0
   -0.0085    1.8889   -2.0566 C   0  0  2  0  0  0  0  0  0  0  0  0
    0.5850    1.4686   -3.4261 C   0  0  0  0  0  0  0  0  0  0  0  0
    0.1945    3.4024   -1.8335 C   0  0  0  0  0  0  0  0  0  0  0  0
   -0.1265    2.1113   -4.6216 C   0  0  0  0  0  0  0  0  0  0  0  0
   -0.3664   -0.6137   -1.8148 H   0  0  0  0  0  0  0  0  0  0  0  0
    1.7294    1.2044   -0.9533 H   0  0  0  0  0  0  0  0  0  0  0  0
   -1.0852    1.6871   -2.0621 H   0  0  0  0  0  0  0  0  0  0  0  0
    1.6496    1.7241   -3.4590 H   0  0  0  0  0  0  0  0  0  0  0  0
    0.5066    0.3847   -3.5491 H   0  0  0  0  0  0  0  0  0  0  0  0
    1.2614    3.6434   -1.7886 H   0  0  0  0  0  0  0  0  0  0  0  0
   -0.2614    3.9862   -2.6365 H   0  0  0  0  0  0  0  0  0  0  0  0
   -0.2747    3.7296   -0.9013 H   0  0  0  0  0  0  0  0  0  0  0  0
   -1.2072    1.9508   -4.5570 H   0  0  0  0  0  0  0  0  0  0  0  0
    0.2346    1.6629   -5.5523 H   0  0  0  0  0  0  0  0  0  0  0  0
    0.0694    3.1860   -4.6700 H   0  0  0  0  0  0  0  0  0  0  0  0
   -1.0593    1.1761    0.9616 N   0  0  0  0  0  0  0  0  0  0  0  0
   -1.5161    1.4161    2.3338 C   0  0  2  0  0  0  0  0  0  0  0  0
   -2.4010    0.2551    2.8308 C   0  0  0  0  0  0  0  0  0  0  0  0
   -2.8572   -0.5569    2.0310 O   0  0  0  0  0  0  0  0  0  0  0  0
   -2.2833    2.7406    2.3655 C   0  0  0  0  0  0  0  0  0  0  0  0
   -1.5372    0.4355    0.4525 H   0  0  0  0  0  0  0  0  0  0  0  0
   -0.6534    1.4818    3.0054 H   0  0  0  0  0  0  0  0  0  0  0  0
   -3.1534    2.6962    1.7026 H   0  0  0  0  0  0  0  0  0  0  0  0
   -2.6277    2.9608    3.3802 H   0  0  0  0  0  0  0  0  0  0  0  0
   -1.6352    3.5594    2.0363 H   0  0  0  0  0  0  0  0  0  0  0  0
   -2.6725    0.1050    4.1776 N   0  0  0  0  0  0  0  0  0  0  0  0
   -3.4818   -0.9822    4.7139 C   0  0  0  0  0  0  0  0  0  0  0  0
   -2.2543    0.7722    4.8198 H   0  0  0  0  0  0  0  0  0  0  0  0
   -4.4921   -0.9509    4.2926 H   0  0  0  0  0  0  0  0  0  0  0  0
   -3.0299   -1.9508    4.4745 H   0  0  0  0  0  0  0  0  0  0  0  0
   -3.5594   -0.8952    5.8020 H   0  0  0  0  0  0  0  0  0  0  0  0
  1  2  2  0  0  0  0
  1  3  1  0  0  0  0
  1  7  1  0  0  0  0
  3  4  1  0  0  0  0
  3  5  1  0  0  0  0
  3  6  1  0  0  0  0
  7  8  1  0  0  0  0
  7 12  1  0  0  0  0
  8  9  1  0  0  0  0
  8 11  1  0  0  0  0
  8 13  1  0  0  0  0
  9 10  2  0  0  0  0
  9 17  1  0  0  0  0
 11 14  1  0  0  0  0
 11 15  1  0  0  0  0
 11 16  1  0  0  0  0
 17 18  1  0  0  0  0
 17 25  1  0  0  0  0
 18 19  1  0  0  0  0
 18 21  1  0  0  0  0
 18 26  1  0  0  0  0
 19 20  2  0  0  0  0
 19 36  1  0  0  0  0
 21 22  1  0  0  0  0
 21 23  1  0  0  0  0
 21 27  1  0  0  0  0
 22 24  1  0  0  0  0
 22 28  1  0  0  0  0
 22 29  1  0  0  0  0
 23 30  1  0  0  0  0
 23 31  1  0  0  0  0
 23 32  1  0  0  0  0
 24 33  1  0  0  0  0
 24 34  1  0  0  0  0
 24 35  1  0  0  0  0
 36 37  1  0  0  0  0
 36 41  1  0  0  0  0
 37 38  1  0  0  0  0
 37 40  1  0  0  0  0
 37 42  1  0  0  0  0
 38 39  2  0  0  0  0
 38 46  1  0  0  0  0
 40 43  1  0  0  0  0
 40 44  1  0  0  0  0
 40 45  1  0  0  0  0
 46 47  1  0  0  0  0
 46 48  1  0  0  0  0
 47 49  1  0  0  0  0
 47 50  1  0  0  0  0
 47 51  1  0  0  0  0
M  END
$$$$
