
  -OEChem-02062319033D

 51 50  0     1  0  0  0  0  0999 V2000
    1.3524   -3.0009    1.4091 C   0  0  0  0  0  0  0  0  0  0  0  0
    1.8758   -1.9880    0.9598 O   0  0  0  0  0  0  0  0  0  0  0  0
    2.2030   -4.1782    1.7536 C   0  0  0  0  0  0  0  0  0  0  0  0
    2.3264   -4.8705    0.9053 H   0  0  0  0  0  0  0  0  0  0  0  0
    3.2257   -3.8876    2.0432 H   0  0  0  0  0  0  0  0  0  0  0  0
    1.8327   -4.8004    2.5839 H   0  0  0  0  0  0  0  0  0  0  0  0
    0.0005   -3.1873    1.6465 N   0  0  0  0  0  0  0  0  0  0  0  0
   -0.9949   -2.1807    1.3864 C   0  0  2  0  0  0  0  0  0  0  0  0
   -0.3083   -0.8216    1.4164 C   0  0  0  0  0  0  0  0  0  0  0  0
    0.7533   -0.6191    2.0022 O   0  0  0  0  0  0  0  0  0  0  0  0
   -2.1232   -2.2423    2.4042 C   0  0  0  0  0  0  0  0  0  0  0  0
   -0.3048   -4.0823    2.0245 H   0  0  0  0  0  0  0  0  0  0  0  0
   -1.3830   -2.3724    0.3801 H   0  0  0  0  0  0  0  0  0  0  0  0
   -1.7534   -2.0527    3.4185 H   0  0  0  0  0  0  0  0  0  0  0  0
   -2.8936   -1.4947    2.1882 H   0  0  0  0  0  0  0  0  0  0  0  0
   -2.5964   -3.2301    2.4022 H   0  0  0  0  0  0  0  0  0  0  0  0
   -1.0412    0.1517    0.7482 N   0  0  0  0  0  0  0  0  0  0  0  0
   -0.6021    1.5197    0.6365 C   0  0  2  0  0  0  0  0  0  0  0  0
   -0.4605    2.0911    2.0467 C   0  0  0  0  0  0  0  0  0  0  0  0
    0.4956    2.7812    2.3947 O   0  0  0  0  0  0  0  0  0  0  0  0
   -1.5247    2.3793   -0.2610 C   0  0  2  0  0  0  0  0  0  0  0  0
   -1.5500    1.8790   -1.7223 C   0  0  0  0  0  0  0  0  0  0  0  0
   -1.1179    3.8564   -0.1754 C   0  0  0  0  0  0  0  0  0  0  0  0
   -2.6394    2.5273   -2.5671 C   0  0  0  0  0  0  0  0  0  0  0  0
   -1.9067   -0.1111    0.2828 H   0  0  0  0  0  0  0  0  0  0  0  0
    0.4035    1.4771    0.1989 H   0  0  0  0  0  0  0  0  0  0  0  0
   -2.5465    2.3047    0.1345 H   0  0  0  0  0  0  0  0  0  0  0  0
   -0.5874    2.0933   -2.2007 H   0  0  0  0  0  0  0  0  0  0  0  0
   -1.6836    0.7911   -1.7517 H   0  0  0  0  0  0  0  0  0  0  0  0
   -0.1016    4.0030   -0.5566 H   0  0  0  0  0  0  0  0  0  0  0  0
   -1.7799    4.4852   -0.7787 H   0  0  0  0  0  0  0  0  0  0  0  0
   -1.1504    4.2229    0.8558 H   0  0  0  0  0  0  0  0  0  0  0  0
   -3.6335    2.3527   -2.1457 H   0  0  0  0  0  0  0  0  0  0  0  0
   -2.6315    2.1038   -3.5768 H   0  0  0  0  0  0  0  0  0  0  0  0
   -2.4811    3.6068   -2.6522 H   0  0  0  0  0  0  0  0  0  0  0  0
   -1.5412    1.7664    2.8542 N   0  0  0  0  0  0  0  0  0  0  0  0
   -1.6636    2.2003    4.2273 C   0  0  2  0  0  0  0  0  0  0  0  0
   -3.1462    2.2647    4.5698 C   0  0  0  0  0  0  0  0  0  0  0  0
   -4.0266    2.3803    3.7197 O   0  0  0  0  0  0  0  0  0  0  0  0
   -0.9968    3.5500    4.4426 C   0  0  0  0  0  0  0  0  0  0  0  0
   -2.2832    1.1952    2.4607 H   0  0  0  0  0  0  0  0  0  0  0  0
   -1.1784    1.4365    4.8448 H   0  0  0  0  0  0  0  0  0  0  0  0
   -1.4695    4.3280    3.8321 H   0  0  0  0  0  0  0  0  0  0  0  0
   -1.0656    3.8641    5.4893 H   0  0  0  0  0  0  0  0  0  0  0  0
    0.0627    3.5096    4.1675 H   0  0  0  0  0  0  0  0  0  0  0  0
   -3.3679    2.2214    5.9391 N   0  0  0  0  0  0  0  0  0  0  0  0
   -4.6902    2.2801    6.5171 C   0  0  0  0  0  0  0  0  0  0  0  0
   -2.5798    2.1057    6.5695 H   0  0  0  0  0  0  0  0  0  0  0  0
   -4.9433    3.3251    6.7493 H   0  0  0  0  0  0  0  0  0  0  0  0
   -5.4213    1.8763    5.8013 H   0  0  0  0  0  0  0  0  0  0  0  0
   -4.7133    1.6834    7.4408 H   0  0  0  0  0  0  0  0  0  0  0  0
  1  3  1  0  0  0  0
  1  7  1  0  0  0  0
  1  2  2  0  0  0  0
 37 38  1  0  0  0  0
 38 46  1  0  0  0  0
 38 39  2  0  0  0  0
  8  9  1  0  0  0  0
  9 17  1  0  0  0  0
  9 10  2  0  0  0  0
 18 19  1  0  0  0  0
 19 36  1  0  0  0  0
 19 20  2  0  0  0  0
 22 24  1  0  0  0  0
 37 40  1  0  0  0  0
  8 11  1  0  0  0  0
 21 23  1  0  0  0  0
 46 47  1  0  0  0  0
 21 22  1  0  0  0  0
 36 37  1  0  0  0  0
  7  8  1  0  0  0  0
 18 21  1  0  0  0  0
 17 18  1  0  0  0  0
  3  4  1  0  0  0  0
  3  5  1  0  0  0  0
  3  6  1  0  0  0  0
 24 33  1  0  0  0  0
 24 34  1  0  0  0  0
 24 35  1  0  0  0  0
 40 43  1  0  0  0  0
 40 44  1  0  0  0  0
 40 45  1  0  0  0  0
 11 14  1  0  0  0  0
 11 15  1  0  0  0  0
 11 16  1  0  0  0  0
 23 30  1  0  0  0  0
 23 31  1  0  0  0  0
 23 32  1  0  0  0  0
 47 49  1  0  0  0  0
 47 50  1  0  0  0  0
 47 51  1  0  0  0  0
 22 28  1  0  0  0  0
 22 29  1  0  0  0  0
 37 42  1  0  0  0  0
  8 13  1  0  0  0  0
 18 26  1  0  0  0  0
 21 27  1  0  0  0  0
 46 48  1  0  0  0  0
  7 12  1  0  0  0  0
 36 41  1  0  0  0  0
 17 25  1  0  0  0  0
M  END
$$$$

  -OEChem-02062319033D

 51 50  0     1  0  0  0  0  0999 V2000
    1.3524   -3.0009    1.4091 C   0  0  0  0  0  0  0  0  0  0  0  0
    1.8758   -1.9880    0.9598 O   0  0  0  0  0  0  0  0  0  0  0  0
    2.2030   -4.1782    1.7536 C   0  0  0  0  0  0  0  0  0  0  0  0
    2.3264   -4.8705    0.9053 H   0  0  0  0  0  0  0  0  0  0  0  0
    3.2257   -3.8876    2.0432 H   0  0  0  0  0  0  0  0  0  0  0  0
    1.8327   -4.8004    2.5839 H   0  0  0  0  0  0  0  0  0  0  0  0
    0.0005   -3.1873    1.6465 N   0  0  0  0  0  0  0  0  0  0  0  0
   -0.9949   -2.1807    1.3864 C   0  0  2  0  0  0  0  0  0  0  0  0
   -0.3083   -0.8216    1.4164 C   0  0  0  0  0  0  0  0  0  0  0  0
    0.7533   -0.6191    2.0022 O   0  0  0  0  0  0  0  0  0  0  0  0
   -2.1232   -2.2423    2.4042 C   0  0  0  0  0  0  0  0  0  0  0  0
   -0.3048   -4.0823    2.0245 H   0  0  0  0  0  0  0  0  0  0  0  0
   -1.3830   -2.3724    0.3801 H   0  0  0  0  0  0  0  0  0  0  0  0
   -1.7534   -2.0527    3.4185 H   0  0  0  0  0  0  0  0  0  0  0  0
   -2.8936   -1.4947    2.1882 H   0  0  0  0  0  0  0  0  0  0  0  0
   -2.5964   -3.2301    2.4022 H   0  0  0  0  0  0  0  0  0  0  0  0
   -1.0412    0.1517    0.7482 N   0  0  0  0  0  0  0  0  0  0  0  0
   -0.4811    1.4218    0.3611 C   0  0  2  0  0  0  0  0  0  0  0  0
   -0.0112    2.1402    1.6254 C   0  0  0  0  0  0  0  0  0  0  0  0
    1.0646    2.7308    1.6971 O   0  0  0  0  0  0  0  0  0  0  0  0
   -1.4553    2.2807   -0.4807 C   0  0  2  0  0  0  0  0  0  0  0  0
   -1.8135    1.6098   -1.8254 C   0  0  0  0  0  0  0  0  0  0  0  0
   -0.8770    3.6871   -0.6862 C   0  0  0  0  0  0  0  0  0  0  0  0
   -2.9640    2.2905   -2.5559 C   0  0  0  0  0  0  0  0  0  0  0  0
   -2.0032   -0.0462    0.4833 H   0  0  0  0  0  0  0  0  0  0  0  0
    0.4119    1.1874   -0.2323 H   0  0  0  0  0  0  0  0  0  0  0  0
   -2.3852    2.3969    0.0919 H   0  0  0  0  0  0  0  0  0  0  0  0
   -0.9414    1.6287   -2.4891 H   0  0  0  0  0  0  0  0  0  0  0  0
   -2.0711    0.5554   -1.6700 H   0  0  0  0  0  0  0  0  0  0  0  0
    0.0583    3.6442   -1.2546 H   0  0  0  0  0  0  0  0  0  0  0  0
   -1.5669    4.3203   -1.2525 H   0  0  0  0  0  0  0  0  0  0  0  0
   -0.6719    4.1806    0.2693 H   0  0  0  0  0  0  0  0  0  0  0  0
   -3.8731    2.3078   -1.9481 H   0  0  0  0  0  0  0  0  0  0  0  0
   -3.1954    1.7471   -3.4779 H   0  0  0  0  0  0  0  0  0  0  0  0
   -2.7050    3.3190   -2.8258 H   0  0  0  0  0  0  0  0  0  0  0  0
   -0.9483    2.0702    2.6464 N   0  0  0  0  0  0  0  0  0  0  0  0
   -0.7584    2.6850    3.9404 C   0  0  2  0  0  0  0  0  0  0  0  0
   -2.1322    2.9944    4.5203 C   0  0  0  0  0  0  0  0  0  0  0  0
   -3.1395    3.1223    3.8274 O   0  0  0  0  0  0  0  0  0  0  0  0
    0.0839    3.9469    3.8352 C   0  0  0  0  0  0  0  0  0  0  0  0
   -1.8107    1.5614    2.4758 H   0  0  0  0  0  0  0  0  0  0  0  0
   -0.2533    1.9453    4.5710 H   0  0  0  0  0  0  0  0  0  0  0  0
   -0.4061    4.6998    3.2072 H   0  0  0  0  0  0  0  0  0  0  0  0
    0.2508    4.3958    4.8200 H   0  0  0  0  0  0  0  0  0  0  0  0
    1.0606    3.7276    3.3905 H   0  0  0  0  0  0  0  0  0  0  0  0
   -2.0932    3.1534    5.8985 N   0  0  0  0  0  0  0  0  0  0  0  0
   -3.2667    3.4646    6.6809 C   0  0  0  0  0  0  0  0  0  0  0  0
   -1.2178    3.0105    6.3934 H   0  0  0  0  0  0  0  0  0  0  0  0
   -3.3526    4.5551    6.7962 H   0  0  0  0  0  0  0  0  0  0  0  0
   -4.1610    3.0784    6.1699 H   0  0  0  0  0  0  0  0  0  0  0  0
   -3.1805    2.9968    7.6728 H   0  0  0  0  0  0  0  0  0  0  0  0
  1  3  1  0  0  0  0
  1  7  1  0  0  0  0
  1  2  2  0  0  0  0
 37 38  1  0  0  0  0
 38 46  1  0  0  0  0
 38 39  2  0  0  0  0
  8  9  1  0  0  0  0
  9 17  1  0  0  0  0
  9 10  2  0  0  0  0
 18 19  1  0  0  0  0
 19 36  1  0  0  0  0
 19 20  2  0  0  0  0
 22 24  1  0  0  0  0
 37 40  1  0  0  0  0
  8 11  1  0  0  0  0
 21 23  1  0  0  0  0
 46 47  1  0  0  0  0
 21 22  1  0  0  0  0
 36 37  1  0  0  0  0
  7  8  1  0  0  0  0
 18 21  1  0  0  0  0
 17 18  1  0  0  0  0
  3  4  1  0  0  0  0
  3  5  1  0  0  0  0
  3  6  1  0  0  0  0
 24 33  1  0  0  0  0
 24 34  1  0  0  0  0
 24 35  1  0  0  0  0
 40 43  1  0  0  0  0
 40 44  1  0  0  0  0
 40 45  1  0  0  0  0
 11 14  1  0  0  0  0
 11 15  1  0  0  0  0
 11 16  1  0  0  0  0
 23 30  1  0  0  0  0
 23 31  1  0  0  0  0
 23 32  1  0  0  0  0
 47 49  1  0  0  0  0
 47 50  1  0  0  0  0
 47 51  1  0  0  0  0
 22 28  1  0  0  0  0
 22 29  1  0  0  0  0
 37 42  1  0  0  0  0
  8 13  1  0  0  0  0
 18 26  1  0  0  0  0
 21 27  1  0  0  0  0
 46 48  1  0  0  0  0
  7 12  1  0  0  0  0
 36 41  1  0  0  0  0
 17 25  1  0  0  0  0
M  END
$$$$

  -OEChem-02062319033D

 51 50  0     1  0  0  0  0  0999 V2000
    1.3524   -3.0009    1.4091 C   0  0  0  0  0  0  0  0  0  0  0  0
    1.8758   -1.9880    0.9598 O   0  0  0  0  0  0  0  0  0  0  0  0
    2.2030   -4.1782    1.7536 C   0  0  0  0  0  0  0  0  0  0  0  0
    2.3264   -4.8705    0.9053 H   0  0  0  0  0  0  0  0  0  0  0  0
    3.2257   -3.8876    2.0432 H   0  0  0  0  0  0  0  0  0  0  0  0
    1.8327   -4.8004    2.5839 H   0  0  0  0  0  0  0  0  0  0  0  0
    0.0005   -3.1873    1.6465 N   0  0  0  0  0  0  0  0  0  0  0  0
   -0.9949   -2.1807    1.3864 C   0  0  2  0  0  0  0  0  0  0  0  0
   -0.3083   -0.8216    1.4164 C   0  0  0  0  0  0  0  0  0  0  0  0
    0.7533   -0.6191    2.0022 O   0  0  0  0  0  0  0  0  0  0  0  0
   -2.1232   -2.2423    2.4042 C   0  0  0  0  0  0  0  0  0  0  0  0
   -0.3048   -4.0823    2.0245 H   0  0  0  0  0  0  0  0  0  0  0  0
   -1.3830   -2.3724    0.3801 H   0  0  0  0  0  0  0  0  0  0  0  0
   -1.7534   -2.0527    3.4185 H   0  0  0  0  0  0  0  0  0  0  0  0
   -2.8936   -1.4947    2.1882 H   0  0  0  0  0  0  0  0  0  0  0  0
   -2.5964   -3.2301    2.4022 H   0  0  0  0  0  0  0  0  0  0  0  0
   -1.0412    0.1517    0.7482 N   0  0  0  0  0  0  0  0  0  0  0  0
   -0.4263    1.2746    0.0866 C   0  0  2  0  0  0  0  0  0  0  0  0
    0.3525    2.0742    1.1303 C   0  0  0  0  0  0  0  0  0  0  0  0
    1.4816    2.5161    0.9270 O   0  0  0  0  0  0  0  0  0  0  0  0
   -1.4403    2.1469   -0.6921 C   0  0  2  0  0  0  0  0  0  0  0  0
   -2.1202    1.3686   -1.8404 C   0  0  0  0  0  0  0  0  0  0  0  0
   -0.7580    3.4239   -1.2002 C   0  0  0  0  0  0  0  0  0  0  0  0
   -3.3050    2.1038   -2.4539 C   0  0  0  0  0  0  0  0  0  0  0  0
   -2.0520    0.0560    0.6856 H   0  0  0  0  0  0  0  0  0  0  0  0
    0.3058    0.8477   -0.6107 H   0  0  0  0  0  0  0  0  0  0  0  0
   -2.2257    2.4601    0.0088 H   0  0  0  0  0  0  0  0  0  0  0  0
   -1.3935    1.1846   -2.6401 H   0  0  0  0  0  0  0  0  0  0  0  0
   -2.4599    0.3872   -1.4886 H   0  0  0  0  0  0  0  0  0  0  0  0
    0.0416    3.1825   -1.9088 H   0  0  0  0  0  0  0  0  0  0  0  0
   -1.4677    4.0698   -1.7262 H   0  0  0  0  0  0  0  0  0  0  0  0
   -0.3212    4.0002   -0.3781 H   0  0  0  0  0  0  0  0  0  0  0  0
   -4.0744    2.3214   -1.7076 H   0  0  0  0  0  0  0  0  0  0  0  0
   -3.7666    1.4862   -3.2314 H   0  0  0  0  0  0  0  0  0  0  0  0
   -2.9886    3.0452   -2.9137 H   0  0  0  0  0  0  0  0  0  0  0  0
   -0.3754    2.2615    2.2967 N   0  0  0  0  0  0  0  0  0  0  0  0
    0.1244    3.0014    3.4331 C   0  0  2  0  0  0  0  0  0  0  0  0
   -1.0710    3.5662    4.1892 C   0  0  0  0  0  0  0  0  0  0  0  0
   -2.1708    3.7433    3.6694 O   0  0  0  0  0  0  0  0  0  0  0  0
    1.0671    4.1128    2.9985 C   0  0  0  0  0  0  0  0  0  0  0  0
   -1.3059    1.8584    2.3548 H   0  0  0  0  0  0  0  0  0  0  0  0
    0.6540    2.2841    4.0694 H   0  0  0  0  0  0  0  0  0  0  0  0
    0.5541    4.8413    2.3600 H   0  0  0  0  0  0  0  0  0  0  0  0
    1.4671    4.6542    3.8622 H   0  0  0  0  0  0  0  0  0  0  0  0
    1.9107    3.7079    2.4292 H   0  0  0  0  0  0  0  0  0  0  0  0
   -0.7534    3.8894    5.5010 N   0  0  0  0  0  0  0  0  0  0  0  0
   -1.7146    4.4538    6.4195 C   0  0  0  0  0  0  0  0  0  0  0  0
    0.1785    3.6909    5.8530 H   0  0  0  0  0  0  0  0  0  0  0  0
   -1.6545    5.5517    6.3851 H   0  0  0  0  0  0  0  0  0  0  0  0
   -2.7271    4.1330    6.1333 H   0  0  0  0  0  0  0  0  0  0  0  0
   -1.4945    4.1064    7.4397 H   0  0  0  0  0  0  0  0  0  0  0  0
  1  3  1  0  0  0  0
  1  7  1  0  0  0  0
  1  2  2  0  0  0  0
 37 38  1  0  0  0  0
 38 46  1  0  0  0  0
 38 39  2  0  0  0  0
  8  9  1  0  0  0  0
  9 17  1  0  0  0  0
  9 10  2  0  0  0  0
 18 19  1  0  0  0  0
 19 36  1  0  0  0  0
 19 20  2  0  0  0  0
 22 24  1  0  0  0  0
 37 40  1  0  0  0  0
  8 11  1  0  0  0  0
 21 23  1  0  0  0  0
 46 47  1  0  0  0  0
 21 22  1  0  0  0  0
 36 37  1  0  0  0  0
  7  8  1  0  0  0  0
 18 21  1  0  0  0  0
 17 18  1  0  0  0  0
  3  4  1  0  0  0  0
  3  5  1  0  0  0  0
  3  6  1  0  0  0  0
 24 33  1  0  0  0  0
 24 34  1  0  0  0  0
 24 35  1  0  0  0  0
 40 43  1  0  0  0  0
 40 44  1  0  0  0  0
 40 45  1  0  0  0  0
 11 14  1  0  0  0  0
 11 15  1  0  0  0  0
 11 16  1  0  0  0  0
 23 30  1  0  0  0  0
 23 31  1  0  0  0  0
 23 32  1  0  0  0  0
 47 49  1  0  0  0  0
 47 50  1  0  0  0  0
 47 51  1  0  0  0  0
 22 28  1  0  0  0  0
 22 29  1  0  0  0  0
 37 42  1  0  0  0  0
  8 13  1  0  0  0  0
 18 26  1  0  0  0  0
 21 27  1  0  0  0  0
 46 48  1  0  0  0  0
  7 12  1  0  0  0  0
 36 41  1  0  0  0  0
 17 25  1  0  0  0  0
M  END
$$$$

  -OEChem-02062319033D

 51 50  0     1  0  0  0  0  0999 V2000
    1.3524   -3.0009    1.4091 C   0  0  0  0  0  0  0  0  0  0  0  0
    1.8758   -1.9880    0.9598 O   0  0  0  0  0  0  0  0  0  0  0  0
    2.2030   -4.1782    1.7536 C   0  0  0  0  0  0  0  0  0  0  0  0
    2.3264   -4.8705    0.9053 H   0  0  0  0  0  0  0  0  0  0  0  0
    3.2257   -3.8876    2.0432 H   0  0  0  0  0  0  0  0  0  0  0  0
    1.8327   -4.8004    2.5839 H   0  0  0  0  0  0  0  0  0  0  0  0
    0.0005   -3.1873    1.6465 N   0  0  0  0  0  0  0  0  0  0  0  0
   -0.9949   -2.1807    1.3864 C   0  0  2  0  0  0  0  0  0  0  0  0
   -0.3083   -0.8216    1.4164 C   0  0  0  0  0  0  0  0  0  0  0  0
    0.7533   -0.6191    2.0022 O   0  0  0  0  0  0  0  0  0  0  0  0
   -2.1232   -2.2423    2.4042 C   0  0  0  0  0  0  0  0  0  0  0  0
   -0.3048   -4.0823    2.0245 H   0  0  0  0  0  0  0  0  0  0  0  0
   -1.3830   -2.3724    0.3801 H   0  0  0  0  0  0  0  0  0  0  0  0
   -1.7534   -2.0527    3.4185 H   0  0  0  0  0  0  0  0  0  0  0  0
   -2.8936   -1.4947    2.1882 H   0  0  0  0  0  0  0  0  0  0  0  0
   -2.5964   -3.2301    2.4022 H   0  0  0  0  0  0  0  0  0  0  0  0
   -1.0412    0.1517    0.7482 N   0  0  0  0  0  0  0  0  0  0  0  0
   -0.4414    1.0881   -0.1684 C   0  0  2  0  0  0  0  0  0  0  0  0
    0.6058    1.8976    0.5952 C   0  0  0  0  0  0  0  0  0  0  0  0
    1.7180    2.1517    0.1369 O   0  0  0  0  0  0  0  0  0  0  0  0
   -1.4809    1.9868   -0.8807 C   0  0  2  0  0  0  0  0  0  0  0  0
   -2.4492    1.1716   -1.7664 C   0  0  0  0  0  0  0  0  0  0  0  0
   -0.7690    3.0847   -1.6823 C   0  0  0  0  0  0  0  0  0  0  0  0
   -3.6391    1.9797   -2.2680 C   0  0  0  0  0  0  0  0  0  0  0  0
   -2.0498    0.1883    0.8759 H   0  0  0  0  0  0  0  0  0  0  0  0
    0.0925    0.4811   -0.9107 H   0  0  0  0  0  0  0  0  0  0  0  0
   -2.0787    2.4899   -0.1090 H   0  0  0  0  0  0  0  0  0  0  0  0
   -1.9128    0.7913   -2.6434 H   0  0  0  0  0  0  0  0  0  0  0  0
   -2.8235    0.2979   -1.2199 H   0  0  0  0  0  0  0  0  0  0  0  0
   -0.1507    2.6493   -2.4747 H   0  0  0  0  0  0  0  0  0  0  0  0
   -1.4888    3.7508   -2.1676 H   0  0  0  0  0  0  0  0  0  0  0  0
   -0.1223    3.6939   -1.0425 H   0  0  0  0  0  0  0  0  0  0  0  0
   -4.2235    2.3923   -1.4408 H   0  0  0  0  0  0  0  0  0  0  0  0
   -4.3061    1.3389   -2.8541 H   0  0  0  0  0  0  0  0  0  0  0  0
   -3.3125    2.8039   -2.9098 H   0  0  0  0  0  0  0  0  0  0  0  0
    0.1383    2.3273    1.8290 N   0  0  0  0  0  0  0  0  0  0  0  0
    0.9244    3.1280    2.7398 C   0  0  2  0  0  0  0  0  0  0  0  0
   -0.0348    3.9412    3.5989 C   0  0  0  0  0  0  0  0  0  0  0  0
   -1.1864    4.2010    3.2564 O   0  0  0  0  0  0  0  0  0  0  0  0
    1.8857    4.0365    1.9894 C   0  0  0  0  0  0  0  0  0  0  0  0
   -0.8034    2.0660    2.1058 H   0  0  0  0  0  0  0  0  0  0  0  0
    1.4817    2.4301    3.3742 H   0  0  0  0  0  0  0  0  0  0  0  0
    1.3456    4.7428    1.3484 H   0  0  0  0  0  0  0  0  0  0  0  0
    2.5005    4.6216    2.6812 H   0  0  0  0  0  0  0  0  0  0  0  0
    2.5552    3.4518    1.3493 H   0  0  0  0  0  0  0  0  0  0  0  0
    0.5603    4.3794    4.7737 N   0  0  0  0  0  0  0  0  0  0  0  0
   -0.1397    5.1805    5.7505 C   0  0  0  0  0  0  0  0  0  0  0  0
    1.5139    4.1006    4.9849 H   0  0  0  0  0  0  0  0  0  0  0  0
    0.0352    6.2468    5.5442 H   0  0  0  0  0  0  0  0  0  0  0  0
   -1.2175    4.9683    5.6941 H   0  0  0  0  0  0  0  0  0  0  0  0
    0.2299    4.9366    6.7574 H   0  0  0  0  0  0  0  0  0  0  0  0
  1  3  1  0  0  0  0
  1  7  1  0  0  0  0
  1  2  2  0  0  0  0
 37 38  1  0  0  0  0
 38 46  1  0  0  0  0
 38 39  2  0  0  0  0
  8  9  1  0  0  0  0
  9 17  1  0  0  0  0
  9 10  2  0  0  0  0
 18 19  1  0  0  0  0
 19 36  1  0  0  0  0
 19 20  2  0  0  0  0
 22 24  1  0  0  0  0
 37 40  1  0  0  0  0
  8 11  1  0  0  0  0
 21 23  1  0  0  0  0
 46 47  1  0  0  0  0
 21 22  1  0  0  0  0
 36 37  1  0  0  0  0
  7  8  1  0  0  0  0
 18 21  1  0  0  0  0
 17 18  1  0  0  0  0
  3  4  1  0  0  0  0
  3  5  1  0  0  0  0
  3  6  1  0  0  0  0
 24 33  1  0  0  0  0
 24 34  1  0  0  0  0
 24 35  1  0  0  0  0
 40 43  1  0  0  0  0
 40 44  1  0  0  0  0
 40 45  1  0  0  0  0
 11 14  1  0  0  0  0
 11 15  1  0  0  0  0
 11 16  1  0  0  0  0
 23 30  1  0  0  0  0
 23 31  1  0  0  0  0
 23 32  1  0  0  0  0
 47 49  1  0  0  0  0
 47 50  1  0  0  0  0
 47 51  1  0  0  0  0
 22 28  1  0  0  0  0
 22 29  1  0  0  0  0
 37 42  1  0  0  0  0
  8 13  1  0  0  0  0
 18 26  1  0  0  0  0
 21 27  1  0  0  0  0
 46 48  1  0  0  0  0
  7 12  1  0  0  0  0
 36 41  1  0  0  0  0
 17 25  1  0  0  0  0
M  END
$$$$

  -OEChem-02062319033D

 51 50  0     1  0  0  0  0  0999 V2000
    1.3524   -3.0009    1.4091 C   0  0  0  0  0  0  0  0  0  0  0  0
    1.8758   -1.9880    0.9598 O   0  0  0  0  0  0  0  0  0  0  0  0
    2.2030   -4.1782    1.7536 C   0  0  0  0  0  0  0  0  0  0  0  0
    2.3264   -4.8705    0.9053 H   0  0  0  0  0  0  0  0  0  0  0  0
    3.2257   -3.8876    2.0432 H   0  0  0  0  0  0  0  0  0  0  0  0
    1.8327   -4.8004    2.5839 H   0  0  0  0  0  0  0  0  0  0  0  0
    0.0005   -3.1873    1.6465 N   0  0  0  0  0  0  0  0  0  0  0  0
   -0.9949   -2.1807    1.3864 C   0  0  2  0  0  0  0  0  0  0  0  0
   -0.3083   -0.8216    1.4164 C   0  0  0  0  0  0  0  0  0  0  0  0
    0.7533   -0.6191    2.0022 O   0  0  0  0  0  0  0  0  0  0  0  0
   -2.1232   -2.2423    2.4042 C   0  0  0  0  0  0  0  0  0  0  0  0
   -0.3048   -4.0823    2.0245 H   0  0  0  0  0  0  0  0  0  0  0  0
   -1.3830   -2.3724    0.3801 H   0  0  0  0  0  0  0  0  0  0  0  0
   -1.7534   -2.0527    3.4185 H   0  0  0  0  0  0  0  0  0  0  0  0
   -2.8936   -1.4947    2.1882 H   0  0  0  0  0  0  0  0  0  0  0  0
   -2.5964   -3.2301    2.4022 H   0  0  0  0  0  0  0  0  0  0  0  0
   -1.0412    0.1517    0.7482 N   0  0  0  0  0  0  0  0  0  0  0  0
   -0.5255    0.8750   -0.3865 C   0  0  2  0  0  0  0  0  0  0  0  0
    0.7316    1.6225    0.0565 C   0  0  0  0  0  0  0  0  0  0  0  0
    1.7577    1.6624   -0.6194 O   0  0  0  0  0  0  0  0  0  0  0  0
   -1.5742    1.8115   -1.0337 C   0  0  2  0  0  0  0  0  0  0  0  0
   -2.7780    1.0325   -1.6084 C   0  0  0  0  0  0  0  0  0  0  0  0
   -0.9092    2.6925   -2.0997 C   0  0  0  0  0  0  0  0  0  0  0  0
   -3.9436    1.9269   -2.0111 C   0  0  0  0  0  0  0  0  0  0  0  0
   -1.9966    0.3419    1.0412 H   0  0  0  0  0  0  0  0  0  0  0  0
   -0.2136    0.1126   -1.1117 H   0  0  0  0  0  0  0  0  0  0  0  0
   -1.9545    2.4843   -0.2534 H   0  0  0  0  0  0  0  0  0  0  0  0
   -2.4640    0.4755   -2.4987 H   0  0  0  0  0  0  0  0  0  0  0  0
   -3.1371    0.2935   -0.8823 H   0  0  0  0  0  0  0  0  0  0  0  0
   -0.5053    2.0809   -2.9136 H   0  0  0  0  0  0  0  0  0  0  0  0
   -1.6290    3.3851   -2.5466 H   0  0  0  0  0  0  0  0  0  0  0  0
   -0.0888    3.2826   -1.6784 H   0  0  0  0  0  0  0  0  0  0  0  0
   -4.3103    2.5158   -1.1656 H   0  0  0  0  0  0  0  0  0  0  0  0
   -4.7772    1.3153   -2.3718 H   0  0  0  0  0  0  0  0  0  0  0  0
   -3.6547    2.6118   -2.8143 H   0  0  0  0  0  0  0  0  0  0  0  0
    0.5579    2.2630    1.2751 N   0  0  0  0  0  0  0  0  0  0  0  0
    1.5872    3.0559    1.9078 C   0  0  2  0  0  0  0  0  0  0  0  0
    0.9058    4.0940    2.7896 C   0  0  0  0  0  0  0  0  0  0  0  0
   -0.2535    4.4642    2.6165 O   0  0  0  0  0  0  0  0  0  0  0  0
    2.4840    3.7232    0.8766 C   0  0  0  0  0  0  0  0  0  0  0  0
   -0.3372    2.1699    1.7459 H   0  0  0  0  0  0  0  0  0  0  0  0
    2.1732    2.3731    2.5327 H   0  0  0  0  0  0  0  0  0  0  0  0
    1.9144    4.4111    0.2412 H   0  0  0  0  0  0  0  0  0  0  0  0
    3.2805    4.3004    1.3577 H   0  0  0  0  0  0  0  0  0  0  0  0
    2.9500    2.9768    0.2242 H   0  0  0  0  0  0  0  0  0  0  0  0
    1.7584    4.5899    3.7661 N   0  0  0  0  0  0  0  0  0  0  0  0
    1.3508    5.5952    4.7196 C   0  0  0  0  0  0  0  0  0  0  0  0
    2.6975    4.2117    3.8484 H   0  0  0  0  0  0  0  0  0  0  0  0
    1.6014    6.5932    4.3307 H   0  0  0  0  0  0  0  0  0  0  0  0
    0.2650    5.5273    4.8822 H   0  0  0  0  0  0  0  0  0  0  0  0
    1.8752    5.4307    5.6724 H   0  0  0  0  0  0  0  0  0  0  0  0
  1  3  1  0  0  0  0
  1  7  1  0  0  0  0
  1  2  2  0  0  0  0
 37 38  1  0  0  0  0
 38 46  1  0  0  0  0
 38 39  2  0  0  0  0
  8  9  1  0  0  0  0
  9 17  1  0  0  0  0
  9 10  2  0  0  0  0
 18 19  1  0  0  0  0
 19 36  1  0  0  0  0
 19 20  2  0  0  0  0
 22 24  1  0  0  0  0
 37 40  1  0  0  0  0
  8 11  1  0  0  0  0
 21 23  1  0  0  0  0
 46 47  1  0  0  0  0
 21 22  1  0  0  0  0
 36 37  1  0  0  0  0
  7  8  1  0  0  0  0
 18 21  1  0  0  0  0
 17 18  1  0  0  0  0
  3  4  1  0  0  0  0
  3  5  1  0  0  0  0
  3  6  1  0  0  0  0
 24 33  1  0  0  0  0
 24 34  1  0  0  0  0
 24 35  1  0  0  0  0
 40 43  1  0  0  0  0
 40 44  1  0  0  0  0
 40 45  1  0  0  0  0
 11 14  1  0  0  0  0
 11 15  1  0  0  0  0
 11 16  1  0  0  0  0
 23 30  1  0  0  0  0
 23 31  1  0  0  0  0
 23 32  1  0  0  0  0
 47 49  1  0  0  0  0
 47 50  1  0  0  0  0
 47 51  1  0  0  0  0
 22 28  1  0  0  0  0
 22 29  1  0  0  0  0
 37 42  1  0  0  0  0
  8 13  1  0  0  0  0
 18 26  1  0  0  0  0
 21 27  1  0  0  0  0
 46 48  1  0  0  0  0
  7 12  1  0  0  0  0
 36 41  1  0  0  0  0
 17 25  1  0  0  0  0
M  END
$$$$

  -OEChem-02062319033D

 51 50  0     1  0  0  0  0  0999 V2000
    1.3524   -3.0009    1.4091 C   0  0  0  0  0  0  0  0  0  0  0  0
    1.8758   -1.9880    0.9598 O   0  0  0  0  0  0  0  0  0  0  0  0
    2.2030   -4.1782    1.7536 C   0  0  0  0  0  0  0  0  0  0  0  0
    2.3264   -4.8705    0.9053 H   0  0  0  0  0  0  0  0  0  0  0  0
    3.2257   -3.8876    2.0432 H   0  0  0  0  0  0  0  0  0  0  0  0
    1.8327   -4.8004    2.5839 H   0  0  0  0  0  0  0  0  0  0  0  0
    0.0005   -3.1873    1.6465 N   0  0  0  0  0  0  0  0  0  0  0  0
   -0.9949   -2.1807    1.3864 C   0  0  2  0  0  0  0  0  0  0  0  0
   -0.3083   -0.8216    1.4164 C   0  0  0  0  0  0  0  0  0  0  0  0
    0.7533   -0.6191    2.0022 O   0  0  0  0  0  0  0  0  0  0  0  0
   -2.1232   -2.2423    2.4042 C   0  0  0  0  0  0  0  0  0  0  0  0
   -0.3048   -4.0823    2.0245 H   0  0  0  0  0  0  0  0  0  0  0  0
   -1.3830   -2.3724    0.3801 H   0  0  0  0  0  0  0  0  0  0  0  0
   -1.7534   -2.0527    3.4185 H   0  0  0  0  0  0  0  0  0  0  0  0
   -2.8936   -1.4947    2.1882 H   0  0  0  0  0  0  0  0  0  0  0  0
   -2.5964   -3.2301    2.4022 H   0  0  0  0  0  0  0  0  0  0  0  0
   -1.0412    0.1517    0.7482 N   0  0  0  0  0  0  0  0  0  0  0  0
   -0.6728    0.6499   -0.5529 C   0  0  2  0  0  0  0  0  0  0  0  0
    0.7211    1.2675   -0.4491 C   0  0  0  0  0  0  0  0  0  0  0  0
    1.5981    1.0816   -1.2904 O   0  0  0  0  0  0  0  0  0  0  0  0
   -1.7138    1.6330   -1.1407 C   0  0  2  0  0  0  0  0  0  0  0  0
   -3.0844    0.9605   -1.3772 C   0  0  0  0  0  0  0  0  0  0  0  0
   -1.1691    2.2743   -2.4239 C   0  0  0  0  0  0  0  0  0  0  0  0
   -4.1977    1.9488   -1.7004 C   0  0  0  0  0  0  0  0  0  0  0  0
   -1.8962    0.5061    1.1704 H   0  0  0  0  0  0  0  0  0  0  0  0
   -0.5916   -0.2327   -1.2001 H   0  0  0  0  0  0  0  0  0  0  0  0
   -1.8613    2.4437   -0.4147 H   0  0  0  0  0  0  0  0  0  0  0  0
   -3.0094    0.2589   -2.2159 H   0  0  0  0  0  0  0  0  0  0  0  0
   -3.3793    0.3744   -0.4987 H   0  0  0  0  0  0  0  0  0  0  0  0
   -0.9981    1.5161   -3.1957 H   0  0  0  0  0  0  0  0  0  0  0  0
   -1.8786    2.9976   -2.8373 H   0  0  0  0  0  0  0  0  0  0  0  0
   -0.2228    2.7943   -2.2426 H   0  0  0  0  0  0  0  0  0  0  0  0
   -4.3289    2.6835   -0.9010 H   0  0  0  0  0  0  0  0  0  0  0  0
   -5.1477    1.4170   -1.8173 H   0  0  0  0  0  0  0  0  0  0  0  0
   -3.9919    2.4818   -2.6339 H   0  0  0  0  0  0  0  0  0  0  0  0
    0.8549    2.0731    0.6728 N   0  0  0  0  0  0  0  0  0  0  0  0
    2.0677    2.7903    0.9939 C   0  0  2  0  0  0  0  0  0  0  0  0
    1.6867    4.0140    1.8166 C   0  0  0  0  0  0  0  0  0  0  0  0
    0.5644    4.5150    1.7933 O   0  0  0  0  0  0  0  0  0  0  0  0
    2.8212    3.1941   -0.2639 C   0  0  0  0  0  0  0  0  0  0  0  0
    0.0607    2.1631    1.2996 H   0  0  0  0  0  0  0  0  0  0  0  0
    2.6816    2.1172    1.6022 H   0  0  0  0  0  0  0  0  0  0  0  0
    2.2219    3.8687   -0.8862 H   0  0  0  0  0  0  0  0  0  0  0  0
    3.7541    3.7123   -0.0184 H   0  0  0  0  0  0  0  0  0  0  0  0
    3.0684    2.3153   -0.8692 H   0  0  0  0  0  0  0  0  0  0  0  0
    2.7592    4.5065    2.5469 N   0  0  0  0  0  0  0  0  0  0  0  0
    2.6551    5.6695    3.3970 C   0  0  0  0  0  0  0  0  0  0  0  0
    3.6485    4.0165    2.5209 H   0  0  0  0  0  0  0  0  0  0  0  0
    2.9374    6.5671    2.8274 H   0  0  0  0  0  0  0  0  0  0  0  0
    1.6193    5.7719    3.7529 H   0  0  0  0  0  0  0  0  0  0  0  0
    3.3292    5.5551    4.2587 H   0  0  0  0  0  0  0  0  0  0  0  0
  1  3  1  0  0  0  0
  1  7  1  0  0  0  0
  1  2  2  0  0  0  0
 37 38  1  0  0  0  0
 38 46  1  0  0  0  0
 38 39  2  0  0  0  0
  8  9  1  0  0  0  0
  9 17  1  0  0  0  0
  9 10  2  0  0  0  0
 18 19  1  0  0  0  0
 19 36  1  0  0  0  0
 19 20  2  0  0  0  0
 22 24  1  0  0  0  0
 37 40  1  0  0  0  0
  8 11  1  0  0  0  0
 21 23  1  0  0  0  0
 46 47  1  0  0  0  0
 21 22  1  0  0  0  0
 36 37  1  0  0  0  0
  7  8  1  0  0  0  0
 18 21  1  0  0  0  0
 17 18  1  0  0  0  0
  3  4  1  0  0  0  0
  3  5  1  0  0  0  0
  3  6  1  0  0  0  0
 24 33  1  0  0  0  0
 24 34  1  0  0  0  0
 24 35  1  0  0  0  0
 40 43  1  0  0  0  0
 40 44  1  0  0  0  0
 40 45  1  0  0  0  0
 11 14  1  0  0  0  0
 11 15  1  0  0  0  0
 11 16  1  0  0  0  0
 23 30  1  0  0  0  0
 23 31  1  0  0  0  0
 23 32  1  0  0  0  0
 47 49  1  0  0  0  0
 47 50  1  0  0  0  0
 47 51  1  0  0  0  0
 22 28  1  0  0  0  0
 22 29  1  0  0  0  0
 37 42  1  0  0  0  0
  8 13  1  0  0  0  0
 18 26  1  0  0  0  0
 21 27  1  0  0  0  0
 46 48  1  0  0  0  0
  7 12  1  0  0  0  0
 36 41  1  0  0  0  0
 17 25  1  0  0  0  0
M  END
$$$$

  -OEChem-02062319033D

 51 50  0     1  0  0  0  0  0999 V2000
    1.3524   -3.0009    1.4091 C   0  0  0  0  0  0  0  0  0  0  0  0
    1.8758   -1.9880    0.9598 O   0  0  0  0  0  0  0  0  0  0  0  0
    2.2030   -4.1782    1.7536 C   0  0  0  0  0  0  0  0  0  0  0  0
    2.3264   -4.8705    0.9053 H   0  0  0  0  0  0  0  0  0  0  0  0
    3.2257   -3.8876    2.0432 H   0  0  0  0  0  0  0  0  0  0  0  0
    1.8327   -4.8004    2.5839 H   0  0  0  0  0  0  0  0  0  0  0  0
    0.0005   -3.1873    1.6465 N   0  0  0  0  0  0  0  0  0  0  0  0
   -0.9949   -2.1807    1.3864 C   0  0  2  0  0  0  0  0  0  0  0  0
   -0.3083   -0.8216    1.4164 C   0  0  0  0  0  0  0  0  0  0  0  0
    0.7533   -0.6191    2.0022 O   0  0  0  0  0  0  0  0  0  0  0  0
   -2.1232   -2.2423    2.4042 C   0  0  0  0  0  0  0  0  0  0  0  0
   -0.3048   -4.0823    2.0245 H   0  0  0  0  0  0  0  0  0  0  0  0
   -1.3830   -2.3724    0.3801 H   0  0  0  0  0  0  0  0  0  0  0  0
   -1.7534   -2.0527    3.4185 H   0  0  0  0  0  0  0  0  0  0  0  0
   -2.8936   -1.4947    2.1882 H   0  0  0  0  0  0  0  0  0  0  0  0
   -2.5964   -3.2301    2.4022 H   0  0  0  0  0  0  0  0  0  0  0  0
   -1.0412    0.1517    0.7482 N   0  0  0  0  0  0  0  0  0  0  0  0
   -0.8732    0.4281   -0.6561 C   0  0  2  0  0  0  0  0  0  0  0  0
    0.5752    0.8569   -0.8871 C   0  0  0  0  0  0  0  0  0  0  0  0
    1.2501    0.4489   -1.8303 O   0  0  0  0  0  0  0  0  0  0  0  0
   -1.8903    1.4633   -1.1943 C   0  0  2  0  0  0  0  0  0  0  0  0
   -3.3473    0.9607   -1.0885 C   0  0  0  0  0  0  0  0  0  0  0  0
   -1.5310    1.8583   -2.6328 C   0  0  0  0  0  0  0  0  0  0  0  0
   -4.3841    2.0440   -1.3573 C   0  0  0  0  0  0  0  0  0  0  0  0
   -1.7553    0.6699    1.2544 H   0  0  0  0  0  0  0  0  0  0  0  0
   -1.0157   -0.5312   -1.1698 H   0  0  0  0  0  0  0  0  0  0  0  0
   -1.8056    2.3709   -0.5819 H   0  0  0  0  0  0  0  0  0  0  0  0
   -3.5120    0.1562   -1.8144 H   0  0  0  0  0  0  0  0  0  0  0  0
   -3.5337    0.5350   -0.0954 H   0  0  0  0  0  0  0  0  0  0  0  0
   -1.5956    0.9934   -3.3018 H   0  0  0  0  0  0  0  0  0  0  0  0
   -2.2206    2.6146   -3.0200 H   0  0  0  0  0  0  0  0  0  0  0  0
   -0.5154    2.2623   -2.6966 H   0  0  0  0  0  0  0  0  0  0  0  0
   -4.2781    2.8839   -0.6648 H   0  0  0  0  0  0  0  0  0  0  0  0
   -5.3924    1.6370   -1.2284 H   0  0  0  0  0  0  0  0  0  0  0  0
   -4.3010    2.4228   -2.3807 H   0  0  0  0  0  0  0  0  0  0  0  0
    1.0088    1.7705    0.0631 N   0  0  0  0  0  0  0  0  0  0  0  0
    2.3331    2.3492    0.0602 C   0  0  2  0  0  0  0  0  0  0  0  0
    2.2545    3.7067    0.7461 C   0  0  0  0  0  0  0  0  0  0  0  0
    1.2115    4.3499    0.8430 O   0  0  0  0  0  0  0  0  0  0  0  0
    2.8743    2.4855   -1.3544 C   0  0  0  0  0  0  0  0  0  0  0  0
    0.3634    2.0462    0.7972 H   0  0  0  0  0  0  0  0  0  0  0  0
    2.9721    1.6797    0.6463 H   0  0  0  0  0  0  0  0  0  0  0  0
    2.2471    3.1527   -1.9568 H   0  0  0  0  0  0  0  0  0  0  0  0
    3.8889    2.8975   -1.3531 H   0  0  0  0  0  0  0  0  0  0  0  0
    2.9022    1.5124   -1.8565 H   0  0  0  0  0  0  0  0  0  0  0  0
    3.4945    4.1350    1.1992 N   0  0  0  0  0  0  0  0  0  0  0  0
    3.6845    5.3983    1.8729 C   0  0  0  0  0  0  0  0  0  0  0  0
    4.3022    3.5284    1.0929 H   0  0  0  0  0  0  0  0  0  0  0  0
    3.9521    6.1705    1.1366 H   0  0  0  0  0  0  0  0  0  0  0  0
    2.7532    5.6854    2.3831 H   0  0  0  0  0  0  0  0  0  0  0  0
    4.4929    5.3013    2.6126 H   0  0  0  0  0  0  0  0  0  0  0  0
  1  3  1  0  0  0  0
  1  7  1  0  0  0  0
  1  2  2  0  0  0  0
 37 38  1  0  0  0  0
 38 46  1  0  0  0  0
 38 39  2  0  0  0  0
  8  9  1  0  0  0  0
  9 17  1  0  0  0  0
  9 10  2  0  0  0  0
 18 19  1  0  0  0  0
 19 36  1  0  0  0  0
 19 20  2  0  0  0  0
 22 24  1  0  0  0  0
 37 40  1  0  0  0  0
  8 11  1  0  0  0  0
 21 23  1  0  0  0  0
 46 47  1  0  0  0  0
 21 22  1  0  0  0  0
 36 37  1  0  0  0  0
  7  8  1  0  0  0  0
 18 21  1  0  0  0  0
 17 18  1  0  0  0  0
  3  4  1  0  0  0  0
  3  5  1  0  0  0  0
  3  6  1  0  0  0  0
 24 33  1  0  0  0  0
 24 34  1  0  0  0  0
 24 35  1  0  0  0  0
 40 43  1  0  0  0  0
 40 44  1  0  0  0  0
 40 45  1  0  0  0  0
 11 14  1  0  0  0  0
 11 15  1  0  0  0  0
 11 16  1  0  0  0  0
 23 30  1  0  0  0  0
 23 31  1  0  0  0  0
 23 32  1  0  0  0  0
 47 49  1  0  0  0  0
 47 50  1  0  0  0  0
 47 51  1  0  0  0  0
 22 28  1  0  0  0  0
 22 29  1  0  0  0  0
 37 42  1  0  0  0  0
  8 13  1  0  0  0  0
 18 26  1  0  0  0  0
 21 27  1  0  0  0  0
 46 48  1  0  0  0  0
  7 12  1  0  0  0  0
 36 41  1  0  0  0  0
 17 25  1  0  0  0  0
M  END
$$$$

  -OEChem-02062319033D

 51 50  0     1  0  0  0  0  0999 V2000
    1.3524   -3.0009    1.4091 C   0  0  0  0  0  0  0  0  0  0  0  0
    1.8758   -1.9880    0.9598 O   0  0  0  0  0  0  0  0  0  0  0  0
    2.2030   -4.1782    1.7536 C   0  0  0  0  0  0  0  0  0  0  0  0
    2.3264   -4.8705    0.9053 H   0  0  0  0  0  0  0  0  0  0  0  0
    3.2257   -3.8876    2.0432 H   0  0  0  0  0  0  0  0  0  0  0  0
    1.8327   -4.8004    2.5839 H   0  0  0  0  0  0  0  0  0  0  0  0
    0.0005   -3.1873    1.6465 N   0  0  0  0  0  0  0  0  0  0  0  0
   -0.9949   -2.1807    1.3864 C   0  0  2  0  0  0  0  0  0  0  0  0
   -0.3083   -0.8216    1.4164 C   0  0  0  0  0  0  0  0  0  0  0  0
    0.7533   -0.6191    2.0022 O   0  0  0  0  0  0  0  0  0  0  0  0
   -2.1232   -2.2423    2.4042 C   0  0  0  0  0  0  0  0  0  0  0  0
   -0.3048   -4.0823    2.0245 H   0  0  0  0  0  0  0  0  0  0  0  0
   -1.3830   -2.3724    0.3801 H   0  0  0  0  0  0  0  0  0  0  0  0
   -1.7534   -2.0527    3.4185 H   0  0  0  0  0  0  0  0  0  0  0  0
   -2.8936   -1.4947    2.1882 H   0  0  0  0  0  0  0  0  0  0  0  0
   -2.5964   -3.2301    2.4022 H   0  0  0  0  0  0  0  0  0  0  0  0
   -1.0412    0.1517    0.7482 N   0  0  0  0  0  0  0  0  0  0  0  0
   -1.1132    0.2247   -0.6892 C   0  0  2  0  0  0  0  0  0  0  0  0
    0.3037    0.4187   -1.2277 C   0  0  0  0  0  0  0  0  0  0  0  0
    0.7372   -0.1927   -2.2023 O   0  0  0  0  0  0  0  0  0  0  0  0
   -2.0916    1.3140   -1.1909 C   0  0  2  0  0  0  0  0  0  0  0  0
   -3.5489    1.0330   -0.7620 C   0  0  0  0  0  0  0  0  0  0  0  0
   -1.9702    1.4731   -2.7123 C   0  0  0  0  0  0  0  0  0  0  0  0
   -4.4900    2.2060   -1.0051 C   0  0  0  0  0  0  0  0  0  0  0  0
   -1.5836    0.8221    1.2878 H   0  0  0  0  0  0  0  0  0  0  0  0
   -1.4570   -0.7627   -1.0229 H   0  0  0  0  0  0  0  0  0  0  0  0
   -1.7911    2.2708   -0.7435 H   0  0  0  0  0  0  0  0  0  0  0  0
   -3.9374    0.1743   -1.3213 H   0  0  0  0  0  0  0  0  0  0  0  0
   -3.5898    0.7644    0.3003 H   0  0  0  0  0  0  0  0  0  0  0  0
   -2.2570    0.5484   -3.2245 H   0  0  0  0  0  0  0  0  0  0  0  0
   -2.6318    2.2623   -3.0821 H   0  0  0  0  0  0  0  0  0  0  0  0
   -0.9464    1.7229   -3.0095 H   0  0  0  0  0  0  0  0  0  0  0  0
   -4.1612    3.1034   -0.4733 H   0  0  0  0  0  0  0  0  0  0  0  0
   -5.4946    1.9604   -0.6452 H   0  0  0  0  0  0  0  0  0  0  0  0
   -4.5610    2.4389   -2.0721 H   0  0  0  0  0  0  0  0  0  0  0  0
    1.0094    1.3758   -0.5125 N   0  0  0  0  0  0  0  0  0  0  0  0
    2.3653    1.7626   -0.8295 C   0  0  2  0  0  0  0  0  0  0  0  0
    2.5708    3.1931   -0.3489 C   0  0  0  0  0  0  0  0  0  0  0  0
    1.6437    3.9802   -0.1697 O   0  0  0  0  0  0  0  0  0  0  0  0
    2.6398    1.6455   -2.3207 C   0  0  0  0  0  0  0  0  0  0  0  0
    0.5500    1.8269    0.2731 H   0  0  0  0  0  0  0  0  0  0  0  0
    3.0250    1.0904   -0.2701 H   0  0  0  0  0  0  0  0  0  0  0  0
    1.9881    2.3117   -2.8977 H   0  0  0  0  0  0  0  0  0  0  0  0
    3.6757    1.9115   -2.5555 H   0  0  0  0  0  0  0  0  0  0  0  0
    2.4627    0.6227   -2.6704 H   0  0  0  0  0  0  0  0  0  0  0  0
    3.9142    3.5007   -0.1851 N   0  0  0  0  0  0  0  0  0  0  0  0
    4.3688    4.8003    0.2512 C   0  0  0  0  0  0  0  0  0  0  0  0
    4.6139    2.7806   -0.3383 H   0  0  0  0  0  0  0  0  0  0  0  0
    4.5764    5.4303   -0.6263 H   0  0  0  0  0  0  0  0  0  0  0  0
    3.5895    5.2738    0.8663 H   0  0  0  0  0  0  0  0  0  0  0  0
    5.2870    4.6866    0.8462 H   0  0  0  0  0  0  0  0  0  0  0  0
  1  3  1  0  0  0  0
  1  7  1  0  0  0  0
  1  2  2  0  0  0  0
 37 38  1  0  0  0  0
 38 46  1  0  0  0  0
 38 39  2  0  0  0  0
  8  9  1  0  0  0  0
  9 17  1  0  0  0  0
  9 10  2  0  0  0  0
 18 19  1  0  0  0  0
 19 36  1  0  0  0  0
 19 20  2  0  0  0  0
 22 24  1  0  0  0  0
 37 40  1  0  0  0  0
  8 11  1  0  0  0  0
 21 23  1  0  0  0  0
 46 47  1  0  0  0  0
 21 22  1  0  0  0  0
 36 37  1  0  0  0  0
  7  8  1  0  0  0  0
 18 21  1  0  0  0  0
 17 18  1  0  0  0  0
  3  4  1  0  0  0  0
  3  5  1  0  0  0  0
  3  6  1  0  0  0  0
 24 33  1  0  0  0  0
 24 34  1  0  0  0  0
 24 35  1  0  0  0  0
 40 43  1  0  0  0  0
 40 44  1  0  0  0  0
 40 45  1  0  0  0  0
 11 14  1  0  0  0  0
 11 15  1  0  0  0  0
 11 16  1  0  0  0  0
 23 30  1  0  0  0  0
 23 31  1  0  0  0  0
 23 32  1  0  0  0  0
 47 49  1  0  0  0  0
 47 50  1  0  0  0  0
 47 51  1  0  0  0  0
 22 28  1  0  0  0  0
 22 29  1  0  0  0  0
 37 42  1  0  0  0  0
  8 13  1  0  0  0  0
 18 26  1  0  0  0  0
 21 27  1  0  0  0  0
 46 48  1  0  0  0  0
  7 12  1  0  0  0  0
 36 41  1  0  0  0  0
 17 25  1  0  0  0  0
M  END
$$$$

  -OEChem-02062319033D

 51 50  0     1  0  0  0  0  0999 V2000
    1.3524   -3.0009    1.4091 C   0  0  0  0  0  0  0  0  0  0  0  0
    1.8758   -1.9880    0.9598 O   0  0  0  0  0  0  0  0  0  0  0  0
    2.2030   -4.1782    1.7536 C   0  0  0  0  0  0  0  0  0  0  0  0
    2.3264   -4.8705    0.9053 H   0  0  0  0  0  0  0  0  0  0  0  0
    3.2257   -3.8876    2.0432 H   0  0  0  0  0  0  0  0  0  0  0  0
    1.8327   -4.8004    2.5839 H   0  0  0  0  0  0  0  0  0  0  0  0
    0.0005   -3.1873    1.6465 N   0  0  0  0  0  0  0  0  0  0  0  0
   -0.9949   -2.1807    1.3864 C   0  0  2  0  0  0  0  0  0  0  0  0
   -0.3083   -0.8216    1.4164 C   0  0  0  0  0  0  0  0  0  0  0  0
    0.7533   -0.6191    2.0022 O   0  0  0  0  0  0  0  0  0  0  0  0
   -2.1232   -2.2423    2.4042 C   0  0  0  0  0  0  0  0  0  0  0  0
   -0.3048   -4.0823    2.0245 H   0  0  0  0  0  0  0  0  0  0  0  0
   -1.3830   -2.3724    0.3801 H   0  0  0  0  0  0  0  0  0  0  0  0
   -1.7534   -2.0527    3.4185 H   0  0  0  0  0  0  0  0  0  0  0  0
   -2.8936   -1.4947    2.1882 H   0  0  0  0  0  0  0  0  0  0  0  0
   -2.5964   -3.2301    2.4022 H   0  0  0  0  0  0  0  0  0  0  0  0
   -1.0412    0.1517    0.7482 N   0  0  0  0  0  0  0  0  0  0  0  0
   -1.3762    0.0536   -0.6500 C   0  0  2  0  0  0  0  0  0  0  0  0
   -0.0748   -0.0173   -1.4477 C   0  0  0  0  0  0  0  0  0  0  0  0
    0.0946   -0.7993   -2.3811 O   0  0  0  0  0  0  0  0  0  0  0  0
   -2.3041    1.1953   -1.1308 C   0  0  2  0  0  0  0  0  0  0  0  0
   -3.6755    1.1726   -0.4199 C   0  0  0  0  0  0  0  0  0  0  0  0
   -2.4567    1.1448   -2.6568 C   0  0  0  0  0  0  0  0  0  0  0  0
   -4.5084    2.4237   -0.6677 C   0  0  0  0  0  0  0  0  0  0  0  0
   -1.3928    0.9523    1.2681 H   0  0  0  0  0  0  0  0  0  0  0  0
   -1.8854   -0.9113   -0.7694 H   0  0  0  0  0  0  0  0  0  0  0  0
   -1.8190    2.1503   -0.8885 H   0  0  0  0  0  0  0  0  0  0  0  0
   -4.2567    0.3120   -0.7705 H   0  0  0  0  0  0  0  0  0  0  0  0
   -3.5436    1.0471    0.6613 H   0  0  0  0  0  0  0  0  0  0  0  0
   -2.9372    0.2114   -2.9693 H   0  0  0  0  0  0  0  0  0  0  0  0
   -3.0840    1.9647   -3.0195 H   0  0  0  0  0  0  0  0  0  0  0  0
   -1.4867    1.2128   -3.1600 H   0  0  0  0  0  0  0  0  0  0  0  0
   -3.9863    3.3269   -0.3395 H   0  0  0  0  0  0  0  0  0  0  0  0
   -5.4474    2.3650   -0.1075 H   0  0  0  0  0  0  0  0  0  0  0  0
   -4.7542    2.5289   -1.7290 H   0  0  0  0  0  0  0  0  0  0  0  0
    0.8564    0.9159   -1.0146 N   0  0  0  0  0  0  0  0  0  0  0  0
    2.1620    1.0706   -1.6147 C   0  0  2  0  0  0  0  0  0  0  0  0
    2.6138    2.5081   -1.3939 C   0  0  0  0  0  0  0  0  0  0  0  0
    1.8316    3.4310   -1.1757 O   0  0  0  0  0  0  0  0  0  0  0  0
    2.1335    0.7314   -3.0969 C   0  0  0  0  0  0  0  0  0  0  0  0
    0.6081    1.5204   -0.2371 H   0  0  0  0  0  0  0  0  0  0  0  0
    2.8366    0.3896   -1.0843 H   0  0  0  0  0  0  0  0  0  0  0  0
    1.4628    1.4032   -3.6449 H   0  0  0  0  0  0  0  0  0  0  0  0
    3.1291    0.8215   -3.5438 H   0  0  0  0  0  0  0  0  0  0  0  0
    1.7799   -0.2931   -3.2555 H   0  0  0  0  0  0  0  0  0  0  0  0
    3.9896    2.6468   -1.5118 N   0  0  0  0  0  0  0  0  0  0  0  0
    4.6614    3.9161   -1.3578 C   0  0  0  0  0  0  0  0  0  0  0  0
    4.5626    1.8241   -1.6752 H   0  0  0  0  0  0  0  0  0  0  0  0
    4.7676    4.3970   -2.3413 H   0  0  0  0  0  0  0  0  0  0  0  0
    4.0710    4.5651   -0.6943 H   0  0  0  0  0  0  0  0  0  0  0  0
    5.6572    3.7530   -0.9200 H   0  0  0  0  0  0  0  0  0  0  0  0
  1  3  1  0  0  0  0
  1  7  1  0  0  0  0
  1  2  2  0  0  0  0
 37 38  1  0  0  0  0
 38 46  1  0  0  0  0
 38 39  2  0  0  0  0
  8  9  1  0  0  0  0
  9 17  1  0  0  0  0
  9 10  2  0  0  0  0
 18 19  1  0  0  0  0
 19 36  1  0  0  0  0
 19 20  2  0  0  0  0
 22 24  1  0  0  0  0
 37 40  1  0  0  0  0
  8 11  1  0  0  0  0
 21 23  1  0  0  0  0
 46 47  1  0  0  0  0
 21 22  1  0  0  0  0
 36 37  1  0  0  0  0
  7  8  1  0  0  0  0
 18 21  1  0  0  0  0
 17 18  1  0  0  0  0
  3  4  1  0  0  0  0
  3  5  1  0  0  0  0
  3  6  1  0  0  0  0
 24 33  1  0  0  0  0
 24 34  1  0  0  0  0
 24 35  1  0  0  0  0
 40 43  1  0  0  0  0
 40 44  1  0  0  0  0
 40 45  1  0  0  0  0
 11 14  1  0  0  0  0
 11 15  1  0  0  0  0
 11 16  1  0  0  0  0
 23 30  1  0  0  0  0
 23 31  1  0  0  0  0
 23 32  1  0  0  0  0
 47 49  1  0  0  0  0
 47 50  1  0  0  0  0
 47 51  1  0  0  0  0
 22 28  1  0  0  0  0
 22 29  1  0  0  0  0
 37 42  1  0  0  0  0
  8 13  1  0  0  0  0
 18 26  1  0  0  0  0
 21 27  1  0  0  0  0
 46 48  1  0  0  0  0
  7 12  1  0  0  0  0
 36 41  1  0  0  0  0
 17 25  1  0  0  0  0
M  END
$$$$

  -OEChem-02062319033D

 51 50  0     1  0  0  0  0  0999 V2000
    1.3524   -3.0009    1.4091 C   0  0  0  0  0  0  0  0  0  0  0  0
    1.8758   -1.9880    0.9598 O   0  0  0  0  0  0  0  0  0  0  0  0
    2.2030   -4.1782    1.7536 C   0  0  0  0  0  0  0  0  0  0  0  0
    2.3264   -4.8705    0.9053 H   0  0  0  0  0  0  0  0  0  0  0  0
    3.2257   -3.8876    2.0432 H   0  0  0  0  0  0  0  0  0  0  0  0
    1.8327   -4.8004    2.5839 H   0  0  0  0  0  0  0  0  0  0  0  0
    0.0005   -3.1873    1.6465 N   0  0  0  0  0  0  0  0  0  0  0  0
   -0.9949   -2.1807    1.3864 C   0  0  2  0  0  0  0  0  0  0  0  0
   -0.3083   -0.8216    1.4164 C   0  0  0  0  0  0  0  0  0  0  0  0
    0.7533   -0.6191    2.0022 O   0  0  0  0  0  0  0  0  0  0  0  0
   -2.1232   -2.2423    2.4042 C   0  0  0  0  0  0  0  0  0  0  0  0
   -0.3048   -4.0823    2.0245 H   0  0  0  0  0  0  0  0  0  0  0  0
   -1.3830   -2.3724    0.3801 H   0  0  0  0  0  0  0  0  0  0  0  0
   -1.7534   -2.0527    3.4185 H   0  0  0  0  0  0  0  0  0  0  0  0
   -2.8936   -1.4947    2.1882 H   0  0  0  0  0  0  0  0  0  0  0  0
   -2.5964   -3.2301    2.4022 H   0  0  0  0  0  0  0  0  0  0  0  0
   -1.0412    0.1517    0.7482 N   0  0  0  0  0  0  0  0  0  0  0  0
   -1.6445   -0.0736   -0.5410 C   0  0  2  0  0  0  0  0  0  0  0  0
   -0.5345   -0.4214   -1.5320 C   0  0  0  0  0  0  0  0  0  0  0  0
   -0.6340   -1.3297   -2.3544 O   0  0  0  0  0  0  0  0  0  0  0  0
   -2.5131    1.1153   -1.0180 C   0  0  2  0  0  0  0  0  0  0  0  0
   -3.7183    1.3698   -0.0856 C   0  0  0  0  0  0  0  0  0  0  0  0
   -2.9575    0.8958   -2.4702 C   0  0  0  0  0  0  0  0  0  0  0  0
   -4.4379    2.6824   -0.3683 C   0  0  0  0  0  0  0  0  0  0  0  0
   -1.1959    1.0516    1.1967 H   0  0  0  0  0  0  0  0  0  0  0  0
   -2.2718   -0.9669   -0.4266 H   0  0  0  0  0  0  0  0  0  0  0  0
   -1.8871    2.0175   -1.0072 H   0  0  0  0  0  0  0  0  0  0  0  0
   -4.4481    0.5600   -0.1993 H   0  0  0  0  0  0  0  0  0  0  0  0
   -3.3984    1.3636    0.9631 H   0  0  0  0  0  0  0  0  0  0  0  0
   -3.5900    0.0054   -2.5534 H   0  0  0  0  0  0  0  0  0  0  0  0
   -3.5466    1.7421   -2.8365 H   0  0  0  0  0  0  0  0  0  0  0  0
   -2.0993    0.7668   -3.1377 H   0  0  0  0  0  0  0  0  0  0  0  0
   -3.7652    3.5394   -0.2725 H   0  0  0  0  0  0  0  0  0  0  0  0
   -5.2540    2.8234    0.3480 H   0  0  0  0  0  0  0  0  0  0  0  0
   -4.8675    2.6867   -1.3749 H   0  0  0  0  0  0  0  0  0  0  0  0
    0.5604    0.4221   -1.4091 N   0  0  0  0  0  0  0  0  0  0  0  0
    1.7373    0.3202   -2.2418 C   0  0  2  0  0  0  0  0  0  0  0  0
    2.3807    1.6985   -2.3175 C   0  0  0  0  0  0  0  0  0  0  0  0
    1.7624    2.7399   -2.1066 O   0  0  0  0  0  0  0  0  0  0  0  0
    1.3900   -0.1945   -3.6300 C   0  0  0  0  0  0  0  0  0  0  0  0
    0.5335    1.1474   -0.6986 H   0  0  0  0  0  0  0  0  0  0  0  0
    2.4198   -0.3751   -1.7410 H   0  0  0  0  0  0  0  0  0  0  0  0
    0.7069    0.4891   -4.1473 H   0  0  0  0  0  0  0  0  0  0  0  0
    2.2863   -0.2983   -4.2504 H   0  0  0  0  0  0  0  0  0  0  0  0
    0.9004   -1.1726   -3.5718 H   0  0  0  0  0  0  0  0  0  0  0  0
    3.7158    1.6315   -2.6904 N   0  0  0  0  0  0  0  0  0  0  0  0
    4.5422    2.8059   -2.8442 C   0  0  0  0  0  0  0  0  0  0  0  0
    4.1516    0.7241   -2.8267 H   0  0  0  0  0  0  0  0  0  0  0  0
    4.5129    3.1410   -3.8915 H   0  0  0  0  0  0  0  0  0  0  0  0
    4.1650    3.6075   -2.1922 H   0  0  0  0  0  0  0  0  0  0  0  0
    5.5785    2.5639   -2.5656 H   0  0  0  0  0  0  0  0  0  0  0  0
  1  3  1  0  0  0  0
  1  7  1  0  0  0  0
  1  2  2  0  0  0  0
 37 38  1  0  0  0  0
 38 46  1  0  0  0  0
 38 39  2  0  0  0  0
  8  9  1  0  0  0  0
  9 17  1  0  0  0  0
  9 10  2  0  0  0  0
 18 19  1  0  0  0  0
 19 36  1  0  0  0  0
 19 20  2  0  0  0  0
 22 24  1  0  0  0  0
 37 40  1  0  0  0  0
  8 11  1  0  0  0  0
 21 23  1  0  0  0  0
 46 47  1  0  0  0  0
 21 22  1  0  0  0  0
 36 37  1  0  0  0  0
  7  8  1  0  0  0  0
 18 21  1  0  0  0  0
 17 18  1  0  0  0  0
  3  4  1  0  0  0  0
  3  5  1  0  0  0  0
  3  6  1  0  0  0  0
 24 33  1  0  0  0  0
 24 34  1  0  0  0  0
 24 35  1  0  0  0  0
 40 43  1  0  0  0  0
 40 44  1  0  0  0  0
 40 45  1  0  0  0  0
 11 14  1  0  0  0  0
 11 15  1  0  0  0  0
 11 16  1  0  0  0  0
 23 30  1  0  0  0  0
 23 31  1  0  0  0  0
 23 32  1  0  0  0  0
 47 49  1  0  0  0  0
 47 50  1  0  0  0  0
 47 51  1  0  0  0  0
 22 28  1  0  0  0  0
 22 29  1  0  0  0  0
 37 42  1  0  0  0  0
  8 13  1  0  0  0  0
 18 26  1  0  0  0  0
 21 27  1  0  0  0  0
 46 48  1  0  0  0  0
  7 12  1  0  0  0  0
 36 41  1  0  0  0  0
 17 25  1  0  0  0  0
M  END
$$$$

  -OEChem-02062319033D

 51 50  0     1  0  0  0  0  0999 V2000
    1.3524   -3.0009    1.4091 C   0  0  0  0  0  0  0  0  0  0  0  0
    1.8758   -1.9880    0.9598 O   0  0  0  0  0  0  0  0  0  0  0  0
    2.2030   -4.1782    1.7536 C   0  0  0  0  0  0  0  0  0  0  0  0
    2.3264   -4.8705    0.9053 H   0  0  0  0  0  0  0  0  0  0  0  0
    3.2257   -3.8876    2.0432 H   0  0  0  0  0  0  0  0  0  0  0  0
    1.8327   -4.8004    2.5839 H   0  0  0  0  0  0  0  0  0  0  0  0
    0.0005   -3.1873    1.6465 N   0  0  0  0  0  0  0  0  0  0  0  0
   -0.9949   -2.1807    1.3864 C   0  0  2  0  0  0  0  0  0  0  0  0
   -0.3083   -0.8216    1.4164 C   0  0  0  0  0  0  0  0  0  0  0  0
    0.7533   -0.6191    2.0022 O   0  0  0  0  0  0  0  0  0  0  0  0
   -2.1232   -2.2423    2.4042 C   0  0  0  0  0  0  0  0  0  0  0  0
   -0.3048   -4.0823    2.0245 H   0  0  0  0  0  0  0  0  0  0  0  0
   -1.3830   -2.3724    0.3801 H   0  0  0  0  0  0  0  0  0  0  0  0
   -1.7534   -2.0527    3.4185 H   0  0  0  0  0  0  0  0  0  0  0  0
   -2.8936   -1.4947    2.1882 H   0  0  0  0  0  0  0  0  0  0  0  0
   -2.5964   -3.2301    2.4022 H   0  0  0  0  0  0  0  0  0  0  0  0
   -1.0412    0.1517    0.7482 N   0  0  0  0  0  0  0  0  0  0  0  0
   -1.8997   -0.1482   -0.3697 C   0  0  2  0  0  0  0  0  0  0  0  0
   -1.0441   -0.7660   -1.4749 C   0  0  0  0  0  0  0  0  0  0  0  0
   -1.3990   -1.7478   -2.1242 O   0  0  0  0  0  0  0  0  0  0  0  0
   -2.7046    1.0794   -0.8602 C   0  0  2  0  0  0  0  0  0  0  0  0
   -3.6746    1.6113    0.2181 C   0  0  0  0  0  0  0  0  0  0  0  0
   -3.4384    0.7430   -2.1652 C   0  0  0  0  0  0  0  0  0  0  0  0
   -4.2833    2.9644   -0.1272 C   0  0  0  0  0  0  0  0  0  0  0  0
   -1.0062    1.1132    1.0784 H   0  0  0  0  0  0  0  0  0  0  0  0
   -2.5898   -0.9258   -0.0179 H   0  0  0  0  0  0  0  0  0  0  0  0
   -1.9910    1.8816   -1.0913 H   0  0  0  0  0  0  0  0  0  0  0  0
   -4.4986    0.9013    0.3533 H   0  0  0  0  0  0  0  0  0  0  0  0
   -3.1640    1.6924    1.1851 H   0  0  0  0  0  0  0  0  0  0  0  0
   -4.1707   -0.0556   -2.0052 H   0  0  0  0  0  0  0  0  0  0  0  0
   -3.9879    1.6096   -2.5454 H   0  0  0  0  0  0  0  0  0  0  0  0
   -2.7425    0.4152   -2.9443 H   0  0  0  0  0  0  0  0  0  0  0  0
   -3.5131    3.7263   -0.2768 H   0  0  0  0  0  0  0  0  0  0  0  0
   -4.9275    3.3043    0.6904 H   0  0  0  0  0  0  0  0  0  0  0  0
   -4.8930    2.9016   -1.0339 H   0  0  0  0  0  0  0  0  0  0  0  0
    0.1416   -0.0718   -1.6692 N   0  0  0  0  0  0  0  0  0  0  0  0
    1.1199   -0.4373   -2.6681 C   0  0  2  0  0  0  0  0  0  0  0  0
    1.8873    0.8194   -3.0568 C   0  0  0  0  0  0  0  0  0  0  0  0
    1.4408    1.9538   -2.8989 O   0  0  0  0  0  0  0  0  0  0  0  0
    0.4599   -1.0691   -3.8838 C   0  0  0  0  0  0  0  0  0  0  0  0
    0.3313    0.7334   -1.0799 H   0  0  0  0  0  0  0  0  0  0  0  0
    1.8030   -1.1515   -2.1953 H   0  0  0  0  0  0  0  0  0  0  0  0
   -0.2282   -0.3685   -4.3708 H   0  0  0  0  0  0  0  0  0  0  0  0
    1.2047   -1.3715   -4.6274 H   0  0  0  0  0  0  0  0  0  0  0  0
   -0.1160   -1.9559   -3.5979 H   0  0  0  0  0  0  0  0  0  0  0  0
    3.1113    0.5239   -3.6406 N   0  0  0  0  0  0  0  0  0  0  0  0
    4.0195    1.5455   -4.1068 C   0  0  0  0  0  0  0  0  0  0  0  0
    3.4089   -0.4444   -3.7143 H   0  0  0  0  0  0  0  0  0  0  0  0
    3.8295    1.7478   -5.1712 H   0  0  0  0  0  0  0  0  0  0  0  0
    3.8651    2.4664   -3.5254 H   0  0  0  0  0  0  0  0  0  0  0  0
    5.0562    1.2006   -3.9787 H   0  0  0  0  0  0  0  0  0  0  0  0
  1  3  1  0  0  0  0
  1  7  1  0  0  0  0
  1  2  2  0  0  0  0
 37 38  1  0  0  0  0
 38 46  1  0  0  0  0
 38 39  2  0  0  0  0
  8  9  1  0  0  0  0
  9 17  1  0  0  0  0
  9 10  2  0  0  0  0
 18 19  1  0  0  0  0
 19 36  1  0  0  0  0
 19 20  2  0  0  0  0
 22 24  1  0  0  0  0
 37 40  1  0  0  0  0
  8 11  1  0  0  0  0
 21 23  1  0  0  0  0
 46 47  1  0  0  0  0
 21 22  1  0  0  0  0
 36 37  1  0  0  0  0
  7  8  1  0  0  0  0
 18 21  1  0  0  0  0
 17 18  1  0  0  0  0
  3  4  1  0  0  0  0
  3  5  1  0  0  0  0
  3  6  1  0  0  0  0
 24 33  1  0  0  0  0
 24 34  1  0  0  0  0
 24 35  1  0  0  0  0
 40 43  1  0  0  0  0
 40 44  1  0  0  0  0
 40 45  1  0  0  0  0
 11 14  1  0  0  0  0
 11 15  1  0  0  0  0
 11 16  1  0  0  0  0
 23 30  1  0  0  0  0
 23 31  1  0  0  0  0
 23 32  1  0  0  0  0
 47 49  1  0  0  0  0
 47 50  1  0  0  0  0
 47 51  1  0  0  0  0
 22 28  1  0  0  0  0
 22 29  1  0  0  0  0
 37 42  1  0  0  0  0
  8 13  1  0  0  0  0
 18 26  1  0  0  0  0
 21 27  1  0  0  0  0
 46 48  1  0  0  0  0
  7 12  1  0  0  0  0
 36 41  1  0  0  0  0
 17 25  1  0  0  0  0
M  END
$$$$

  -OEChem-02062319033D

 51 50  0     1  0  0  0  0  0999 V2000
    1.3524   -3.0009    1.4091 C   0  0  0  0  0  0  0  0  0  0  0  0
    1.8758   -1.9880    0.9598 O   0  0  0  0  0  0  0  0  0  0  0  0
    2.2030   -4.1782    1.7536 C   0  0  0  0  0  0  0  0  0  0  0  0
    2.3264   -4.8705    0.9053 H   0  0  0  0  0  0  0  0  0  0  0  0
    3.2257   -3.8876    2.0432 H   0  0  0  0  0  0  0  0  0  0  0  0
    1.8327   -4.8004    2.5839 H   0  0  0  0  0  0  0  0  0  0  0  0
    0.0005   -3.1873    1.6465 N   0  0  0  0  0  0  0  0  0  0  0  0
   -0.9949   -2.1807    1.3864 C   0  0  2  0  0  0  0  0  0  0  0  0
   -0.3083   -0.8216    1.4164 C   0  0  0  0  0  0  0  0  0  0  0  0
    0.7533   -0.6191    2.0022 O   0  0  0  0  0  0  0  0  0  0  0  0
   -2.1232   -2.2423    2.4042 C   0  0  0  0  0  0  0  0  0  0  0  0
   -0.3048   -4.0823    2.0245 H   0  0  0  0  0  0  0  0  0  0  0  0
   -1.3830   -2.3724    0.3801 H   0  0  0  0  0  0  0  0  0  0  0  0
   -1.7534   -2.0527    3.4185 H   0  0  0  0  0  0  0  0  0  0  0  0
   -2.8936   -1.4947    2.1882 H   0  0  0  0  0  0  0  0  0  0  0  0
   -2.5964   -3.2301    2.4022 H   0  0  0  0  0  0  0  0  0  0  0  0
   -1.0412    0.1517    0.7482 N   0  0  0  0  0  0  0  0  0  0  0  0
   -2.1245   -0.1652   -0.1478 C   0  0  2  0  0  0  0  0  0  0  0  0
   -1.5689   -1.0276   -1.2804 C   0  0  0  0  0  0  0  0  0  0  0  0
   -2.1483   -2.0249   -1.7061 O   0  0  0  0  0  0  0  0  0  0  0  0
   -2.8654    1.0902   -0.6682 C   0  0  2  0  0  0  0  0  0  0  0  0
   -3.5472    1.8805    0.4707 C   0  0  0  0  0  0  0  0  0  0  0  0
   -3.8666    0.6970   -1.7625 C   0  0  0  0  0  0  0  0  0  0  0  0
   -4.0552    3.2504    0.0392 C   0  0  0  0  0  0  0  0  0  0  0  0
   -0.8368    1.1330    0.9215 H   0  0  0  0  0  0  0  0  0  0  0  0
   -2.8177   -0.7906    0.4290 H   0  0  0  0  0  0  0  0  0  0  0  0
   -2.1235    1.7517   -1.1351 H   0  0  0  0  0  0  0  0  0  0  0  0
   -4.4047    1.3127    0.8496 H   0  0  0  0  0  0  0  0  0  0  0  0
   -2.8565    2.0112    1.3121 H   0  0  0  0  0  0  0  0  0  0  0  0
   -4.6399    0.0325   -1.3622 H   0  0  0  0  0  0  0  0  0  0  0  0
   -4.3778    1.5763   -2.1662 H   0  0  0  0  0  0  0  0  0  0  0  0
   -3.3725    0.1821   -2.5929 H   0  0  0  0  0  0  0  0  0  0  0  0
   -3.2471    3.8748   -0.3522 H   0  0  0  0  0  0  0  0  0  0  0  0
   -4.4902    3.7750    0.8963 H   0  0  0  0  0  0  0  0  0  0  0  0
   -4.8291    3.1589   -0.7292 H   0  0  0  0  0  0  0  0  0  0  0  0
   -0.3716   -0.5323   -1.7770 N   0  0  0  0  0  0  0  0  0  0  0  0
    0.3520   -1.1504   -2.8645 C   0  0  2  0  0  0  0  0  0  0  0  0
    1.1673   -0.0692   -3.5616 C   0  0  0  0  0  0  0  0  0  0  0  0
    0.8887    1.1264   -3.4985 O   0  0  0  0  0  0  0  0  0  0  0  0
   -0.5933   -1.8328   -3.8410 C   0  0  0  0  0  0  0  0  0  0  0  0
    0.0155    0.3067   -1.3551 H   0  0  0  0  0  0  0  0  0  0  0  0
    1.0282   -1.8866   -2.4164 H   0  0  0  0  0  0  0  0  0  0  0  0
   -1.2786   -1.1109   -4.3001 H   0  0  0  0  0  0  0  0  0  0  0  0
   -0.0418   -2.3250   -4.6489 H   0  0  0  0  0  0  0  0  0  0  0  0
   -1.1999   -2.5895   -3.3319 H   0  0  0  0  0  0  0  0  0  0  0  0
    2.2172   -0.6003   -4.2976 N   0  0  0  0  0  0  0  0  0  0  0  0
    3.1289    0.2208   -5.0596 C   0  0  0  0  0  0  0  0  0  0  0  0
    2.3853   -1.6019   -4.2774 H   0  0  0  0  0  0  0  0  0  0  0  0
    2.7640    0.3125   -6.0932 H   0  0  0  0  0  0  0  0  0  0  0  0
    3.1917    1.2196   -4.6030 H   0  0  0  0  0  0  0  0  0  0  0  0
    4.1258   -0.2443   -5.0627 H   0  0  0  0  0  0  0  0  0  0  0  0
  1  3  1  0  0  0  0
  1  7  1  0  0  0  0
  1  2  2  0  0  0  0
 37 38  1  0  0  0  0
 38 46  1  0  0  0  0
 38 39  2  0  0  0  0
  8  9  1  0  0  0  0
  9 17  1  0  0  0  0
  9 10  2  0  0  0  0
 18 19  1  0  0  0  0
 19 36  1  0  0  0  0
 19 20  2  0  0  0  0
 22 24  1  0  0  0  0
 37 40  1  0  0  0  0
  8 11  1  0  0  0  0
 21 23  1  0  0  0  0
 46 47  1  0  0  0  0
 21 22  1  0  0  0  0
 36 37  1  0  0  0  0
  7  8  1  0  0  0  0
 18 21  1  0  0  0  0
 17 18  1  0  0  0  0
  3  4  1  0  0  0  0
  3  5  1  0  0  0  0
  3  6  1  0  0  0  0
 24 33  1  0  0  0  0
 24 34  1  0  0  0  0
 24 35  1  0  0  0  0
 40 43  1  0  0  0  0
 40 44  1  0  0  0  0
 40 45  1  0  0  0  0
 11 14  1  0  0  0  0
 11 15  1  0  0  0  0
 11 16  1  0  0  0  0
 23 30  1  0  0  0  0
 23 31  1  0  0  0  0
 23 32  1  0  0  0  0
 47 49  1  0  0  0  0
 47 50  1  0  0  0  0
 47 51  1  0  0  0  0
 22 28  1  0  0  0  0
 22 29  1  0  0  0  0
 37 42  1  0  0  0  0
  8 13  1  0  0  0  0
 18 26  1  0  0  0  0
 21 27  1  0  0  0  0
 46 48  1  0  0  0  0
  7 12  1  0  0  0  0
 36 41  1  0  0  0  0
 17 25  1  0  0  0  0
M  END
$$$$

  -OEChem-02062319033D

 51 50  0     1  0  0  0  0  0999 V2000
    1.3524   -3.0009    1.4091 C   0  0  0  0  0  0  0  0  0  0  0  0
    1.8758   -1.9880    0.9598 O   0  0  0  0  0  0  0  0  0  0  0  0
    2.2030   -4.1782    1.7536 C   0  0  0  0  0  0  0  0  0  0  0  0
    2.3264   -4.8705    0.9053 H   0  0  0  0  0  0  0  0  0  0  0  0
    3.2257   -3.8876    2.0432 H   0  0  0  0  0  0  0  0  0  0  0  0
    1.8327   -4.8004    2.5839 H   0  0  0  0  0  0  0  0  0  0  0  0
    0.0005   -3.1873    1.6465 N   0  0  0  0  0  0  0  0  0  0  0  0
   -0.9949   -2.1807    1.3864 C   0  0  2  0  0  0  0  0  0  0  0  0
   -0.3083   -0.8216    1.4164 C   0  0  0  0  0  0  0  0  0  0  0  0
    0.7533   -0.6191    2.0022 O   0  0  0  0  0  0  0  0  0  0  0  0
   -2.1232   -2.2423    2.4042 C   0  0  0  0  0  0  0  0  0  0  0  0
   -0.3048   -4.0823    2.0245 H   0  0  0  0  0  0  0  0  0  0  0  0
   -1.3830   -2.3724    0.3801 H   0  0  0  0  0  0  0  0  0  0  0  0
   -1.7534   -2.0527    3.4185 H   0  0  0  0  0  0  0  0  0  0  0  0
   -2.8936   -1.4947    2.1882 H   0  0  0  0  0  0  0  0  0  0  0  0
   -2.5964   -3.2301    2.4022 H   0  0  0  0  0  0  0  0  0  0  0  0
   -1.0412    0.1517    0.7482 N   0  0  0  0  0  0  0  0  0  0  0  0
   -2.3035   -0.1233    0.1095 C   0  0  2  0  0  0  0  0  0  0  0  0
   -2.0732   -1.1885   -0.9616 C   0  0  0  0  0  0  0  0  0  0  0  0
   -2.8307   -2.1423   -1.1286 O   0  0  0  0  0  0  0  0  0  0  0  0
   -2.9845    1.1468   -0.4551 C   0  0  2  0  0  0  0  0  0  0  0  0
   -3.3449    2.1592    0.6547 C   0  0  0  0  0  0  0  0  0  0  0  0
   -4.2130    0.7608   -1.2897 C   0  0  0  0  0  0  0  0  0  0  0  0
   -3.7691    3.5210    0.1196 C   0  0  0  0  0  0  0  0  0  0  0  0
   -0.6992    1.1096    0.7364 H   0  0  0  0  0  0  0  0  0  0  0  0
   -2.9400   -0.5707    0.8835 H   0  0  0  0  0  0  0  0  0  0  0  0
   -2.2755    1.6368   -1.1357 H   0  0  0  0  0  0  0  0  0  0  0  0
   -4.1729    1.7662    1.2558 H   0  0  0  0  0  0  0  0  0  0  0  0
   -2.4967    2.2982    1.3356 H   0  0  0  0  0  0  0  0  0  0  0  0
   -4.9655    0.2639   -0.6680 H   0  0  0  0  0  0  0  0  0  0  0  0
   -4.6899    1.6444   -1.7246 H   0  0  0  0  0  0  0  0  0  0  0  0
   -3.9463    0.0833   -2.1074 H   0  0  0  0  0  0  0  0  0  0  0  0
   -2.9854    3.9749   -0.4935 H   0  0  0  0  0  0  0  0  0  0  0  0
   -3.9719    4.2032    0.9517 H   0  0  0  0  0  0  0  0  0  0  0  0
   -4.6801    3.4411   -0.4816 H   0  0  0  0  0  0  0  0  0  0  0  0
   -0.9442   -0.9279   -1.7252 N   0  0  0  0  0  0  0  0  0  0  0  0
   -0.5140   -1.7705   -2.8177 C   0  0  2  0  0  0  0  0  0  0  0  0
    0.2697   -0.9069   -3.7972 C   0  0  0  0  0  0  0  0  0  0  0  0
    0.1437    0.3140   -3.8647 O   0  0  0  0  0  0  0  0  0  0  0  0
   -1.6979   -2.4335   -3.5044 C   0  0  0  0  0  0  0  0  0  0  0  0
   -0.3927   -0.1038   -1.5053 H   0  0  0  0  0  0  0  0  0  0  0  0
    0.1482   -2.5305   -2.3891 H   0  0  0  0  0  0  0  0  0  0  0  0
   -2.3728   -1.6877   -3.9400 H   0  0  0  0  0  0  0  0  0  0  0  0
   -1.3685   -3.0937   -4.3135 H   0  0  0  0  0  0  0  0  0  0  0  0
   -2.2776   -3.0303   -2.7919 H   0  0  0  0  0  0  0  0  0  0  0  0
    1.0947   -1.6647   -4.6167 N   0  0  0  0  0  0  0  0  0  0  0  0
    1.9310   -1.0781   -5.6376 C   0  0  0  0  0  0  0  0  0  0  0  0
    1.1503   -2.6694   -4.4778 H   0  0  0  0  0  0  0  0  0  0  0  0
    1.3891   -1.0672   -6.5948 H   0  0  0  0  0  0  0  0  0  0  0  0
    2.1907   -0.0481   -5.3516 H   0  0  0  0  0  0  0  0  0  0  0  0
    2.8508   -1.6721   -5.7439 H   0  0  0  0  0  0  0  0  0  0  0  0
  1  3  1  0  0  0  0
  1  7  1  0  0  0  0
  1  2  2  0  0  0  0
 37 38  1  0  0  0  0
 38 46  1  0  0  0  0
 38 39  2  0  0  0  0
  8  9  1  0  0  0  0
  9 17  1  0  0  0  0
  9 10  2  0  0  0  0
 18 19  1  0  0  0  0
 19 36  1  0  0  0  0
 19 20  2  0  0  0  0
 22 24  1  0  0  0  0
 37 40  1  0  0  0  0
  8 11  1  0  0  0  0
 21 23  1  0  0  0  0
 46 47  1  0  0  0  0
 21 22  1  0  0  0  0
 36 37  1  0  0  0  0
  7  8  1  0  0  0  0
 18 21  1  0  0  0  0
 17 18  1  0  0  0  0
  3  4  1  0  0  0  0
  3  5  1  0  0  0  0
  3  6  1  0  0  0  0
 24 33  1  0  0  0  0
 24 34  1  0  0  0  0
 24 35  1  0  0  0  0
 40 43  1  0  0  0  0
 40 44  1  0  0  0  0
 40 45  1  0  0  0  0
 11 14  1  0  0  0  0
 11 15  1  0  0  0  0
 11 16  1  0  0  0  0
 23 30  1  0  0  0  0
 23 31  1  0  0  0  0
 23 32  1  0  0  0  0
 47 49  1  0  0  0  0
 47 50  1  0  0  0  0
 47 51  1  0  0  0  0
 22 28  1  0  0  0  0
 22 29  1  0  0  0  0
 37 42  1  0  0  0  0
  8 13  1  0  0  0  0
 18 26  1  0  0  0  0
 21 27  1  0  0  0  0
 46 48  1  0  0  0  0
  7 12  1  0  0  0  0
 36 41  1  0  0  0  0
 17 25  1  0  0  0  0
M  END
$$$$

  -OEChem-02062319033D

 51 50  0     1  0  0  0  0  0999 V2000
    1.3524   -3.0009    1.4091 C   0  0  0  0  0  0  0  0  0  0  0  0
    1.8758   -1.9880    0.9598 O   0  0  0  0  0  0  0  0  0  0  0  0
    2.2030   -4.1782    1.7536 C   0  0  0  0  0  0  0  0  0  0  0  0
    2.3264   -4.8705    0.9053 H   0  0  0  0  0  0  0  0  0  0  0  0
    3.2257   -3.8876    2.0432 H   0  0  0  0  0  0  0  0  0  0  0  0
    1.8327   -4.8004    2.5839 H   0  0  0  0  0  0  0  0  0  0  0  0
    0.0005   -3.1873    1.6465 N   0  0  0  0  0  0  0  0  0  0  0  0
   -0.9949   -2.1807    1.3864 C   0  0  2  0  0  0  0  0  0  0  0  0
   -0.3083   -0.8216    1.4164 C   0  0  0  0  0  0  0  0  0  0  0  0
    0.7533   -0.6191    2.0022 O   0  0  0  0  0  0  0  0  0  0  0  0
   -2.1232   -2.2423    2.4042 C   0  0  0  0  0  0  0  0  0  0  0  0
   -0.3048   -4.0823    2.0245 H   0  0  0  0  0  0  0  0  0  0  0  0
   -1.3830   -2.3724    0.3801 H   0  0  0  0  0  0  0  0  0  0  0  0
   -1.7534   -2.0527    3.4185 H   0  0  0  0  0  0  0  0  0  0  0  0
   -2.8936   -1.4947    2.1882 H   0  0  0  0  0  0  0  0  0  0  0  0
   -2.5964   -3.2301    2.4022 H   0  0  0  0  0  0  0  0  0  0  0  0
   -1.0412    0.1517    0.7482 N   0  0  0  0  0  0  0  0  0  0  0  0
   -2.4245   -0.0254    0.3849 C   0  0  2  0  0  0  0  0  0  0  0  0
   -2.5224   -1.2376   -0.5404 C   0  0  0  0  0  0  0  0  0  0  0  0
   -3.3997   -2.0919   -0.4310 O   0  0  0  0  0  0  0  0  0  0  0  0
   -3.0540    1.2454   -0.2353 C   0  0  2  0  0  0  0  0  0  0  0  0
   -3.0814    2.4284    0.7578 C   0  0  0  0  0  0  0  0  0  0  0  0
   -4.4539    0.9301   -0.7788 C   0  0  0  0  0  0  0  0  0  0  0  0
   -3.4445    3.7577    0.1084 C   0  0  0  0  0  0  0  0  0  0  0  0
   -0.6027    1.0447    0.5359 H   0  0  0  0  0  0  0  0  0  0  0  0
   -2.9484   -0.2811    1.3147 H   0  0  0  0  0  0  0  0  0  0  0  0
   -2.4369    1.5446   -1.0931 H   0  0  0  0  0  0  0  0  0  0  0  0
   -3.8188    2.2308    1.5442 H   0  0  0  0  0  0  0  0  0  0  0  0
   -2.1092    2.5339    1.2538 H   0  0  0  0  0  0  0  0  0  0  0  0
   -5.1254    0.6227    0.0300 H   0  0  0  0  0  0  0  0  0  0  0  0
   -4.9029    1.8093   -1.2508 H   0  0  0  0  0  0  0  0  0  0  0  0
   -4.4248    0.1255   -1.5209 H   0  0  0  0  0  0  0  0  0  0  0  0
   -2.7457    4.0197   -0.6912 H   0  0  0  0  0  0  0  0  0  0  0  0
   -3.4080    4.5600    0.8527 H   0  0  0  0  0  0  0  0  0  0  0  0
   -4.4562    3.7289   -0.3079 H   0  0  0  0  0  0  0  0  0  0  0  0
   -1.5371   -1.2317   -1.5174 N   0  0  0  0  0  0  0  0  0  0  0  0
   -1.4193   -2.2552   -2.5309 C   0  0  2  0  0  0  0  0  0  0  0  0
   -0.7442   -1.6366   -3.7478 C   0  0  0  0  0  0  0  0  0  0  0  0
   -0.7434   -0.4280   -3.9724 O   0  0  0  0  0  0  0  0  0  0  0  0
   -2.7786   -2.8304   -2.8971 C   0  0  0  0  0  0  0  0  0  0  0  0
   -0.8652   -0.4700   -1.5205 H   0  0  0  0  0  0  0  0  0  0  0  0
   -0.7769   -3.0393   -2.1153 H   0  0  0  0  0  0  0  0  0  0  0  0
   -3.4362   -2.0595   -3.3151 H   0  0  0  0  0  0  0  0  0  0  0  0
   -2.6848   -3.6255   -3.6441 H   0  0  0  0  0  0  0  0  0  0  0  0
   -3.2755   -3.2483   -2.0148 H   0  0  0  0  0  0  0  0  0  0  0  0
   -0.1800   -2.5967   -4.5761 N   0  0  0  0  0  0  0  0  0  0  0  0
    0.5075   -2.2625   -5.8015 C   0  0  0  0  0  0  0  0  0  0  0  0
   -0.2117   -3.5742   -4.3018 H   0  0  0  0  0  0  0  0  0  0  0  0
   -0.2017   -2.2972   -6.6416 H   0  0  0  0  0  0  0  0  0  0  0  0
    0.9303   -1.2503   -5.7202 H   0  0  0  0  0  0  0  0  0  0  0  0
    1.3180   -2.9855   -5.9759 H   0  0  0  0  0  0  0  0  0  0  0  0
  1  3  1  0  0  0  0
  1  7  1  0  0  0  0
  1  2  2  0  0  0  0
 37 38  1  0  0  0  0
 38 46  1  0  0  0  0
 38 39  2  0  0  0  0
  8  9  1  0  0  0  0
  9 17  1  0  0  0  0
  9 10  2  0  0  0  0
 18 19  1  0  0  0  0
 19 36  1  0  0  0  0
 19 20  2  0  0  0  0
 22 24  1  0  0  0  0
 37 40  1  0  0  0  0
  8 11  1  0  0  0  0
 21 23  1  0  0  0  0
 46 47  1  0  0  0  0
 21 22  1  0  0  0  0
 36 37  1  0  0  0  0
  7  8  1  0  0  0  0
 18 21  1  0  0  0  0
 17 18  1  0  0  0  0
  3  4  1  0  0  0  0
  3  5  1  0  0  0  0
  3  6  1  0  0  0  0
 24 33  1  0  0  0  0
 24 34  1  0  0  0  0
 24 35  1  0  0  0  0
 40 43  1  0  0  0  0
 40 44  1  0  0  0  0
 40 45  1  0  0  0  0
 11 14  1  0  0  0  0
 11 15  1  0  0  0  0
 11 16  1  0  0  0  0
 23 30  1  0  0  0  0
 23 31  1  0  0  0  0
 23 32  1  0  0  0  0
 47 49  1  0  0  0  0
 47 50  1  0  0  0  0
 47 51  1  0  0  0  0
 22 28  1  0  0  0  0
 22 29  1  0  0  0  0
 37 42  1  0  0  0  0
  8 13  1  0  0  0  0
 18 26  1  0  0  0  0
 21 27  1  0  0  0  0
 46 48  1  0  0  0  0
  7 12  1  0  0  0  0
 36 41  1  0  0  0  0
 17 25  1  0  0  0  0
M  END
$$$$

  -OEChem-02062319033D

 51 50  0     1  0  0  0  0  0999 V2000
    1.3524   -3.0009    1.4091 C   0  0  0  0  0  0  0  0  0  0  0  0
    1.8758   -1.9880    0.9598 O   0  0  0  0  0  0  0  0  0  0  0  0
    2.2030   -4.1782    1.7536 C   0  0  0  0  0  0  0  0  0  0  0  0
    2.3264   -4.8705    0.9053 H   0  0  0  0  0  0  0  0  0  0  0  0
    3.2257   -3.8876    2.0432 H   0  0  0  0  0  0  0  0  0  0  0  0
    1.8327   -4.8004    2.5839 H   0  0  0  0  0  0  0  0  0  0  0  0
    0.0005   -3.1873    1.6465 N   0  0  0  0  0  0  0  0  0  0  0  0
   -0.9949   -2.1807    1.3864 C   0  0  2  0  0  0  0  0  0  0  0  0
   -0.3083   -0.8216    1.4164 C   0  0  0  0  0  0  0  0  0  0  0  0
    0.7533   -0.6191    2.0022 O   0  0  0  0  0  0  0  0  0  0  0  0
   -2.1232   -2.2423    2.4042 C   0  0  0  0  0  0  0  0  0  0  0  0
   -0.3048   -4.0823    2.0245 H   0  0  0  0  0  0  0  0  0  0  0  0
   -1.3830   -2.3724    0.3801 H   0  0  0  0  0  0  0  0  0  0  0  0
   -1.7534   -2.0527    3.4185 H   0  0  0  0  0  0  0  0  0  0  0  0
   -2.8936   -1.4947    2.1882 H   0  0  0  0  0  0  0  0  0  0  0  0
   -2.5964   -3.2301    2.4022 H   0  0  0  0  0  0  0  0  0  0  0  0
   -1.0412    0.1517    0.7482 N   0  0  0  0  0  0  0  0  0  0  0  0
   -2.4793    0.1218    0.6594 C   0  0  2  0  0  0  0  0  0  0  0  0
   -2.8861   -1.1716   -0.0453 C   0  0  0  0  0  0  0  0  0  0  0  0
   -3.8166   -1.8772    0.3391 O   0  0  0  0  0  0  0  0  0  0  0  0
   -3.0689    1.3792   -0.0239 C   0  0  2  0  0  0  0  0  0  0  0  0
   -2.7747    2.6697    0.7728 C   0  0  0  0  0  0  0  0  0  0  0  0
   -4.5729    1.1933   -0.2649 C   0  0  0  0  0  0  0  0  0  0  0  0
   -3.1035    3.9445    0.0064 C   0  0  0  0  0  0  0  0  0  0  0  0
   -0.5539    0.9425    0.3336 H   0  0  0  0  0  0  0  0  0  0  0  0
   -2.8424    0.0587    1.6932 H   0  0  0  0  0  0  0  0  0  0  0  0
   -2.5964    1.4814   -1.0100 H   0  0  0  0  0  0  0  0  0  0  0  0
   -3.3668    2.6749    1.6952 H   0  0  0  0  0  0  0  0  0  0  0  0
   -1.7205    2.7021    1.0724 H   0  0  0  0  0  0  0  0  0  0  0  0
   -5.1087    1.0844    0.6842 H   0  0  0  0  0  0  0  0  0  0  0  0
   -5.0021    2.0598   -0.7771 H   0  0  0  0  0  0  0  0  0  0  0  0
   -4.7755    0.3060   -0.8734 H   0  0  0  0  0  0  0  0  0  0  0  0
   -2.5445    4.0062   -0.9316 H   0  0  0  0  0  0  0  0  0  0  0  0
   -2.8368    4.8209    0.6062 H   0  0  0  0  0  0  0  0  0  0  0  0
   -4.1727    4.0027   -0.2201 H   0  0  0  0  0  0  0  0  0  0  0  0
   -2.1100   -1.4230   -1.1677 N   0  0  0  0  0  0  0  0  0  0  0  0
   -2.3020   -2.5716   -2.0235 C   0  0  2  0  0  0  0  0  0  0  0  0
   -1.8055   -2.2084   -3.4167 C   0  0  0  0  0  0  0  0  0  0  0  0
   -1.7121   -1.0490   -3.8144 O   0  0  0  0  0  0  0  0  0  0  0  0
   -3.7618   -2.9963   -2.0603 C   0  0  0  0  0  0  0  0  0  0  0  0
   -1.3699   -0.7670   -1.3994 H   0  0  0  0  0  0  0  0  0  0  0  0
   -1.6842   -3.3781   -1.6137 H   0  0  0  0  0  0  0  0  0  0  0  0
   -4.3963   -2.2010   -2.4680 H   0  0  0  0  0  0  0  0  0  0  0  0
   -3.9011   -3.8839   -2.6863 H   0  0  0  0  0  0  0  0  0  0  0  0
   -4.1256   -3.2286   -1.0536 H   0  0  0  0  0  0  0  0  0  0  0  0
   -1.5198   -3.3327   -4.1785 N   0  0  0  0  0  0  0  0  0  0  0  0
   -1.0446   -3.2518   -5.5400 C   0  0  0  0  0  0  0  0  0  0  0  0
   -1.6080   -4.2546   -3.7613 H   0  0  0  0  0  0  0  0  0  0  0  0
   -1.8998   -3.2937   -6.2306 H   0  0  0  0  0  0  0  0  0  0  0  0
   -0.5035   -2.3049   -5.6837 H   0  0  0  0  0  0  0  0  0  0  0  0
   -0.3680   -4.0951   -5.7428 H   0  0  0  0  0  0  0  0  0  0  0  0
  1  3  1  0  0  0  0
  1  7  1  0  0  0  0
  1  2  2  0  0  0  0
 37 38  1  0  0  0  0
 38 46  1  0  0  0  0
 38 39  2  0  0  0  0
  8  9  1  0  0  0  0
  9 17  1  0  0  0  0
  9 10  2  0  0  0  0
 18 19  1  0  0  0  0
 19 36  1  0  0  0  0
 19 20  2  0  0  0  0
 22 24  1  0  0  0  0
 37 40  1  0  0  0  0
  8 11  1  0  0  0  0
 21 23  1  0  0  0  0
 46 47  1  0  0  0  0
 21 22  1  0  0  0  0
 36 37  1  0  0  0  0
  7  8  1  0  0  0  0
 18 21  1  0  0  0  0
 17 18  1  0  0  0  0
  3  4  1  0  0  0  0
  3  5  1  0  0  0  0
  3  6  1  0  0  0  0
 24 33  1  0  0  0  0
 24 34  1  0  0  0  0
 24 35  1  0  0  0  0
 40 43  1  0  0  0  0
 40 44  1  0  0  0  0
 40 45  1  0  0  0  0
 11 14  1  0  0  0  0
 11 15  1  0  0  0  0
 11 16  1  0  0  0  0
 23 30  1  0  0  0  0
 23 31  1  0  0  0  0
 23 32  1  0  0  0  0
 47 49  1  0  0  0  0
 47 50  1  0  0  0  0
 47 51  1  0  0  0  0
 22 28  1  0  0  0  0
 22 29  1  0  0  0  0
 37 42  1  0  0  0  0
  8 13  1  0  0  0  0
 18 26  1  0  0  0  0
 21 27  1  0  0  0  0
 46 48  1  0  0  0  0
  7 12  1  0  0  0  0
 36 41  1  0  0  0  0
 17 25  1  0  0  0  0
M  END
$$$$

  -OEChem-02062319033D

 51 50  0     1  0  0  0  0  0999 V2000
    1.3524   -3.0009    1.4091 C   0  0  0  0  0  0  0  0  0  0  0  0
    1.8758   -1.9880    0.9598 O   0  0  0  0  0  0  0  0  0  0  0  0
    2.2030   -4.1782    1.7536 C   0  0  0  0  0  0  0  0  0  0  0  0
    2.3264   -4.8705    0.9053 H   0  0  0  0  0  0  0  0  0  0  0  0
    3.2257   -3.8876    2.0432 H   0  0  0  0  0  0  0  0  0  0  0  0
    1.8327   -4.8004    2.5839 H   0  0  0  0  0  0  0  0  0  0  0  0
    0.0005   -3.1873    1.6465 N   0  0  0  0  0  0  0  0  0  0  0  0
   -0.9949   -2.1807    1.3864 C   0  0  2  0  0  0  0  0  0  0  0  0
   -0.3083   -0.8216    1.4164 C   0  0  0  0  0  0  0  0  0  0  0  0
    0.7533   -0.6191    2.0022 O   0  0  0  0  0  0  0  0  0  0  0  0
   -2.1232   -2.2423    2.4042 C   0  0  0  0  0  0  0  0  0  0  0  0
   -0.3048   -4.0823    2.0245 H   0  0  0  0  0  0  0  0  0  0  0  0
   -1.3830   -2.3724    0.3801 H   0  0  0  0  0  0  0  0  0  0  0  0
   -1.7534   -2.0527    3.4185 H   0  0  0  0  0  0  0  0  0  0  0  0
   -2.8936   -1.4947    2.1882 H   0  0  0  0  0  0  0  0  0  0  0  0
   -2.5964   -3.2301    2.4022 H   0  0  0  0  0  0  0  0  0  0  0  0
   -1.0412    0.1517    0.7482 N   0  0  0  0  0  0  0  0  0  0  0  0
   -2.4641    0.3083    0.9144 C   0  0  2  0  0  0  0  0  0  0  0  0
   -3.1395   -0.9950    0.4898 C   0  0  0  0  0  0  0  0  0  0  0  0
   -4.0530   -1.5128    1.1292 O   0  0  0  0  0  0  0  0  0  0  0  0
   -3.0284    1.5393    0.1647 C   0  0  2  0  0  0  0  0  0  0  0  0
   -2.4458    2.8666    0.6988 C   0  0  0  0  0  0  0  0  0  0  0  0
   -4.5619    1.5325    0.2172 C   0  0  0  0  0  0  0  0  0  0  0  0
   -2.7694    4.0685   -0.1794 C   0  0  0  0  0  0  0  0  0  0  0  0
   -0.5561    0.8102    0.1433 H   0  0  0  0  0  0  0  0  0  0  0  0
   -2.6290    0.4252    1.9931 H   0  0  0  0  0  0  0  0  0  0  0  0
   -2.7434    1.4517   -0.8923 H   0  0  0  0  0  0  0  0  0  0  0  0
   -2.8474    3.0682    1.6985 H   0  0  0  0  0  0  0  0  0  0  0  0
   -1.3569    2.7915    0.8037 H   0  0  0  0  0  0  0  0  0  0  0  0
   -4.9164    1.6176    1.2501 H   0  0  0  0  0  0  0  0  0  0  0  0
   -4.9809    2.3788   -0.3357 H   0  0  0  0  0  0  0  0  0  0  0  0
   -4.9744    0.6123   -0.2091 H   0  0  0  0  0  0  0  0  0  0  0  0
   -2.3954    3.9353   -1.1985 H   0  0  0  0  0  0  0  0  0  0  0  0
   -2.2973    4.9681    0.2289 H   0  0  0  0  0  0  0  0  0  0  0  0
   -3.8488    4.2440   -0.2240 H   0  0  0  0  0  0  0  0  0  0  0  0
   -2.6237   -1.4888   -0.7000 N   0  0  0  0  0  0  0  0  0  0  0  0
   -3.1021   -2.6982   -1.3302 C   0  0  2  0  0  0  0  0  0  0  0  0
   -2.8417   -2.5834   -2.8264 C   0  0  0  0  0  0  0  0  0  0  0  0
   -2.6965   -1.5067   -3.4014 O   0  0  0  0  0  0  0  0  0  0  0  0
   -4.5804   -2.9200   -1.0512 C   0  0  0  0  0  0  0  0  0  0  0  0
   -1.8725   -0.9746   -1.1504 H   0  0  0  0  0  0  0  0  0  0  0  0
   -2.5118   -3.5241   -0.9185 H   0  0  0  0  0  0  0  0  0  0  0  0
   -5.1878   -2.1025   -1.4563 H   0  0  0  0  0  0  0  0  0  0  0  0
   -4.9345   -3.8513   -1.5054 H   0  0  0  0  0  0  0  0  0  0  0  0
   -4.7701   -2.9725    0.0264 H   0  0  0  0  0  0  0  0  0  0  0  0
   -2.8335   -3.8227   -3.4512 N   0  0  0  0  0  0  0  0  0  0  0  0
   -2.6195   -3.9785   -4.8710 C   0  0  0  0  0  0  0  0  0  0  0  0
   -2.9434   -4.6643   -2.8933 H   0  0  0  0  0  0  0  0  0  0  0  0
   -3.5895   -3.9889   -5.3896 H   0  0  0  0  0  0  0  0  0  0  0  0
   -2.0131   -3.1402   -5.2445 H   0  0  0  0  0  0  0  0  0  0  0  0
   -2.0924   -4.9253   -5.0605 H   0  0  0  0  0  0  0  0  0  0  0  0
  1  3  1  0  0  0  0
  1  7  1  0  0  0  0
  1  2  2  0  0  0  0
 37 38  1  0  0  0  0
 38 46  1  0  0  0  0
 38 39  2  0  0  0  0
  8  9  1  0  0  0  0
  9 17  1  0  0  0  0
  9 10  2  0  0  0  0
 18 19  1  0  0  0  0
 19 36  1  0  0  0  0
 19 20  2  0  0  0  0
 22 24  1  0  0  0  0
 37 40  1  0  0  0  0
  8 11  1  0  0  0  0
 21 23  1  0  0  0  0
 46 47  1  0  0  0  0
 21 22  1  0  0  0  0
 36 37  1  0  0  0  0
  7  8  1  0  0  0  0
 18 21  1  0  0  0  0
 17 18  1  0  0  0  0
  3  4  1  0  0  0  0
  3  5  1  0  0  0  0
  3  6  1  0  0  0  0
 24 33  1  0  0  0  0
 24 34  1  0  0  0  0
 24 35  1  0  0  0  0
 40 43  1  0  0  0  0
 40 44  1  0  0  0  0
 40 45  1  0  0  0  0
 11 14  1  0  0  0  0
 11 15  1  0  0  0  0
 11 16  1  0  0  0  0
 23 30  1  0  0  0  0
 23 31  1  0  0  0  0
 23 32  1  0  0  0  0
 47 49  1  0  0  0  0
 47 50  1  0  0  0  0
 47 51  1  0  0  0  0
 22 28  1  0  0  0  0
 22 29  1  0  0  0  0
 37 42  1  0  0  0  0
  8 13  1  0  0  0  0
 18 26  1  0  0  0  0
 21 27  1  0  0  0  0
 46 48  1  0  0  0  0
  7 12  1  0  0  0  0
 36 41  1  0  0  0  0
 17 25  1  0  0  0  0
M  END
$$$$

  -OEChem-02062319033D

 51 50  0     1  0  0  0  0  0999 V2000
    1.3524   -3.0009    1.4091 C   0  0  0  0  0  0  0  0  0  0  0  0
    1.8758   -1.9880    0.9598 O   0  0  0  0  0  0  0  0  0  0  0  0
    2.2030   -4.1782    1.7536 C   0  0  0  0  0  0  0  0  0  0  0  0
    2.3264   -4.8705    0.9053 H   0  0  0  0  0  0  0  0  0  0  0  0
    3.2257   -3.8876    2.0432 H   0  0  0  0  0  0  0  0  0  0  0  0
    1.8327   -4.8004    2.5839 H   0  0  0  0  0  0  0  0  0  0  0  0
    0.0005   -3.1873    1.6465 N   0  0  0  0  0  0  0  0  0  0  0  0
   -0.9949   -2.1807    1.3864 C   0  0  2  0  0  0  0  0  0  0  0  0
   -0.3083   -0.8216    1.4164 C   0  0  0  0  0  0  0  0  0  0  0  0
    0.7533   -0.6191    2.0022 O   0  0  0  0  0  0  0  0  0  0  0  0
   -2.1232   -2.2423    2.4042 C   0  0  0  0  0  0  0  0  0  0  0  0
   -0.3048   -4.0823    2.0245 H   0  0  0  0  0  0  0  0  0  0  0  0
   -1.3830   -2.3724    0.3801 H   0  0  0  0  0  0  0  0  0  0  0  0
   -1.7534   -2.0527    3.4185 H   0  0  0  0  0  0  0  0  0  0  0  0
   -2.8936   -1.4947    2.1882 H   0  0  0  0  0  0  0  0  0  0  0  0
   -2.5964   -3.2301    2.4022 H   0  0  0  0  0  0  0  0  0  0  0  0
   -1.0412    0.1517    0.7482 N   0  0  0  0  0  0  0  0  0  0  0  0
   -2.3800    0.5214    1.1325 C   0  0  2  0  0  0  0  0  0  0  0  0
   -3.2652   -0.7199    1.0286 C   0  0  0  0  0  0  0  0  0  0  0  0
   -4.0928   -1.0236    1.8855 O   0  0  0  0  0  0  0  0  0  0  0  0
   -2.9351    1.7145    0.3177 C   0  0  2  0  0  0  0  0  0  0  0  0
   -2.1169    3.0058    0.5408 C   0  0  0  0  0  0  0  0  0  0  0  0
   -4.4217    1.9246    0.6346 C   0  0  0  0  0  0  0  0  0  0  0  0
   -2.4649    4.1214   -0.4364 C   0  0  0  0  0  0  0  0  0  0  0  0
   -0.6093    0.6566   -0.0221 H   0  0  0  0  0  0  0  0  0  0  0  0
   -2.3229    0.7937    2.1941 H   0  0  0  0  0  0  0  0  0  0  0  0
   -2.8676    1.4572   -0.7478 H   0  0  0  0  0  0  0  0  0  0  0  0
   -2.2963    3.3839    1.5538 H   0  0  0  0  0  0  0  0  0  0  0  0
   -1.0433    2.7959    0.4661 H   0  0  0  0  0  0  0  0  0  0  0  0
   -4.5618    2.1860    1.6890 H   0  0  0  0  0  0  0  0  0  0  0  0
   -4.8408    2.7445    0.0433 H   0  0  0  0  0  0  0  0  0  0  0  0
   -5.0079    1.0236    0.4268 H   0  0  0  0  0  0  0  0  0  0  0  0
   -2.3085    3.8117   -1.4736 H   0  0  0  0  0  0  0  0  0  0  0  0
   -1.8262    4.9917   -0.2534 H   0  0  0  0  0  0  0  0  0  0  0  0
   -3.5066    4.4361   -0.3194 H   0  0  0  0  0  0  0  0  0  0  0  0
   -3.0433   -1.4245   -0.1461 N   0  0  0  0  0  0  0  0  0  0  0  0
   -3.7649   -2.6261   -0.4982 C   0  0  2  0  0  0  0  0  0  0  0  0
   -3.7823   -2.7362   -2.0171 C   0  0  0  0  0  0  0  0  0  0  0  0
   -3.6294   -1.7699   -2.7615 O   0  0  0  0  0  0  0  0  0  0  0  0
   -5.1787   -2.6067    0.0616 C   0  0  0  0  0  0  0  0  0  0  0  0
   -2.3386   -1.0785   -0.7905 H   0  0  0  0  0  0  0  0  0  0  0  0
   -3.2034   -3.4672   -0.0770 H   0  0  0  0  0  0  0  0  0  0  0  0
   -5.7567   -1.7708   -0.3491 H   0  0  0  0  0  0  0  0  0  0  0  0
   -5.7146   -3.5301   -0.1818 H   0  0  0  0  0  0  0  0  0  0  0  0
   -5.1650   -2.4976    1.1514 H   0  0  0  0  0  0  0  0  0  0  0  0
   -4.0316   -4.0331   -2.4436 N   0  0  0  0  0  0  0  0  0  0  0  0
   -4.1099   -4.3932   -3.8401 C   0  0  0  0  0  0  0  0  0  0  0  0
   -4.1270   -4.7754   -1.7568 H   0  0  0  0  0  0  0  0  0  0  0  0
   -5.1557   -4.3352   -4.1762 H   0  0  0  0  0  0  0  0  0  0  0  0
   -3.4956   -3.6992   -4.4326 H   0  0  0  0  0  0  0  0  0  0  0  0
   -3.7377   -5.4194   -3.9755 H   0  0  0  0  0  0  0  0  0  0  0  0
  1  3  1  0  0  0  0
  1  7  1  0  0  0  0
  1  2  2  0  0  0  0
 37 38  1  0  0  0  0
 38 46  1  0  0  0  0
 38 39  2  0  0  0  0
  8  9  1  0  0  0  0
  9 17  1  0  0  0  0
  9 10  2  0  0  0  0
 18 19  1  0  0  0  0
 19 36  1  0  0  0  0
 19 20  2  0  0  0  0
 22 24  1  0  0  0  0
 37 40  1  0  0  0  0
  8 11  1  0  0  0  0
 21 23  1  0  0  0  0
 46 47  1  0  0  0  0
 21 22  1  0  0  0  0
 36 37  1  0  0  0  0
  7  8  1  0  0  0  0
 18 21  1  0  0  0  0
 17 18  1  0  0  0  0
  3  4  1  0  0  0  0
  3  5  1  0  0  0  0
  3  6  1  0  0  0  0
 24 33  1  0  0  0  0
 24 34  1  0  0  0  0
 24 35  1  0  0  0  0
 40 43  1  0  0  0  0
 40 44  1  0  0  0  0
 40 45  1  0  0  0  0
 11 14  1  0  0  0  0
 11 15  1  0  0  0  0
 11 16  1  0  0  0  0
 23 30  1  0  0  0  0
 23 31  1  0  0  0  0
 23 32  1  0  0  0  0
 47 49  1  0  0  0  0
 47 50  1  0  0  0  0
 47 51  1  0  0  0  0
 22 28  1  0  0  0  0
 22 29  1  0  0  0  0
 37 42  1  0  0  0  0
  8 13  1  0  0  0  0
 18 26  1  0  0  0  0
 21 27  1  0  0  0  0
 46 48  1  0  0  0  0
  7 12  1  0  0  0  0
 36 41  1  0  0  0  0
 17 25  1  0  0  0  0
M  END
$$$$

  -OEChem-02062319033D

 51 50  0     1  0  0  0  0  0999 V2000
    1.3524   -3.0009    1.4091 C   0  0  0  0  0  0  0  0  0  0  0  0
    1.8758   -1.9880    0.9598 O   0  0  0  0  0  0  0  0  0  0  0  0
    2.2030   -4.1782    1.7536 C   0  0  0  0  0  0  0  0  0  0  0  0
    2.3264   -4.8705    0.9053 H   0  0  0  0  0  0  0  0  0  0  0  0
    3.2257   -3.8876    2.0432 H   0  0  0  0  0  0  0  0  0  0  0  0
    1.8327   -4.8004    2.5839 H   0  0  0  0  0  0  0  0  0  0  0  0
    0.0005   -3.1873    1.6465 N   0  0  0  0  0  0  0  0  0  0  0  0
   -0.9949   -2.1807    1.3864 C   0  0  2  0  0  0  0  0  0  0  0  0
   -0.3083   -0.8216    1.4164 C   0  0  0  0  0  0  0  0  0  0  0  0
    0.7533   -0.6191    2.0022 O   0  0  0  0  0  0  0  0  0  0  0  0
   -2.1232   -2.2423    2.4042 C   0  0  0  0  0  0  0  0  0  0  0  0
   -0.3048   -4.0823    2.0245 H   0  0  0  0  0  0  0  0  0  0  0  0
   -1.3830   -2.3724    0.3801 H   0  0  0  0  0  0  0  0  0  0  0  0
   -1.7534   -2.0527    3.4185 H   0  0  0  0  0  0  0  0  0  0  0  0
   -2.8936   -1.4947    2.1882 H   0  0  0  0  0  0  0  0  0  0  0  0
   -2.5964   -3.2301    2.4022 H   0  0  0  0  0  0  0  0  0  0  0  0
   -1.0412    0.1517    0.7482 N   0  0  0  0  0  0  0  0  0  0  0  0
   -2.2327    0.7465    1.2989 C   0  0  2  0  0  0  0  0  0  0  0  0
   -3.2548   -0.3649    1.5342 C   0  0  0  0  0  0  0  0  0  0  0  0
   -3.9332   -0.4428    2.5565 O   0  0  0  0  0  0  0  0  0  0  0  0
   -2.7954    1.8931    0.4247 C   0  0  2  0  0  0  0  0  0  0  0  0
   -1.8105    3.0777    0.3096 C   0  0  0  0  0  0  0  0  0  0  0  0
   -4.1618    2.3429    0.9588 C   0  0  0  0  0  0  0  0  0  0  0  0
   -2.2108    4.0994   -0.7471 C   0  0  0  0  0  0  0  0  0  0  0  0
   -0.7097    0.4924   -0.1512 H   0  0  0  0  0  0  0  0  0  0  0  0
   -1.9449    1.1390    2.2825 H   0  0  0  0  0  0  0  0  0  0  0  0
   -2.9608    1.4978   -0.5865 H   0  0  0  0  0  0  0  0  0  0  0  0
   -1.7508    3.6005    1.2711 H   0  0  0  0  0  0  0  0  0  0  0  0
   -0.8010    2.7150    0.0826 H   0  0  0  0  0  0  0  0  0  0  0  0
   -4.0690    2.7507    1.9711 H   0  0  0  0  0  0  0  0  0  0  0  0
   -4.5912    3.1320    0.3340 H   0  0  0  0  0  0  0  0  0  0  0  0
   -4.8739    1.5118    0.9910 H   0  0  0  0  0  0  0  0  0  0  0  0
   -2.2899    3.6441   -1.7383 H   0  0  0  0  0  0  0  0  0  0  0  0
   -1.4557    4.8901   -0.8079 H   0  0  0  0  0  0  0  0  0  0  0  0
   -3.1694    4.5661   -0.4999 H   0  0  0  0  0  0  0  0  0  0  0  0
   -3.3403   -1.2346    0.4563 N   0  0  0  0  0  0  0  0  0  0  0  0
   -4.2454   -2.3605    0.4157 C   0  0  2  0  0  0  0  0  0  0  0  0
   -4.5631   -2.6562   -1.0441 C   0  0  0  0  0  0  0  0  0  0  0  0
   -4.4473   -1.8207   -1.9383 O   0  0  0  0  0  0  0  0  0  0  0  0
   -5.5160   -2.0777    1.2021 C   0  0  0  0  0  0  0  0  0  0  0  0
   -2.7366   -1.0717   -0.3442 H   0  0  0  0  0  0  0  0  0  0  0  0
   -3.7118   -3.2112    0.8535 H   0  0  0  0  0  0  0  0  0  0  0  0
   -6.0642   -1.2284    0.7782 H   0  0  0  0  0  0  0  0  0  0  0  0
   -6.1881   -2.9420    1.1942 H   0  0  0  0  0  0  0  0  0  0  0  0
   -5.2833   -1.8360    2.2448 H   0  0  0  0  0  0  0  0  0  0  0  0
   -5.0324   -3.9498   -1.2244 N   0  0  0  0  0  0  0  0  0  0  0  0
   -5.4143   -4.4674   -2.5176 C   0  0  0  0  0  0  0  0  0  0  0  0
   -5.0780   -4.5802   -0.4293 H   0  0  0  0  0  0  0  0  0  0  0  0
   -6.4917   -4.3092   -2.6728 H   0  0  0  0  0  0  0  0  0  0  0  0
   -4.8500   -3.9437   -3.3033 H   0  0  0  0  0  0  0  0  0  0  0  0
   -5.1918   -5.5438   -2.5618 H   0  0  0  0  0  0  0  0  0  0  0  0
  1  3  1  0  0  0  0
  1  7  1  0  0  0  0
  1  2  2  0  0  0  0
 37 38  1  0  0  0  0
 38 46  1  0  0  0  0
 38 39  2  0  0  0  0
  8  9  1  0  0  0  0
  9 17  1  0  0  0  0
  9 10  2  0  0  0  0
 18 19  1  0  0  0  0
 19 36  1  0  0  0  0
 19 20  2  0  0  0  0
 22 24  1  0  0  0  0
 37 40  1  0  0  0  0
  8 11  1  0  0  0  0
 21 23  1  0  0  0  0
 46 47  1  0  0  0  0
 21 22  1  0  0  0  0
 36 37  1  0  0  0  0
  7  8  1  0  0  0  0
 18 21  1  0  0  0  0
 17 18  1  0  0  0  0
  3  4  1  0  0  0  0
  3  5  1  0  0  0  0
  3  6  1  0  0  0  0
 24 33  1  0  0  0  0
 24 34  1  0  0  0  0
 24 35  1  0  0  0  0
 40 43  1  0  0  0  0
 40 44  1  0  0  0  0
 40 45  1  0  0  0  0
 11 14  1  0  0  0  0
 11 15  1  0  0  0  0
 11 16  1  0  0  0  0
 23 30  1  0  0  0  0
 23 31  1  0  0  0  0
 23 32  1  0  0  0  0
 47 49  1  0  0  0  0
 47 50  1  0  0  0  0
 47 51  1  0  0  0  0
 22 28  1  0  0  0  0
 22 29  1  0  0  0  0
 37 42  1  0  0  0  0
  8 13  1  0  0  0  0
 18 26  1  0  0  0  0
 21 27  1  0  0  0  0
 46 48  1  0  0  0  0
  7 12  1  0  0  0  0
 36 41  1  0  0  0  0
 17 25  1  0  0  0  0
M  END
$$$$

  -OEChem-02062319033D

 51 50  0     1  0  0  0  0  0999 V2000
    1.3524   -3.0009    1.4091 C   0  0  0  0  0  0  0  0  0  0  0  0
    1.8758   -1.9880    0.9598 O   0  0  0  0  0  0  0  0  0  0  0  0
    2.2030   -4.1782    1.7536 C   0  0  0  0  0  0  0  0  0  0  0  0
    2.3264   -4.8705    0.9053 H   0  0  0  0  0  0  0  0  0  0  0  0
    3.2257   -3.8876    2.0432 H   0  0  0  0  0  0  0  0  0  0  0  0
    1.8327   -4.8004    2.5839 H   0  0  0  0  0  0  0  0  0  0  0  0
    0.0005   -3.1873    1.6465 N   0  0  0  0  0  0  0  0  0  0  0  0
   -0.9949   -2.1807    1.3864 C   0  0  2  0  0  0  0  0  0  0  0  0
   -0.3083   -0.8216    1.4164 C   0  0  0  0  0  0  0  0  0  0  0  0
    0.7533   -0.6191    2.0022 O   0  0  0  0  0  0  0  0  0  0  0  0
   -2.1232   -2.2423    2.4042 C   0  0  0  0  0  0  0  0  0  0  0  0
   -0.3048   -4.0823    2.0245 H   0  0  0  0  0  0  0  0  0  0  0  0
   -1.3830   -2.3724    0.3801 H   0  0  0  0  0  0  0  0  0  0  0  0
   -1.7534   -2.0527    3.4185 H   0  0  0  0  0  0  0  0  0  0  0  0
   -2.8936   -1.4947    2.1882 H   0  0  0  0  0  0  0  0  0  0  0  0
   -2.5964   -3.2301    2.4022 H   0  0  0  0  0  0  0  0  0  0  0  0
   -1.0412    0.1517    0.7482 N   0  0  0  0  0  0  0  0  0  0  0  0
   -2.0323    0.9683    1.4021 C   0  0  2  0  0  0  0  0  0  0  0  0
   -3.1089    0.0456    1.9722 C   0  0  0  0  0  0  0  0  0  0  0  0
   -3.5851    0.1900    3.0963 O   0  0  0  0  0  0  0  0  0  0  0  0
   -2.6189    2.0628    0.4783 C   0  0  2  0  0  0  0  0  0  0  0  0
   -1.5476    3.0775    0.0209 C   0  0  0  0  0  0  0  0  0  0  0  0
   -3.7999    2.7589    1.1677 C   0  0  0  0  0  0  0  0  0  0  0  0
   -2.0245    4.0042   -1.0902 C   0  0  0  0  0  0  0  0  0  0  0  0
   -0.8506    0.3286   -0.2353 H   0  0  0  0  0  0  0  0  0  0  0  0
   -1.5208    1.4376    2.2522 H   0  0  0  0  0  0  0  0  0  0  0  0
   -3.0165    1.5706   -0.4194 H   0  0  0  0  0  0  0  0  0  0  0  0
   -1.2483    3.7033    0.8695 H   0  0  0  0  0  0  0  0  0  0  0  0
   -0.6466    2.5543   -0.3208 H   0  0  0  0  0  0  0  0  0  0  0  0
   -3.4715    3.2735    2.0772 H   0  0  0  0  0  0  0  0  0  0  0  0
   -4.2491    3.5150    0.5166 H   0  0  0  0  0  0  0  0  0  0  0  0
   -4.5813    2.0438    1.4451 H   0  0  0  0  0  0  0  0  0  0  0  0
   -2.3408    3.4437   -1.9744 H   0  0  0  0  0  0  0  0  0  0  0  0
   -1.2110    4.6701   -1.3968 H   0  0  0  0  0  0  0  0  0  0  0  0
   -2.8603    4.6251   -0.7530 H   0  0  0  0  0  0  0  0  0  0  0  0
   -3.4942   -0.9320    1.0660 N   0  0  0  0  0  0  0  0  0  0  0  0
   -4.5107   -1.9194    1.3494 C   0  0  2  0  0  0  0  0  0  0  0  0
   -5.1310   -2.3489    0.0264 C   0  0  0  0  0  0  0  0  0  0  0  0
   -5.0944   -1.6556   -0.9880 O   0  0  0  0  0  0  0  0  0  0  0  0
   -5.5691   -1.3690    2.2926 C   0  0  0  0  0  0  0  0  0  0  0  0
   -3.0392   -0.9548    0.1582 H   0  0  0  0  0  0  0  0  0  0  0  0
   -4.0023   -2.7737    1.8094 H   0  0  0  0  0  0  0  0  0  0  0  0
   -6.0893   -0.5123    1.8488 H   0  0  0  0  0  0  0  0  0  0  0  0
   -6.3229   -2.1272    2.5289 H   0  0  0  0  0  0  0  0  0  0  0  0
   -5.1171   -1.0331    3.2321 H   0  0  0  0  0  0  0  0  0  0  0  0
   -5.7677   -3.5783    0.1232 N   0  0  0  0  0  0  0  0  0  0  0  0
   -6.4437   -4.1963   -0.9935 C   0  0  0  0  0  0  0  0  0  0  0  0
   -5.7317   -4.0921    0.9987 H   0  0  0  0  0  0  0  0  0  0  0  0
   -7.5064   -3.9126   -0.9821 H   0  0  0  0  0  0  0  0  0  0  0  0
   -5.9839   -3.8573   -1.9335 H   0  0  0  0  0  0  0  0  0  0  0  0
   -6.3554   -5.2900   -0.9157 H   0  0  0  0  0  0  0  0  0  0  0  0
  1  3  1  0  0  0  0
  1  7  1  0  0  0  0
  1  2  2  0  0  0  0
 37 38  1  0  0  0  0
 38 46  1  0  0  0  0
 38 39  2  0  0  0  0
  8  9  1  0  0  0  0
  9 17  1  0  0  0  0
  9 10  2  0  0  0  0
 18 19  1  0  0  0  0
 19 36  1  0  0  0  0
 19 20  2  0  0  0  0
 22 24  1  0  0  0  0
 37 40  1  0  0  0  0
  8 11  1  0  0  0  0
 21 23  1  0  0  0  0
 46 47  1  0  0  0  0
 21 22  1  0  0  0  0
 36 37  1  0  0  0  0
  7  8  1  0  0  0  0
 18 21  1  0  0  0  0
 17 18  1  0  0  0  0
  3  4  1  0  0  0  0
  3  5  1  0  0  0  0
  3  6  1  0  0  0  0
 24 33  1  0  0  0  0
 24 34  1  0  0  0  0
 24 35  1  0  0  0  0
 40 43  1  0  0  0  0
 40 44  1  0  0  0  0
 40 45  1  0  0  0  0
 11 14  1  0  0  0  0
 11 15  1  0  0  0  0
 11 16  1  0  0  0  0
 23 30  1  0  0  0  0
 23 31  1  0  0  0  0
 23 32  1  0  0  0  0
 47 49  1  0  0  0  0
 47 50  1  0  0  0  0
 47 51  1  0  0  0  0
 22 28  1  0  0  0  0
 22 29  1  0  0  0  0
 37 42  1  0  0  0  0
  8 13  1  0  0  0  0
 18 26  1  0  0  0  0
 21 27  1  0  0  0  0
 46 48  1  0  0  0  0
  7 12  1  0  0  0  0
 36 41  1  0  0  0  0
 17 25  1  0  0  0  0
M  END
$$$$

  -OEChem-02062319033D

 51 50  0     1  0  0  0  0  0999 V2000
    1.3524   -3.0009    1.4091 C   0  0  0  0  0  0  0  0  0  0  0  0
    1.8758   -1.9880    0.9598 O   0  0  0  0  0  0  0  0  0  0  0  0
    2.2030   -4.1782    1.7536 C   0  0  0  0  0  0  0  0  0  0  0  0
    2.3264   -4.8705    0.9053 H   0  0  0  0  0  0  0  0  0  0  0  0
    3.2257   -3.8876    2.0432 H   0  0  0  0  0  0  0  0  0  0  0  0
    1.8327   -4.8004    2.5839 H   0  0  0  0  0  0  0  0  0  0  0  0
    0.0005   -3.1873    1.6465 N   0  0  0  0  0  0  0  0  0  0  0  0
   -0.9949   -2.1807    1.3864 C   0  0  2  0  0  0  0  0  0  0  0  0
   -0.3083   -0.8216    1.4164 C   0  0  0  0  0  0  0  0  0  0  0  0
    0.7533   -0.6191    2.0022 O   0  0  0  0  0  0  0  0  0  0  0  0
   -2.1232   -2.2423    2.4042 C   0  0  0  0  0  0  0  0  0  0  0  0
   -0.3048   -4.0823    2.0245 H   0  0  0  0  0  0  0  0  0  0  0  0
   -1.3830   -2.3724    0.3801 H   0  0  0  0  0  0  0  0  0  0  0  0
   -1.7534   -2.0527    3.4185 H   0  0  0  0  0  0  0  0  0  0  0  0
   -2.8936   -1.4947    2.1882 H   0  0  0  0  0  0  0  0  0  0  0  0
   -2.5964   -3.2301    2.4022 H   0  0  0  0  0  0  0  0  0  0  0  0
   -1.0412    0.1517    0.7482 N   0  0  0  0  0  0  0  0  0  0  0  0
   -1.7924    1.1717    1.4352 C   0  0  2  0  0  0  0  0  0  0  0  0
   -2.8374    0.4839    2.3128 C   0  0  0  0  0  0  0  0  0  0  0  0
   -3.0723    0.8315    3.4684 O   0  0  0  0  0  0  0  0  0  0  0  0
   -2.4176    2.2121    0.4749 C   0  0  2  0  0  0  0  0  0  0  0  0
   -1.3460    3.0052   -0.3056 C   0  0  0  0  0  0  0  0  0  0  0  0
   -3.3607    3.1441    1.2472 C   0  0  0  0  0  0  0  0  0  0  0  0
   -1.9185    3.8422   -1.4424 C   0  0  0  0  0  0  0  0  0  0  0  0
   -1.0223    0.1764   -0.2686 H   0  0  0  0  0  0  0  0  0  0  0  0
   -1.0795    1.6691    2.1053 H   0  0  0  0  0  0  0  0  0  0  0  0
   -3.0309    1.6707   -0.2577 H   0  0  0  0  0  0  0  0  0  0  0  0
   -0.8229    3.6852    0.3765 H   0  0  0  0  0  0  0  0  0  0  0  0
   -0.5906    2.3249   -0.7165 H   0  0  0  0  0  0  0  0  0  0  0  0
   -2.8101    3.7185    2.0000 H   0  0  0  0  0  0  0  0  0  0  0  0
   -3.8380    3.8673    0.5788 H   0  0  0  0  0  0  0  0  0  0  0  0
   -4.1502    2.5833    1.7580 H   0  0  0  0  0  0  0  0  0  0  0  0
   -2.4577    3.2242   -2.1659 H   0  0  0  0  0  0  0  0  0  0  0  0
   -1.1088    4.3467   -1.9800 H   0  0  0  0  0  0  0  0  0  0  0  0
   -2.6003    4.6090   -1.0617 H   0  0  0  0  0  0  0  0  0  0  0  0
   -3.4948   -0.5373    1.6415 N   0  0  0  0  0  0  0  0  0  0  0  0
   -4.5429   -1.3328    2.2391 C   0  0  2  0  0  0  0  0  0  0  0  0
   -5.4472   -1.8353    1.1214 C   0  0  0  0  0  0  0  0  0  0  0  0
   -5.5266   -1.2859    0.0246 O   0  0  0  0  0  0  0  0  0  0  0  0
   -5.3345   -0.5290    3.2589 C   0  0  0  0  0  0  0  0  0  0  0  0
   -3.2259   -0.7355    0.6823 H   0  0  0  0  0  0  0  0  0  0  0  0
   -4.0551   -2.1845    2.7257 H   0  0  0  0  0  0  0  0  0  0  0  0
   -5.8304    0.3286    2.7898 H   0  0  0  0  0  0  0  0  0  0  0  0
   -6.1097   -1.1412    3.7314 H   0  0  0  0  0  0  0  0  0  0  0  0
   -4.6776   -0.1434    4.0460 H   0  0  0  0  0  0  0  0  0  0  0  0
   -6.1874   -2.9440    1.5076 N   0  0  0  0  0  0  0  0  0  0  0  0
   -7.1280   -3.5983    0.6283 C   0  0  0  0  0  0  0  0  0  0  0  0
   -6.0435   -3.3443    2.4300 H   0  0  0  0  0  0  0  0  0  0  0  0
   -8.1307   -3.1724    0.7809 H   0  0  0  0  0  0  0  0  0  0  0  0
   -6.8201   -3.4457   -0.4167 H   0  0  0  0  0  0  0  0  0  0  0  0
   -7.1495   -4.6753    0.8507 H   0  0  0  0  0  0  0  0  0  0  0  0
  1  3  1  0  0  0  0
  1  7  1  0  0  0  0
  1  2  2  0  0  0  0
 37 38  1  0  0  0  0
 38 46  1  0  0  0  0
 38 39  2  0  0  0  0
  8  9  1  0  0  0  0
  9 17  1  0  0  0  0
  9 10  2  0  0  0  0
 18 19  1  0  0  0  0
 19 36  1  0  0  0  0
 19 20  2  0  0  0  0
 22 24  1  0  0  0  0
 37 40  1  0  0  0  0
  8 11  1  0  0  0  0
 21 23  1  0  0  0  0
 46 47  1  0  0  0  0
 21 22  1  0  0  0  0
 36 37  1  0  0  0  0
  7  8  1  0  0  0  0
 18 21  1  0  0  0  0
 17 18  1  0  0  0  0
  3  4  1  0  0  0  0
  3  5  1  0  0  0  0
  3  6  1  0  0  0  0
 24 33  1  0  0  0  0
 24 34  1  0  0  0  0
 24 35  1  0  0  0  0
 40 43  1  0  0  0  0
 40 44  1  0  0  0  0
 40 45  1  0  0  0  0
 11 14  1  0  0  0  0
 11 15  1  0  0  0  0
 11 16  1  0  0  0  0
 23 30  1  0  0  0  0
 23 31  1  0  0  0  0
 23 32  1  0  0  0  0
 47 49  1  0  0  0  0
 47 50  1  0  0  0  0
 47 51  1  0  0  0  0
 22 28  1  0  0  0  0
 22 29  1  0  0  0  0
 37 42  1  0  0  0  0
  8 13  1  0  0  0  0
 18 26  1  0  0  0  0
 21 27  1  0  0  0  0
 46 48  1  0  0  0  0
  7 12  1  0  0  0  0
 36 41  1  0  0  0  0
 17 25  1  0  0  0  0
M  END
$$$$

  -OEChem-02062319033D

 51 50  0     1  0  0  0  0  0999 V2000
    1.3524   -3.0009    1.4091 C   0  0  0  0  0  0  0  0  0  0  0  0
    1.8758   -1.9880    0.9598 O   0  0  0  0  0  0  0  0  0  0  0  0
    2.2030   -4.1782    1.7536 C   0  0  0  0  0  0  0  0  0  0  0  0
    2.3264   -4.8705    0.9053 H   0  0  0  0  0  0  0  0  0  0  0  0
    3.2257   -3.8876    2.0432 H   0  0  0  0  0  0  0  0  0  0  0  0
    1.8327   -4.8004    2.5839 H   0  0  0  0  0  0  0  0  0  0  0  0
    0.0005   -3.1873    1.6465 N   0  0  0  0  0  0  0  0  0  0  0  0
   -0.9949   -2.1807    1.3864 C   0  0  2  0  0  0  0  0  0  0  0  0
   -0.3083   -0.8216    1.4164 C   0  0  0  0  0  0  0  0  0  0  0  0
    0.7533   -0.6191    2.0022 O   0  0  0  0  0  0  0  0  0  0  0  0
   -2.1232   -2.2423    2.4042 C   0  0  0  0  0  0  0  0  0  0  0  0
   -0.3048   -4.0823    2.0245 H   0  0  0  0  0  0  0  0  0  0  0  0
   -1.3830   -2.3724    0.3801 H   0  0  0  0  0  0  0  0  0  0  0  0
   -1.7534   -2.0527    3.4185 H   0  0  0  0  0  0  0  0  0  0  0  0
   -2.8936   -1.4947    2.1882 H   0  0  0  0  0  0  0  0  0  0  0  0
   -2.5964   -3.2301    2.4022 H   0  0  0  0  0  0  0  0  0  0  0  0
   -1.0412    0.1517    0.7482 N   0  0  0  0  0  0  0  0  0  0  0  0
   -1.5293    1.3428    1.3960 C   0  0  2  0  0  0  0  0  0  0  0  0
   -2.4589    0.9199    2.5327 C   0  0  0  0  0  0  0  0  0  0  0  0
   -2.4297    1.4382    3.6471 O   0  0  0  0  0  0  0  0  0  0  0  0
   -2.2052    2.3308    0.4148 C   0  0  2  0  0  0  0  0  0  0  0  0
   -1.2195    2.8657   -0.6477 C   0  0  0  0  0  0  0  0  0  0  0  0
   -2.8742    3.4724    1.1917 C   0  0  0  0  0  0  0  0  0  0  0  0
   -1.9001    3.6245   -1.7797 C   0  0  0  0  0  0  0  0  0  0  0  0
   -1.2131    0.0462   -0.2489 H   0  0  0  0  0  0  0  0  0  0  0  0
   -0.6511    1.8177    1.8518 H   0  0  0  0  0  0  0  0  0  0  0  0
   -3.0031    1.7912   -0.1127 H   0  0  0  0  0  0  0  0  0  0  0  0
   -0.5036    3.5474   -0.1744 H   0  0  0  0  0  0  0  0  0  0  0  0
   -0.6367    2.0423   -1.0775 H   0  0  0  0  0  0  0  0  0  0  0  0
   -2.1299    4.0555    1.7447 H   0  0  0  0  0  0  0  0  0  0  0  0
   -3.3857    4.1649    0.5162 H   0  0  0  0  0  0  0  0  0  0  0  0
   -3.6100    3.0934    1.9084 H   0  0  0  0  0  0  0  0  0  0  0  0
   -2.6326    3.0006   -2.2997 H   0  0  0  0  0  0  0  0  0  0  0  0
   -1.1560    3.9420   -2.5176 H   0  0  0  0  0  0  0  0  0  0  0  0
   -2.4071    4.5190   -1.4047 H   0  0  0  0  0  0  0  0  0  0  0  0
   -3.3418   -0.0774    2.1437 N   0  0  0  0  0  0  0  0  0  0  0  0
   -4.3397   -0.6408    3.0243 C   0  0  2  0  0  0  0  0  0  0  0  0
   -5.4902   -1.1503    2.1664 C   0  0  0  0  0  0  0  0  0  0  0  0
   -5.7145   -0.7367    1.0307 O   0  0  0  0  0  0  0  0  0  0  0  0
   -4.8282    0.3851    4.0351 C   0  0  0  0  0  0  0  0  0  0  0  0
   -3.2839   -0.4290    1.1925 H   0  0  0  0  0  0  0  0  0  0  0  0
   -3.8667   -1.4836    3.5400 H   0  0  0  0  0  0  0  0  0  0  0  0
   -5.3051    1.2371    3.5369 H   0  0  0  0  0  0  0  0  0  0  0  0
   -5.5631   -0.0512    4.7196 H   0  0  0  0  0  0  0  0  0  0  0  0
   -3.9948    0.7724    4.6311 H   0  0  0  0  0  0  0  0  0  0  0  0
   -6.2629   -2.0901    2.8343 N   0  0  0  0  0  0  0  0  0  0  0  0
   -7.4205   -2.7140    2.2372 C   0  0  0  0  0  0  0  0  0  0  0  0
   -5.9921   -2.3878    3.7669 H   0  0  0  0  0  0  0  0  0  0  0  0
   -8.3219   -2.1391    2.4959 H   0  0  0  0  0  0  0  0  0  0  0  0
   -7.3016   -2.7369    1.1439 H   0  0  0  0  0  0  0  0  0  0  0  0
   -7.5198   -3.7417    2.6168 H   0  0  0  0  0  0  0  0  0  0  0  0
  1  3  1  0  0  0  0
  1  7  1  0  0  0  0
  1  2  2  0  0  0  0
 37 38  1  0  0  0  0
 38 46  1  0  0  0  0
 38 39  2  0  0  0  0
  8  9  1  0  0  0  0
  9 17  1  0  0  0  0
  9 10  2  0  0  0  0
 18 19  1  0  0  0  0
 19 36  1  0  0  0  0
 19 20  2  0  0  0  0
 22 24  1  0  0  0  0
 37 40  1  0  0  0  0
  8 11  1  0  0  0  0
 21 23  1  0  0  0  0
 46 47  1  0  0  0  0
 21 22  1  0  0  0  0
 36 37  1  0  0  0  0
  7  8  1  0  0  0  0
 18 21  1  0  0  0  0
 17 18  1  0  0  0  0
  3  4  1  0  0  0  0
  3  5  1  0  0  0  0
  3  6  1  0  0  0  0
 24 33  1  0  0  0  0
 24 34  1  0  0  0  0
 24 35  1  0  0  0  0
 40 43  1  0  0  0  0
 40 44  1  0  0  0  0
 40 45  1  0  0  0  0
 11 14  1  0  0  0  0
 11 15  1  0  0  0  0
 11 16  1  0  0  0  0
 23 30  1  0  0  0  0
 23 31  1  0  0  0  0
 23 32  1  0  0  0  0
 47 49  1  0  0  0  0
 47 50  1  0  0  0  0
 47 51  1  0  0  0  0
 22 28  1  0  0  0  0
 22 29  1  0  0  0  0
 37 42  1  0  0  0  0
  8 13  1  0  0  0  0
 18 26  1  0  0  0  0
 21 27  1  0  0  0  0
 46 48  1  0  0  0  0
  7 12  1  0  0  0  0
 36 41  1  0  0  0  0
 17 25  1  0  0  0  0
M  END
$$$$

  -OEChem-02062319033D

 51 50  0     1  0  0  0  0  0999 V2000
    1.3524   -3.0009    1.4091 C   0  0  0  0  0  0  0  0  0  0  0  0
    1.8758   -1.9880    0.9598 O   0  0  0  0  0  0  0  0  0  0  0  0
    2.2030   -4.1782    1.7536 C   0  0  0  0  0  0  0  0  0  0  0  0
    2.3264   -4.8705    0.9053 H   0  0  0  0  0  0  0  0  0  0  0  0
    3.2257   -3.8876    2.0432 H   0  0  0  0  0  0  0  0  0  0  0  0
    1.8327   -4.8004    2.5839 H   0  0  0  0  0  0  0  0  0  0  0  0
    0.0005   -3.1873    1.6465 N   0  0  0  0  0  0  0  0  0  0  0  0
   -0.9949   -2.1807    1.3864 C   0  0  2  0  0  0  0  0  0  0  0  0
   -0.3083   -0.8216    1.4164 C   0  0  0  0  0  0  0  0  0  0  0  0
    0.7533   -0.6191    2.0022 O   0  0  0  0  0  0  0  0  0  0  0  0
   -2.1232   -2.2423    2.4042 C   0  0  0  0  0  0  0  0  0  0  0  0
   -0.3048   -4.0823    2.0245 H   0  0  0  0  0  0  0  0  0  0  0  0
   -1.3830   -2.3724    0.3801 H   0  0  0  0  0  0  0  0  0  0  0  0
   -1.7534   -2.0527    3.4185 H   0  0  0  0  0  0  0  0  0  0  0  0
   -2.8936   -1.4947    2.1882 H   0  0  0  0  0  0  0  0  0  0  0  0
   -2.5964   -3.2301    2.4022 H   0  0  0  0  0  0  0  0  0  0  0  0
   -1.0412    0.1517    0.7482 N   0  0  0  0  0  0  0  0  0  0  0  0
   -1.2610    1.4700    1.2870 C   0  0  2  0  0  0  0  0  0  0  0  0
   -1.9992    1.3240    2.6170 C   0  0  0  0  0  0  0  0  0  0  0  0
   -1.7010    1.9686    3.6205 O   0  0  0  0  0  0  0  0  0  0  0  0
   -1.9961    2.4108    0.3020 C   0  0  2  0  0  0  0  0  0  0  0  0
   -1.1766    2.6684   -0.9820 C   0  0  0  0  0  0  0  0  0  0  0  0
   -2.3734    3.7214    1.0051 C   0  0  0  0  0  0  0  0  0  0  0  0
   -1.9706    3.3658   -2.0792 C   0  0  0  0  0  0  0  0  0  0  0  0
   -1.4100   -0.0531   -0.1775 H   0  0  0  0  0  0  0  0  0  0  0  0
   -0.2647    1.8733    1.5090 H   0  0  0  0  0  0  0  0  0  0  0  0
   -2.9350    1.9240    0.0059 H   0  0  0  0  0  0  0  0  0  0  0  0
   -0.3122    3.2995   -0.7456 H   0  0  0  0  0  0  0  0  0  0  0  0
   -0.7820    1.7257   -1.3793 H   0  0  0  0  0  0  0  0  0  0  0  0
   -1.4771    4.2615    1.3288 H   0  0  0  0  0  0  0  0  0  0  0  0
   -2.9232    4.3875    0.3331 H   0  0  0  0  0  0  0  0  0  0  0  0
   -2.9974    3.5394    1.8862 H   0  0  0  0  0  0  0  0  0  0  0  0
   -2.8536    2.7881   -2.3668 H   0  0  0  0  0  0  0  0  0  0  0  0
   -1.3495    3.4836   -2.9732 H   0  0  0  0  0  0  0  0  0  0  0  0
   -2.2938    4.3612   -1.7588 H   0  0  0  0  0  0  0  0  0  0  0  0
   -3.0458    0.4163    2.5382 N   0  0  0  0  0  0  0  0  0  0  0  0
   -3.9149    0.1096    3.6514 C   0  0  2  0  0  0  0  0  0  0  0  0
   -5.2571   -0.3407    3.0900 C   0  0  0  0  0  0  0  0  0  0  0  0
   -5.6453   -0.0456    1.9616 O   0  0  0  0  0  0  0  0  0  0  0  0
   -4.0847    1.3110    4.5682 C   0  0  0  0  0  0  0  0  0  0  0  0
   -3.2093   -0.0560    1.6540 H   0  0  0  0  0  0  0  0  0  0  0  0
   -3.4499   -0.7189    4.1967 H   0  0  0  0  0  0  0  0  0  0  0  0
   -4.5491    2.1513    4.0394 H   0  0  0  0  0  0  0  0  0  0  0  0
   -4.7203    1.0686    5.4262 H   0  0  0  0  0  0  0  0  0  0  0  0
   -3.1153    1.6519    4.9474 H   0  0  0  0  0  0  0  0  0  0  0  0
   -5.9890   -1.0748    4.0128 N   0  0  0  0  0  0  0  0  0  0  0  0
   -7.3014   -1.6039    3.7236 C   0  0  0  0  0  0  0  0  0  0  0  0
   -5.5811   -1.2878    4.9183 H   0  0  0  0  0  0  0  0  0  0  0  0
   -8.0672   -0.8831    4.0461 H   0  0  0  0  0  0  0  0  0  0  0  0
   -7.3956   -1.7794    2.6418 H   0  0  0  0  0  0  0  0  0  0  0  0
   -7.4410   -2.5526    4.2625 H   0  0  0  0  0  0  0  0  0  0  0  0
  1  3  1  0  0  0  0
  1  7  1  0  0  0  0
  1  2  2  0  0  0  0
 37 38  1  0  0  0  0
 38 46  1  0  0  0  0
 38 39  2  0  0  0  0
  8  9  1  0  0  0  0
  9 17  1  0  0  0  0
  9 10  2  0  0  0  0
 18 19  1  0  0  0  0
 19 36  1  0  0  0  0
 19 20  2  0  0  0  0
 22 24  1  0  0  0  0
 37 40  1  0  0  0  0
  8 11  1  0  0  0  0
 21 23  1  0  0  0  0
 46 47  1  0  0  0  0
 21 22  1  0  0  0  0
 36 37  1  0  0  0  0
  7  8  1  0  0  0  0
 18 21  1  0  0  0  0
 17 18  1  0  0  0  0
  3  4  1  0  0  0  0
  3  5  1  0  0  0  0
  3  6  1  0  0  0  0
 24 33  1  0  0  0  0
 24 34  1  0  0  0  0
 24 35  1  0  0  0  0
 40 43  1  0  0  0  0
 40 44  1  0  0  0  0
 40 45  1  0  0  0  0
 11 14  1  0  0  0  0
 11 15  1  0  0  0  0
 11 16  1  0  0  0  0
 23 30  1  0  0  0  0
 23 31  1  0  0  0  0
 23 32  1  0  0  0  0
 47 49  1  0  0  0  0
 47 50  1  0  0  0  0
 47 51  1  0  0  0  0
 22 28  1  0  0  0  0
 22 29  1  0  0  0  0
 37 42  1  0  0  0  0
  8 13  1  0  0  0  0
 18 26  1  0  0  0  0
 21 27  1  0  0  0  0
 46 48  1  0  0  0  0
  7 12  1  0  0  0  0
 36 41  1  0  0  0  0
 17 25  1  0  0  0  0
M  END
$$$$

  -OEChem-02062319033D

 51 50  0     1  0  0  0  0  0999 V2000
    1.3524   -3.0009    1.4091 C   0  0  0  0  0  0  0  0  0  0  0  0
    1.8758   -1.9880    0.9598 O   0  0  0  0  0  0  0  0  0  0  0  0
    2.2030   -4.1782    1.7536 C   0  0  0  0  0  0  0  0  0  0  0  0
    2.3264   -4.8705    0.9053 H   0  0  0  0  0  0  0  0  0  0  0  0
    3.2257   -3.8876    2.0432 H   0  0  0  0  0  0  0  0  0  0  0  0
    1.8327   -4.8004    2.5839 H   0  0  0  0  0  0  0  0  0  0  0  0
    0.0005   -3.1873    1.6465 N   0  0  0  0  0  0  0  0  0  0  0  0
   -0.9949   -2.1807    1.3864 C   0  0  2  0  0  0  0  0  0  0  0  0
   -0.3083   -0.8216    1.4164 C   0  0  0  0  0  0  0  0  0  0  0  0
    0.7533   -0.6191    2.0022 O   0  0  0  0  0  0  0  0  0  0  0  0
   -2.1232   -2.2423    2.4042 C   0  0  0  0  0  0  0  0  0  0  0  0
   -0.3048   -4.0823    2.0245 H   0  0  0  0  0  0  0  0  0  0  0  0
   -1.3830   -2.3724    0.3801 H   0  0  0  0  0  0  0  0  0  0  0  0
   -1.7534   -2.0527    3.4185 H   0  0  0  0  0  0  0  0  0  0  0  0
   -2.8936   -1.4947    2.1882 H   0  0  0  0  0  0  0  0  0  0  0  0
   -2.5964   -3.2301    2.4022 H   0  0  0  0  0  0  0  0  0  0  0  0
   -1.0412    0.1517    0.7482 N   0  0  0  0  0  0  0  0  0  0  0  0
   -1.0058    1.5447    1.1157 C   0  0  2  0  0  0  0  0  0  0  0  0
   -1.4895    1.6686    2.5600 C   0  0  0  0  0  0  0  0  0  0  0  0
   -0.9360    2.3866    3.3903 O   0  0  0  0  0  0  0  0  0  0  0  0
   -1.8047    2.4466    0.1442 C   0  0  2  0  0  0  0  0  0  0  0  0
   -1.2203    2.4270   -1.2858 C   0  0  0  0  0  0  0  0  0  0  0  0
   -1.8925    3.8742    0.7001 C   0  0  0  0  0  0  0  0  0  0  0  0
   -2.1252    3.0839   -2.3203 C   0  0  0  0  0  0  0  0  0  0  0  0
   -1.5997   -0.1147   -0.0593 H   0  0  0  0  0  0  0  0  0  0  0  0
    0.0533    1.8321    1.1003 H   0  0  0  0  0  0  0  0  0  0  0  0
   -2.8311    2.0599    0.0901 H   0  0  0  0  0  0  0  0  0  0  0  0
   -0.2617    2.9581   -1.2982 H   0  0  0  0  0  0  0  0  0  0  0  0
   -1.0163    1.3969   -1.6013 H   0  0  0  0  0  0  0  0  0  0  0  0
   -0.8964    4.3225    0.7807 H   0  0  0  0  0  0  0  0  0  0  0  0
   -2.4819    4.5200    0.0421 H   0  0  0  0  0  0  0  0  0  0  0  0
   -2.3542    3.8910    1.6927 H   0  0  0  0  0  0  0  0  0  0  0  0
   -3.1057    2.6013   -2.3624 H   0  0  0  0  0  0  0  0  0  0  0  0
   -1.6759    3.0027   -3.3156 H   0  0  0  0  0  0  0  0  0  0  0  0
   -2.2683    4.1463   -2.0999 H   0  0  0  0  0  0  0  0  0  0  0  0
   -2.6270    0.9103    2.7982 N   0  0  0  0  0  0  0  0  0  0  0  0
   -3.2976    0.8671    4.0777 C   0  0  2  0  0  0  0  0  0  0  0  0
   -4.7638    0.5384    3.8293 C   0  0  0  0  0  0  0  0  0  0  0  0
   -5.3237    0.7405    2.7539 O   0  0  0  0  0  0  0  0  0  0  0  0
   -3.1547    2.1856    4.8220 C   0  0  0  0  0  0  0  0  0  0  0  0
   -3.0072    0.3580    2.0353 H   0  0  0  0  0  0  0  0  0  0  0  0
   -2.8331    0.0574    4.6510 H   0  0  0  0  0  0  0  0  0  0  0  0
   -3.6141    3.0088    4.2628 H   0  0  0  0  0  0  0  0  0  0  0  0
   -3.6388    2.1418    5.8032 H   0  0  0  0  0  0  0  0  0  0  0  0
   -2.0989    2.4352    4.9735 H   0  0  0  0  0  0  0  0  0  0  0  0
   -5.3845    0.0328    4.9630 N   0  0  0  0  0  0  0  0  0  0  0  0
   -6.7787   -0.3435    4.9863 C   0  0  0  0  0  0  0  0  0  0  0  0
   -4.8384   -0.1193    5.8059 H   0  0  0  0  0  0  0  0  0  0  0  0
   -7.3838    0.5101    5.3258 H   0  0  0  0  0  0  0  0  0  0  0  0
   -7.0957   -0.6383    3.9750 H   0  0  0  0  0  0  0  0  0  0  0  0
   -6.9187   -1.1892    5.6755 H   0  0  0  0  0  0  0  0  0  0  0  0
  1  3  1  0  0  0  0
  1  7  1  0  0  0  0
  1  2  2  0  0  0  0
 37 38  1  0  0  0  0
 38 46  1  0  0  0  0
 38 39  2  0  0  0  0
  8  9  1  0  0  0  0
  9 17  1  0  0  0  0
  9 10  2  0  0  0  0
 18 19  1  0  0  0  0
 19 36  1  0  0  0  0
 19 20  2  0  0  0  0
 22 24  1  0  0  0  0
 37 40  1  0  0  0  0
  8 11  1  0  0  0  0
 21 23  1  0  0  0  0
 46 47  1  0  0  0  0
 21 22  1  0  0  0  0
 36 37  1  0  0  0  0
  7  8  1  0  0  0  0
 18 21  1  0  0  0  0
 17 18  1  0  0  0  0
  3  4  1  0  0  0  0
  3  5  1  0  0  0  0
  3  6  1  0  0  0  0
 24 33  1  0  0  0  0
 24 34  1  0  0  0  0
 24 35  1  0  0  0  0
 40 43  1  0  0  0  0
 40 44  1  0  0  0  0
 40 45  1  0  0  0  0
 11 14  1  0  0  0  0
 11 15  1  0  0  0  0
 11 16  1  0  0  0  0
 23 30  1  0  0  0  0
 23 31  1  0  0  0  0
 23 32  1  0  0  0  0
 47 49  1  0  0  0  0
 47 50  1  0  0  0  0
 47 51  1  0  0  0  0
 22 28  1  0  0  0  0
 22 29  1  0  0  0  0
 37 42  1  0  0  0  0
  8 13  1  0  0  0  0
 18 26  1  0  0  0  0
 21 27  1  0  0  0  0
 46 48  1  0  0  0  0
  7 12  1  0  0  0  0
 36 41  1  0  0  0  0
 17 25  1  0  0  0  0
M  END
$$$$

  -OEChem-02062319033D

 51 50  0     1  0  0  0  0  0999 V2000
    1.3524   -3.0009    1.4091 C   0  0  0  0  0  0  0  0  0  0  0  0
    1.8758   -1.9880    0.9598 O   0  0  0  0  0  0  0  0  0  0  0  0
    2.2030   -4.1782    1.7536 C   0  0  0  0  0  0  0  0  0  0  0  0
    2.3264   -4.8705    0.9053 H   0  0  0  0  0  0  0  0  0  0  0  0
    3.2257   -3.8876    2.0432 H   0  0  0  0  0  0  0  0  0  0  0  0
    1.8327   -4.8004    2.5839 H   0  0  0  0  0  0  0  0  0  0  0  0
    0.0005   -3.1873    1.6465 N   0  0  0  0  0  0  0  0  0  0  0  0
   -0.9949   -2.1807    1.3864 C   0  0  2  0  0  0  0  0  0  0  0  0
   -0.3083   -0.8216    1.4164 C   0  0  0  0  0  0  0  0  0  0  0  0
    0.7533   -0.6191    2.0022 O   0  0  0  0  0  0  0  0  0  0  0  0
   -2.1232   -2.2423    2.4042 C   0  0  0  0  0  0  0  0  0  0  0  0
   -0.3048   -4.0823    2.0245 H   0  0  0  0  0  0  0  0  0  0  0  0
   -1.3830   -2.3724    0.3801 H   0  0  0  0  0  0  0  0  0  0  0  0
   -1.7534   -2.0527    3.4185 H   0  0  0  0  0  0  0  0  0  0  0  0
   -2.8936   -1.4947    2.1882 H   0  0  0  0  0  0  0  0  0  0  0  0
   -2.5964   -3.2301    2.4022 H   0  0  0  0  0  0  0  0  0  0  0  0
   -1.0412    0.1517    0.7482 N   0  0  0  0  0  0  0  0  0  0  0  0
   -0.7811    1.5616    0.8938 C   0  0  2  0  0  0  0  0  0  0  0  0
   -0.9647    1.9302    2.3654 C   0  0  0  0  0  0  0  0  0  0  0  0
   -0.1868    2.6638    2.9722 O   0  0  0  0  0  0  0  0  0  0  0  0
   -1.6439    2.4359   -0.0478 C   0  0  2  0  0  0  0  0  0  0  0  0
   -1.3477    2.1577   -1.5383 C   0  0  0  0  0  0  0  0  0  0  0  0
   -1.4643    3.9202    0.2974 C   0  0  0  0  0  0  0  0  0  0  0  0
   -2.3533    2.7979   -2.4867 C   0  0  0  0  0  0  0  0  0  0  0  0
   -1.7691   -0.1345    0.0977 H   0  0  0  0  0  0  0  0  0  0  0  0
    0.2812    1.6970    0.6534 H   0  0  0  0  0  0  0  0  0  0  0  0
   -2.6986    2.1898    0.1339 H   0  0  0  0  0  0  0  0  0  0  0  0
   -0.3556    2.5467   -1.7945 H   0  0  0  0  0  0  0  0  0  0  0  0
   -1.3239    1.0781   -1.7283 H   0  0  0  0  0  0  0  0  0  0  0  0
   -0.4272    4.2344    0.1376 H   0  0  0  0  0  0  0  0  0  0  0  0
   -2.0919    4.5533   -0.3372 H   0  0  0  0  0  0  0  0  0  0  0  0
   -1.7242    4.1241    1.3413 H   0  0  0  0  0  0  0  0  0  0  0  0
   -3.3717    2.4527   -2.2870 H   0  0  0  0  0  0  0  0  0  0  0  0
   -2.1132    2.5321   -3.5215 H   0  0  0  0  0  0  0  0  0  0  0  0
   -2.3322    3.8890   -2.4046 H   0  0  0  0  0  0  0  0  0  0  0  0
   -2.1138    1.3707    2.9060 N   0  0  0  0  0  0  0  0  0  0  0  0
   -2.5297    1.5802    4.2741 C   0  0  2  0  0  0  0  0  0  0  0  0
   -4.0438    1.4271    4.3341 C   0  0  0  0  0  0  0  0  0  0  0  0
   -4.7716    1.5680    3.3535 O   0  0  0  0  0  0  0  0  0  0  0  0
   -2.1014    2.9493    4.7792 C   0  0  0  0  0  0  0  0  0  0  0  0
   -2.6913    0.7848    2.3105 H   0  0  0  0  0  0  0  0  0  0  0  0
   -2.0584    0.7926    4.8721 H   0  0  0  0  0  0  0  0  0  0  0  0
   -2.5637    3.7513    4.1921 H   0  0  0  0  0  0  0  0  0  0  0  0
   -2.3922    3.0953    5.8247 H   0  0  0  0  0  0  0  0  0  0  0  0
   -1.0150    3.0688    4.7075 H   0  0  0  0  0  0  0  0  0  0  0  0
   -4.4905    1.1570    5.6200 N   0  0  0  0  0  0  0  0  0  0  0  0
   -5.8881    0.9813    5.9390 C   0  0  0  0  0  0  0  0  0  0  0  0
   -3.8148    1.0382    6.3691 H   0  0  0  0  0  0  0  0  0  0  0  0
   -6.3183    1.9454    6.2478 H   0  0  0  0  0  0  0  0  0  0  0  0
   -6.4223    0.6086    5.0526 H   0  0  0  0  0  0  0  0  0  0  0  0
   -5.9883    0.2556    6.7596 H   0  0  0  0  0  0  0  0  0  0  0  0
  1  3  1  0  0  0  0
  1  7  1  0  0  0  0
  1  2  2  0  0  0  0
 37 38  1  0  0  0  0
 38 46  1  0  0  0  0
 38 39  2  0  0  0  0
  8  9  1  0  0  0  0
  9 17  1  0  0  0  0
  9 10  2  0  0  0  0
 18 19  1  0  0  0  0
 19 36  1  0  0  0  0
 19 20  2  0  0  0  0
 22 24  1  0  0  0  0
 37 40  1  0  0  0  0
  8 11  1  0  0  0  0
 21 23  1  0  0  0  0
 46 47  1  0  0  0  0
 21 22  1  0  0  0  0
 36 37  1  0  0  0  0
  7  8  1  0  0  0  0
 18 21  1  0  0  0  0
 17 18  1  0  0  0  0
  3  4  1  0  0  0  0
  3  5  1  0  0  0  0
  3  6  1  0  0  0  0
 24 33  1  0  0  0  0
 24 34  1  0  0  0  0
 24 35  1  0  0  0  0
 40 43  1  0  0  0  0
 40 44  1  0  0  0  0
 40 45  1  0  0  0  0
 11 14  1  0  0  0  0
 11 15  1  0  0  0  0
 11 16  1  0  0  0  0
 23 30  1  0  0  0  0
 23 31  1  0  0  0  0
 23 32  1  0  0  0  0
 47 49  1  0  0  0  0
 47 50  1  0  0  0  0
 47 51  1  0  0  0  0
 22 28  1  0  0  0  0
 22 29  1  0  0  0  0
 37 42  1  0  0  0  0
  8 13  1  0  0  0  0
 18 26  1  0  0  0  0
 21 27  1  0  0  0  0
 46 48  1  0  0  0  0
  7 12  1  0  0  0  0
 36 41  1  0  0  0  0
 17 25  1  0  0  0  0
M  END
$$$$
