@<TRIPOS>MOLECULE
default_name
   25    24     1     0     0
SMALL
No Charge or Current Charge


@<TRIPOS>ATOM
      1 H1          26.1090    25.1030    24.4250 H          1 ACE       0.112300
      2 CH3         26.0760    26.1460    24.1140 C.3        1 ACE      -0.366200
      3 H2          25.4580    26.7140    24.8070 H          1 ACE       0.112300
      4 H3          25.6660    26.2150    23.1080 H          1 ACE       0.112300
      5 C           27.4790    26.7050    24.1230 C.2        1 ACE       0.597200
      6 O           28.4230    25.9960    24.4430 O.2        1 ACE      -0.567900
      7 N           27.6180    27.9790    23.7670 N.am       2 ASH      -0.415700
      8 H           26.7920    28.5140    23.5410 H          2 ASH       0.271900
      9 CA          28.8900    28.7100    23.7700 C.3        2 ASH       0.034100
     10 HA          29.4770    28.3800    24.6300 H          2 ASH       0.086400
     11 CB          29.6700    28.3840    22.4810 C.3        2 ASH      -0.031600
     12 HB2         29.6310    27.3100    22.2950 H          2 ASH       0.048800
     13 HB3         29.2050    28.8880    21.6330 H          2 ASH       0.048800
     14 CG          31.1440    28.7720    22.5490 C.2        2 ASH       0.646200
     15 OD1         31.7130    29.2410    23.5260 O.2        2 ASH      -0.555400
     16 OD2         31.8340    28.5700    21.4110 O.3        2 ASH      -0.637600
     17 HD2         32.7350    28.8340    21.6000 H          2 ASH       0.474700
     18 C           28.6310    30.2230    23.9140 C.2        2 ASH       0.597300
     19 O           27.5350    30.6880    23.6040 O.2        2 ASH      -0.567900
     20 N           29.6280    30.9890    24.3710 N.am       3 NME      -0.415700
     21 H           30.5210    30.5390    24.5440 H          3 NME       0.271900
     22 CH3         29.5350    32.4340    24.5680 C.3        3 NME      -0.149000
     23 HH31        28.6570    32.6680    25.1740 H          3 NME       0.097600
     24 HH32        30.4290    32.8020    25.0730 H          3 NME       0.097600
     25 HH33        29.4350    32.9320    23.6020 H          3 NME       0.097600
@<TRIPOS>BOND
     1     5     6 2   
     2     5     7 am  
     3     2     3 1   
     4     2     4 1   
     5     2     5 1   
     6     1     2 1   
     7    18    19 2   
     8    18    20 am  
     9    16    17 1   
    10    14    15 2   
    11    14    16 1   
    12    11    12 1   
    13    11    13 1   
    14    11    14 1   
    15     9    10 1   
    16     9    11 1   
    17     9    18 1   
    18     7     8 1   
    19     7     9 1   
    20    22    23 1   
    21    22    24 1   
    22    22    25 1   
    23    20    21 1   
    24    20    22 1   
@<TRIPOS>SUBSTRUCTURE
     1 ACE         1 TEMP              0 ****  ****    0 ROOT
