@<TRIPOS>MOLECULE
default_name
   33    33     1     0     0
SMALL
No Charge or Current Charge


@<TRIPOS>ATOM
      1 H1          25.8890    25.3330    24.9020 H          1 ACE       0.112300
      2 CH3         25.9580    26.2210    24.2750 C.3        1 ACE      -0.366200
      3 H2          25.1940    26.9380    24.5700 H          1 ACE       0.112300
      4 H3          25.8240    25.9430    23.2310 H          1 ACE       0.112300
      5 C           27.3230    26.8420    24.4560 C.2        1 ACE       0.597200
      6 O           28.1300    26.3420    25.2280 O.2        1 ACE      -0.567900
      7 N           27.5760    27.9370    23.7430 N.am       2 TYR      -0.415700
      8 H           26.8490    28.3130    23.1520 H          2 TYR       0.271900
      9 CA          28.8300    28.6940    23.7990 C.3        2 TYR      -0.001400
     10 HA          29.2140    28.6540    24.8190 H          2 TYR       0.087600
     11 CB          29.8640    28.0390    22.8670 C.3        2 TYR      -0.015200
     12 HB2         29.9880    26.9940    23.1540 H          2 TYR       0.029500
     13 HB3         29.4790    28.0540    21.8460 H          2 TYR       0.029500
     14 CG          31.2280    28.7010    22.8990 C.ar       2 TYR      -0.001100
     15 CD1         31.6440    29.5250    21.8340 C.ar       2 TYR      -0.190600
     16 HD1         31.0000    29.6670    20.9760 H          2 TYR       0.169900
     17 CE1         32.8950    30.1700    21.8870 C.ar       2 TYR      -0.234100
     18 HE1         33.2110    30.7990    21.0690 H          2 TYR       0.165600
     19 CZ          33.7310    29.9930    23.0110 C.ar       2 TYR       0.322600
     20 OH          34.9380    30.6130    23.0730 O.3        2 TYR      -0.557900
     21 HH          35.1520    31.0690    22.2580 H          2 TYR       0.399200
     22 CE2         33.3110    29.1720    24.0780 C.ar       2 TYR      -0.234100
     23 HE2         33.9610    29.0410    24.9300 H          2 TYR       0.165600
     24 CD2         32.0620    28.5250    24.0200 C.ar       2 TYR      -0.190600
     25 HD2         31.7440    27.8870    24.8360 H          2 TYR       0.169900
     26 C           28.5970    30.1720    23.4440 C.2        2 TYR       0.597300
     27 O           27.6160    30.5020    22.7770 O.2        2 TYR      -0.567900
     28 N           29.4970    31.0600    23.8850 N.am       3 NME      -0.415700
     29 H           30.3040    30.7020    24.3750 H          3 NME       0.271900
     30 CH3         29.4270    32.4980    23.6360 C.3        3 NME      -0.149000
     31 HH31        28.4380    32.8730    23.9050 H          3 NME       0.097600
     32 HH32        30.1820    33.0190    24.2270 H          3 NME       0.097600
     33 HH33        29.5990    32.6960    22.5760 H          3 NME       0.097600
@<TRIPOS>BOND
     1     5     6 2   
     2     5     7 am  
     3     2     3 1   
     4     2     4 1   
     5     2     5 1   
     6     1     2 1   
     7    26    27 2   
     8    26    28 am  
     9    24    25 1   
    10    22    23 1   
    11    22    24 ar  
    12    20    21 1   
    13    19    20 1   
    14    19    22 ar  
    15    17    18 1   
    16    17    19 ar  
    17    15    16 1   
    18    15    17 ar  
    19    14    15 ar  
    20    14    24 ar  
    21    11    12 1   
    22    11    13 1   
    23    11    14 1   
    24     9    10 1   
    25     9    11 1   
    26     9    26 1   
    27     7     8 1   
    28     7     9 1   
    29    30    31 1   
    30    30    32 1   
    31    30    33 1   
    32    28    29 1   
    33    28    30 1   
@<TRIPOS>SUBSTRUCTURE
     1 ACE         1 TEMP              0 ****  ****    0 ROOT
