
  -OEChem-02102214163D

 26 25  0     1  0  0  0  0  0999 V2000
   -2.7688   -3.5726    1.2844 H   0  0  0  0  0  0  0  0  0  0  0  0
   -2.7060   -2.6338    0.7269 C   0  0  0  0  0  0  0  0  0  0  0  0
   -3.3305   -1.8876    1.2239 H   0  0  0  0  0  0  0  0  0  0  0  0
   -3.0824   -2.7989   -0.2856 H   0  0  0  0  0  0  0  0  0  0  0  0
   -1.2680   -2.1536    0.6723 C   0  0  0  0  0  0  0  0  0  0  0  0
   -0.3779   -2.8370    1.1519 O   0  0  0  0  0  0  0  0  0  0  0  0
   -0.9713   -0.9516    0.0665 N   0  0  0  0  0  0  0  0  0  0  0  0
   -1.7568   -0.3672   -0.2158 H   0  0  0  0  0  0  0  0  0  0  0  0
    0.3477   -0.2952    0.1150 C   0  0  1  0  0  0  0  0  0  0  0  0
    0.9225   -0.7149    0.9466 H   0  0  0  0  0  0  0  0  0  0  0  0
    1.1584   -0.5507   -1.1687 C   0  0  1  0  0  0  0  0  0  0  0  0
    1.3188   -1.6307   -1.2603 H   0  0  0  0  0  0  0  0  0  0  0  0
    0.4666   -0.0521   -2.4404 C   0  0  0  0  0  0  0  0  0  0  0  0
    0.3372    1.0341   -2.4135 H   0  0  0  0  0  0  0  0  0  0  0  0
    1.0654   -0.3078   -3.3192 H   0  0  0  0  0  0  0  0  0  0  0  0
   -0.5171   -0.5170   -2.5527 H   0  0  0  0  0  0  0  0  0  0  0  0
    2.4254    0.1046   -1.0700 O   0  0  0  0  0  0  0  0  0  0  0  0
    2.9637   -0.0793   -1.8596 H   0  0  0  0  0  0  0  0  0  0  0  0
    0.1907    1.2083    0.4123 C   0  0  0  0  0  0  0  0  0  0  0  0
   -0.7824    1.8164   -0.0268 O   0  0  0  0  0  0  0  0  0  0  0  0
    1.0089    1.8250    1.3413 N   0  0  0  0  0  0  0  0  0  0  0  0
    1.8480    1.3187    1.6122 H   0  0  0  0  0  0  0  0  0  0  0  0
    0.8974    3.2345    1.6938 C   0  0  0  0  0  0  0  0  0  0  0  0
   -0.1053    3.4572    2.0733 H   0  0  0  0  0  0  0  0  0  0  0  0
    1.6233    3.4872    2.4727 H   0  0  0  0  0  0  0  0  0  0  0  0
    1.0923    3.8640    0.8195 H   0  0  0  0  0  0  0  0  0  0  0  0
  1  2  1  0  0  0  0
  2  3  1  0  0  0  0
  2  4  1  0  0  0  0
  2  5  1  0  0  0  0
  5  6  2  0  0  0  0
  5  7  1  0  0  0  0
  7  8  1  0  0  0  0
  7  9  1  0  0  0  0
  9 10  1  0  0  0  0
  9 11  1  0  0  0  0
  9 19  1  0  0  0  0
 11 12  1  0  0  0  0
 11 13  1  0  0  0  0
 11 17  1  0  0  0  0
 13 14  1  0  0  0  0
 13 15  1  0  0  0  0
 13 16  1  0  0  0  0
 17 18  1  0  0  0  0
 19 20  2  0  0  0  0
 19 21  1  0  0  0  0
 21 22  1  0  0  0  0
 21 23  1  0  0  0  0
 23 24  1  0  0  0  0
 23 25  1  0  0  0  0
 23 26  1  0  0  0  0
M  END
$$$$

  -OEChem-02102214163D

 26 25  0     1  0  0  0  0  0999 V2000
   -2.7465   -3.5817    1.2630 H   0  0  0  0  0  0  0  0  0  0  0  0
   -2.6934   -2.6394    0.7106 C   0  0  0  0  0  0  0  0  0  0  0  0
   -3.3188   -1.8999    1.2166 H   0  0  0  0  0  0  0  0  0  0  0  0
   -3.0768   -2.8010   -0.2997 H   0  0  0  0  0  0  0  0  0  0  0  0
   -1.2586   -2.1501    0.6488 C   0  0  0  0  0  0  0  0  0  0  0  0
   -0.3620   -2.8329    1.1166 O   0  0  0  0  0  0  0  0  0  0  0  0
   -0.9754   -0.9380    0.0560 N   0  0  0  0  0  0  0  0  0  0  0  0
   -1.7689   -0.3605   -0.2173 H   0  0  0  0  0  0  0  0  0  0  0  0
    0.3352   -0.2654    0.1069 C   0  0  1  0  0  0  0  0  0  0  0  0
    0.9045   -0.6914    0.9392 H   0  0  0  0  0  0  0  0  0  0  0  0
    1.1535   -0.5273   -1.1689 C   0  0  1  0  0  0  0  0  0  0  0  0
    1.1157   -1.6025   -1.3758 H   0  0  0  0  0  0  0  0  0  0  0  0
    0.6402    0.2175   -2.4029 C   0  0  0  0  0  0  0  0  0  0  0  0
    0.7578    1.2993   -2.2858 H   0  0  0  0  0  0  0  0  0  0  0  0
    1.1976   -0.0959   -3.2902 H   0  0  0  0  0  0  0  0  0  0  0  0
   -0.4188   -0.0023   -2.5672 H   0  0  0  0  0  0  0  0  0  0  0  0
    2.5150   -0.1610   -0.9343 O   0  0  0  0  0  0  0  0  0  0  0  0
    3.0662   -0.3997   -1.6999 H   0  0  0  0  0  0  0  0  0  0  0  0
    0.1876    1.2343    0.4190 C   0  0  0  0  0  0  0  0  0  0  0  0
   -0.7821    1.8520   -0.0129 O   0  0  0  0  0  0  0  0  0  0  0  0
    1.0154    1.8375    1.3477 N   0  0  0  0  0  0  0  0  0  0  0  0
    1.8446    1.3170    1.6239 H   0  0  0  0  0  0  0  0  0  0  0  0
    0.9099    3.2419    1.7212 C   0  0  0  0  0  0  0  0  0  0  0  0
   -0.0883    3.4602    2.1150 H   0  0  0  0  0  0  0  0  0  0  0  0
    1.6447    3.4822    2.4955 H   0  0  0  0  0  0  0  0  0  0  0  0
    1.0961    3.8836    0.8538 H   0  0  0  0  0  0  0  0  0  0  0  0
  1  2  1  0  0  0  0
  2  3  1  0  0  0  0
  2  4  1  0  0  0  0
  2  5  1  0  0  0  0
  5  6  2  0  0  0  0
  5  7  1  0  0  0  0
  7  8  1  0  0  0  0
  7  9  1  0  0  0  0
  9 10  1  0  0  0  0
  9 11  1  0  0  0  0
  9 19  1  0  0  0  0
 11 12  1  0  0  0  0
 11 13  1  0  0  0  0
 11 17  1  0  0  0  0
 13 14  1  0  0  0  0
 13 15  1  0  0  0  0
 13 16  1  0  0  0  0
 17 18  1  0  0  0  0
 19 20  2  0  0  0  0
 19 21  1  0  0  0  0
 21 22  1  0  0  0  0
 21 23  1  0  0  0  0
 23 24  1  0  0  0  0
 23 25  1  0  0  0  0
 23 26  1  0  0  0  0
M  END
$$$$

  -OEChem-02102214163D

 26 25  0     1  0  0  0  0  0999 V2000
   -2.7287   -3.5920    1.2326 H   0  0  0  0  0  0  0  0  0  0  0  0
   -2.6797   -2.6430    0.6915 C   0  0  0  0  0  0  0  0  0  0  0  0
   -3.3155   -1.9148    1.2009 H   0  0  0  0  0  0  0  0  0  0  0  0
   -3.0532   -2.7962   -0.3237 H   0  0  0  0  0  0  0  0  0  0  0  0
   -1.2490   -2.1405    0.6458 C   0  0  0  0  0  0  0  0  0  0  0  0
   -0.3515   -2.8180    1.1190 O   0  0  0  0  0  0  0  0  0  0  0  0
   -0.9734   -0.9229    0.0603 N   0  0  0  0  0  0  0  0  0  0  0  0
   -1.7703   -0.3552   -0.2227 H   0  0  0  0  0  0  0  0  0  0  0  0
    0.3331   -0.2417    0.1070 C   0  0  1  0  0  0  0  0  0  0  0  0
    0.8983   -0.6699    0.9411 H   0  0  0  0  0  0  0  0  0  0  0  0
    1.1549   -0.5152   -1.1682 C   0  0  1  0  0  0  0  0  0  0  0  0
    0.9202   -1.5317   -1.5027 H   0  0  0  0  0  0  0  0  0  0  0  0
    0.8725    0.4410   -2.3287 C   0  0  0  0  0  0  0  0  0  0  0  0
    1.2109    1.4549   -2.0937 H   0  0  0  0  0  0  0  0  0  0  0  0
    1.3937    0.1042   -3.2294 H   0  0  0  0  0  0  0  0  0  0  0  0
   -0.2003    0.4708   -2.5426 H   0  0  0  0  0  0  0  0  0  0  0  0
    2.5464   -0.4752   -0.8443 O   0  0  0  0  0  0  0  0  0  0  0  0
    3.0794   -0.7810   -1.5986 H   0  0  0  0  0  0  0  0  0  0  0  0
    0.1882    1.2553    0.4291 C   0  0  0  0  0  0  0  0  0  0  0  0
   -0.7754    1.8802   -0.0051 O   0  0  0  0  0  0  0  0  0  0  0  0
    1.0234    1.8527    1.3547 N   0  0  0  0  0  0  0  0  0  0  0  0
    1.8333    1.3161    1.6567 H   0  0  0  0  0  0  0  0  0  0  0  0
    0.9146    3.2510    1.7498 C   0  0  0  0  0  0  0  0  0  0  0  0
   -0.0810    3.4586    2.1559 H   0  0  0  0  0  0  0  0  0  0  0  0
    1.6556    3.4839    2.5205 H   0  0  0  0  0  0  0  0  0  0  0  0
    1.0890    3.9061    0.8901 H   0  0  0  0  0  0  0  0  0  0  0  0
  1  2  1  0  0  0  0
  2  3  1  0  0  0  0
  2  4  1  0  0  0  0
  2  5  1  0  0  0  0
  5  6  2  0  0  0  0
  5  7  1  0  0  0  0
  7  8  1  0  0  0  0
  7  9  1  0  0  0  0
  9 10  1  0  0  0  0
  9 11  1  0  0  0  0
  9 19  1  0  0  0  0
 11 12  1  0  0  0  0
 11 13  1  0  0  0  0
 11 17  1  0  0  0  0
 13 14  1  0  0  0  0
 13 15  1  0  0  0  0
 13 16  1  0  0  0  0
 17 18  1  0  0  0  0
 19 20  2  0  0  0  0
 19 21  1  0  0  0  0
 21 22  1  0  0  0  0
 21 23  1  0  0  0  0
 23 24  1  0  0  0  0
 23 25  1  0  0  0  0
 23 26  1  0  0  0  0
M  END
$$$$

  -OEChem-02102214163D

 26 25  0     1  0  0  0  0  0999 V2000
   -2.7189   -3.5921    1.2214 H   0  0  0  0  0  0  0  0  0  0  0  0
   -2.6692   -2.6422    0.6818 C   0  0  0  0  0  0  0  0  0  0  0  0
   -3.3154   -1.9185    1.1846 H   0  0  0  0  0  0  0  0  0  0  0  0
   -3.0301   -2.7972   -0.3378 H   0  0  0  0  0  0  0  0  0  0  0  0
   -1.2409   -2.1312    0.6535 C   0  0  0  0  0  0  0  0  0  0  0  0
   -0.3476   -2.8019    1.1436 O   0  0  0  0  0  0  0  0  0  0  0  0
   -0.9658   -0.9121    0.0700 N   0  0  0  0  0  0  0  0  0  0  0  0
   -1.7623   -0.3512   -0.2268 H   0  0  0  0  0  0  0  0  0  0  0  0
    0.3411   -0.2301    0.1103 C   0  0  1  0  0  0  0  0  0  0  0  0
    0.9060   -0.6550    0.9465 H   0  0  0  0  0  0  0  0  0  0  0  0
    1.1584   -0.5148   -1.1725 C   0  0  1  0  0  0  0  0  0  0  0  0
    0.7352   -1.4068   -1.6475 H   0  0  0  0  0  0  0  0  0  0  0  0
    1.1647    0.6067   -2.2141 C   0  0  0  0  0  0  0  0  0  0  0  0
    1.6736    1.4965   -1.8304 H   0  0  0  0  0  0  0  0  0  0  0  0
    1.6837    0.2774   -3.1189 H   0  0  0  0  0  0  0  0  0  0  0  0
    0.1399    0.8770   -2.4870 H   0  0  0  0  0  0  0  0  0  0  0  0
    2.5063   -0.8209   -0.8090 O   0  0  0  0  0  0  0  0  0  0  0  0
    2.9936   -1.1763   -1.5720 H   0  0  0  0  0  0  0  0  0  0  0  0
    0.1909    1.2655    0.4370 C   0  0  0  0  0  0  0  0  0  0  0  0
   -0.7666    1.8926   -0.0065 O   0  0  0  0  0  0  0  0  0  0  0  0
    1.0278    1.8646    1.3602 N   0  0  0  0  0  0  0  0  0  0  0  0
    1.8140    1.3151    1.6990 H   0  0  0  0  0  0  0  0  0  0  0  0
    0.9060    3.2563    1.7743 C   0  0  0  0  0  0  0  0  0  0  0  0
   -0.0906    3.4488    2.1851 H   0  0  0  0  0  0  0  0  0  0  0  0
    1.6464    3.4865    2.5465 H   0  0  0  0  0  0  0  0  0  0  0  0
    1.0725    3.9248    0.9233 H   0  0  0  0  0  0  0  0  0  0  0  0
  1  2  1  0  0  0  0
  2  3  1  0  0  0  0
  2  4  1  0  0  0  0
  2  5  1  0  0  0  0
  5  6  2  0  0  0  0
  5  7  1  0  0  0  0
  7  8  1  0  0  0  0
  7  9  1  0  0  0  0
  9 10  1  0  0  0  0
  9 11  1  0  0  0  0
  9 19  1  0  0  0  0
 11 12  1  0  0  0  0
 11 13  1  0  0  0  0
 11 17  1  0  0  0  0
 13 14  1  0  0  0  0
 13 15  1  0  0  0  0
 13 16  1  0  0  0  0
 17 18  1  0  0  0  0
 19 20  2  0  0  0  0
 19 21  1  0  0  0  0
 21 22  1  0  0  0  0
 21 23  1  0  0  0  0
 23 24  1  0  0  0  0
 23 25  1  0  0  0  0
 23 26  1  0  0  0  0
M  END
$$$$

  -OEChem-02102214163D

 26 25  0     1  0  0  0  0  0999 V2000
   -2.7210   -3.5877    1.2097 H   0  0  0  0  0  0  0  0  0  0  0  0
   -2.6632   -2.6316    0.6819 C   0  0  0  0  0  0  0  0  0  0  0  0
   -3.3141   -1.9124    1.1849 H   0  0  0  0  0  0  0  0  0  0  0  0
   -3.0118   -2.7738   -0.3438 H   0  0  0  0  0  0  0  0  0  0  0  0
   -1.2337   -2.1229    0.6768 C   0  0  0  0  0  0  0  0  0  0  0  0
   -0.3544   -2.7838    1.2039 O   0  0  0  0  0  0  0  0  0  0  0  0
   -0.9465   -0.9102    0.0862 N   0  0  0  0  0  0  0  0  0  0  0  0
   -1.7355   -0.3518   -0.2348 H   0  0  0  0  0  0  0  0  0  0  0  0
    0.3675   -0.2412    0.1196 C   0  0  1  0  0  0  0  0  0  0  0  0
    0.9467   -0.6600    0.9492 H   0  0  0  0  0  0  0  0  0  0  0  0
    1.1557   -0.5245   -1.1878 C   0  0  1  0  0  0  0  0  0  0  0  0
    0.5586   -1.2004   -1.8101 H   0  0  0  0  0  0  0  0  0  0  0  0
    1.5105    0.6985   -2.0386 C   0  0  0  0  0  0  0  0  0  0  0  0
    2.1538    1.3877   -1.4827 H   0  0  0  0  0  0  0  0  0  0  0  0
    2.0410    0.3857   -2.9426 H   0  0  0  0  0  0  0  0  0  0  0  0
    0.6036    1.2287   -2.3455 H   0  0  0  0  0  0  0  0  0  0  0  0
    2.3784   -1.1854   -0.8561 O   0  0  0  0  0  0  0  0  0  0  0  0
    2.8036   -1.5425   -1.6542 H   0  0  0  0  0  0  0  0  0  0  0  0
    0.1971    1.2543    0.4410 C   0  0  0  0  0  0  0  0  0  0  0  0
   -0.7500    1.8766   -0.0307 O   0  0  0  0  0  0  0  0  0  0  0  0
    1.0226    1.8692    1.3643 N   0  0  0  0  0  0  0  0  0  0  0  0
    1.7801    1.3149    1.7562 H   0  0  0  0  0  0  0  0  0  0  0  0
    0.8730    3.2581    1.7791 C   0  0  0  0  0  0  0  0  0  0  0  0
   -0.1166    3.4223    2.2183 H   0  0  0  0  0  0  0  0  0  0  0  0
    1.6292    3.5122    2.5281 H   0  0  0  0  0  0  0  0  0  0  0  0
    0.9952    3.9288    0.9222 H   0  0  0  0  0  0  0  0  0  0  0  0
  1  2  1  0  0  0  0
  2  3  1  0  0  0  0
  2  4  1  0  0  0  0
  2  5  1  0  0  0  0
  5  6  2  0  0  0  0
  5  7  1  0  0  0  0
  7  8  1  0  0  0  0
  7  9  1  0  0  0  0
  9 10  1  0  0  0  0
  9 11  1  0  0  0  0
  9 19  1  0  0  0  0
 11 12  1  0  0  0  0
 11 13  1  0  0  0  0
 11 17  1  0  0  0  0
 13 14  1  0  0  0  0
 13 15  1  0  0  0  0
 13 16  1  0  0  0  0
 17 18  1  0  0  0  0
 19 20  2  0  0  0  0
 19 21  1  0  0  0  0
 21 22  1  0  0  0  0
 21 23  1  0  0  0  0
 23 24  1  0  0  0  0
 23 25  1  0  0  0  0
 23 26  1  0  0  0  0
M  END
$$$$

  -OEChem-02102214163D

 26 25  0     1  0  0  0  0  0999 V2000
   -2.7267   -3.5828    1.2103 H   0  0  0  0  0  0  0  0  0  0  0  0
   -2.6549   -2.6322    0.6742 C   0  0  0  0  0  0  0  0  0  0  0  0
   -3.3261   -1.9104    1.1460 H   0  0  0  0  0  0  0  0  0  0  0  0
   -2.9670   -2.7880   -0.3612 H   0  0  0  0  0  0  0  0  0  0  0  0
   -1.2285   -2.1162    0.7137 C   0  0  0  0  0  0  0  0  0  0  0  0
   -0.3720   -2.7531    1.3040 O   0  0  0  0  0  0  0  0  0  0  0  0
   -0.9263   -0.9132    0.1110 N   0  0  0  0  0  0  0  0  0  0  0  0
   -1.7017   -0.3704   -0.2643 H   0  0  0  0  0  0  0  0  0  0  0  0
    0.3955   -0.2599    0.1373 C   0  0  1  0  0  0  0  0  0  0  0  0
    0.9992   -0.6748    0.9512 H   0  0  0  0  0  0  0  0  0  0  0  0
    1.1368   -0.5223   -1.2025 C   0  0  1  0  0  0  0  0  0  0  0  0
    0.4207   -0.9039   -1.9387 H   0  0  0  0  0  0  0  0  0  0  0  0
    1.8503    0.6871   -1.8171 C   0  0  0  0  0  0  0  0  0  0  0  0
    2.5649    1.1180   -1.1087 H   0  0  0  0  0  0  0  0  0  0  0  0
    2.3952    0.3854   -2.7166 H   0  0  0  0  0  0  0  0  0  0  0  0
    1.1288    1.4576   -2.1063 H   0  0  0  0  0  0  0  0  0  0  0  0
    2.1528   -1.5005   -0.9741 O   0  0  0  0  0  0  0  0  0  0  0  0
    2.5323   -1.8089   -1.8140 H   0  0  0  0  0  0  0  0  0  0  0  0
    0.2057    1.2365    0.4464 C   0  0  0  0  0  0  0  0  0  0  0  0
   -0.7208    1.8553   -0.0687 O   0  0  0  0  0  0  0  0  0  0  0  0
    1.0187    1.8695    1.3689 N   0  0  0  0  0  0  0  0  0  0  0  0
    1.7442    1.3125    1.8133 H   0  0  0  0  0  0  0  0  0  0  0  0
    0.8529    3.2616    1.7666 C   0  0  0  0  0  0  0  0  0  0  0  0
   -0.1367    3.4191    2.2079 H   0  0  0  0  0  0  0  0  0  0  0  0
    1.6094    3.5346    2.5086 H   0  0  0  0  0  0  0  0  0  0  0  0
    0.9633    3.9233    0.9011 H   0  0  0  0  0  0  0  0  0  0  0  0
  1  2  1  0  0  0  0
  2  3  1  0  0  0  0
  2  4  1  0  0  0  0
  2  5  1  0  0  0  0
  5  6  2  0  0  0  0
  5  7  1  0  0  0  0
  7  8  1  0  0  0  0
  7  9  1  0  0  0  0
  9 10  1  0  0  0  0
  9 11  1  0  0  0  0
  9 19  1  0  0  0  0
 11 12  1  0  0  0  0
 11 13  1  0  0  0  0
 11 17  1  0  0  0  0
 13 14  1  0  0  0  0
 13 15  1  0  0  0  0
 13 16  1  0  0  0  0
 17 18  1  0  0  0  0
 19 20  2  0  0  0  0
 19 21  1  0  0  0  0
 21 22  1  0  0  0  0
 21 23  1  0  0  0  0
 23 24  1  0  0  0  0
 23 25  1  0  0  0  0
 23 26  1  0  0  0  0
M  END
$$$$

  -OEChem-02102214163D

 26 25  0     1  0  0  0  0  0999 V2000
   -2.7156   -3.6033    1.1890 H   0  0  0  0  0  0  0  0  0  0  0  0
   -2.6372   -2.6594    0.6424 C   0  0  0  0  0  0  0  0  0  0  0  0
   -3.3526   -1.9482    1.0622 H   0  0  0  0  0  0  0  0  0  0  0  0
   -2.8832   -2.8389   -0.4068 H   0  0  0  0  0  0  0  0  0  0  0  0
   -1.2292   -2.1062    0.7562 C   0  0  0  0  0  0  0  0  0  0  0  0
   -0.4008   -2.6969    1.4295 O   0  0  0  0  0  0  0  0  0  0  0  0
   -0.9196   -0.9117    0.1408 N   0  0  0  0  0  0  0  0  0  0  0  0
   -1.6750   -0.4086   -0.3194 H   0  0  0  0  0  0  0  0  0  0  0  0
    0.4063   -0.2687    0.1641 C   0  0  1  0  0  0  0  0  0  0  0  0
    1.0286   -0.6869    0.9618 H   0  0  0  0  0  0  0  0  0  0  0  0
    1.1086   -0.5085   -1.1966 C   0  0  1  0  0  0  0  0  0  0  0  0
    0.3546   -0.5819   -1.9883 H   0  0  0  0  0  0  0  0  0  0  0  0
    2.1262    0.5680   -1.5904 C   0  0  0  0  0  0  0  0  0  0  0  0
    2.8558    0.7198   -0.7888 H   0  0  0  0  0  0  0  0  0  0  0  0
    2.6621    0.2682   -2.4959 H   0  0  0  0  0  0  0  0  0  0  0  0
    1.6267    1.5190   -1.7993 H   0  0  0  0  0  0  0  0  0  0  0  0
    1.8560   -1.7228   -1.1125 O   0  0  0  0  0  0  0  0  0  0  0  0
    2.2276   -1.9628   -1.9775 H   0  0  0  0  0  0  0  0  0  0  0  0
    0.2171    1.2305    0.4583 C   0  0  0  0  0  0  0  0  0  0  0  0
   -0.6721    1.8587   -0.1080 O   0  0  0  0  0  0  0  0  0  0  0  0
    1.0266    1.8718    1.3787 N   0  0  0  0  0  0  0  0  0  0  0  0
    1.7164    1.3075    1.8681 H   0  0  0  0  0  0  0  0  0  0  0  0
    0.8723    3.2735    1.7466 C   0  0  0  0  0  0  0  0  0  0  0  0
   -0.1235    3.4532    2.1652 H   0  0  0  0  0  0  0  0  0  0  0  0
    1.6179    3.5504    2.4980 H   0  0  0  0  0  0  0  0  0  0  0  0
    1.0089    3.9167    0.8710 H   0  0  0  0  0  0  0  0  0  0  0  0
  1  2  1  0  0  0  0
  2  3  1  0  0  0  0
  2  4  1  0  0  0  0
  2  5  1  0  0  0  0
  5  6  2  0  0  0  0
  5  7  1  0  0  0  0
  7  8  1  0  0  0  0
  7  9  1  0  0  0  0
  9 10  1  0  0  0  0
  9 11  1  0  0  0  0
  9 19  1  0  0  0  0
 11 12  1  0  0  0  0
 11 13  1  0  0  0  0
 11 17  1  0  0  0  0
 13 14  1  0  0  0  0
 13 15  1  0  0  0  0
 13 16  1  0  0  0  0
 17 18  1  0  0  0  0
 19 20  2  0  0  0  0
 19 21  1  0  0  0  0
 21 22  1  0  0  0  0
 21 23  1  0  0  0  0
 23 24  1  0  0  0  0
 23 25  1  0  0  0  0
 23 26  1  0  0  0  0
M  END
$$$$

  -OEChem-02102214163D

 26 25  0     1  0  0  0  0  0999 V2000
   -2.7018   -3.6363    1.1656 H   0  0  0  0  0  0  0  0  0  0  0  0
   -2.6223   -2.6985    0.6086 C   0  0  0  0  0  0  0  0  0  0  0  0
   -3.3810   -2.0039    0.9768 H   0  0  0  0  0  0  0  0  0  0  0  0
   -2.8049   -2.9013   -0.4493 H   0  0  0  0  0  0  0  0  0  0  0  0
   -1.2401   -2.0999    0.7893 C   0  0  0  0  0  0  0  0  0  0  0  0
   -0.4381   -2.6454    1.5304 O   0  0  0  0  0  0  0  0  0  0  0  0
   -0.9292   -0.9107    0.1641 N   0  0  0  0  0  0  0  0  0  0  0  0
   -1.6592   -0.4579   -0.3803 H   0  0  0  0  0  0  0  0  0  0  0  0
    0.3983   -0.2721    0.1884 C   0  0  1  0  0  0  0  0  0  0  0  0
    1.0254   -0.6987    0.9774 H   0  0  0  0  0  0  0  0  0  0  0  0
    1.0890   -0.4922   -1.1775 C   0  0  1  0  0  0  0  0  0  0  0  0
    0.3780   -0.2828   -1.9845 H   0  0  0  0  0  0  0  0  0  0  0  0
    2.3380    0.3727   -1.3766 C   0  0  0  0  0  0  0  0  0  0  0  0
    3.0286    0.2466   -0.5368 H   0  0  0  0  0  0  0  0  0  0  0  0
    2.8540    0.0866   -2.2981 H   0  0  0  0  0  0  0  0  0  0  0  0
    2.0722    1.4310   -1.4587 H   0  0  0  0  0  0  0  0  0  0  0  0
    1.5392   -1.8460   -1.2578 O   0  0  0  0  0  0  0  0  0  0  0  0
    1.9323   -2.0310   -2.1268 H   0  0  0  0  0  0  0  0  0  0  0  0
    0.2251    1.2308    0.4699 C   0  0  0  0  0  0  0  0  0  0  0  0
   -0.6257    1.8735   -0.1370 O   0  0  0  0  0  0  0  0  0  0  0  0
    1.0381    1.8710    1.3879 N   0  0  0  0  0  0  0  0  0  0  0  0
    1.6915    1.2967    1.9144 H   0  0  0  0  0  0  0  0  0  0  0  0
    0.9170    3.2851    1.7191 C   0  0  0  0  0  0  0  0  0  0  0  0
   -0.0737    3.4986    2.1338 H   0  0  0  0  0  0  0  0  0  0  0  0
    1.6705    3.5645    2.4616 H   0  0  0  0  0  0  0  0  0  0  0  0
    1.0669    3.9017    0.8267 H   0  0  0  0  0  0  0  0  0  0  0  0
  1  2  1  0  0  0  0
  2  3  1  0  0  0  0
  2  4  1  0  0  0  0
  2  5  1  0  0  0  0
  5  6  2  0  0  0  0
  5  7  1  0  0  0  0
  7  8  1  0  0  0  0
  7  9  1  0  0  0  0
  9 10  1  0  0  0  0
  9 11  1  0  0  0  0
  9 19  1  0  0  0  0
 11 12  1  0  0  0  0
 11 13  1  0  0  0  0
 11 17  1  0  0  0  0
 13 14  1  0  0  0  0
 13 15  1  0  0  0  0
 13 16  1  0  0  0  0
 17 18  1  0  0  0  0
 19 20  2  0  0  0  0
 19 21  1  0  0  0  0
 21 22  1  0  0  0  0
 21 23  1  0  0  0  0
 23 24  1  0  0  0  0
 23 25  1  0  0  0  0
 23 26  1  0  0  0  0
M  END
$$$$

  -OEChem-02102214163D

 26 25  0     1  0  0  0  0  0999 V2000
   -2.6866   -3.6673    1.1426 H   0  0  0  0  0  0  0  0  0  0  0  0
   -2.6119   -2.7302    0.5837 C   0  0  0  0  0  0  0  0  0  0  0  0
   -3.4053   -2.0566    0.9161 H   0  0  0  0  0  0  0  0  0  0  0  0
   -2.7443   -2.9434   -0.4797 H   0  0  0  0  0  0  0  0  0  0  0  0
   -1.2565   -2.0898    0.8170 C   0  0  0  0  0  0  0  0  0  0  0  0
   -0.4764   -2.5968    1.6082 O   0  0  0  0  0  0  0  0  0  0  0  0
   -0.9471   -0.9059    0.1807 N   0  0  0  0  0  0  0  0  0  0  0  0
   -1.6464   -0.5114   -0.4424 H   0  0  0  0  0  0  0  0  0  0  0  0
    0.3819   -0.2696    0.2030 C   0  0  1  0  0  0  0  0  0  0  0  0
    1.0022   -0.7022    0.9939 H   0  0  0  0  0  0  0  0  0  0  0  0
    1.0799   -0.4900   -1.1574 C   0  0  1  0  0  0  0  0  0  0  0  0
    0.4723   -0.0423   -1.9519 H   0  0  0  0  0  0  0  0  0  0  0  0
    2.4860    0.1136   -1.1981 C   0  0  0  0  0  0  0  0  0  0  0  0
    3.0956   -0.2808   -0.3789 H   0  0  0  0  0  0  0  0  0  0  0  0
    2.9745   -0.1310   -2.1459 H   0  0  0  0  0  0  0  0  0  0  0  0
    2.4461    1.2036   -1.1126 H   0  0  0  0  0  0  0  0  0  0  0  0
    1.2295   -1.8903   -1.4068 O   0  0  0  0  0  0  0  0  0  0  0  0
    1.6611   -2.0460   -2.2633 H   0  0  0  0  0  0  0  0  0  0  0  0
    0.2355    1.2384    0.4701 C   0  0  0  0  0  0  0  0  0  0  0  0
   -0.5910    1.8947   -0.1548 O   0  0  0  0  0  0  0  0  0  0  0  0
    1.0602    1.8725    1.3823 N   0  0  0  0  0  0  0  0  0  0  0  0
    1.6879    1.2892    1.9294 H   0  0  0  0  0  0  0  0  0  0  0  0
    0.9605    3.2913    1.7011 C   0  0  0  0  0  0  0  0  0  0  0  0
   -0.0296    3.5245    2.1068 H   0  0  0  0  0  0  0  0  0  0  0  0
    1.7133    3.5642    2.4470 H   0  0  0  0  0  0  0  0  0  0  0  0
    1.1268    3.8986    0.8051 H   0  0  0  0  0  0  0  0  0  0  0  0
  1  2  1  0  0  0  0
  2  3  1  0  0  0  0
  2  4  1  0  0  0  0
  2  5  1  0  0  0  0
  5  6  2  0  0  0  0
  5  7  1  0  0  0  0
  7  8  1  0  0  0  0
  7  9  1  0  0  0  0
  9 10  1  0  0  0  0
  9 11  1  0  0  0  0
  9 19  1  0  0  0  0
 11 12  1  0  0  0  0
 11 13  1  0  0  0  0
 11 17  1  0  0  0  0
 13 14  1  0  0  0  0
 13 15  1  0  0  0  0
 13 16  1  0  0  0  0
 17 18  1  0  0  0  0
 19 20  2  0  0  0  0
 19 21  1  0  0  0  0
 21 22  1  0  0  0  0
 21 23  1  0  0  0  0
 23 24  1  0  0  0  0
 23 25  1  0  0  0  0
 23 26  1  0  0  0  0
M  END
$$$$

  -OEChem-02102214163D

 26 25  0     1  0  0  0  0  0999 V2000
   -2.6715   -3.6929    1.1314 H   0  0  0  0  0  0  0  0  0  0  0  0
   -2.6034   -2.7605    0.5643 C   0  0  0  0  0  0  0  0  0  0  0  0
   -3.4285   -2.1073    0.8579 H   0  0  0  0  0  0  0  0  0  0  0  0
   -2.6888   -2.9899   -0.5005 H   0  0  0  0  0  0  0  0  0  0  0  0
   -1.2772   -2.0773    0.8399 C   0  0  0  0  0  0  0  0  0  0  0  0
   -0.5099   -2.5544    1.6624 O   0  0  0  0  0  0  0  0  0  0  0  0
   -0.9734   -0.8973    0.1936 N   0  0  0  0  0  0  0  0  0  0  0  0
   -1.6415   -0.5592   -0.4931 H   0  0  0  0  0  0  0  0  0  0  0  0
    0.3576   -0.2638    0.2104 C   0  0  1  0  0  0  0  0  0  0  0  0
    0.9665   -0.6989    1.0085 H   0  0  0  0  0  0  0  0  0  0  0  0
    1.0723   -0.4949   -1.1414 C   0  0  1  0  0  0  0  0  0  0  0  0
    0.6191    0.1526   -1.9006 H   0  0  0  0  0  0  0  0  0  0  0  0
    2.5683   -0.1906   -1.0514 C   0  0  0  0  0  0  0  0  0  0  0  0
    3.0421   -0.8190   -0.2905 H   0  0  0  0  0  0  0  0  0  0  0  0
    3.0520   -0.3834   -2.0137 H   0  0  0  0  0  0  0  0  0  0  0  0
    2.7357    0.8591   -0.7929 H   0  0  0  0  0  0  0  0  0  0  0  0
    0.9377   -1.8550   -1.5681 O   0  0  0  0  0  0  0  0  0  0  0  0
    1.3941   -1.9976   -2.4141 H   0  0  0  0  0  0  0  0  0  0  0  0
    0.2416    1.2485    0.4674 C   0  0  0  0  0  0  0  0  0  0  0  0
   -0.5693    1.9194   -0.1620 O   0  0  0  0  0  0  0  0  0  0  0  0
    1.0828    1.8718    1.3719 N   0  0  0  0  0  0  0  0  0  0  0  0
    1.6884    1.2778    1.9321 H   0  0  0  0  0  0  0  0  0  0  0  0
    1.0057    3.2931    1.6866 C   0  0  0  0  0  0  0  0  0  0  0  0
    0.0286    3.5380    2.1161 H   0  0  0  0  0  0  0  0  0  0  0  0
    1.7800    3.5621    2.4114 H   0  0  0  0  0  0  0  0  0  0  0  0
    1.1553    3.8949    0.7840 H   0  0  0  0  0  0  0  0  0  0  0  0
  1  2  1  0  0  0  0
  2  3  1  0  0  0  0
  2  4  1  0  0  0  0
  2  5  1  0  0  0  0
  5  6  2  0  0  0  0
  5  7  1  0  0  0  0
  7  8  1  0  0  0  0
  7  9  1  0  0  0  0
  9 10  1  0  0  0  0
  9 11  1  0  0  0  0
  9 19  1  0  0  0  0
 11 12  1  0  0  0  0
 11 13  1  0  0  0  0
 11 17  1  0  0  0  0
 13 14  1  0  0  0  0
 13 15  1  0  0  0  0
 13 16  1  0  0  0  0
 17 18  1  0  0  0  0
 19 20  2  0  0  0  0
 19 21  1  0  0  0  0
 21 22  1  0  0  0  0
 21 23  1  0  0  0  0
 23 24  1  0  0  0  0
 23 25  1  0  0  0  0
 23 26  1  0  0  0  0
M  END
$$$$

  -OEChem-02102214163D

 26 25  0     1  0  0  0  0  0999 V2000
   -2.6678   -3.7059    1.1345 H   0  0  0  0  0  0  0  0  0  0  0  0
   -2.6057   -2.7750    0.5641 C   0  0  0  0  0  0  0  0  0  0  0  0
   -3.4402   -2.1296    0.8488 H   0  0  0  0  0  0  0  0  0  0  0  0
   -2.6802   -3.0091   -0.5006 H   0  0  0  0  0  0  0  0  0  0  0  0
   -1.2897   -2.0757    0.8477 C   0  0  0  0  0  0  0  0  0  0  0  0
   -0.5193   -2.5457    1.6720 O   0  0  0  0  0  0  0  0  0  0  0  0
   -0.9938   -0.8958    0.1981 N   0  0  0  0  0  0  0  0  0  0  0  0
   -1.6447   -0.5915   -0.5201 H   0  0  0  0  0  0  0  0  0  0  0  0
    0.3365   -0.2612    0.2056 C   0  0  1  0  0  0  0  0  0  0  0  0
    0.9362   -0.6933    1.0118 H   0  0  0  0  0  0  0  0  0  0  0  0
    1.0700   -0.5011   -1.1385 C   0  0  1  0  0  0  0  0  0  0  0  0
    0.8105    0.3046   -1.8350 H   0  0  0  0  0  0  0  0  0  0  0  0
    2.5856   -0.5203   -0.9458 C   0  0  0  0  0  0  0  0  0  0  0  0
    2.8759   -1.3360   -0.2759 H   0  0  0  0  0  0  0  0  0  0  0  0
    3.0886   -0.6627   -1.9069 H   0  0  0  0  0  0  0  0  0  0  0  0
    2.9297    0.4253   -0.5164 H   0  0  0  0  0  0  0  0  0  0  0  0
    0.6870   -1.7416   -1.7459 O   0  0  0  0  0  0  0  0  0  0  0  0
    1.1733   -1.8818   -2.5758 H   0  0  0  0  0  0  0  0  0  0  0  0
    0.2388    1.2525    0.4613 C   0  0  0  0  0  0  0  0  0  0  0  0
   -0.5705    1.9330   -0.1592 O   0  0  0  0  0  0  0  0  0  0  0  0
    1.0959    1.8656    1.3581 N   0  0  0  0  0  0  0  0  0  0  0  0
    1.6912    1.2634    1.9205 H   0  0  0  0  0  0  0  0  0  0  0  0
    1.0370    3.2874    1.6746 C   0  0  0  0  0  0  0  0  0  0  0  0
    0.0665    3.5425    2.1130 H   0  0  0  0  0  0  0  0  0  0  0  0
    1.8209    3.5471    2.3926 H   0  0  0  0  0  0  0  0  0  0  0  0
    1.1846    3.8883    0.7710 H   0  0  0  0  0  0  0  0  0  0  0  0
  1  2  1  0  0  0  0
  2  3  1  0  0  0  0
  2  4  1  0  0  0  0
  2  5  1  0  0  0  0
  5  6  2  0  0  0  0
  5  7  1  0  0  0  0
  7  8  1  0  0  0  0
  7  9  1  0  0  0  0
  9 10  1  0  0  0  0
  9 11  1  0  0  0  0
  9 19  1  0  0  0  0
 11 12  1  0  0  0  0
 11 13  1  0  0  0  0
 11 17  1  0  0  0  0
 13 14  1  0  0  0  0
 13 15  1  0  0  0  0
 13 16  1  0  0  0  0
 17 18  1  0  0  0  0
 19 20  2  0  0  0  0
 19 21  1  0  0  0  0
 21 22  1  0  0  0  0
 21 23  1  0  0  0  0
 23 24  1  0  0  0  0
 23 25  1  0  0  0  0
 23 26  1  0  0  0  0
M  END
$$$$

  -OEChem-02102214163D

 26 25  0     1  0  0  0  0  0999 V2000
   -2.6545   -3.7162    1.1326 H   0  0  0  0  0  0  0  0  0  0  0  0
   -2.5976   -2.7863    0.5600 C   0  0  0  0  0  0  0  0  0  0  0  0
   -3.4427   -2.1501    0.8339 H   0  0  0  0  0  0  0  0  0  0  0  0
   -2.6580   -3.0242   -0.5048 H   0  0  0  0  0  0  0  0  0  0  0  0
   -1.2935   -2.0698    0.8550 C   0  0  0  0  0  0  0  0  0  0  0  0
   -0.5194   -2.5333    1.6794 O   0  0  0  0  0  0  0  0  0  0  0  0
   -1.0048   -0.8896    0.2036 N   0  0  0  0  0  0  0  0  0  0  0  0
   -1.6343   -0.6206   -0.5473 H   0  0  0  0  0  0  0  0  0  0  0  0
    0.3253   -0.2549    0.2044 C   0  0  1  0  0  0  0  0  0  0  0  0
    0.9215   -0.6796    1.0170 H   0  0  0  0  0  0  0  0  0  0  0  0
    1.0655   -0.5013   -1.1390 C   0  0  1  0  0  0  0  0  0  0  0  0
    1.0378    0.4152   -1.7397 H   0  0  0  0  0  0  0  0  0  0  0  0
    2.5243   -0.8813   -0.8949 C   0  0  0  0  0  0  0  0  0  0  0  0
    2.5852   -1.8170   -0.3294 H   0  0  0  0  0  0  0  0  0  0  0  0
    3.0475   -1.0128   -1.8466 H   0  0  0  0  0  0  0  0  0  0  0  0
    3.0334   -0.0955   -0.3287 H   0  0  0  0  0  0  0  0  0  0  0  0
    0.4636   -1.5467   -1.9163 O   0  0  0  0  0  0  0  0  0  0  0  0
    0.9555   -1.6839   -2.7435 H   0  0  0  0  0  0  0  0  0  0  0  0
    0.2346    1.2593    0.4609 C   0  0  0  0  0  0  0  0  0  0  0  0
   -0.5732    1.9462   -0.1544 O   0  0  0  0  0  0  0  0  0  0  0  0
    1.1008    1.8661    1.3534 N   0  0  0  0  0  0  0  0  0  0  0  0
    1.6957    1.2599    1.9119 H   0  0  0  0  0  0  0  0  0  0  0  0
    1.0507    3.2875    1.6734 C   0  0  0  0  0  0  0  0  0  0  0  0
    0.0869    3.5451    2.1247 H   0  0  0  0  0  0  0  0  0  0  0  0
    1.8445    3.5433    2.3817 H   0  0  0  0  0  0  0  0  0  0  0  0
    1.1893    3.8896    0.7693 H   0  0  0  0  0  0  0  0  0  0  0  0
  1  2  1  0  0  0  0
  2  3  1  0  0  0  0
  2  4  1  0  0  0  0
  2  5  1  0  0  0  0
  5  6  2  0  0  0  0
  5  7  1  0  0  0  0
  7  8  1  0  0  0  0
  7  9  1  0  0  0  0
  9 10  1  0  0  0  0
  9 11  1  0  0  0  0
  9 19  1  0  0  0  0
 11 12  1  0  0  0  0
 11 13  1  0  0  0  0
 11 17  1  0  0  0  0
 13 14  1  0  0  0  0
 13 15  1  0  0  0  0
 13 16  1  0  0  0  0
 17 18  1  0  0  0  0
 19 20  2  0  0  0  0
 19 21  1  0  0  0  0
 21 22  1  0  0  0  0
 21 23  1  0  0  0  0
 23 24  1  0  0  0  0
 23 25  1  0  0  0  0
 23 26  1  0  0  0  0
M  END
$$$$

  -OEChem-02102214163D

 26 25  0     1  0  0  0  0  0999 V2000
   -2.6449   -3.7129    1.1312 H   0  0  0  0  0  0  0  0  0  0  0  0
   -2.5883   -2.7805    0.5629 C   0  0  0  0  0  0  0  0  0  0  0  0
   -3.4302   -2.1433    0.8440 H   0  0  0  0  0  0  0  0  0  0  0  0
   -2.6552   -3.0127   -0.5028 H   0  0  0  0  0  0  0  0  0  0  0  0
   -1.2812   -2.0683    0.8551 C   0  0  0  0  0  0  0  0  0  0  0  0
   -0.5010   -2.5385    1.6701 O   0  0  0  0  0  0  0  0  0  0  0  0
   -0.9898   -0.8898    0.2033 N   0  0  0  0  0  0  0  0  0  0  0  0
   -1.6049   -0.6329   -0.5646 H   0  0  0  0  0  0  0  0  0  0  0  0
    0.3397   -0.2555    0.2067 C   0  0  1  0  0  0  0  0  0  0  0  0
    0.9390   -0.6701    1.0227 H   0  0  0  0  0  0  0  0  0  0  0  0
    1.0764   -0.4960   -1.1410 C   0  0  1  0  0  0  0  0  0  0  0  0
    1.3099    0.4665   -1.6109 H   0  0  0  0  0  0  0  0  0  0  0  0
    2.3825   -1.2523   -0.9075 C   0  0  0  0  0  0  0  0  0  0  0  0
    2.1817   -2.2275   -0.4517 H   0  0  0  0  0  0  0  0  0  0  0  0
    2.9069   -1.4092   -1.8546 H   0  0  0  0  0  0  0  0  0  0  0  0
    3.0386   -0.6837   -0.2415 H   0  0  0  0  0  0  0  0  0  0  0  0
    0.2988   -1.2710   -2.0666 O   0  0  0  0  0  0  0  0  0  0  0  0
    0.7853   -1.3947   -2.8993 H   0  0  0  0  0  0  0  0  0  0  0  0
    0.2355    1.2588    0.4613 C   0  0  0  0  0  0  0  0  0  0  0  0
   -0.5746    1.9409   -0.1561 O   0  0  0  0  0  0  0  0  0  0  0  0
    1.0939    1.8721    1.3571 N   0  0  0  0  0  0  0  0  0  0  0  0
    1.6922    1.2707    1.9167 H   0  0  0  0  0  0  0  0  0  0  0  0
    1.0321    3.2929    1.6776 C   0  0  0  0  0  0  0  0  0  0  0  0
    0.0615    3.5447    2.1176 H   0  0  0  0  0  0  0  0  0  0  0  0
    1.8158    3.5523    2.3958 H   0  0  0  0  0  0  0  0  0  0  0  0
    1.1781    3.8966    0.7757 H   0  0  0  0  0  0  0  0  0  0  0  0
  1  2  1  0  0  0  0
  2  3  1  0  0  0  0
  2  4  1  0  0  0  0
  2  5  1  0  0  0  0
  5  6  2  0  0  0  0
  5  7  1  0  0  0  0
  7  8  1  0  0  0  0
  7  9  1  0  0  0  0
  9 10  1  0  0  0  0
  9 11  1  0  0  0  0
  9 19  1  0  0  0  0
 11 12  1  0  0  0  0
 11 13  1  0  0  0  0
 11 17  1  0  0  0  0
 13 14  1  0  0  0  0
 13 15  1  0  0  0  0
 13 16  1  0  0  0  0
 17 18  1  0  0  0  0
 19 20  2  0  0  0  0
 19 21  1  0  0  0  0
 21 22  1  0  0  0  0
 21 23  1  0  0  0  0
 23 24  1  0  0  0  0
 23 25  1  0  0  0  0
 23 26  1  0  0  0  0
M  END
$$$$

  -OEChem-02102214163D

 26 25  0     1  0  0  0  0  0999 V2000
   -2.6436   -3.7051    1.1305 H   0  0  0  0  0  0  0  0  0  0  0  0
   -2.5801   -2.7750    0.5590 C   0  0  0  0  0  0  0  0  0  0  0  0
   -3.4178   -2.1312    0.8377 H   0  0  0  0  0  0  0  0  0  0  0  0
   -2.6485   -3.0101   -0.5059 H   0  0  0  0  0  0  0  0  0  0  0  0
   -1.2683   -2.0709    0.8490 C   0  0  0  0  0  0  0  0  0  0  0  0
   -0.4842   -2.5511    1.6541 O   0  0  0  0  0  0  0  0  0  0  0  0
   -0.9683   -0.8952    0.1971 N   0  0  0  0  0  0  0  0  0  0  0  0
   -1.5782   -0.6307   -0.5734 H   0  0  0  0  0  0  0  0  0  0  0  0
    0.3594   -0.2588    0.2114 C   0  0  1  0  0  0  0  0  0  0  0  0
    0.9619   -0.6638    1.0299 H   0  0  0  0  0  0  0  0  0  0  0  0
    1.0934   -0.4969   -1.1353 C   0  0  1  0  0  0  0  0  0  0  0  0
    1.5784    0.4294   -1.4638 H   0  0  0  0  0  0  0  0  0  0  0  0
    2.1637   -1.5744   -0.9695 C   0  0  0  0  0  0  0  0  0  0  0  0
    1.7109   -2.5125   -0.6315 H   0  0  0  0  0  0  0  0  0  0  0  0
    2.6757   -1.7541   -1.9194 H   0  0  0  0  0  0  0  0  0  0  0  0
    2.9090   -1.2619   -0.2319 H   0  0  0  0  0  0  0  0  0  0  0  0
    0.2055   -0.9553   -2.1668 O   0  0  0  0  0  0  0  0  0  0  0  0
    0.6837   -1.0579   -3.0072 H   0  0  0  0  0  0  0  0  0  0  0  0
    0.2423    1.2563    0.4590 C   0  0  0  0  0  0  0  0  0  0  0  0
   -0.5713    1.9329   -0.1597 O   0  0  0  0  0  0  0  0  0  0  0  0
    1.0877    1.8772    1.3621 N   0  0  0  0  0  0  0  0  0  0  0  0
    1.6891    1.2818    1.9246 H   0  0  0  0  0  0  0  0  0  0  0  0
    1.0134    3.2981    1.6798 C   0  0  0  0  0  0  0  0  0  0  0  0
    0.0412    3.5417    2.1208 H   0  0  0  0  0  0  0  0  0  0  0  0
    1.7962    3.5664    2.3958 H   0  0  0  0  0  0  0  0  0  0  0  0
    1.1520    3.9009    0.7762 H   0  0  0  0  0  0  0  0  0  0  0  0
  1  2  1  0  0  0  0
  2  3  1  0  0  0  0
  2  4  1  0  0  0  0
  2  5  1  0  0  0  0
  5  6  2  0  0  0  0
  5  7  1  0  0  0  0
  7  8  1  0  0  0  0
  7  9  1  0  0  0  0
  9 10  1  0  0  0  0
  9 11  1  0  0  0  0
  9 19  1  0  0  0  0
 11 12  1  0  0  0  0
 11 13  1  0  0  0  0
 11 17  1  0  0  0  0
 13 14  1  0  0  0  0
 13 15  1  0  0  0  0
 13 16  1  0  0  0  0
 17 18  1  0  0  0  0
 19 20  2  0  0  0  0
 19 21  1  0  0  0  0
 21 22  1  0  0  0  0
 21 23  1  0  0  0  0
 23 24  1  0  0  0  0
 23 25  1  0  0  0  0
 23 26  1  0  0  0  0
M  END
$$$$

  -OEChem-02102214163D

 26 25  0     1  0  0  0  0  0999 V2000
   -2.6707   -3.6841    1.1374 H   0  0  0  0  0  0  0  0  0  0  0  0
   -2.5997   -2.7504    0.5728 C   0  0  0  0  0  0  0  0  0  0  0  0
   -3.4102   -2.0870    0.8844 H   0  0  0  0  0  0  0  0  0  0  0  0
   -2.7083   -2.9725   -0.4915 H   0  0  0  0  0  0  0  0  0  0  0  0
   -1.2606   -2.0851    0.8279 C   0  0  0  0  0  0  0  0  0  0  0  0
   -0.4643   -2.5929    1.6032 O   0  0  0  0  0  0  0  0  0  0  0  0
   -0.9478   -0.9119    0.1783 N   0  0  0  0  0  0  0  0  0  0  0  0
   -1.5820   -0.6002   -0.5545 H   0  0  0  0  0  0  0  0  0  0  0  0
    0.3762   -0.2689    0.2011 C   0  0  1  0  0  0  0  0  0  0  0  0
    0.9767   -0.6685    1.0236 H   0  0  0  0  0  0  0  0  0  0  0  0
    1.1176   -0.5141   -1.1347 C   0  0  1  0  0  0  0  0  0  0  0  0
    1.8072    0.3152   -1.3285 H   0  0  0  0  0  0  0  0  0  0  0  0
    1.9223   -1.8117   -1.0709 C   0  0  0  0  0  0  0  0  0  0  0  0
    1.2615   -2.6633   -0.8801 H   0  0  0  0  0  0  0  0  0  0  0  0
    2.4479   -1.9808   -2.0152 H   0  0  0  0  0  0  0  0  0  0  0  0
    2.6647   -1.7625   -0.2686 H   0  0  0  0  0  0  0  0  0  0  0  0
    0.2022   -0.6443   -2.2319 O   0  0  0  0  0  0  0  0  0  0  0  0
    0.6841   -0.7283   -3.0721 H   0  0  0  0  0  0  0  0  0  0  0  0
    0.2510    1.2472    0.4409 C   0  0  0  0  0  0  0  0  0  0  0  0
   -0.5886    1.9141   -0.1533 O   0  0  0  0  0  0  0  0  0  0  0  0
    1.0878    1.8737    1.3486 N   0  0  0  0  0  0  0  0  0  0  0  0
    1.7061    1.2844    1.8990 H   0  0  0  0  0  0  0  0  0  0  0  0
    0.9896    3.2899    1.6811 C   0  0  0  0  0  0  0  0  0  0  0  0
    0.0108    3.5141    2.1179 H   0  0  0  0  0  0  0  0  0  0  0  0
    1.7630    3.5622    2.4057 H   0  0  0  0  0  0  0  0  0  0  0  0
    1.1254    3.9048    0.7852 H   0  0  0  0  0  0  0  0  0  0  0  0
  1  2  1  0  0  0  0
  2  3  1  0  0  0  0
  2  4  1  0  0  0  0
  2  5  1  0  0  0  0
  5  6  2  0  0  0  0
  5  7  1  0  0  0  0
  7  8  1  0  0  0  0
  7  9  1  0  0  0  0
  9 10  1  0  0  0  0
  9 11  1  0  0  0  0
  9 19  1  0  0  0  0
 11 12  1  0  0  0  0
 11 13  1  0  0  0  0
 11 17  1  0  0  0  0
 13 14  1  0  0  0  0
 13 15  1  0  0  0  0
 13 16  1  0  0  0  0
 17 18  1  0  0  0  0
 19 20  2  0  0  0  0
 19 21  1  0  0  0  0
 21 22  1  0  0  0  0
 21 23  1  0  0  0  0
 23 24  1  0  0  0  0
 23 25  1  0  0  0  0
 23 26  1  0  0  0  0
M  END
$$$$

  -OEChem-02102214163D

 26 25  0     1  0  0  0  0  0999 V2000
   -2.7059   -3.6574    1.1510 H   0  0  0  0  0  0  0  0  0  0  0  0
   -2.6328   -2.7166    0.5986 C   0  0  0  0  0  0  0  0  0  0  0  0
   -3.4042   -2.0333    0.9616 H   0  0  0  0  0  0  0  0  0  0  0  0
   -2.8023   -2.9166   -0.4621 H   0  0  0  0  0  0  0  0  0  0  0  0
   -1.2614   -2.0988    0.7959 C   0  0  0  0  0  0  0  0  0  0  0  0
   -0.4417   -2.6473    1.5171 O   0  0  0  0  0  0  0  0  0  0  0  0
   -0.9431   -0.9239    0.1516 N   0  0  0  0  0  0  0  0  0  0  0  0
   -1.6261   -0.5365   -0.4965 H   0  0  0  0  0  0  0  0  0  0  0  0
    0.3774   -0.2735    0.1729 C   0  0  1  0  0  0  0  0  0  0  0  0
    0.9727   -0.6732    0.9992 H   0  0  0  0  0  0  0  0  0  0  0  0
    1.1350   -0.5347   -1.1461 C   0  0  1  0  0  0  0  0  0  0  0  0
    1.9817    0.1577   -1.2111 H   0  0  0  0  0  0  0  0  0  0  0  0
    1.6731   -1.9640   -1.2041 C   0  0  0  0  0  0  0  0  0  0  0  0
    0.8522   -2.6874   -1.1935 H   0  0  0  0  0  0  0  0  0  0  0  0
    2.2575   -2.1129   -2.1167 H   0  0  0  0  0  0  0  0  0  0  0  0
    2.3205   -2.1631   -0.3448 H   0  0  0  0  0  0  0  0  0  0  0  0
    0.2785   -0.3473   -2.2784 O   0  0  0  0  0  0  0  0  0  0  0  0
    0.7729   -0.4602   -3.1075 H   0  0  0  0  0  0  0  0  0  0  0  0
    0.2517    1.2429    0.4141 C   0  0  0  0  0  0  0  0  0  0  0  0
   -0.6355    1.8991   -0.1202 O   0  0  0  0  0  0  0  0  0  0  0  0
    1.0920    1.8674    1.3200 N   0  0  0  0  0  0  0  0  0  0  0  0
    1.7495    1.2839    1.8292 H   0  0  0  0  0  0  0  0  0  0  0  0
    0.9683    3.2722    1.6902 C   0  0  0  0  0  0  0  0  0  0  0  0
   -0.0174    3.4691    2.1247 H   0  0  0  0  0  0  0  0  0  0  0  0
    1.7309    3.5364    2.4291 H   0  0  0  0  0  0  0  0  0  0  0  0
    1.1017    3.9132    0.8124 H   0  0  0  0  0  0  0  0  0  0  0  0
  1  2  1  0  0  0  0
  2  3  1  0  0  0  0
  2  4  1  0  0  0  0
  2  5  1  0  0  0  0
  5  6  2  0  0  0  0
  5  7  1  0  0  0  0
  7  8  1  0  0  0  0
  7  9  1  0  0  0  0
  9 10  1  0  0  0  0
  9 11  1  0  0  0  0
  9 19  1  0  0  0  0
 11 12  1  0  0  0  0
 11 13  1  0  0  0  0
 11 17  1  0  0  0  0
 13 14  1  0  0  0  0
 13 15  1  0  0  0  0
 13 16  1  0  0  0  0
 17 18  1  0  0  0  0
 19 20  2  0  0  0  0
 19 21  1  0  0  0  0
 21 22  1  0  0  0  0
 21 23  1  0  0  0  0
 23 24  1  0  0  0  0
 23 25  1  0  0  0  0
 23 26  1  0  0  0  0
M  END
$$$$

  -OEChem-02102214163D

 26 25  0     1  0  0  0  0  0999 V2000
   -2.7541   -3.6126    1.1963 H   0  0  0  0  0  0  0  0  0  0  0  0
   -2.6761   -2.6767    0.6361 C   0  0  0  0  0  0  0  0  0  0  0  0
   -3.4021   -1.9649    1.0364 H   0  0  0  0  0  0  0  0  0  0  0  0
   -2.9095   -2.8732   -0.4130 H   0  0  0  0  0  0  0  0  0  0  0  0
   -1.2741   -2.1100    0.7567 C   0  0  0  0  0  0  0  0  0  0  0  0
   -0.4296   -2.7028    1.4107 O   0  0  0  0  0  0  0  0  0  0  0  0
   -0.9568   -0.9298    0.1208 N   0  0  0  0  0  0  0  0  0  0  0  0
   -1.6844   -0.4684   -0.4222 H   0  0  0  0  0  0  0  0  0  0  0  0
    0.3635   -0.2774    0.1369 C   0  0  1  0  0  0  0  0  0  0  0  0
    0.9480   -0.6821    0.9685 H   0  0  0  0  0  0  0  0  0  0  0  0
    1.1515   -0.5478   -1.1624 C   0  0  1  0  0  0  0  0  0  0  0  0
    2.1124   -0.0263   -1.0924 H   0  0  0  0  0  0  0  0  0  0  0  0
    1.4295   -2.0364   -1.3722 C   0  0  0  0  0  0  0  0  0  0  0  0
    0.4986   -2.5853   -1.5428 H   0  0  0  0  0  0  0  0  0  0  0  0
    2.0813   -2.1816   -2.2384 H   0  0  0  0  0  0  0  0  0  0  0  0
    1.9251   -2.4588   -0.4927 H   0  0  0  0  0  0  0  0  0  0  0  0
    0.4440   -0.0593   -2.3045 O   0  0  0  0  0  0  0  0  0  0  0  0
    0.9592   -0.1968   -3.1171 H   0  0  0  0  0  0  0  0  0  0  0  0
    0.2401    1.2376    0.3907 C   0  0  0  0  0  0  0  0  0  0  0  0
   -0.6977    1.8805   -0.0695 O   0  0  0  0  0  0  0  0  0  0  0  0
    1.0888    1.8554    1.2942 N   0  0  0  0  0  0  0  0  0  0  0  0
    1.7841    1.2778    1.7579 H   0  0  0  0  0  0  0  0  0  0  0  0
    0.9475    3.2483    1.7015 C   0  0  0  0  0  0  0  0  0  0  0  0
   -0.0136    3.4057    2.2020 H   0  0  0  0  0  0  0  0  0  0  0  0
    1.7479    3.5227    2.3950 H   0  0  0  0  0  0  0  0  0  0  0  0
    1.0045    3.9096    0.8306 H   0  0  0  0  0  0  0  0  0  0  0  0
  1  2  1  0  0  0  0
  2  3  1  0  0  0  0
  2  4  1  0  0  0  0
  2  5  1  0  0  0  0
  5  6  2  0  0  0  0
  5  7  1  0  0  0  0
  7  8  1  0  0  0  0
  7  9  1  0  0  0  0
  9 10  1  0  0  0  0
  9 11  1  0  0  0  0
  9 19  1  0  0  0  0
 11 12  1  0  0  0  0
 11 13  1  0  0  0  0
 11 17  1  0  0  0  0
 13 14  1  0  0  0  0
 13 15  1  0  0  0  0
 13 16  1  0  0  0  0
 17 18  1  0  0  0  0
 19 20  2  0  0  0  0
 19 21  1  0  0  0  0
 21 22  1  0  0  0  0
 21 23  1  0  0  0  0
 23 24  1  0  0  0  0
 23 25  1  0  0  0  0
 23 26  1  0  0  0  0
M  END
$$$$

  -OEChem-02102214163D

 26 25  0     1  0  0  0  0  0999 V2000
   -2.7885   -3.5719    1.2374 H   0  0  0  0  0  0  0  0  0  0  0  0
   -2.7117   -2.6346    0.6794 C   0  0  0  0  0  0  0  0  0  0  0  0
   -3.3917   -1.9035    1.1233 H   0  0  0  0  0  0  0  0  0  0  0  0
   -3.0084   -2.8155   -0.3565 H   0  0  0  0  0  0  0  0  0  0  0  0
   -1.2882   -2.1122    0.7267 C   0  0  0  0  0  0  0  0  0  0  0  0
   -0.4273   -2.7395    1.3246 O   0  0  0  0  0  0  0  0  0  0  0  0
   -0.9744   -0.9273    0.0968 N   0  0  0  0  0  0  0  0  0  0  0  0
   -1.7303   -0.4107   -0.3495 H   0  0  0  0  0  0  0  0  0  0  0  0
    0.3481   -0.2770    0.1032 C   0  0  1  0  0  0  0  0  0  0  0  0
    0.9240   -0.6878    0.9376 H   0  0  0  0  0  0  0  0  0  0  0  0
    1.1629   -0.5542   -1.1818 C   0  0  1  0  0  0  0  0  0  0  0  0
    2.1939   -0.2375   -0.9904 H   0  0  0  0  0  0  0  0  0  0  0  0
    1.1892   -2.0317   -1.5754 C   0  0  0  0  0  0  0  0  0  0  0  0
    0.1931   -2.3738   -1.8715 H   0  0  0  0  0  0  0  0  0  0  0  0
    1.8722   -2.1874   -2.4154 H   0  0  0  0  0  0  0  0  0  0  0  0
    1.5333   -2.6422   -0.7347 H   0  0  0  0  0  0  0  0  0  0  0  0
    0.6674    0.2007   -2.2886 O   0  0  0  0  0  0  0  0  0  0  0  0
    1.1917    0.0290   -3.0888 H   0  0  0  0  0  0  0  0  0  0  0  0
    0.2226    1.2361    0.3712 C   0  0  0  0  0  0  0  0  0  0  0  0
   -0.7546    1.8635   -0.0263 O   0  0  0  0  0  0  0  0  0  0  0  0
    1.0799    1.8476    1.2709 N   0  0  0  0  0  0  0  0  0  0  0  0
    1.8137    1.2791    1.6831 H   0  0  0  0  0  0  0  0  0  0  0  0
    0.9219    3.2256    1.7202 C   0  0  0  0  0  0  0  0  0  0  0  0
   -0.0362    3.3535    2.2352 H   0  0  0  0  0  0  0  0  0  0  0  0
    1.7253    3.4909    2.4139 H   0  0  0  0  0  0  0  0  0  0  0  0
    0.9601    3.9131    0.8686 H   0  0  0  0  0  0  0  0  0  0  0  0
  1  2  1  0  0  0  0
  2  3  1  0  0  0  0
  2  4  1  0  0  0  0
  2  5  1  0  0  0  0
  5  6  2  0  0  0  0
  5  7  1  0  0  0  0
  7  8  1  0  0  0  0
  7  9  1  0  0  0  0
  9 10  1  0  0  0  0
  9 11  1  0  0  0  0
  9 19  1  0  0  0  0
 11 12  1  0  0  0  0
 11 13  1  0  0  0  0
 11 17  1  0  0  0  0
 13 14  1  0  0  0  0
 13 15  1  0  0  0  0
 13 16  1  0  0  0  0
 17 18  1  0  0  0  0
 19 20  2  0  0  0  0
 19 21  1  0  0  0  0
 21 22  1  0  0  0  0
 21 23  1  0  0  0  0
 23 24  1  0  0  0  0
 23 25  1  0  0  0  0
 23 26  1  0  0  0  0
M  END
$$$$

  -OEChem-02102214163D

 26 25  0     1  0  0  0  0  0999 V2000
   -2.8093   -3.5437    1.2716 H   0  0  0  0  0  0  0  0  0  0  0  0
   -2.7355   -2.6048    0.7156 C   0  0  0  0  0  0  0  0  0  0  0  0
   -3.3794   -1.8616    1.1924 H   0  0  0  0  0  0  0  0  0  0  0  0
   -3.0799   -2.7723   -0.3077 H   0  0  0  0  0  0  0  0  0  0  0  0
   -1.3000   -2.1149    0.7043 C   0  0  0  0  0  0  0  0  0  0  0  0
   -0.4265   -2.7714    1.2498 O   0  0  0  0  0  0  0  0  0  0  0  0
   -0.9903   -0.9238    0.0839 N   0  0  0  0  0  0  0  0  0  0  0  0
   -1.7606   -0.3706   -0.2889 H   0  0  0  0  0  0  0  0  0  0  0  0
    0.3354   -0.2782    0.0858 C   0  0  1  0  0  0  0  0  0  0  0  0
    0.9033   -0.6959    0.9225 H   0  0  0  0  0  0  0  0  0  0  0  0
    1.1730   -0.5539   -1.1907 C   0  0  1  0  0  0  0  0  0  0  0  0
    2.2278   -0.4805   -0.9041 H   0  0  0  0  0  0  0  0  0  0  0  0
    0.9508   -1.9403   -1.7981 C   0  0  0  0  0  0  0  0  0  0  0  0
   -0.0717   -2.0409   -2.1745 H   0  0  0  0  0  0  0  0  0  0  0  0
    1.6430   -2.1042   -2.6290 H   0  0  0  0  0  0  0  0  0  0  0  0
    1.1283   -2.7168   -1.0479 H   0  0  0  0  0  0  0  0  0  0  0  0
    0.9356    0.4226   -2.2057 O   0  0  0  0  0  0  0  0  0  0  0  0
    1.4591    0.2311   -3.0020 H   0  0  0  0  0  0  0  0  0  0  0  0
    0.2024    1.2314    0.3733 C   0  0  0  0  0  0  0  0  0  0  0  0
   -0.7989    1.8449    0.0136 O   0  0  0  0  0  0  0  0  0  0  0  0
    1.0613    1.8398    1.2734 N   0  0  0  0  0  0  0  0  0  0  0  0
    1.8351    1.2891    1.6329 H   0  0  0  0  0  0  0  0  0  0  0  0
    0.9024    3.2150    1.7300 C   0  0  0  0  0  0  0  0  0  0  0  0
   -0.0565    3.3403    2.2438 H   0  0  0  0  0  0  0  0  0  0  0  0
    1.7042    3.4770    2.4267 H   0  0  0  0  0  0  0  0  0  0  0  0
    0.9416    3.9064    0.8817 H   0  0  0  0  0  0  0  0  0  0  0  0
  1  2  1  0  0  0  0
  2  3  1  0  0  0  0
  2  4  1  0  0  0  0
  2  5  1  0  0  0  0
  5  6  2  0  0  0  0
  5  7  1  0  0  0  0
  7  8  1  0  0  0  0
  7  9  1  0  0  0  0
  9 10  1  0  0  0  0
  9 11  1  0  0  0  0
  9 19  1  0  0  0  0
 11 12  1  0  0  0  0
 11 13  1  0  0  0  0
 11 17  1  0  0  0  0
 13 14  1  0  0  0  0
 13 15  1  0  0  0  0
 13 16  1  0  0  0  0
 17 18  1  0  0  0  0
 19 20  2  0  0  0  0
 19 21  1  0  0  0  0
 21 22  1  0  0  0  0
 21 23  1  0  0  0  0
 23 24  1  0  0  0  0
 23 25  1  0  0  0  0
 23 26  1  0  0  0  0
M  END
$$$$

  -OEChem-02102214163D

 26 25  0     1  0  0  0  0  0999 V2000
   -2.8119   -3.5284    1.3030 H   0  0  0  0  0  0  0  0  0  0  0  0
   -2.7434   -2.5908    0.7442 C   0  0  0  0  0  0  0  0  0  0  0  0
   -3.3641   -1.8403    1.2397 H   0  0  0  0  0  0  0  0  0  0  0  0
   -3.1204   -2.7550   -0.2681 H   0  0  0  0  0  0  0  0  0  0  0  0
   -1.3026   -2.1190    0.6897 C   0  0  0  0  0  0  0  0  0  0  0  0
   -0.4182   -2.7991    1.1863 O   0  0  0  0  0  0  0  0  0  0  0  0
   -0.9966   -0.9221    0.0783 N   0  0  0  0  0  0  0  0  0  0  0  0
   -1.7733   -0.3419   -0.2362 H   0  0  0  0  0  0  0  0  0  0  0  0
    0.3330   -0.2823    0.0837 C   0  0  1  0  0  0  0  0  0  0  0  0
    0.8957   -0.7029    0.9224 H   0  0  0  0  0  0  0  0  0  0  0  0
    1.1856   -0.5540   -1.1894 C   0  0  1  0  0  0  0  0  0  0  0  0
    2.2080   -0.7586   -0.8539 H   0  0  0  0  0  0  0  0  0  0  0  0
    0.7217   -1.7532   -2.0201 C   0  0  0  0  0  0  0  0  0  0  0  0
   -0.2799   -1.5797   -2.4255 H   0  0  0  0  0  0  0  0  0  0  0  0
    1.4081   -1.9240   -2.8544 H   0  0  0  0  0  0  0  0  0  0  0  0
    0.7026   -2.6583   -1.4055 H   0  0  0  0  0  0  0  0  0  0  0  0
    1.2376    0.5778   -2.0603 O   0  0  0  0  0  0  0  0  0  0  0  0
    1.7471    0.3742   -2.8630 H   0  0  0  0  0  0  0  0  0  0  0  0
    0.1869    1.2235    0.3881 C   0  0  0  0  0  0  0  0  0  0  0  0
   -0.8236    1.8264    0.0344 O   0  0  0  0  0  0  0  0  0  0  0  0
    1.0381    1.8329    1.2945 N   0  0  0  0  0  0  0  0  0  0  0  0
    1.8456    1.3040    1.6099 H   0  0  0  0  0  0  0  0  0  0  0  0
    0.8866    3.2153    1.7313 C   0  0  0  0  0  0  0  0  0  0  0  0
   -0.0883    3.3627    2.2078 H   0  0  0  0  0  0  0  0  0  0  0  0
    1.6661    3.4706    2.4555 H   0  0  0  0  0  0  0  0  0  0  0  0
    0.9692    3.8967    0.8781 H   0  0  0  0  0  0  0  0  0  0  0  0
  1  2  1  0  0  0  0
  2  3  1  0  0  0  0
  2  4  1  0  0  0  0
  2  5  1  0  0  0  0
  5  6  2  0  0  0  0
  5  7  1  0  0  0  0
  7  8  1  0  0  0  0
  7  9  1  0  0  0  0
  9 10  1  0  0  0  0
  9 11  1  0  0  0  0
  9 19  1  0  0  0  0
 11 12  1  0  0  0  0
 11 13  1  0  0  0  0
 11 17  1  0  0  0  0
 13 14  1  0  0  0  0
 13 15  1  0  0  0  0
 13 16  1  0  0  0  0
 17 18  1  0  0  0  0
 19 20  2  0  0  0  0
 19 21  1  0  0  0  0
 21 22  1  0  0  0  0
 21 23  1  0  0  0  0
 23 24  1  0  0  0  0
 23 25  1  0  0  0  0
 23 26  1  0  0  0  0
M  END
$$$$

  -OEChem-02102214163D

 26 25  0     1  0  0  0  0  0999 V2000
   -2.8107   -3.5271    1.3050 H   0  0  0  0  0  0  0  0  0  0  0  0
   -2.7420   -2.5803    0.7622 C   0  0  0  0  0  0  0  0  0  0  0  0
   -3.3436   -1.8315    1.2831 H   0  0  0  0  0  0  0  0  0  0  0  0
   -3.1401   -2.7219   -0.2454 H   0  0  0  0  0  0  0  0  0  0  0  0
   -1.2972   -2.1240    0.6876 C   0  0  0  0  0  0  0  0  0  0  0  0
   -0.4099   -2.8215    1.1536 O   0  0  0  0  0  0  0  0  0  0  0  0
   -0.9880   -0.9276    0.0775 N   0  0  0  0  0  0  0  0  0  0  0  0
   -1.7646   -0.3291   -0.2016 H   0  0  0  0  0  0  0  0  0  0  0  0
    0.3458   -0.2959    0.0935 C   0  0  1  0  0  0  0  0  0  0  0  0
    0.9061   -0.7113    0.9365 H   0  0  0  0  0  0  0  0  0  0  0  0
    1.2027   -0.5672   -1.1796 C   0  0  1  0  0  0  0  0  0  0  0  0
    2.1260   -1.0593   -0.8549 H   0  0  0  0  0  0  0  0  0  0  0  0
    0.5293   -1.4738   -2.2145 C   0  0  0  0  0  0  0  0  0  0  0  0
   -0.3998   -1.0220   -2.5760 H   0  0  0  0  0  0  0  0  0  0  0  0
    1.1933   -1.6338   -3.0689 H   0  0  0  0  0  0  0  0  0  0  0  0
    0.3016   -2.4505   -1.7768 H   0  0  0  0  0  0  0  0  0  0  0  0
    1.5571    0.6359   -1.8657 O   0  0  0  0  0  0  0  0  0  0  0  0
    2.0461    0.4350   -2.6819 H   0  0  0  0  0  0  0  0  0  0  0  0
    0.1829    1.2090    0.3998 C   0  0  0  0  0  0  0  0  0  0  0  0
   -0.8273    1.8023    0.0276 O   0  0  0  0  0  0  0  0  0  0  0  0
    1.0169    1.8277    1.3158 N   0  0  0  0  0  0  0  0  0  0  0  0
    1.8465    1.3198    1.6074 H   0  0  0  0  0  0  0  0  0  0  0  0
    0.8653    3.2188    1.7240 C   0  0  0  0  0  0  0  0  0  0  0  0
   -0.1166    3.3800    2.1814 H   0  0  0  0  0  0  0  0  0  0  0  0
    1.6339    3.4835    2.4566 H   0  0  0  0  0  0  0  0  0  0  0  0
    0.9657    3.8840    0.8599 H   0  0  0  0  0  0  0  0  0  0  0  0
  1  2  1  0  0  0  0
  2  3  1  0  0  0  0
  2  4  1  0  0  0  0
  2  5  1  0  0  0  0
  5  6  2  0  0  0  0
  5  7  1  0  0  0  0
  7  8  1  0  0  0  0
  7  9  1  0  0  0  0
  9 10  1  0  0  0  0
  9 11  1  0  0  0  0
  9 19  1  0  0  0  0
 11 12  1  0  0  0  0
 11 13  1  0  0  0  0
 11 17  1  0  0  0  0
 13 14  1  0  0  0  0
 13 15  1  0  0  0  0
 13 16  1  0  0  0  0
 17 18  1  0  0  0  0
 19 20  2  0  0  0  0
 19 21  1  0  0  0  0
 21 22  1  0  0  0  0
 21 23  1  0  0  0  0
 23 24  1  0  0  0  0
 23 25  1  0  0  0  0
 23 26  1  0  0  0  0
M  END
$$$$

  -OEChem-02102214163D

 26 25  0     1  0  0  0  0  0999 V2000
   -2.8158   -3.5200    1.3330 H   0  0  0  0  0  0  0  0  0  0  0  0
   -2.7377   -2.5813    0.7774 C   0  0  0  0  0  0  0  0  0  0  0  0
   -3.3350   -1.8208    1.2861 H   0  0  0  0  0  0  0  0  0  0  0  0
   -3.1338   -2.7329   -0.2296 H   0  0  0  0  0  0  0  0  0  0  0  0
   -1.2891   -2.1376    0.7010 C   0  0  0  0  0  0  0  0  0  0  0  0
   -0.4086   -2.8372    1.1762 O   0  0  0  0  0  0  0  0  0  0  0  0
   -0.9690   -0.9484    0.0831 N   0  0  0  0  0  0  0  0  0  0  0  0
   -1.7399   -0.3438   -0.1989 H   0  0  0  0  0  0  0  0  0  0  0  0
    0.3690   -0.3265    0.1133 C   0  0  1  0  0  0  0  0  0  0  0  0
    0.9339   -0.7346    0.9568 H   0  0  0  0  0  0  0  0  0  0  0  0
    1.2147   -0.5862   -1.1678 C   0  0  1  0  0  0  0  0  0  0  0  0
    1.9726   -1.3394   -0.9266 H   0  0  0  0  0  0  0  0  0  0  0  0
    0.3959   -1.0978   -2.3579 C   0  0  0  0  0  0  0  0  0  0  0  0
   -0.4035   -0.3917   -2.6046 H   0  0  0  0  0  0  0  0  0  0  0  0
    1.0366   -1.2203   -3.2361 H   0  0  0  0  0  0  0  0  0  0  0  0
   -0.0491   -2.0709   -2.1294 H   0  0  0  0  0  0  0  0  0  0  0  0
    1.8627    0.6003   -1.6351 O   0  0  0  0  0  0  0  0  0  0  0  0
    2.3328    0.4274   -2.4688 H   0  0  0  0  0  0  0  0  0  0  0  0
    0.1876    1.1793    0.4053 C   0  0  0  0  0  0  0  0  0  0  0  0
   -0.8088    1.7662   -0.0126 O   0  0  0  0  0  0  0  0  0  0  0  0
    0.9987    1.8130    1.3309 N   0  0  0  0  0  0  0  0  0  0  0  0
    1.8406    1.3219    1.6170 H   0  0  0  0  0  0  0  0  0  0  0  0
    0.8477    3.2156    1.6963 C   0  0  0  0  0  0  0  0  0  0  0  0
   -0.1520    3.4016    2.1024 H   0  0  0  0  0  0  0  0  0  0  0  0
    1.5840    3.4881    2.4583 H   0  0  0  0  0  0  0  0  0  0  0  0
    0.9988    3.8567    0.8216 H   0  0  0  0  0  0  0  0  0  0  0  0
  1  2  1  0  0  0  0
  2  3  1  0  0  0  0
  2  4  1  0  0  0  0
  2  5  1  0  0  0  0
  5  6  2  0  0  0  0
  5  7  1  0  0  0  0
  7  8  1  0  0  0  0
  7  9  1  0  0  0  0
  9 10  1  0  0  0  0
  9 11  1  0  0  0  0
  9 19  1  0  0  0  0
 11 12  1  0  0  0  0
 11 13  1  0  0  0  0
 11 17  1  0  0  0  0
 13 14  1  0  0  0  0
 13 15  1  0  0  0  0
 13 16  1  0  0  0  0
 17 18  1  0  0  0  0
 19 20  2  0  0  0  0
 19 21  1  0  0  0  0
 21 22  1  0  0  0  0
 21 23  1  0  0  0  0
 23 24  1  0  0  0  0
 23 25  1  0  0  0  0
 23 26  1  0  0  0  0
M  END
$$$$

  -OEChem-02102214163D

 26 25  0     1  0  0  0  0  0999 V2000
   -2.8149   -3.5306    1.3351 H   0  0  0  0  0  0  0  0  0  0  0  0
   -2.7335   -2.5960    0.7731 C   0  0  0  0  0  0  0  0  0  0  0  0
   -3.3347   -1.8321    1.2721 H   0  0  0  0  0  0  0  0  0  0  0  0
   -3.1231   -2.7556   -0.2351 H   0  0  0  0  0  0  0  0  0  0  0  0
   -1.2844   -2.1523    0.7036 C   0  0  0  0  0  0  0  0  0  0  0  0
   -0.4072   -2.8504    1.1866 O   0  0  0  0  0  0  0  0  0  0  0  0
   -0.9598   -0.9659    0.0827 N   0  0  0  0  0  0  0  0  0  0  0  0
   -1.7294   -0.3617   -0.2036 H   0  0  0  0  0  0  0  0  0  0  0  0
    0.3770   -0.3431    0.1241 C   0  0  1  0  0  0  0  0  0  0  0  0
    0.9473   -0.7511    0.9642 H   0  0  0  0  0  0  0  0  0  0  0  0
    1.2051   -0.5923   -1.1633 C   0  0  1  0  0  0  0  0  0  0  0  0
    1.7664   -1.5248   -1.0393 H   0  0  0  0  0  0  0  0  0  0  0  0
    0.3425   -0.7057   -2.4251 C   0  0  0  0  0  0  0  0  0  0  0  0
   -0.2869    0.1827   -2.5394 H   0  0  0  0  0  0  0  0  0  0  0  0
    0.9754   -0.8018   -3.3121 H   0  0  0  0  0  0  0  0  0  0  0  0
   -0.3008   -1.5892   -2.3758 H   0  0  0  0  0  0  0  0  0  0  0  0
    2.1103    0.4869   -1.4147 O   0  0  0  0  0  0  0  0  0  0  0  0
    2.5924    0.3402   -2.2468 H   0  0  0  0  0  0  0  0  0  0  0  0
    0.1932    1.1640    0.4062 C   0  0  0  0  0  0  0  0  0  0  0  0
   -0.7894    1.7516   -0.0422 O   0  0  0  0  0  0  0  0  0  0  0  0
    0.9928    1.8050    1.3362 N   0  0  0  0  0  0  0  0  0  0  0  0
    1.8415    1.3214    1.6162 H   0  0  0  0  0  0  0  0  0  0  0  0
    0.8517    3.2167    1.6691 C   0  0  0  0  0  0  0  0  0  0  0  0
   -0.1556    3.4242    2.0452 H   0  0  0  0  0  0  0  0  0  0  0  0
    1.5715    3.4947    2.4447 H   0  0  0  0  0  0  0  0  0  0  0  0
    1.0340    3.8379    0.7861 H   0  0  0  0  0  0  0  0  0  0  0  0
  1  2  1  0  0  0  0
  2  3  1  0  0  0  0
  2  4  1  0  0  0  0
  2  5  1  0  0  0  0
  5  6  2  0  0  0  0
  5  7  1  0  0  0  0
  7  8  1  0  0  0  0
  7  9  1  0  0  0  0
  9 10  1  0  0  0  0
  9 11  1  0  0  0  0
  9 19  1  0  0  0  0
 11 12  1  0  0  0  0
 11 13  1  0  0  0  0
 11 17  1  0  0  0  0
 13 14  1  0  0  0  0
 13 15  1  0  0  0  0
 13 16  1  0  0  0  0
 17 18  1  0  0  0  0
 19 20  2  0  0  0  0
 19 21  1  0  0  0  0
 21 22  1  0  0  0  0
 21 23  1  0  0  0  0
 23 24  1  0  0  0  0
 23 25  1  0  0  0  0
 23 26  1  0  0  0  0
M  END
$$$$

  -OEChem-02102214163D

 26 25  0     1  0  0  0  0  0999 V2000
   -2.7971   -3.5532    1.3069 H   0  0  0  0  0  0  0  0  0  0  0  0
   -2.7223   -2.6138    0.7520 C   0  0  0  0  0  0  0  0  0  0  0  0
   -3.3346   -1.8596    1.2525 H   0  0  0  0  0  0  0  0  0  0  0  0
   -3.1038   -2.7706   -0.2599 H   0  0  0  0  0  0  0  0  0  0  0  0
   -1.2776   -2.1547    0.6945 C   0  0  0  0  0  0  0  0  0  0  0  0
   -0.3966   -2.8450    1.1815 O   0  0  0  0  0  0  0  0  0  0  0  0
   -0.9632   -0.9634    0.0775 N   0  0  0  0  0  0  0  0  0  0  0  0
   -1.7391   -0.3675   -0.2085 H   0  0  0  0  0  0  0  0  0  0  0  0
    0.3661   -0.3272    0.1216 C   0  0  1  0  0  0  0  0  0  0  0  0
    0.9417   -0.7396    0.9559 H   0  0  0  0  0  0  0  0  0  0  0  0
    1.1794   -0.5775   -1.1667 C   0  0  1  0  0  0  0  0  0  0  0  0
    1.5397   -1.6119   -1.1525 H   0  0  0  0  0  0  0  0  0  0  0  0
    0.3686   -0.3598   -2.4483 C   0  0  0  0  0  0  0  0  0  0  0  0
   -0.0403    0.6550   -2.4804 H   0  0  0  0  0  0  0  0  0  0  0  0
    1.0041   -0.5070   -3.3264 H   0  0  0  0  0  0  0  0  0  0  0  0
   -0.4591   -1.0724   -2.5090 H   0  0  0  0  0  0  0  0  0  0  0  0
    2.2919    0.3190   -1.2306 O   0  0  0  0  0  0  0  0  0  0  0  0
    2.8011    0.1693   -2.0461 H   0  0  0  0  0  0  0  0  0  0  0  0
    0.1947    1.1792    0.4061 C   0  0  0  0  0  0  0  0  0  0  0  0
   -0.7841    1.7745   -0.0392 O   0  0  0  0  0  0  0  0  0  0  0  0
    1.0015    1.8119    1.3347 N   0  0  0  0  0  0  0  0  0  0  0  0
    1.8487    1.3210    1.6075 H   0  0  0  0  0  0  0  0  0  0  0  0
    0.8724    3.2236    1.6722 C   0  0  0  0  0  0  0  0  0  0  0  0
   -0.1335    3.4378    2.0483 H   0  0  0  0  0  0  0  0  0  0  0  0
    1.5941    3.4928    2.4492 H   0  0  0  0  0  0  0  0  0  0  0  0
    1.0606    3.8463    0.7915 H   0  0  0  0  0  0  0  0  0  0  0  0
  1  2  1  0  0  0  0
  2  3  1  0  0  0  0
  2  4  1  0  0  0  0
  2  5  1  0  0  0  0
  5  6  2  0  0  0  0
  5  7  1  0  0  0  0
  7  8  1  0  0  0  0
  7  9  1  0  0  0  0
  9 10  1  0  0  0  0
  9 11  1  0  0  0  0
  9 19  1  0  0  0  0
 11 12  1  0  0  0  0
 11 13  1  0  0  0  0
 11 17  1  0  0  0  0
 13 14  1  0  0  0  0
 13 15  1  0  0  0  0
 13 16  1  0  0  0  0
 17 18  1  0  0  0  0
 19 20  2  0  0  0  0
 19 21  1  0  0  0  0
 21 22  1  0  0  0  0
 21 23  1  0  0  0  0
 23 24  1  0  0  0  0
 23 25  1  0  0  0  0
 23 26  1  0  0  0  0
M  END
$$$$
