default_name
  -OEChem-02102213163D

 26 25  0     1  0  0  0  0  0999 V2000
   -2.8882   -3.2497    1.2537 H   0  0  0  0  0  0  0  0  0  0  0  0
   -2.8032   -2.3157    0.7017 C   0  0  0  0  0  0  0  0  0  0  0  0
   -3.5012   -1.5857    1.1067 H   0  0  0  0  0  0  0  0  0  0  0  0
   -3.0182   -2.4907   -0.3513 H   0  0  0  0  0  0  0  0  0  0  0  0
   -1.3942   -1.7897    0.8407 C   0  0  0  0  0  0  0  0  0  0  0  0
   -0.5672   -2.4077    1.5007 O   0  0  0  0  0  0  0  0  0  0  0  0
   -1.1222   -0.6447    0.2217 N   0  0  0  0  0  0  0  0  0  0  0  0
   -1.8592   -0.1777   -0.2863 H   0  0  0  0  0  0  0  0  0  0  0  0
    0.1838    0.0363    0.2367 C   0  0  1  0  0  0  0  0  0  0  0  0
    0.9373   -0.6457   -0.1557 H   0  0  0  0  0  0  0  0  0  0  0  0
    0.1822    1.2992   -0.6492 C   0  0  1  0  0  0  0  0  0  0  0  0
   -0.0279    0.9961   -1.6747 H   0  0  0  0  0  0  0  0  0  0  0  0
   -0.8619    2.3397   -0.2490 C   0  0  0  0  0  0  0  0  0  0  0  0
   -0.6167    2.7698    0.7229 H   0  0  0  0  0  0  0  0  0  0  0  0
   -0.8963    3.1343   -0.9935 H   0  0  0  0  0  0  0  0  0  0  0  0
   -1.8439    1.8696   -0.1901 H   0  0  0  0  0  0  0  0  0  0  0  0
    1.4357    1.9358   -0.6229 O   0  0  0  0  0  0  0  0  0  0  0  0
    1.3599    2.7618   -1.1050 H   0  0  0  0  0  0  0  0  0  0  0  0
    0.5957    0.3968    1.6694 C   0  0  0  0  0  0  0  0  0  0  0  0
    1.7476    0.2125    2.0625 O   0  0  0  0  0  0  0  0  0  0  0  0
   -0.3433    0.9438    2.4539 N   0  0  0  0  0  0  0  0  0  0  0  0
   -1.2621    1.0874    2.0683 H   0  0  0  0  0  0  0  0  0  0  0  0
   -0.1135    1.3443    3.8411 C   0  0  0  0  0  0  0  0  0  0  0  0
    0.7513    2.0086    3.8953 H   0  0  0  0  0  0  0  0  0  0  0  0
   -0.9877    1.8608    4.2381 H   0  0  0  0  0  0  0  0  0  0  0  0
    0.0909    0.4609    4.4497 H   0  0  0  0  0  0  0  0  0  0  0  0
  5  6  2  0  0  0  0
  5  7  1  0  0  0  0
  2  3  1  0  0  0  0
  2  4  1  0  0  0  0
  2  5  1  0  0  0  0
  1  2  1  0  0  0  0
 19 20  2  0  0  0  0
 19 21  1  0  0  0  0
 17 18  1  0  0  0  0
 13 14  1  0  0  0  0
 13 15  1  0  0  0  0
 13 16  1  0  0  0  0
 11 12  1  0  0  0  0
 11 13  1  0  0  0  0
 11 17  1  0  0  0  0
  9 10  1  0  0  0  0
  9 11  1  0  0  0  0
  9 19  1  0  0  0  0
  7  8  1  0  0  0  0
  7  9  1  0  0  0  0
 23 24  1  0  0  0  0
 23 25  1  0  0  0  0
 23 26  1  0  0  0  0
 21 22  1  0  0  0  0
 21 23  1  0  0  0  0
M  END
$$$$
default_name
  -OEChem-02102213163D

 26 25  0     1  0  0  0  0  0999 V2000
   -2.8882   -3.2497    1.2537 H   0  0  0  0  0  0  0  0  0  0  0  0
   -2.8032   -2.3157    0.7017 C   0  0  0  0  0  0  0  0  0  0  0  0
   -3.5012   -1.5857    1.1067 H   0  0  0  0  0  0  0  0  0  0  0  0
   -3.0182   -2.4907   -0.3513 H   0  0  0  0  0  0  0  0  0  0  0  0
   -1.3942   -1.7897    0.8407 C   0  0  0  0  0  0  0  0  0  0  0  0
   -0.5672   -2.4077    1.5007 O   0  0  0  0  0  0  0  0  0  0  0  0
   -1.1222   -0.6447    0.2217 N   0  0  0  0  0  0  0  0  0  0  0  0
   -1.8592   -0.1777   -0.2863 H   0  0  0  0  0  0  0  0  0  0  0  0
    0.1838    0.0363    0.2367 C   0  0  1  0  0  0  0  0  0  0  0  0
    0.9373   -0.6457   -0.1557 H   0  0  0  0  0  0  0  0  0  0  0  0
    0.1822    1.2992   -0.6492 C   0  0  1  0  0  0  0  0  0  0  0  0
   -0.2831    1.0469   -1.6018 H   0  0  0  0  0  0  0  0  0  0  0  0
   -0.5868    2.4769   -0.0539 C   0  0  0  0  0  0  0  0  0  0  0  0
   -0.0802    2.8504    0.8369 H   0  0  0  0  0  0  0  0  0  0  0  0
   -0.6597    3.2794   -0.7870 H   0  0  0  0  0  0  0  0  0  0  0  0
   -1.5928    2.1572    0.2193 H   0  0  0  0  0  0  0  0  0  0  0  0
    1.4932    1.7419   -0.8994 O   0  0  0  0  0  0  0  0  0  0  0  0
    1.4405    2.5775   -1.3679 H   0  0  0  0  0  0  0  0  0  0  0  0
    0.5957    0.3968    1.6694 C   0  0  0  0  0  0  0  0  0  0  0  0
    1.7476    0.2125    2.0625 O   0  0  0  0  0  0  0  0  0  0  0  0
   -0.3433    0.9438    2.4539 N   0  0  0  0  0  0  0  0  0  0  0  0
   -1.2621    1.0874    2.0683 H   0  0  0  0  0  0  0  0  0  0  0  0
   -0.1135    1.3443    3.8411 C   0  0  0  0  0  0  0  0  0  0  0  0
    0.7513    2.0086    3.8953 H   0  0  0  0  0  0  0  0  0  0  0  0
   -0.9877    1.8608    4.2381 H   0  0  0  0  0  0  0  0  0  0  0  0
    0.0909    0.4609    4.4497 H   0  0  0  0  0  0  0  0  0  0  0  0
  5  6  2  0  0  0  0
  5  7  1  0  0  0  0
  2  3  1  0  0  0  0
  2  4  1  0  0  0  0
  2  5  1  0  0  0  0
  1  2  1  0  0  0  0
 19 20  2  0  0  0  0
 19 21  1  0  0  0  0
 17 18  1  0  0  0  0
 13 14  1  0  0  0  0
 13 15  1  0  0  0  0
 13 16  1  0  0  0  0
 11 12  1  0  0  0  0
 11 13  1  0  0  0  0
 11 17  1  0  0  0  0
  9 10  1  0  0  0  0
  9 11  1  0  0  0  0
  9 19  1  0  0  0  0
  7  8  1  0  0  0  0
  7  9  1  0  0  0  0
 23 24  1  0  0  0  0
 23 25  1  0  0  0  0
 23 26  1  0  0  0  0
 21 22  1  0  0  0  0
 21 23  1  0  0  0  0
M  END
$$$$
default_name
  -OEChem-02102213163D

 26 25  0     1  0  0  0  0  0999 V2000
   -2.8882   -3.2497    1.2537 H   0  0  0  0  0  0  0  0  0  0  0  0
   -2.8032   -2.3157    0.7017 C   0  0  0  0  0  0  0  0  0  0  0  0
   -3.5012   -1.5857    1.1067 H   0  0  0  0  0  0  0  0  0  0  0  0
   -3.0182   -2.4907   -0.3513 H   0  0  0  0  0  0  0  0  0  0  0  0
   -1.3942   -1.7897    0.8407 C   0  0  0  0  0  0  0  0  0  0  0  0
   -0.5672   -2.4077    1.5007 O   0  0  0  0  0  0  0  0  0  0  0  0
   -1.1222   -0.6447    0.2217 N   0  0  0  0  0  0  0  0  0  0  0  0
   -1.8592   -0.1777   -0.2863 H   0  0  0  0  0  0  0  0  0  0  0  0
    0.1838    0.0363    0.2367 C   0  0  1  0  0  0  0  0  0  0  0  0
    0.9373   -0.6457   -0.1557 H   0  0  0  0  0  0  0  0  0  0  0  0
    0.1822    1.2992   -0.6492 C   0  0  1  0  0  0  0  0  0  0  0  0
   -0.5066    1.1339   -1.4774 H   0  0  0  0  0  0  0  0  0  0  0  0
   -0.2595    2.5687    0.0763 C   0  0  0  0  0  0  0  0  0  0  0  0
    0.4742    2.8486    0.8333 H   0  0  0  0  0  0  0  0  0  0  0  0
   -0.3660    3.3845   -0.6377 H   0  0  0  0  0  0  0  0  0  0  0  0
   -1.2208    2.3978    0.5616 H   0  0  0  0  0  0  0  0  0  0  0  0
    1.4613    1.5459   -1.1786 O   0  0  0  0  0  0  0  0  0  0  0  0
    1.4353    2.3873   -1.6389 H   0  0  0  0  0  0  0  0  0  0  0  0
    0.5957    0.3968    1.6694 C   0  0  0  0  0  0  0  0  0  0  0  0
    1.7476    0.2125    2.0625 O   0  0  0  0  0  0  0  0  0  0  0  0
   -0.3433    0.9438    2.4539 N   0  0  0  0  0  0  0  0  0  0  0  0
   -1.2621    1.0874    2.0683 H   0  0  0  0  0  0  0  0  0  0  0  0
   -0.1135    1.3443    3.8411 C   0  0  0  0  0  0  0  0  0  0  0  0
    0.7513    2.0086    3.8953 H   0  0  0  0  0  0  0  0  0  0  0  0
   -0.9877    1.8608    4.2381 H   0  0  0  0  0  0  0  0  0  0  0  0
    0.0909    0.4609    4.4497 H   0  0  0  0  0  0  0  0  0  0  0  0
  5  6  2  0  0  0  0
  5  7  1  0  0  0  0
  2  3  1  0  0  0  0
  2  4  1  0  0  0  0
  2  5  1  0  0  0  0
  1  2  1  0  0  0  0
 19 20  2  0  0  0  0
 19 21  1  0  0  0  0
 17 18  1  0  0  0  0
 13 14  1  0  0  0  0
 13 15  1  0  0  0  0
 13 16  1  0  0  0  0
 11 12  1  0  0  0  0
 11 13  1  0  0  0  0
 11 17  1  0  0  0  0
  9 10  1  0  0  0  0
  9 11  1  0  0  0  0
  9 19  1  0  0  0  0
  7  8  1  0  0  0  0
  7  9  1  0  0  0  0
 23 24  1  0  0  0  0
 23 25  1  0  0  0  0
 23 26  1  0  0  0  0
 21 22  1  0  0  0  0
 21 23  1  0  0  0  0
M  END
$$$$
default_name
  -OEChem-02102213163D

 26 25  0     1  0  0  0  0  0999 V2000
   -2.8882   -3.2497    1.2537 H   0  0  0  0  0  0  0  0  0  0  0  0
   -2.8032   -2.3157    0.7017 C   0  0  0  0  0  0  0  0  0  0  0  0
   -3.5012   -1.5857    1.1067 H   0  0  0  0  0  0  0  0  0  0  0  0
   -3.0182   -2.4907   -0.3513 H   0  0  0  0  0  0  0  0  0  0  0  0
   -1.3942   -1.7897    0.8407 C   0  0  0  0  0  0  0  0  0  0  0  0
   -0.5672   -2.4077    1.5007 O   0  0  0  0  0  0  0  0  0  0  0  0
   -1.1222   -0.6447    0.2217 N   0  0  0  0  0  0  0  0  0  0  0  0
   -1.8592   -0.1777   -0.2863 H   0  0  0  0  0  0  0  0  0  0  0  0
    0.1838    0.0363    0.2367 C   0  0  1  0  0  0  0  0  0  0  0  0
    0.9373   -0.6457   -0.1557 H   0  0  0  0  0  0  0  0  0  0  0  0
    0.1822    1.2992   -0.6492 C   0  0  1  0  0  0  0  0  0  0  0  0
   -0.6832    1.2512   -1.3098 H   0  0  0  0  0  0  0  0  0  0  0  0
    0.0980    2.6086    0.1326 C   0  0  0  0  0  0  0  0  0  0  0  0
    1.0086    2.7644    0.7123 H   0  0  0  0  0  0  0  0  0  0  0  0
   -0.0350    3.4424   -0.5558 H   0  0  0  0  0  0  0  0  0  0  0  0
   -0.7532    2.5749    0.8133 H   0  0  0  0  0  0  0  0  0  0  0  0
    1.3422    1.3613   -1.4416 O   0  0  0  0  0  0  0  0  0  0  0  0
    1.3446    2.2044   -1.8995 H   0  0  0  0  0  0  0  0  0  0  0  0
    0.5957    0.3968    1.6694 C   0  0  0  0  0  0  0  0  0  0  0  0
    1.7476    0.2125    2.0625 O   0  0  0  0  0  0  0  0  0  0  0  0
   -0.3433    0.9438    2.4539 N   0  0  0  0  0  0  0  0  0  0  0  0
   -1.2621    1.0874    2.0683 H   0  0  0  0  0  0  0  0  0  0  0  0
   -0.1135    1.3443    3.8411 C   0  0  0  0  0  0  0  0  0  0  0  0
    0.7513    2.0086    3.8953 H   0  0  0  0  0  0  0  0  0  0  0  0
   -0.9877    1.8608    4.2381 H   0  0  0  0  0  0  0  0  0  0  0  0
    0.0909    0.4609    4.4497 H   0  0  0  0  0  0  0  0  0  0  0  0
  5  6  2  0  0  0  0
  5  7  1  0  0  0  0
  2  3  1  0  0  0  0
  2  4  1  0  0  0  0
  2  5  1  0  0  0  0
  1  2  1  0  0  0  0
 19 20  2  0  0  0  0
 19 21  1  0  0  0  0
 17 18  1  0  0  0  0
 13 14  1  0  0  0  0
 13 15  1  0  0  0  0
 13 16  1  0  0  0  0
 11 12  1  0  0  0  0
 11 13  1  0  0  0  0
 11 17  1  0  0  0  0
  9 10  1  0  0  0  0
  9 11  1  0  0  0  0
  9 19  1  0  0  0  0
  7  8  1  0  0  0  0
  7  9  1  0  0  0  0
 23 24  1  0  0  0  0
 23 25  1  0  0  0  0
 23 26  1  0  0  0  0
 21 22  1  0  0  0  0
 21 23  1  0  0  0  0
M  END
$$$$
default_name
  -OEChem-02102213163D

 26 25  0     1  0  0  0  0  0999 V2000
   -2.8882   -3.2497    1.2537 H   0  0  0  0  0  0  0  0  0  0  0  0
   -2.8032   -2.3157    0.7017 C   0  0  0  0  0  0  0  0  0  0  0  0
   -3.5012   -1.5857    1.1067 H   0  0  0  0  0  0  0  0  0  0  0  0
   -3.0182   -2.4907   -0.3513 H   0  0  0  0  0  0  0  0  0  0  0  0
   -1.3942   -1.7897    0.8407 C   0  0  0  0  0  0  0  0  0  0  0  0
   -0.5672   -2.4077    1.5007 O   0  0  0  0  0  0  0  0  0  0  0  0
   -1.1222   -0.6447    0.2217 N   0  0  0  0  0  0  0  0  0  0  0  0
   -1.8592   -0.1777   -0.2863 H   0  0  0  0  0  0  0  0  0  0  0  0
    0.1838    0.0363    0.2367 C   0  0  1  0  0  0  0  0  0  0  0  0
    0.9373   -0.6457   -0.1557 H   0  0  0  0  0  0  0  0  0  0  0  0
    0.1822    1.2992   -0.6492 C   0  0  1  0  0  0  0  0  0  0  0  0
   -0.8008    1.3908   -1.1106 H   0  0  0  0  0  0  0  0  0  0  0  0
    0.4611    2.5941    0.1113 C   0  0  0  0  0  0  0  0  0  0  0  0
    1.4867    2.6036    0.4823 H   0  0  0  0  0  0  0  0  0  0  0  0
    0.3107    3.4491   -0.5468 H   0  0  0  0  0  0  0  0  0  0  0  0
   -0.2218    2.6766    0.9573 H   0  0  0  0  0  0  0  0  0  0  0  0
    1.1440    1.2007   -1.6702 O   0  0  0  0  0  0  0  0  0  0  0  0
    1.1746    2.0411   -2.1320 H   0  0  0  0  0  0  0  0  0  0  0  0
    0.5957    0.3968    1.6694 C   0  0  0  0  0  0  0  0  0  0  0  0
    1.7476    0.2125    2.0625 O   0  0  0  0  0  0  0  0  0  0  0  0
   -0.3433    0.9438    2.4539 N   0  0  0  0  0  0  0  0  0  0  0  0
   -1.2621    1.0874    2.0683 H   0  0  0  0  0  0  0  0  0  0  0  0
   -0.1135    1.3443    3.8411 C   0  0  0  0  0  0  0  0  0  0  0  0
    0.7513    2.0086    3.8953 H   0  0  0  0  0  0  0  0  0  0  0  0
   -0.9877    1.8608    4.2381 H   0  0  0  0  0  0  0  0  0  0  0  0
    0.0909    0.4609    4.4497 H   0  0  0  0  0  0  0  0  0  0  0  0
  5  6  2  0  0  0  0
  5  7  1  0  0  0  0
  2  3  1  0  0  0  0
  2  4  1  0  0  0  0
  2  5  1  0  0  0  0
  1  2  1  0  0  0  0
 19 20  2  0  0  0  0
 19 21  1  0  0  0  0
 17 18  1  0  0  0  0
 13 14  1  0  0  0  0
 13 15  1  0  0  0  0
 13 16  1  0  0  0  0
 11 12  1  0  0  0  0
 11 13  1  0  0  0  0
 11 17  1  0  0  0  0
  9 10  1  0  0  0  0
  9 11  1  0  0  0  0
  9 19  1  0  0  0  0
  7  8  1  0  0  0  0
  7  9  1  0  0  0  0
 23 24  1  0  0  0  0
 23 25  1  0  0  0  0
 23 26  1  0  0  0  0
 21 22  1  0  0  0  0
 21 23  1  0  0  0  0
M  END
$$$$
default_name
  -OEChem-02102213163D

 26 25  0     1  0  0  0  0  0999 V2000
   -2.8882   -3.2497    1.2537 H   0  0  0  0  0  0  0  0  0  0  0  0
   -2.8032   -2.3157    0.7017 C   0  0  0  0  0  0  0  0  0  0  0  0
   -3.5012   -1.5857    1.1067 H   0  0  0  0  0  0  0  0  0  0  0  0
   -3.0182   -2.4907   -0.3513 H   0  0  0  0  0  0  0  0  0  0  0  0
   -1.3942   -1.7897    0.8407 C   0  0  0  0  0  0  0  0  0  0  0  0
   -0.5672   -2.4077    1.5007 O   0  0  0  0  0  0  0  0  0  0  0  0
   -1.1222   -0.6447    0.2217 N   0  0  0  0  0  0  0  0  0  0  0  0
   -1.8592   -0.1777   -0.2863 H   0  0  0  0  0  0  0  0  0  0  0  0
    0.1838    0.0363    0.2367 C   0  0  1  0  0  0  0  0  0  0  0  0
    0.9373   -0.6457   -0.1557 H   0  0  0  0  0  0  0  0  0  0  0  0
    0.1822    1.2992   -0.6492 C   0  0  1  0  0  0  0  0  0  0  0  0
   -0.8515    1.5432   -0.8933 H   0  0  0  0  0  0  0  0  0  0  0  0
    0.8052    2.5261    0.0137 C   0  0  0  0  0  0  0  0  0  0  0  0
    1.8759    2.3772    0.1588 H   0  0  0  0  0  0  0  0  0  0  0  0
    0.6475    3.4042   -0.6114 H   0  0  0  0  0  0  0  0  0  0  0  0
    0.3371    2.6959    0.9838 H   0  0  0  0  0  0  0  0  0  0  0  0
    0.8802    1.0749   -1.8491 O   0  0  0  0  0  0  0  0  0  0  0  0
    0.9368    1.9086   -2.3205 H   0  0  0  0  0  0  0  0  0  0  0  0
    0.5957    0.3968    1.6694 C   0  0  0  0  0  0  0  0  0  0  0  0
    1.7476    0.2125    2.0625 O   0  0  0  0  0  0  0  0  0  0  0  0
   -0.3433    0.9438    2.4539 N   0  0  0  0  0  0  0  0  0  0  0  0
   -1.2621    1.0874    2.0683 H   0  0  0  0  0  0  0  0  0  0  0  0
   -0.1135    1.3443    3.8411 C   0  0  0  0  0  0  0  0  0  0  0  0
    0.7513    2.0086    3.8953 H   0  0  0  0  0  0  0  0  0  0  0  0
   -0.9877    1.8608    4.2381 H   0  0  0  0  0  0  0  0  0  0  0  0
    0.0909    0.4609    4.4497 H   0  0  0  0  0  0  0  0  0  0  0  0
  5  6  2  0  0  0  0
  5  7  1  0  0  0  0
  2  3  1  0  0  0  0
  2  4  1  0  0  0  0
  2  5  1  0  0  0  0
  1  2  1  0  0  0  0
 19 20  2  0  0  0  0
 19 21  1  0  0  0  0
 17 18  1  0  0  0  0
 13 14  1  0  0  0  0
 13 15  1  0  0  0  0
 13 16  1  0  0  0  0
 11 12  1  0  0  0  0
 11 13  1  0  0  0  0
 11 17  1  0  0  0  0
  9 10  1  0  0  0  0
  9 11  1  0  0  0  0
  9 19  1  0  0  0  0
  7  8  1  0  0  0  0
  7  9  1  0  0  0  0
 23 24  1  0  0  0  0
 23 25  1  0  0  0  0
 23 26  1  0  0  0  0
 21 22  1  0  0  0  0
 21 23  1  0  0  0  0
M  END
$$$$
default_name
  -OEChem-02102213163D

 26 25  0     1  0  0  0  0  0999 V2000
   -2.8882   -3.2497    1.2537 H   0  0  0  0  0  0  0  0  0  0  0  0
   -2.8032   -2.3157    0.7017 C   0  0  0  0  0  0  0  0  0  0  0  0
   -3.5012   -1.5857    1.1067 H   0  0  0  0  0  0  0  0  0  0  0  0
   -3.0182   -2.4907   -0.3513 H   0  0  0  0  0  0  0  0  0  0  0  0
   -1.3942   -1.7897    0.8407 C   0  0  0  0  0  0  0  0  0  0  0  0
   -0.5672   -2.4077    1.5007 O   0  0  0  0  0  0  0  0  0  0  0  0
   -1.1222   -0.6447    0.2217 N   0  0  0  0  0  0  0  0  0  0  0  0
   -1.8592   -0.1777   -0.2863 H   0  0  0  0  0  0  0  0  0  0  0  0
    0.1838    0.0363    0.2367 C   0  0  1  0  0  0  0  0  0  0  0  0
    0.9373   -0.6457   -0.1557 H   0  0  0  0  0  0  0  0  0  0  0  0
    0.1822    1.2992   -0.6492 C   0  0  1  0  0  0  0  0  0  0  0  0
   -0.8317    1.6980   -0.6727 H   0  0  0  0  0  0  0  0  0  0  0  0
    1.1068    2.4093   -0.1534 C   0  0  0  0  0  0  0  0  0  0  0  0
    2.1496    2.1006   -0.2360 H   0  0  0  0  0  0  0  0  0  0  0  0
    0.9525    3.3108   -0.7451 H   0  0  0  0  0  0  0  0  0  0  0  0
    0.8854    2.6314    0.8909 H   0  0  0  0  0  0  0  0  0  0  0  0
    0.5689    0.9925   -1.9659 O   0  0  0  0  0  0  0  0  0  0  0  0
    0.6475    1.8159   -2.4521 H   0  0  0  0  0  0  0  0  0  0  0  0
    0.5957    0.3968    1.6694 C   0  0  0  0  0  0  0  0  0  0  0  0
    1.7476    0.2125    2.0625 O   0  0  0  0  0  0  0  0  0  0  0  0
   -0.3433    0.9438    2.4539 N   0  0  0  0  0  0  0  0  0  0  0  0
   -1.2621    1.0874    2.0683 H   0  0  0  0  0  0  0  0  0  0  0  0
   -0.1135    1.3443    3.8411 C   0  0  0  0  0  0  0  0  0  0  0  0
    0.7513    2.0086    3.8953 H   0  0  0  0  0  0  0  0  0  0  0  0
   -0.9877    1.8608    4.2381 H   0  0  0  0  0  0  0  0  0  0  0  0
    0.0909    0.4609    4.4497 H   0  0  0  0  0  0  0  0  0  0  0  0
  5  6  2  0  0  0  0
  5  7  1  0  0  0  0
  2  3  1  0  0  0  0
  2  4  1  0  0  0  0
  2  5  1  0  0  0  0
  1  2  1  0  0  0  0
 19 20  2  0  0  0  0
 19 21  1  0  0  0  0
 17 18  1  0  0  0  0
 13 14  1  0  0  0  0
 13 15  1  0  0  0  0
 13 16  1  0  0  0  0
 11 12  1  0  0  0  0
 11 13  1  0  0  0  0
 11 17  1  0  0  0  0
  9 10  1  0  0  0  0
  9 11  1  0  0  0  0
  9 19  1  0  0  0  0
  7  8  1  0  0  0  0
  7  9  1  0  0  0  0
 23 24  1  0  0  0  0
 23 25  1  0  0  0  0
 23 26  1  0  0  0  0
 21 22  1  0  0  0  0
 21 23  1  0  0  0  0
M  END
$$$$
default_name
  -OEChem-02102213163D

 26 25  0     1  0  0  0  0  0999 V2000
   -2.8882   -3.2497    1.2537 H   0  0  0  0  0  0  0  0  0  0  0  0
   -2.8032   -2.3157    0.7017 C   0  0  0  0  0  0  0  0  0  0  0  0
   -3.5012   -1.5857    1.1067 H   0  0  0  0  0  0  0  0  0  0  0  0
   -3.0182   -2.4907   -0.3513 H   0  0  0  0  0  0  0  0  0  0  0  0
   -1.3942   -1.7897    0.8407 C   0  0  0  0  0  0  0  0  0  0  0  0
   -0.5672   -2.4077    1.5007 O   0  0  0  0  0  0  0  0  0  0  0  0
   -1.1222   -0.6447    0.2217 N   0  0  0  0  0  0  0  0  0  0  0  0
   -1.8592   -0.1777   -0.2863 H   0  0  0  0  0  0  0  0  0  0  0  0
    0.1838    0.0363    0.2367 C   0  0  1  0  0  0  0  0  0  0  0  0
    0.9373   -0.6457   -0.1557 H   0  0  0  0  0  0  0  0  0  0  0  0
    0.1822    1.2992   -0.6492 C   0  0  1  0  0  0  0  0  0  0  0  0
   -0.7429    1.8446   -0.4638 H   0  0  0  0  0  0  0  0  0  0  0  0
    1.3453    2.2516   -0.3786 C   0  0  0  0  0  0  0  0  0  0  0  0
    2.2892    1.7926   -0.6753 H   0  0  0  0  0  0  0  0  0  0  0  0
    1.2049    3.1752   -0.9389 H   0  0  0  0  0  0  0  0  0  0  0  0
    1.3858    2.4877    0.6851 H   0  0  0  0  0  0  0  0  0  0  0  0
    0.2311    0.9592   -2.0128 O   0  0  0  0  0  0  0  0  0  0  0  0
    0.3264    1.7693   -2.5179 H   0  0  0  0  0  0  0  0  0  0  0  0
    0.5957    0.3968    1.6694 C   0  0  0  0  0  0  0  0  0  0  0  0
    1.7476    0.2125    2.0625 O   0  0  0  0  0  0  0  0  0  0  0  0
   -0.3433    0.9438    2.4539 N   0  0  0  0  0  0  0  0  0  0  0  0
   -1.2621    1.0874    2.0683 H   0  0  0  0  0  0  0  0  0  0  0  0
   -0.1135    1.3443    3.8411 C   0  0  0  0  0  0  0  0  0  0  0  0
    0.7513    2.0086    3.8953 H   0  0  0  0  0  0  0  0  0  0  0  0
   -0.9877    1.8608    4.2381 H   0  0  0  0  0  0  0  0  0  0  0  0
    0.0909    0.4609    4.4497 H   0  0  0  0  0  0  0  0  0  0  0  0
  5  6  2  0  0  0  0
  5  7  1  0  0  0  0
  2  3  1  0  0  0  0
  2  4  1  0  0  0  0
  2  5  1  0  0  0  0
  1  2  1  0  0  0  0
 19 20  2  0  0  0  0
 19 21  1  0  0  0  0
 17 18  1  0  0  0  0
 13 14  1  0  0  0  0
 13 15  1  0  0  0  0
 13 16  1  0  0  0  0
 11 12  1  0  0  0  0
 11 13  1  0  0  0  0
 11 17  1  0  0  0  0
  9 10  1  0  0  0  0
  9 11  1  0  0  0  0
  9 19  1  0  0  0  0
  7  8  1  0  0  0  0
  7  9  1  0  0  0  0
 23 24  1  0  0  0  0
 23 25  1  0  0  0  0
 23 26  1  0  0  0  0
 21 22  1  0  0  0  0
 21 23  1  0  0  0  0
M  END
$$$$
default_name
  -OEChem-02102213163D

 26 25  0     1  0  0  0  0  0999 V2000
   -2.8882   -3.2497    1.2537 H   0  0  0  0  0  0  0  0  0  0  0  0
   -2.8032   -2.3157    0.7017 C   0  0  0  0  0  0  0  0  0  0  0  0
   -3.5012   -1.5857    1.1067 H   0  0  0  0  0  0  0  0  0  0  0  0
   -3.0182   -2.4907   -0.3513 H   0  0  0  0  0  0  0  0  0  0  0  0
   -1.3942   -1.7897    0.8407 C   0  0  0  0  0  0  0  0  0  0  0  0
   -0.5672   -2.4077    1.5007 O   0  0  0  0  0  0  0  0  0  0  0  0
   -1.1222   -0.6447    0.2217 N   0  0  0  0  0  0  0  0  0  0  0  0
   -1.8592   -0.1777   -0.2863 H   0  0  0  0  0  0  0  0  0  0  0  0
    0.1838    0.0363    0.2367 C   0  0  1  0  0  0  0  0  0  0  0  0
    0.9373   -0.6457   -0.1557 H   0  0  0  0  0  0  0  0  0  0  0  0
    0.1822    1.2992   -0.6492 C   0  0  1  0  0  0  0  0  0  0  0  0
   -0.5910    1.9731   -0.2809 H   0  0  0  0  0  0  0  0  0  0  0  0
    1.5045    2.0637   -0.6467 C   0  0  0  0  0  0  0  0  0  0  0  0
    2.2852    1.4742   -1.1291 H   0  0  0  0  0  0  0  0  0  0  0  0
    1.3875    3.0066   -1.1795 H   0  0  0  0  0  0  0  0  0  0  0  0
    1.8042    2.2744    0.3803 H   0  0  0  0  0  0  0  0  0  0  0  0
   -0.1100    0.9773   -1.9864 O   0  0  0  0  0  0  0  0  0  0  0  0
   -0.0046    1.7721   -2.5134 H   0  0  0  0  0  0  0  0  0  0  0  0
    0.5957    0.3968    1.6694 C   0  0  0  0  0  0  0  0  0  0  0  0
    1.7476    0.2125    2.0625 O   0  0  0  0  0  0  0  0  0  0  0  0
   -0.3433    0.9438    2.4539 N   0  0  0  0  0  0  0  0  0  0  0  0
   -1.2621    1.0874    2.0683 H   0  0  0  0  0  0  0  0  0  0  0  0
   -0.1135    1.3443    3.8411 C   0  0  0  0  0  0  0  0  0  0  0  0
    0.7513    2.0086    3.8953 H   0  0  0  0  0  0  0  0  0  0  0  0
   -0.9877    1.8608    4.2381 H   0  0  0  0  0  0  0  0  0  0  0  0
    0.0909    0.4609    4.4497 H   0  0  0  0  0  0  0  0  0  0  0  0
  5  6  2  0  0  0  0
  5  7  1  0  0  0  0
  2  3  1  0  0  0  0
  2  4  1  0  0  0  0
  2  5  1  0  0  0  0
  1  2  1  0  0  0  0
 19 20  2  0  0  0  0
 19 21  1  0  0  0  0
 17 18  1  0  0  0  0
 13 14  1  0  0  0  0
 13 15  1  0  0  0  0
 13 16  1  0  0  0  0
 11 12  1  0  0  0  0
 11 13  1  0  0  0  0
 11 17  1  0  0  0  0
  9 10  1  0  0  0  0
  9 11  1  0  0  0  0
  9 19  1  0  0  0  0
  7  8  1  0  0  0  0
  7  9  1  0  0  0  0
 23 24  1  0  0  0  0
 23 25  1  0  0  0  0
 23 26  1  0  0  0  0
 21 22  1  0  0  0  0
 21 23  1  0  0  0  0
M  END
$$$$
default_name
  -OEChem-02102213163D

 26 25  0     1  0  0  0  0  0999 V2000
   -2.8882   -3.2497    1.2537 H   0  0  0  0  0  0  0  0  0  0  0  0
   -2.8032   -2.3157    0.7017 C   0  0  0  0  0  0  0  0  0  0  0  0
   -3.5012   -1.5857    1.1067 H   0  0  0  0  0  0  0  0  0  0  0  0
   -3.0182   -2.4907   -0.3513 H   0  0  0  0  0  0  0  0  0  0  0  0
   -1.3942   -1.7897    0.8407 C   0  0  0  0  0  0  0  0  0  0  0  0
   -0.5672   -2.4077    1.5007 O   0  0  0  0  0  0  0  0  0  0  0  0
   -1.1222   -0.6447    0.2217 N   0  0  0  0  0  0  0  0  0  0  0  0
   -1.8592   -0.1777   -0.2863 H   0  0  0  0  0  0  0  0  0  0  0  0
    0.1838    0.0363    0.2367 C   0  0  1  0  0  0  0  0  0  0  0  0
    0.9373   -0.6457   -0.1557 H   0  0  0  0  0  0  0  0  0  0  0  0
    0.1822    1.2992   -0.6492 C   0  0  1  0  0  0  0  0  0  0  0  0
   -0.3865    2.0747   -0.1365 H   0  0  0  0  0  0  0  0  0  0  0  0
    1.5736    1.8585   -0.9394 C   0  0  0  0  0  0  0  0  0  0  0  0
    2.1379    1.1671   -1.5666 H   0  0  0  0  0  0  0  0  0  0  0  0
    1.4878    2.8166   -1.4505 H   0  0  0  0  0  0  0  0  0  0  0  0
    2.1120    2.0060   -0.0027 H   0  0  0  0  0  0  0  0  0  0  0  0
   -0.4313    1.0454   -1.8887 O   0  0  0  0  0  0  0  0  0  0  0  0
   -0.3230    1.8239   -2.4390 H   0  0  0  0  0  0  0  0  0  0  0  0
    0.5957    0.3968    1.6694 C   0  0  0  0  0  0  0  0  0  0  0  0
    1.7476    0.2125    2.0625 O   0  0  0  0  0  0  0  0  0  0  0  0
   -0.3433    0.9438    2.4539 N   0  0  0  0  0  0  0  0  0  0  0  0
   -1.2621    1.0874    2.0683 H   0  0  0  0  0  0  0  0  0  0  0  0
   -0.1135    1.3443    3.8411 C   0  0  0  0  0  0  0  0  0  0  0  0
    0.7513    2.0086    3.8953 H   0  0  0  0  0  0  0  0  0  0  0  0
   -0.9877    1.8608    4.2381 H   0  0  0  0  0  0  0  0  0  0  0  0
    0.0909    0.4609    4.4497 H   0  0  0  0  0  0  0  0  0  0  0  0
  5  6  2  0  0  0  0
  5  7  1  0  0  0  0
  2  3  1  0  0  0  0
  2  4  1  0  0  0  0
  2  5  1  0  0  0  0
  1  2  1  0  0  0  0
 19 20  2  0  0  0  0
 19 21  1  0  0  0  0
 17 18  1  0  0  0  0
 13 14  1  0  0  0  0
 13 15  1  0  0  0  0
 13 16  1  0  0  0  0
 11 12  1  0  0  0  0
 11 13  1  0  0  0  0
 11 17  1  0  0  0  0
  9 10  1  0  0  0  0
  9 11  1  0  0  0  0
  9 19  1  0  0  0  0
  7  8  1  0  0  0  0
  7  9  1  0  0  0  0
 23 24  1  0  0  0  0
 23 25  1  0  0  0  0
 23 26  1  0  0  0  0
 21 22  1  0  0  0  0
 21 23  1  0  0  0  0
M  END
$$$$
default_name
  -OEChem-02102213163D

 26 25  0     1  0  0  0  0  0999 V2000
   -2.8882   -3.2497    1.2537 H   0  0  0  0  0  0  0  0  0  0  0  0
   -2.8032   -2.3157    0.7017 C   0  0  0  0  0  0  0  0  0  0  0  0
   -3.5012   -1.5857    1.1067 H   0  0  0  0  0  0  0  0  0  0  0  0
   -3.0182   -2.4907   -0.3513 H   0  0  0  0  0  0  0  0  0  0  0  0
   -1.3942   -1.7897    0.8407 C   0  0  0  0  0  0  0  0  0  0  0  0
   -0.5672   -2.4077    1.5007 O   0  0  0  0  0  0  0  0  0  0  0  0
   -1.1222   -0.6447    0.2217 N   0  0  0  0  0  0  0  0  0  0  0  0
   -1.8592   -0.1777   -0.2863 H   0  0  0  0  0  0  0  0  0  0  0  0
    0.1838    0.0363    0.2367 C   0  0  1  0  0  0  0  0  0  0  0  0
    0.9373   -0.6457   -0.1557 H   0  0  0  0  0  0  0  0  0  0  0  0
    0.1822    1.2992   -0.6492 C   0  0  1  0  0  0  0  0  0  0  0  0
   -0.1432    2.1424   -0.0404 H   0  0  0  0  0  0  0  0  0  0  0  0
    1.5478    1.6499   -1.2366 C   0  0  0  0  0  0  0  0  0  0  0  0
    1.8572    0.8923   -1.9578 H   0  0  0  0  0  0  0  0  0  0  0  0
    1.4990    2.6181   -1.7335 H   0  0  0  0  0  0  0  0  0  0  0  0
    2.2882    1.7010   -0.4378 H   0  0  0  0  0  0  0  0  0  0  0  0
   -0.7107    1.1590   -1.7263 O   0  0  0  0  0  0  0  0  0  0  0  0
   -0.6071    1.9213   -2.2996 H   0  0  0  0  0  0  0  0  0  0  0  0
    0.5957    0.3968    1.6694 C   0  0  0  0  0  0  0  0  0  0  0  0
    1.7476    0.2125    2.0625 O   0  0  0  0  0  0  0  0  0  0  0  0
   -0.3433    0.9438    2.4539 N   0  0  0  0  0  0  0  0  0  0  0  0
   -1.2621    1.0874    2.0683 H   0  0  0  0  0  0  0  0  0  0  0  0
   -0.1135    1.3443    3.8411 C   0  0  0  0  0  0  0  0  0  0  0  0
    0.7513    2.0086    3.8953 H   0  0  0  0  0  0  0  0  0  0  0  0
   -0.9877    1.8608    4.2381 H   0  0  0  0  0  0  0  0  0  0  0  0
    0.0909    0.4609    4.4497 H   0  0  0  0  0  0  0  0  0  0  0  0
  5  6  2  0  0  0  0
  5  7  1  0  0  0  0
  2  3  1  0  0  0  0
  2  4  1  0  0  0  0
  2  5  1  0  0  0  0
  1  2  1  0  0  0  0
 19 20  2  0  0  0  0
 19 21  1  0  0  0  0
 17 18  1  0  0  0  0
 13 14  1  0  0  0  0
 13 15  1  0  0  0  0
 13 16  1  0  0  0  0
 11 12  1  0  0  0  0
 11 13  1  0  0  0  0
 11 17  1  0  0  0  0
  9 10  1  0  0  0  0
  9 11  1  0  0  0  0
  9 19  1  0  0  0  0
  7  8  1  0  0  0  0
  7  9  1  0  0  0  0
 23 24  1  0  0  0  0
 23 25  1  0  0  0  0
 23 26  1  0  0  0  0
 21 22  1  0  0  0  0
 21 23  1  0  0  0  0
M  END
$$$$
default_name
  -OEChem-02102213163D

 26 25  0     1  0  0  0  0  0999 V2000
   -2.8882   -3.2497    1.2537 H   0  0  0  0  0  0  0  0  0  0  0  0
   -2.8032   -2.3157    0.7017 C   0  0  0  0  0  0  0  0  0  0  0  0
   -3.5012   -1.5857    1.1067 H   0  0  0  0  0  0  0  0  0  0  0  0
   -3.0182   -2.4907   -0.3513 H   0  0  0  0  0  0  0  0  0  0  0  0
   -1.3942   -1.7897    0.8407 C   0  0  0  0  0  0  0  0  0  0  0  0
   -0.5672   -2.4077    1.5007 O   0  0  0  0  0  0  0  0  0  0  0  0
   -1.1222   -0.6447    0.2217 N   0  0  0  0  0  0  0  0  0  0  0  0
   -1.8592   -0.1777   -0.2863 H   0  0  0  0  0  0  0  0  0  0  0  0
    0.1838    0.0363    0.2367 C   0  0  1  0  0  0  0  0  0  0  0  0
    0.9373   -0.6457   -0.1557 H   0  0  0  0  0  0  0  0  0  0  0  0
    0.1822    1.2992   -0.6492 C   0  0  1  0  0  0  0  0  0  0  0  0
    0.1222    2.1717    0.0010 H   0  0  0  0  0  0  0  0  0  0  0  0
    1.4289    1.4522   -1.5183 C   0  0  0  0  0  0  0  0  0  0  0  0
    1.4624    0.6685   -2.2762 H   0  0  0  0  0  0  0  0  0  0  0  0
    1.4204    2.4246   -2.0092 H   0  0  0  0  0  0  0  0  0  0  0  0
    2.3210    1.3801   -0.8954 H   0  0  0  0  0  0  0  0  0  0  0  0
   -0.9294    1.3103   -1.5103 O   0  0  0  0  0  0  0  0  0  0  0  0
   -0.8374    2.0577   -2.1049 H   0  0  0  0  0  0  0  0  0  0  0  0
    0.5957    0.3968    1.6694 C   0  0  0  0  0  0  0  0  0  0  0  0
    1.7476    0.2125    2.0625 O   0  0  0  0  0  0  0  0  0  0  0  0
   -0.3433    0.9438    2.4539 N   0  0  0  0  0  0  0  0  0  0  0  0
   -1.2621    1.0874    2.0683 H   0  0  0  0  0  0  0  0  0  0  0  0
   -0.1135    1.3443    3.8411 C   0  0  0  0  0  0  0  0  0  0  0  0
    0.7513    2.0086    3.8953 H   0  0  0  0  0  0  0  0  0  0  0  0
   -0.9877    1.8608    4.2381 H   0  0  0  0  0  0  0  0  0  0  0  0
    0.0909    0.4609    4.4497 H   0  0  0  0  0  0  0  0  0  0  0  0
  5  6  2  0  0  0  0
  5  7  1  0  0  0  0
  2  3  1  0  0  0  0
  2  4  1  0  0  0  0
  2  5  1  0  0  0  0
  1  2  1  0  0  0  0
 19 20  2  0  0  0  0
 19 21  1  0  0  0  0
 17 18  1  0  0  0  0
 13 14  1  0  0  0  0
 13 15  1  0  0  0  0
 13 16  1  0  0  0  0
 11 12  1  0  0  0  0
 11 13  1  0  0  0  0
 11 17  1  0  0  0  0
  9 10  1  0  0  0  0
  9 11  1  0  0  0  0
  9 19  1  0  0  0  0
  7  8  1  0  0  0  0
  7  9  1  0  0  0  0
 23 24  1  0  0  0  0
 23 25  1  0  0  0  0
 23 26  1  0  0  0  0
 21 22  1  0  0  0  0
 21 23  1  0  0  0  0
M  END
$$$$
default_name
  -OEChem-02102213163D

 26 25  0     1  0  0  0  0  0999 V2000
   -2.8882   -3.2497    1.2537 H   0  0  0  0  0  0  0  0  0  0  0  0
   -2.8032   -2.3157    0.7017 C   0  0  0  0  0  0  0  0  0  0  0  0
   -3.5012   -1.5857    1.1067 H   0  0  0  0  0  0  0  0  0  0  0  0
   -3.0182   -2.4907   -0.3513 H   0  0  0  0  0  0  0  0  0  0  0  0
   -1.3942   -1.7897    0.8407 C   0  0  0  0  0  0  0  0  0  0  0  0
   -0.5672   -2.4077    1.5007 O   0  0  0  0  0  0  0  0  0  0  0  0
   -1.1222   -0.6447    0.2217 N   0  0  0  0  0  0  0  0  0  0  0  0
   -1.8592   -0.1777   -0.2863 H   0  0  0  0  0  0  0  0  0  0  0  0
    0.1838    0.0363    0.2367 C   0  0  1  0  0  0  0  0  0  0  0  0
    0.9373   -0.6457   -0.1557 H   0  0  0  0  0  0  0  0  0  0  0  0
    0.1822    1.2992   -0.6492 C   0  0  1  0  0  0  0  0  0  0  0  0
    0.3917    2.1606   -0.0154 H   0  0  0  0  0  0  0  0  0  0  0  0
    1.2250    1.2788   -1.7650 C   0  0  0  0  0  0  0  0  0  0  0  0
    0.9803    0.5109   -2.4999 H   0  0  0  0  0  0  0  0  0  0  0  0
    1.2572    2.2493   -2.2588 H   0  0  0  0  0  0  0  0  0  0  0  0
    2.2080    1.0651   -1.3442 H   0  0  0  0  0  0  0  0  0  0  0  0
   -1.0723    1.4890   -1.2553 O   0  0  0  0  0  0  0  0  0  0  0  0
   -0.9984    2.2237   -1.8679 H   0  0  0  0  0  0  0  0  0  0  0  0
    0.5957    0.3968    1.6694 C   0  0  0  0  0  0  0  0  0  0  0  0
    1.7476    0.2125    2.0625 O   0  0  0  0  0  0  0  0  0  0  0  0
   -0.3433    0.9438    2.4539 N   0  0  0  0  0  0  0  0  0  0  0  0
   -1.2621    1.0874    2.0683 H   0  0  0  0  0  0  0  0  0  0  0  0
   -0.1135    1.3443    3.8411 C   0  0  0  0  0  0  0  0  0  0  0  0
    0.7513    2.0086    3.8953 H   0  0  0  0  0  0  0  0  0  0  0  0
   -0.9877    1.8608    4.2381 H   0  0  0  0  0  0  0  0  0  0  0  0
    0.0909    0.4609    4.4497 H   0  0  0  0  0  0  0  0  0  0  0  0
  5  6  2  0  0  0  0
  5  7  1  0  0  0  0
  2  3  1  0  0  0  0
  2  4  1  0  0  0  0
  2  5  1  0  0  0  0
  1  2  1  0  0  0  0
 19 20  2  0  0  0  0
 19 21  1  0  0  0  0
 17 18  1  0  0  0  0
 13 14  1  0  0  0  0
 13 15  1  0  0  0  0
 13 16  1  0  0  0  0
 11 12  1  0  0  0  0
 11 13  1  0  0  0  0
 11 17  1  0  0  0  0
  9 10  1  0  0  0  0
  9 11  1  0  0  0  0
  9 19  1  0  0  0  0
  7  8  1  0  0  0  0
  7  9  1  0  0  0  0
 23 24  1  0  0  0  0
 23 25  1  0  0  0  0
 23 26  1  0  0  0  0
 21 22  1  0  0  0  0
 21 23  1  0  0  0  0
M  END
$$$$
default_name
  -OEChem-02102213163D

 26 25  0     1  0  0  0  0  0999 V2000
   -2.8882   -3.2497    1.2537 H   0  0  0  0  0  0  0  0  0  0  0  0
   -2.8032   -2.3157    0.7017 C   0  0  0  0  0  0  0  0  0  0  0  0
   -3.5012   -1.5857    1.1067 H   0  0  0  0  0  0  0  0  0  0  0  0
   -3.0182   -2.4907   -0.3513 H   0  0  0  0  0  0  0  0  0  0  0  0
   -1.3942   -1.7897    0.8407 C   0  0  0  0  0  0  0  0  0  0  0  0
   -0.5672   -2.4077    1.5007 O   0  0  0  0  0  0  0  0  0  0  0  0
   -1.1222   -0.6447    0.2217 N   0  0  0  0  0  0  0  0  0  0  0  0
   -1.8592   -0.1777   -0.2863 H   0  0  0  0  0  0  0  0  0  0  0  0
    0.1838    0.0363    0.2367 C   0  0  1  0  0  0  0  0  0  0  0  0
    0.9373   -0.6457   -0.1557 H   0  0  0  0  0  0  0  0  0  0  0  0
    0.1822    1.2992   -0.6492 C   0  0  1  0  0  0  0  0  0  0  0  0
    0.6469    2.1098   -0.0883 H   0  0  0  0  0  0  0  0  0  0  0  0
    0.9500    1.1416   -1.9602 C   0  0  0  0  0  0  0  0  0  0  0  0
    0.4438    0.4303   -2.6139 H   0  0  0  0  0  0  0  0  0  0  0  0
    1.0207    2.1042   -2.4653 H   0  0  0  0  0  0  0  0  0  0  0  0
    1.9569    0.7775   -1.7537 H   0  0  0  0  0  0  0  0  0  0  0  0
   -1.1298    1.6829   -0.9787 O   0  0  0  0  0  0  0  0  0  0  0  0
   -1.0791    2.4080   -1.6050 H   0  0  0  0  0  0  0  0  0  0  0  0
    0.5957    0.3968    1.6694 C   0  0  0  0  0  0  0  0  0  0  0  0
    1.7476    0.2125    2.0625 O   0  0  0  0  0  0  0  0  0  0  0  0
   -0.3433    0.9438    2.4539 N   0  0  0  0  0  0  0  0  0  0  0  0
   -1.2621    1.0874    2.0683 H   0  0  0  0  0  0  0  0  0  0  0  0
   -0.1135    1.3443    3.8411 C   0  0  0  0  0  0  0  0  0  0  0  0
    0.7513    2.0086    3.8953 H   0  0  0  0  0  0  0  0  0  0  0  0
   -0.9877    1.8608    4.2381 H   0  0  0  0  0  0  0  0  0  0  0  0
    0.0909    0.4609    4.4497 H   0  0  0  0  0  0  0  0  0  0  0  0
  5  6  2  0  0  0  0
  5  7  1  0  0  0  0
  2  3  1  0  0  0  0
  2  4  1  0  0  0  0
  2  5  1  0  0  0  0
  1  2  1  0  0  0  0
 19 20  2  0  0  0  0
 19 21  1  0  0  0  0
 17 18  1  0  0  0  0
 13 14  1  0  0  0  0
 13 15  1  0  0  0  0
 13 16  1  0  0  0  0
 11 12  1  0  0  0  0
 11 13  1  0  0  0  0
 11 17  1  0  0  0  0
  9 10  1  0  0  0  0
  9 11  1  0  0  0  0
  9 19  1  0  0  0  0
  7  8  1  0  0  0  0
  7  9  1  0  0  0  0
 23 24  1  0  0  0  0
 23 25  1  0  0  0  0
 23 26  1  0  0  0  0
 21 22  1  0  0  0  0
 21 23  1  0  0  0  0
M  END
$$$$
default_name
  -OEChem-02102213163D

 26 25  0     1  0  0  0  0  0999 V2000
   -2.8882   -3.2497    1.2537 H   0  0  0  0  0  0  0  0  0  0  0  0
   -2.8032   -2.3157    0.7017 C   0  0  0  0  0  0  0  0  0  0  0  0
   -3.5012   -1.5857    1.1067 H   0  0  0  0  0  0  0  0  0  0  0  0
   -3.0182   -2.4907   -0.3513 H   0  0  0  0  0  0  0  0  0  0  0  0
   -1.3942   -1.7897    0.8407 C   0  0  0  0  0  0  0  0  0  0  0  0
   -0.5672   -2.4077    1.5007 O   0  0  0  0  0  0  0  0  0  0  0  0
   -1.1222   -0.6447    0.2217 N   0  0  0  0  0  0  0  0  0  0  0  0
   -1.8592   -0.1777   -0.2863 H   0  0  0  0  0  0  0  0  0  0  0  0
    0.1838    0.0363    0.2367 C   0  0  1  0  0  0  0  0  0  0  0  0
    0.9373   -0.6457   -0.1557 H   0  0  0  0  0  0  0  0  0  0  0  0
    0.1822    1.2992   -0.6492 C   0  0  1  0  0  0  0  0  0  0  0  0
    0.8704    2.0228   -0.2127 H   0  0  0  0  0  0  0  0  0  0  0  0
    0.6227    1.0499   -2.0903 C   0  0  0  0  0  0  0  0  0  0  0  0
   -0.1106    0.4321   -2.6103 H   0  0  0  0  0  0  0  0  0  0  0  0
    0.7269    1.9991   -2.6145 H   0  0  0  0  0  0  0  0  0  0  0  0
    1.5848    0.5369   -2.0960 H   0  0  0  0  0  0  0  0  0  0  0  0
   -1.0979    1.8789   -0.6995 O   0  0  0  0  0  0  0  0  0  0  0  0
   -1.0739    2.5981   -1.3340 H   0  0  0  0  0  0  0  0  0  0  0  0
    0.5957    0.3968    1.6694 C   0  0  0  0  0  0  0  0  0  0  0  0
    1.7476    0.2125    2.0625 O   0  0  0  0  0  0  0  0  0  0  0  0
   -0.3433    0.9438    2.4539 N   0  0  0  0  0  0  0  0  0  0  0  0
   -1.2621    1.0874    2.0683 H   0  0  0  0  0  0  0  0  0  0  0  0
   -0.1135    1.3443    3.8411 C   0  0  0  0  0  0  0  0  0  0  0  0
    0.7513    2.0086    3.8953 H   0  0  0  0  0  0  0  0  0  0  0  0
   -0.9877    1.8608    4.2381 H   0  0  0  0  0  0  0  0  0  0  0  0
    0.0909    0.4609    4.4497 H   0  0  0  0  0  0  0  0  0  0  0  0
  5  6  2  0  0  0  0
  5  7  1  0  0  0  0
  2  3  1  0  0  0  0
  2  4  1  0  0  0  0
  2  5  1  0  0  0  0
  1  2  1  0  0  0  0
 19 20  2  0  0  0  0
 19 21  1  0  0  0  0
 17 18  1  0  0  0  0
 13 14  1  0  0  0  0
 13 15  1  0  0  0  0
 13 16  1  0  0  0  0
 11 12  1  0  0  0  0
 11 13  1  0  0  0  0
 11 17  1  0  0  0  0
  9 10  1  0  0  0  0
  9 11  1  0  0  0  0
  9 19  1  0  0  0  0
  7  8  1  0  0  0  0
  7  9  1  0  0  0  0
 23 24  1  0  0  0  0
 23 25  1  0  0  0  0
 23 26  1  0  0  0  0
 21 22  1  0  0  0  0
 21 23  1  0  0  0  0
M  END
$$$$
default_name
  -OEChem-02102213163D

 26 25  0     1  0  0  0  0  0999 V2000
   -2.8882   -3.2497    1.2537 H   0  0  0  0  0  0  0  0  0  0  0  0
   -2.8032   -2.3157    0.7017 C   0  0  0  0  0  0  0  0  0  0  0  0
   -3.5012   -1.5857    1.1067 H   0  0  0  0  0  0  0  0  0  0  0  0
   -3.0182   -2.4907   -0.3513 H   0  0  0  0  0  0  0  0  0  0  0  0
   -1.3942   -1.7897    0.8407 C   0  0  0  0  0  0  0  0  0  0  0  0
   -0.5672   -2.4077    1.5007 O   0  0  0  0  0  0  0  0  0  0  0  0
   -1.1222   -0.6447    0.2217 N   0  0  0  0  0  0  0  0  0  0  0  0
   -1.8592   -0.1777   -0.2863 H   0  0  0  0  0  0  0  0  0  0  0  0
    0.1838    0.0363    0.2367 C   0  0  1  0  0  0  0  0  0  0  0  0
    0.9373   -0.6457   -0.1557 H   0  0  0  0  0  0  0  0  0  0  0  0
    0.1822    1.2992   -0.6492 C   0  0  1  0  0  0  0  0  0  0  0  0
    1.0470    1.9055   -0.3803 H   0  0  0  0  0  0  0  0  0  0  0  0
    0.2652    1.0099   -2.1467 C   0  0  0  0  0  0  0  0  0  0  0  0
   -0.6450    0.5163   -2.4894 H   0  0  0  0  0  0  0  0  0  0  0  0
    0.3959    1.9412   -2.6965 H   0  0  0  0  0  0  0  0  0  0  0  0
    1.1172    0.3598   -2.3477 H   0  0  0  0  0  0  0  0  0  0  0  0
   -0.9788    2.0634   -0.4366 O   0  0  0  0  0  0  0  0  0  0  0  0
   -0.9831    2.7810   -1.0734 H   0  0  0  0  0  0  0  0  0  0  0  0
    0.5957    0.3968    1.6694 C   0  0  0  0  0  0  0  0  0  0  0  0
    1.7476    0.2125    2.0625 O   0  0  0  0  0  0  0  0  0  0  0  0
   -0.3433    0.9438    2.4539 N   0  0  0  0  0  0  0  0  0  0  0  0
   -1.2621    1.0874    2.0683 H   0  0  0  0  0  0  0  0  0  0  0  0
   -0.1135    1.3443    3.8411 C   0  0  0  0  0  0  0  0  0  0  0  0
    0.7513    2.0086    3.8953 H   0  0  0  0  0  0  0  0  0  0  0  0
   -0.9877    1.8608    4.2381 H   0  0  0  0  0  0  0  0  0  0  0  0
    0.0909    0.4609    4.4497 H   0  0  0  0  0  0  0  0  0  0  0  0
  5  6  2  0  0  0  0
  5  7  1  0  0  0  0
  2  3  1  0  0  0  0
  2  4  1  0  0  0  0
  2  5  1  0  0  0  0
  1  2  1  0  0  0  0
 19 20  2  0  0  0  0
 19 21  1  0  0  0  0
 17 18  1  0  0  0  0
 13 14  1  0  0  0  0
 13 15  1  0  0  0  0
 13 16  1  0  0  0  0
 11 12  1  0  0  0  0
 11 13  1  0  0  0  0
 11 17  1  0  0  0  0
  9 10  1  0  0  0  0
  9 11  1  0  0  0  0
  9 19  1  0  0  0  0
  7  8  1  0  0  0  0
  7  9  1  0  0  0  0
 23 24  1  0  0  0  0
 23 25  1  0  0  0  0
 23 26  1  0  0  0  0
 21 22  1  0  0  0  0
 21 23  1  0  0  0  0
M  END
$$$$
default_name
  -OEChem-02102213163D

 26 25  0     1  0  0  0  0  0999 V2000
   -2.8882   -3.2497    1.2537 H   0  0  0  0  0  0  0  0  0  0  0  0
   -2.8032   -2.3157    0.7017 C   0  0  0  0  0  0  0  0  0  0  0  0
   -3.5012   -1.5857    1.1067 H   0  0  0  0  0  0  0  0  0  0  0  0
   -3.0182   -2.4907   -0.3513 H   0  0  0  0  0  0  0  0  0  0  0  0
   -1.3942   -1.7897    0.8407 C   0  0  0  0  0  0  0  0  0  0  0  0
   -0.5672   -2.4077    1.5007 O   0  0  0  0  0  0  0  0  0  0  0  0
   -1.1222   -0.6447    0.2217 N   0  0  0  0  0  0  0  0  0  0  0  0
   -1.8592   -0.1777   -0.2863 H   0  0  0  0  0  0  0  0  0  0  0  0
    0.1838    0.0363    0.2367 C   0  0  1  0  0  0  0  0  0  0  0  0
    0.9373   -0.6457   -0.1557 H   0  0  0  0  0  0  0  0  0  0  0  0
    0.1822    1.2992   -0.6492 C   0  0  1  0  0  0  0  0  0  0  0  0
    1.1646    1.7659   -0.5795 H   0  0  0  0  0  0  0  0  0  0  0  0
   -0.0979    1.0244   -2.1253 C   0  0  0  0  0  0  0  0  0  0  0  0
   -1.1231    0.6771   -2.2593 H   0  0  0  0  0  0  0  0  0  0  0  0
    0.0502    1.9345   -2.7054 H   0  0  0  0  0  0  0  0  0  0  0  0
    0.5858    0.2581   -2.4917 H   0  0  0  0  0  0  0  0  0  0  0  0
   -0.7806    2.2241   -0.2079 O   0  0  0  0  0  0  0  0  0  0  0  0
   -0.8131    2.9443   -0.8410 H   0  0  0  0  0  0  0  0  0  0  0  0
    0.5957    0.3968    1.6694 C   0  0  0  0  0  0  0  0  0  0  0  0
    1.7476    0.2125    2.0625 O   0  0  0  0  0  0  0  0  0  0  0  0
   -0.3433    0.9438    2.4539 N   0  0  0  0  0  0  0  0  0  0  0  0
   -1.2621    1.0874    2.0683 H   0  0  0  0  0  0  0  0  0  0  0  0
   -0.1135    1.3443    3.8411 C   0  0  0  0  0  0  0  0  0  0  0  0
    0.7513    2.0086    3.8953 H   0  0  0  0  0  0  0  0  0  0  0  0
   -0.9877    1.8608    4.2381 H   0  0  0  0  0  0  0  0  0  0  0  0
    0.0909    0.4609    4.4497 H   0  0  0  0  0  0  0  0  0  0  0  0
  5  6  2  0  0  0  0
  5  7  1  0  0  0  0
  2  3  1  0  0  0  0
  2  4  1  0  0  0  0
  2  5  1  0  0  0  0
  1  2  1  0  0  0  0
 19 20  2  0  0  0  0
 19 21  1  0  0  0  0
 17 18  1  0  0  0  0
 13 14  1  0  0  0  0
 13 15  1  0  0  0  0
 13 16  1  0  0  0  0
 11 12  1  0  0  0  0
 11 13  1  0  0  0  0
 11 17  1  0  0  0  0
  9 10  1  0  0  0  0
  9 11  1  0  0  0  0
  9 19  1  0  0  0  0
  7  8  1  0  0  0  0
  7  9  1  0  0  0  0
 23 24  1  0  0  0  0
 23 25  1  0  0  0  0
 23 26  1  0  0  0  0
 21 22  1  0  0  0  0
 21 23  1  0  0  0  0
M  END
$$$$
default_name
  -OEChem-02102213163D

 26 25  0     1  0  0  0  0  0999 V2000
   -2.8882   -3.2497    1.2537 H   0  0  0  0  0  0  0  0  0  0  0  0
   -2.8032   -2.3157    0.7017 C   0  0  0  0  0  0  0  0  0  0  0  0
   -3.5012   -1.5857    1.1067 H   0  0  0  0  0  0  0  0  0  0  0  0
   -3.0182   -2.4907   -0.3513 H   0  0  0  0  0  0  0  0  0  0  0  0
   -1.3942   -1.7897    0.8407 C   0  0  0  0  0  0  0  0  0  0  0  0
   -0.5672   -2.4077    1.5007 O   0  0  0  0  0  0  0  0  0  0  0  0
   -1.1222   -0.6447    0.2217 N   0  0  0  0  0  0  0  0  0  0  0  0
   -1.8592   -0.1777   -0.2863 H   0  0  0  0  0  0  0  0  0  0  0  0
    0.1838    0.0363    0.2367 C   0  0  1  0  0  0  0  0  0  0  0  0
    0.9373   -0.6457   -0.1557 H   0  0  0  0  0  0  0  0  0  0  0  0
    0.1822    1.2992   -0.6492 C   0  0  1  0  0  0  0  0  0  0  0  0
    1.2152    1.6135   -0.7968 H   0  0  0  0  0  0  0  0  0  0  0  0
   -0.4420    1.0924   -2.0278 C   0  0  0  0  0  0  0  0  0  0  0  0
   -1.5123    0.9035   -1.9359 H   0  0  0  0  0  0  0  0  0  0  0  0
   -0.2866    1.9793   -2.6409 H   0  0  0  0  0  0  0  0  0  0  0  0
    0.0269    0.2388   -2.5181 H   0  0  0  0  0  0  0  0  0  0  0  0
   -0.5168    2.3499   -0.0291 O   0  0  0  0  0  0  0  0  0  0  0  0
   -0.5754    3.0768   -0.6525 H   0  0  0  0  0  0  0  0  0  0  0  0
    0.5957    0.3968    1.6694 C   0  0  0  0  0  0  0  0  0  0  0  0
    1.7476    0.2125    2.0625 O   0  0  0  0  0  0  0  0  0  0  0  0
   -0.3433    0.9438    2.4539 N   0  0  0  0  0  0  0  0  0  0  0  0
   -1.2621    1.0874    2.0683 H   0  0  0  0  0  0  0  0  0  0  0  0
   -0.1135    1.3443    3.8411 C   0  0  0  0  0  0  0  0  0  0  0  0
    0.7513    2.0086    3.8953 H   0  0  0  0  0  0  0  0  0  0  0  0
   -0.9877    1.8608    4.2381 H   0  0  0  0  0  0  0  0  0  0  0  0
    0.0909    0.4609    4.4497 H   0  0  0  0  0  0  0  0  0  0  0  0
  5  6  2  0  0  0  0
  5  7  1  0  0  0  0
  2  3  1  0  0  0  0
  2  4  1  0  0  0  0
  2  5  1  0  0  0  0
  1  2  1  0  0  0  0
 19 20  2  0  0  0  0
 19 21  1  0  0  0  0
 17 18  1  0  0  0  0
 13 14  1  0  0  0  0
 13 15  1  0  0  0  0
 13 16  1  0  0  0  0
 11 12  1  0  0  0  0
 11 13  1  0  0  0  0
 11 17  1  0  0  0  0
  9 10  1  0  0  0  0
  9 11  1  0  0  0  0
  9 19  1  0  0  0  0
  7  8  1  0  0  0  0
  7  9  1  0  0  0  0
 23 24  1  0  0  0  0
 23 25  1  0  0  0  0
 23 26  1  0  0  0  0
 21 22  1  0  0  0  0
 21 23  1  0  0  0  0
M  END
$$$$
default_name
  -OEChem-02102213163D

 26 25  0     1  0  0  0  0  0999 V2000
   -2.8882   -3.2497    1.2537 H   0  0  0  0  0  0  0  0  0  0  0  0
   -2.8032   -2.3157    0.7017 C   0  0  0  0  0  0  0  0  0  0  0  0
   -3.5012   -1.5857    1.1067 H   0  0  0  0  0  0  0  0  0  0  0  0
   -3.0182   -2.4907   -0.3513 H   0  0  0  0  0  0  0  0  0  0  0  0
   -1.3942   -1.7897    0.8407 C   0  0  0  0  0  0  0  0  0  0  0  0
   -0.5672   -2.4077    1.5007 O   0  0  0  0  0  0  0  0  0  0  0  0
   -1.1222   -0.6447    0.2217 N   0  0  0  0  0  0  0  0  0  0  0  0
   -1.8592   -0.1777   -0.2863 H   0  0  0  0  0  0  0  0  0  0  0  0
    0.1838    0.0363    0.2367 C   0  0  1  0  0  0  0  0  0  0  0  0
    0.9373   -0.6457   -0.1557 H   0  0  0  0  0  0  0  0  0  0  0  0
    0.1822    1.2992   -0.6492 C   0  0  1  0  0  0  0  0  0  0  0  0
    1.1955    1.4587   -1.0174 H   0  0  0  0  0  0  0  0  0  0  0  0
   -0.7436    1.2092   -1.8607 C   0  0  0  0  0  0  0  0  0  0  0  0
   -1.7860    1.1801   -1.5411 H   0  0  0  0  0  0  0  0  0  0  0  0
   -0.5916    2.0728   -2.5071 H   0  0  0  0  0  0  0  0  0  0  0  0
   -0.5214    0.3033   -2.4253 H   0  0  0  0  0  0  0  0  0  0  0  0
   -0.2054    2.4323    0.0878 O   0  0  0  0  0  0  0  0  0  0  0  0
   -0.2861    3.1695   -0.5209 H   0  0  0  0  0  0  0  0  0  0  0  0
    0.5957    0.3968    1.6694 C   0  0  0  0  0  0  0  0  0  0  0  0
    1.7476    0.2125    2.0625 O   0  0  0  0  0  0  0  0  0  0  0  0
   -0.3433    0.9438    2.4539 N   0  0  0  0  0  0  0  0  0  0  0  0
   -1.2621    1.0874    2.0683 H   0  0  0  0  0  0  0  0  0  0  0  0
   -0.1135    1.3443    3.8411 C   0  0  0  0  0  0  0  0  0  0  0  0
    0.7513    2.0086    3.8953 H   0  0  0  0  0  0  0  0  0  0  0  0
   -0.9877    1.8608    4.2381 H   0  0  0  0  0  0  0  0  0  0  0  0
    0.0909    0.4609    4.4497 H   0  0  0  0  0  0  0  0  0  0  0  0
  5  6  2  0  0  0  0
  5  7  1  0  0  0  0
  2  3  1  0  0  0  0
  2  4  1  0  0  0  0
  2  5  1  0  0  0  0
  1  2  1  0  0  0  0
 19 20  2  0  0  0  0
 19 21  1  0  0  0  0
 17 18  1  0  0  0  0
 13 14  1  0  0  0  0
 13 15  1  0  0  0  0
 13 16  1  0  0  0  0
 11 12  1  0  0  0  0
 11 13  1  0  0  0  0
 11 17  1  0  0  0  0
  9 10  1  0  0  0  0
  9 11  1  0  0  0  0
  9 19  1  0  0  0  0
  7  8  1  0  0  0  0
  7  9  1  0  0  0  0
 23 24  1  0  0  0  0
 23 25  1  0  0  0  0
 23 26  1  0  0  0  0
 21 22  1  0  0  0  0
 21 23  1  0  0  0  0
M  END
$$$$
default_name
  -OEChem-02102213163D

 26 25  0     1  0  0  0  0  0999 V2000
   -2.8882   -3.2497    1.2537 H   0  0  0  0  0  0  0  0  0  0  0  0
   -2.8032   -2.3157    0.7017 C   0  0  0  0  0  0  0  0  0  0  0  0
   -3.5012   -1.5857    1.1067 H   0  0  0  0  0  0  0  0  0  0  0  0
   -3.0182   -2.4907   -0.3513 H   0  0  0  0  0  0  0  0  0  0  0  0
   -1.3942   -1.7897    0.8407 C   0  0  0  0  0  0  0  0  0  0  0  0
   -0.5672   -2.4077    1.5007 O   0  0  0  0  0  0  0  0  0  0  0  0
   -1.1222   -0.6447    0.2217 N   0  0  0  0  0  0  0  0  0  0  0  0
   -1.8592   -0.1777   -0.2863 H   0  0  0  0  0  0  0  0  0  0  0  0
    0.1838    0.0363    0.2367 C   0  0  1  0  0  0  0  0  0  0  0  0
    0.9373   -0.6457   -0.1557 H   0  0  0  0  0  0  0  0  0  0  0  0
    0.1822    1.2992   -0.6492 C   0  0  1  0  0  0  0  0  0  0  0  0
    1.1066    1.3121   -1.2262 H   0  0  0  0  0  0  0  0  0  0  0  0
   -0.9821    1.3670   -1.6354 C   0  0  0  0  0  0  0  0  0  0  0  0
   -1.9256    1.4881   -1.1018 H   0  0  0  0  0  0  0  0  0  0  0  0
   -0.8439    2.2084   -2.3134 H   0  0  0  0  0  0  0  0  0  0  0  0
   -1.0218    0.4471   -2.2195 H   0  0  0  0  0  0  0  0  0  0  0  0
    0.1323    2.4655    0.1346 O   0  0  0  0  0  0  0  0  0  0  0  0
    0.0350    3.2161   -0.4551 H   0  0  0  0  0  0  0  0  0  0  0  0
    0.5957    0.3968    1.6694 C   0  0  0  0  0  0  0  0  0  0  0  0
    1.7476    0.2125    2.0625 O   0  0  0  0  0  0  0  0  0  0  0  0
   -0.3433    0.9438    2.4539 N   0  0  0  0  0  0  0  0  0  0  0  0
   -1.2621    1.0874    2.0683 H   0  0  0  0  0  0  0  0  0  0  0  0
   -0.1135    1.3443    3.8411 C   0  0  0  0  0  0  0  0  0  0  0  0
    0.7513    2.0086    3.8953 H   0  0  0  0  0  0  0  0  0  0  0  0
   -0.9877    1.8608    4.2381 H   0  0  0  0  0  0  0  0  0  0  0  0
    0.0909    0.4609    4.4497 H   0  0  0  0  0  0  0  0  0  0  0  0
  5  6  2  0  0  0  0
  5  7  1  0  0  0  0
  2  3  1  0  0  0  0
  2  4  1  0  0  0  0
  2  5  1  0  0  0  0
  1  2  1  0  0  0  0
 19 20  2  0  0  0  0
 19 21  1  0  0  0  0
 17 18  1  0  0  0  0
 13 14  1  0  0  0  0
 13 15  1  0  0  0  0
 13 16  1  0  0  0  0
 11 12  1  0  0  0  0
 11 13  1  0  0  0  0
 11 17  1  0  0  0  0
  9 10  1  0  0  0  0
  9 11  1  0  0  0  0
  9 19  1  0  0  0  0
  7  8  1  0  0  0  0
  7  9  1  0  0  0  0
 23 24  1  0  0  0  0
 23 25  1  0  0  0  0
 23 26  1  0  0  0  0
 21 22  1  0  0  0  0
 21 23  1  0  0  0  0
M  END
$$$$
default_name
  -OEChem-02102213163D

 26 25  0     1  0  0  0  0  0999 V2000
   -2.8882   -3.2497    1.2537 H   0  0  0  0  0  0  0  0  0  0  0  0
   -2.8032   -2.3157    0.7017 C   0  0  0  0  0  0  0  0  0  0  0  0
   -3.5012   -1.5857    1.1067 H   0  0  0  0  0  0  0  0  0  0  0  0
   -3.0182   -2.4907   -0.3513 H   0  0  0  0  0  0  0  0  0  0  0  0
   -1.3942   -1.7897    0.8407 C   0  0  0  0  0  0  0  0  0  0  0  0
   -0.5672   -2.4077    1.5007 O   0  0  0  0  0  0  0  0  0  0  0  0
   -1.1222   -0.6447    0.2217 N   0  0  0  0  0  0  0  0  0  0  0  0
   -1.8592   -0.1777   -0.2863 H   0  0  0  0  0  0  0  0  0  0  0  0
    0.1838    0.0363    0.2367 C   0  0  1  0  0  0  0  0  0  0  0  0
    0.9373   -0.6457   -0.1557 H   0  0  0  0  0  0  0  0  0  0  0  0
    0.1822    1.2992   -0.6492 C   0  0  1  0  0  0  0  0  0  0  0  0
    0.9548    1.1836   -1.4091 H   0  0  0  0  0  0  0  0  0  0  0  0
   -1.1414    1.5549   -1.3673 C   0  0  0  0  0  0  0  0  0  0  0  0
   -1.9216    1.8065   -0.6479 H   0  0  0  0  0  0  0  0  0  0  0  0
   -1.0265    2.3769   -2.0728 H   0  0  0  0  0  0  0  0  0  0  0  0
   -1.4401    0.6604   -1.9146 H   0  0  0  0  0  0  0  0  0  0  0  0
    0.4734    2.4475    0.1083 O   0  0  0  0  0  0  0  0  0  0  0  0
    0.3661    3.2134   -0.4595 H   0  0  0  0  0  0  0  0  0  0  0  0
    0.5957    0.3968    1.6694 C   0  0  0  0  0  0  0  0  0  0  0  0
    1.7476    0.2125    2.0625 O   0  0  0  0  0  0  0  0  0  0  0  0
   -0.3433    0.9438    2.4539 N   0  0  0  0  0  0  0  0  0  0  0  0
   -1.2621    1.0874    2.0683 H   0  0  0  0  0  0  0  0  0  0  0  0
   -0.1135    1.3443    3.8411 C   0  0  0  0  0  0  0  0  0  0  0  0
    0.7513    2.0086    3.8953 H   0  0  0  0  0  0  0  0  0  0  0  0
   -0.9877    1.8608    4.2381 H   0  0  0  0  0  0  0  0  0  0  0  0
    0.0909    0.4609    4.4497 H   0  0  0  0  0  0  0  0  0  0  0  0
  5  6  2  0  0  0  0
  5  7  1  0  0  0  0
  2  3  1  0  0  0  0
  2  4  1  0  0  0  0
  2  5  1  0  0  0  0
  1  2  1  0  0  0  0
 19 20  2  0  0  0  0
 19 21  1  0  0  0  0
 17 18  1  0  0  0  0
 13 14  1  0  0  0  0
 13 15  1  0  0  0  0
 13 16  1  0  0  0  0
 11 12  1  0  0  0  0
 11 13  1  0  0  0  0
 11 17  1  0  0  0  0
  9 10  1  0  0  0  0
  9 11  1  0  0  0  0
  9 19  1  0  0  0  0
  7  8  1  0  0  0  0
  7  9  1  0  0  0  0
 23 24  1  0  0  0  0
 23 25  1  0  0  0  0
 23 26  1  0  0  0  0
 21 22  1  0  0  0  0
 21 23  1  0  0  0  0
M  END
$$$$
default_name
  -OEChem-02102213163D

 26 25  0     1  0  0  0  0  0999 V2000
   -2.8882   -3.2497    1.2537 H   0  0  0  0  0  0  0  0  0  0  0  0
   -2.8032   -2.3157    0.7017 C   0  0  0  0  0  0  0  0  0  0  0  0
   -3.5012   -1.5857    1.1067 H   0  0  0  0  0  0  0  0  0  0  0  0
   -3.0182   -2.4907   -0.3513 H   0  0  0  0  0  0  0  0  0  0  0  0
   -1.3942   -1.7897    0.8407 C   0  0  0  0  0  0  0  0  0  0  0  0
   -0.5672   -2.4077    1.5007 O   0  0  0  0  0  0  0  0  0  0  0  0
   -1.1222   -0.6447    0.2217 N   0  0  0  0  0  0  0  0  0  0  0  0
   -1.8592   -0.1777   -0.2863 H   0  0  0  0  0  0  0  0  0  0  0  0
    0.1838    0.0363    0.2367 C   0  0  1  0  0  0  0  0  0  0  0  0
    0.9373   -0.6457   -0.1557 H   0  0  0  0  0  0  0  0  0  0  0  0
    0.1822    1.2992   -0.6492 C   0  0  1  0  0  0  0  0  0  0  0  0
    0.7502    1.0820   -1.5536 H   0  0  0  0  0  0  0  0  0  0  0  0
   -1.2104    1.7601   -1.0747 C   0  0  0  0  0  0  0  0  0  0  0  0
   -1.7743    2.1136   -0.2105 H   0  0  0  0  0  0  0  0  0  0  0  0
   -1.1268    2.5670   -1.8017 H   0  0  0  0  0  0  0  0  0  0  0  0
   -1.7479    0.9287   -1.5316 H   0  0  0  0  0  0  0  0  0  0  0  0
    0.7947    2.3794    0.0106 O   0  0  0  0  0  0  0  0  0  0  0  0
    0.6845    3.1616   -0.5340 H   0  0  0  0  0  0  0  0  0  0  0  0
    0.5957    0.3968    1.6694 C   0  0  0  0  0  0  0  0  0  0  0  0
    1.7476    0.2125    2.0625 O   0  0  0  0  0  0  0  0  0  0  0  0
   -0.3433    0.9438    2.4539 N   0  0  0  0  0  0  0  0  0  0  0  0
   -1.2621    1.0874    2.0683 H   0  0  0  0  0  0  0  0  0  0  0  0
   -0.1135    1.3443    3.8411 C   0  0  0  0  0  0  0  0  0  0  0  0
    0.7513    2.0086    3.8953 H   0  0  0  0  0  0  0  0  0  0  0  0
   -0.9877    1.8608    4.2381 H   0  0  0  0  0  0  0  0  0  0  0  0
    0.0909    0.4609    4.4497 H   0  0  0  0  0  0  0  0  0  0  0  0
  5  6  2  0  0  0  0
  5  7  1  0  0  0  0
  2  3  1  0  0  0  0
  2  4  1  0  0  0  0
  2  5  1  0  0  0  0
  1  2  1  0  0  0  0
 19 20  2  0  0  0  0
 19 21  1  0  0  0  0
 17 18  1  0  0  0  0
 13 14  1  0  0  0  0
 13 15  1  0  0  0  0
 13 16  1  0  0  0  0
 11 12  1  0  0  0  0
 11 13  1  0  0  0  0
 11 17  1  0  0  0  0
  9 10  1  0  0  0  0
  9 11  1  0  0  0  0
  9 19  1  0  0  0  0
  7  8  1  0  0  0  0
  7  9  1  0  0  0  0
 23 24  1  0  0  0  0
 23 25  1  0  0  0  0
 23 26  1  0  0  0  0
 21 22  1  0  0  0  0
 21 23  1  0  0  0  0
M  END
$$$$
default_name
  -OEChem-02102213163D

 26 25  0     1  0  0  0  0  0999 V2000
   -2.8882   -3.2497    1.2537 H   0  0  0  0  0  0  0  0  0  0  0  0
   -2.8032   -2.3157    0.7017 C   0  0  0  0  0  0  0  0  0  0  0  0
   -3.5012   -1.5857    1.1067 H   0  0  0  0  0  0  0  0  0  0  0  0
   -3.0182   -2.4907   -0.3513 H   0  0  0  0  0  0  0  0  0  0  0  0
   -1.3942   -1.7897    0.8407 C   0  0  0  0  0  0  0  0  0  0  0  0
   -0.5672   -2.4077    1.5007 O   0  0  0  0  0  0  0  0  0  0  0  0
   -1.1222   -0.6447    0.2217 N   0  0  0  0  0  0  0  0  0  0  0  0
   -1.8592   -0.1777   -0.2863 H   0  0  0  0  0  0  0  0  0  0  0  0
    0.1838    0.0363    0.2367 C   0  0  1  0  0  0  0  0  0  0  0  0
    0.9373   -0.6457   -0.1557 H   0  0  0  0  0  0  0  0  0  0  0  0
    0.1822    1.2992   -0.6492 C   0  0  1  0  0  0  0  0  0  0  0  0
    0.5070    1.0143   -1.6497 H   0  0  0  0  0  0  0  0  0  0  0  0
   -1.1847    1.9686   -0.7774 C   0  0  0  0  0  0  0  0  0  0  0  0
   -1.4936    2.3884    0.1807 H   0  0  0  0  0  0  0  0  0  0  0  0
   -1.1380    2.7655   -1.5187 H   0  0  0  0  0  0  0  0  0  0  0  0
   -1.9242    1.2337   -1.0965 H   0  0  0  0  0  0  0  0  0  0  0  0
    1.0742    2.2658   -0.1518 O   0  0  0  0  0  0  0  0  0  0  0  0
    0.9685    3.0641   -0.6733 H   0  0  0  0  0  0  0  0  0  0  0  0
    0.5957    0.3968    1.6694 C   0  0  0  0  0  0  0  0  0  0  0  0
    1.7476    0.2125    2.0625 O   0  0  0  0  0  0  0  0  0  0  0  0
   -0.3433    0.9438    2.4539 N   0  0  0  0  0  0  0  0  0  0  0  0
   -1.2621    1.0874    2.0683 H   0  0  0  0  0  0  0  0  0  0  0  0
   -0.1135    1.3443    3.8411 C   0  0  0  0  0  0  0  0  0  0  0  0
    0.7513    2.0086    3.8953 H   0  0  0  0  0  0  0  0  0  0  0  0
   -0.9877    1.8608    4.2381 H   0  0  0  0  0  0  0  0  0  0  0  0
    0.0909    0.4609    4.4497 H   0  0  0  0  0  0  0  0  0  0  0  0
  5  6  2  0  0  0  0
  5  7  1  0  0  0  0
  2  3  1  0  0  0  0
  2  4  1  0  0  0  0
  2  5  1  0  0  0  0
  1  2  1  0  0  0  0
 19 20  2  0  0  0  0
 19 21  1  0  0  0  0
 17 18  1  0  0  0  0
 13 14  1  0  0  0  0
 13 15  1  0  0  0  0
 13 16  1  0  0  0  0
 11 12  1  0  0  0  0
 11 13  1  0  0  0  0
 11 17  1  0  0  0  0
  9 10  1  0  0  0  0
  9 11  1  0  0  0  0
  9 19  1  0  0  0  0
  7  8  1  0  0  0  0
  7  9  1  0  0  0  0
 23 24  1  0  0  0  0
 23 25  1  0  0  0  0
 23 26  1  0  0  0  0
 21 22  1  0  0  0  0
 21 23  1  0  0  0  0
M  END
$$$$
default_name
  -OEChem-02102213163D

 26 25  0     1  0  0  0  0  0999 V2000
   -2.8882   -3.2497    1.2537 H   0  0  0  0  0  0  0  0  0  0  0  0
   -2.8032   -2.3157    0.7017 C   0  0  0  0  0  0  0  0  0  0  0  0
   -3.5012   -1.5857    1.1067 H   0  0  0  0  0  0  0  0  0  0  0  0
   -3.0182   -2.4907   -0.3513 H   0  0  0  0  0  0  0  0  0  0  0  0
   -1.3942   -1.7897    0.8407 C   0  0  0  0  0  0  0  0  0  0  0  0
   -0.5672   -2.4077    1.5007 O   0  0  0  0  0  0  0  0  0  0  0  0
   -1.1222   -0.6447    0.2217 N   0  0  0  0  0  0  0  0  0  0  0  0
   -1.8592   -0.1777   -0.2863 H   0  0  0  0  0  0  0  0  0  0  0  0
    0.1838    0.0363    0.2367 C   0  0  1  0  0  0  0  0  0  0  0  0
    0.9373   -0.6457   -0.1557 H   0  0  0  0  0  0  0  0  0  0  0  0
    0.1822    1.2992   -0.6492 C   0  0  1  0  0  0  0  0  0  0  0  0
    0.2416    0.9849   -1.6910 H   0  0  0  0  0  0  0  0  0  0  0  0
   -1.0658    2.1663   -0.4958 C   0  0  0  0  0  0  0  0  0  0  0  0
   -1.0988    2.6122    0.4991 H   0  0  0  0  0  0  0  0  0  0  0  0
   -1.0594    2.9590   -1.2430 H   0  0  0  0  0  0  0  0  0  0  0  0
   -1.9569    1.5546   -0.6390 H   0  0  0  0  0  0  0  0  0  0  0  0
    1.2928    2.1145   -0.3679 O   0  0  0  0  0  0  0  0  0  0  0  0
    1.1989    2.9278   -0.8681 H   0  0  0  0  0  0  0  0  0  0  0  0
    0.5957    0.3968    1.6694 C   0  0  0  0  0  0  0  0  0  0  0  0
    1.7476    0.2125    2.0625 O   0  0  0  0  0  0  0  0  0  0  0  0
   -0.3433    0.9438    2.4539 N   0  0  0  0  0  0  0  0  0  0  0  0
   -1.2621    1.0874    2.0683 H   0  0  0  0  0  0  0  0  0  0  0  0
   -0.1135    1.3443    3.8411 C   0  0  0  0  0  0  0  0  0  0  0  0
    0.7513    2.0086    3.8953 H   0  0  0  0  0  0  0  0  0  0  0  0
   -0.9877    1.8608    4.2381 H   0  0  0  0  0  0  0  0  0  0  0  0
    0.0909    0.4609    4.4497 H   0  0  0  0  0  0  0  0  0  0  0  0
  5  6  2  0  0  0  0
  5  7  1  0  0  0  0
  2  3  1  0  0  0  0
  2  4  1  0  0  0  0
  2  5  1  0  0  0  0
  1  2  1  0  0  0  0
 19 20  2  0  0  0  0
 19 21  1  0  0  0  0
 17 18  1  0  0  0  0
 13 14  1  0  0  0  0
 13 15  1  0  0  0  0
 13 16  1  0  0  0  0
 11 12  1  0  0  0  0
 11 13  1  0  0  0  0
 11 17  1  0  0  0  0
  9 10  1  0  0  0  0
  9 11  1  0  0  0  0
  9 19  1  0  0  0  0
  7  8  1  0  0  0  0
  7  9  1  0  0  0  0
 23 24  1  0  0  0  0
 23 25  1  0  0  0  0
 23 26  1  0  0  0  0
 21 22  1  0  0  0  0
 21 23  1  0  0  0  0
M  END
$$$$
