
  -OEChem-04042216033D

 26 25  0     1  0  0  0  0  0999 V2000
   -2.2558   -3.7421    0.2000 H   0  0  0  0  0  0  0  0  0  0  0  0
   -2.1916   -2.7918   -0.3381 C   0  0  0  0  0  0  0  0  0  0  0  0
   -2.9788   -2.1277    0.0266 H   0  0  0  0  0  0  0  0  0  0  0  0
   -2.3461   -2.9815   -1.4030 H   0  0  0  0  0  0  0  0  0  0  0  0
   -0.8313   -2.1579   -0.1148 C   0  0  0  0  0  0  0  0  0  0  0  0
   -0.0241   -2.7043    0.6132 O   0  0  0  0  0  0  0  0  0  0  0  0
   -0.5228   -0.9666   -0.7417 N   0  0  0  0  0  0  0  0  0  0  0  0
   -1.2100   -0.6058   -1.3952 H   0  0  0  0  0  0  0  0  0  0  0  0
    0.7982   -0.3015   -0.6748 C   0  0  1  0  0  0  0  0  0  0  0  0
    1.5495   -1.0099   -1.0401 H   0  0  0  0  0  0  0  0  0  0  0  0
    0.8157    0.9122   -1.6359 C   0  0  1  0  0  0  0  0  0  0  0  0
    0.6495    0.5370   -2.6514 H   0  0  0  0  0  0  0  0  0  0  0  0
   -0.2522    1.9679   -1.3296 C   0  0  0  0  0  0  0  0  0  0  0  0
   -0.0655    2.4398   -0.3605 H   0  0  0  0  0  0  0  0  0  0  0  0
   -0.2355    2.7473   -2.0972 H   0  0  0  0  0  0  0  0  0  0  0  0
   -1.2522    1.5265   -1.3180 H   0  0  0  0  0  0  0  0  0  0  0  0
    2.0790    1.5719   -1.5931 O   0  0  0  0  0  0  0  0  0  0  0  0
    2.1137    2.3169   -2.2161 H   0  0  0  0  0  0  0  0  0  0  0  0
    1.2330    0.0747    0.7626 C   0  0  0  0  0  0  0  0  0  0  0  0
    2.3854   -0.1056    1.1369 O   0  0  0  0  0  0  0  0  0  0  0  0
    0.3339    0.6710    1.6326 N   0  0  0  0  0  0  0  0  0  0  0  0
   -0.6359    0.6884    1.3380 H   0  0  0  0  0  0  0  0  0  0  0  0
    0.6503    0.9540    3.0265 C   0  0  0  0  0  0  0  0  0  0  0  0
    1.5105    1.6283    3.0949 H   0  0  0  0  0  0  0  0  0  0  0  0
   -0.2021    1.4319    3.5183 H   0  0  0  0  0  0  0  0  0  0  0  0
    0.8854    0.0268    3.5599 H   0  0  0  0  0  0  0  0  0  0  0  0
  1  2  1  0  0  0  0
  2  3  1  0  0  0  0
  2  4  1  0  0  0  0
  2  5  1  0  0  0  0
  5  6  2  0  0  0  0
  5  7  1  0  0  0  0
  7  8  1  0  0  0  0
  7  9  1  0  0  0  0
  9 10  1  0  0  0  0
  9 11  1  0  0  0  0
  9 19  1  0  0  0  0
 11 12  1  0  0  0  0
 11 13  1  0  0  0  0
 11 17  1  0  0  0  0
 13 14  1  0  0  0  0
 13 15  1  0  0  0  0
 13 16  1  0  0  0  0
 17 18  1  0  0  0  0
 19 20  2  0  0  0  0
 19 21  1  0  0  0  0
 21 22  1  0  0  0  0
 21 23  1  0  0  0  0
 23 24  1  0  0  0  0
 23 25  1  0  0  0  0
 23 26  1  0  0  0  0
M  END
$$$$

  -OEChem-04042216033D

 26 25  0     1  0  0  0  0  0999 V2000
   -2.2692   -3.7459    0.1527 H   0  0  0  0  0  0  0  0  0  0  0  0
   -2.1994   -2.7941   -0.3820 C   0  0  0  0  0  0  0  0  0  0  0  0
   -3.0054   -2.1401   -0.0411 H   0  0  0  0  0  0  0  0  0  0  0  0
   -2.3181   -2.9841   -1.4514 H   0  0  0  0  0  0  0  0  0  0  0  0
   -0.8544   -2.1444   -0.1154 C   0  0  0  0  0  0  0  0  0  0  0  0
   -0.0671   -2.6791    0.6427 O   0  0  0  0  0  0  0  0  0  0  0  0
   -0.5393   -0.9490   -0.7316 N   0  0  0  0  0  0  0  0  0  0  0  0
   -1.2015   -0.6084   -1.4212 H   0  0  0  0  0  0  0  0  0  0  0  0
    0.7870   -0.2963   -0.6547 C   0  0  1  0  0  0  0  0  0  0  0  0
    1.5252   -1.0169   -1.0237 H   0  0  0  0  0  0  0  0  0  0  0  0
    0.8185    0.9097   -1.6222 C   0  0  1  0  0  0  0  0  0  0  0  0
    0.4178    0.5750   -2.5852 H   0  0  0  0  0  0  0  0  0  0  0  0
   -0.0065    2.1114   -1.1550 C   0  0  0  0  0  0  0  0  0  0  0  0
    0.4504    2.5792   -0.2773 H   0  0  0  0  0  0  0  0  0  0  0  0
   -0.0617    2.8597   -1.9513 H   0  0  0  0  0  0  0  0  0  0  0  0
   -1.0256    1.8070   -0.9003 H   0  0  0  0  0  0  0  0  0  0  0  0
    2.1608    1.3420   -1.8312 O   0  0  0  0  0  0  0  0  0  0  0  0
    2.1997    2.1038   -2.4333 H   0  0  0  0  0  0  0  0  0  0  0  0
    1.2351    0.0672    0.7814 C   0  0  0  0  0  0  0  0  0  0  0  0
    2.3999   -0.0799    1.1298 O   0  0  0  0  0  0  0  0  0  0  0  0
    0.3476    0.6663    1.6616 N   0  0  0  0  0  0  0  0  0  0  0  0
   -0.6298    0.6539    1.3923 H   0  0  0  0  0  0  0  0  0  0  0  0
    0.6889    0.9625    3.0469 C   0  0  0  0  0  0  0  0  0  0  0  0
    1.5463    1.6421    3.0936 H   0  0  0  0  0  0  0  0  0  0  0  0
   -0.1564    1.4402    3.5509 H   0  0  0  0  0  0  0  0  0  0  0  0
    0.9392    0.0412    3.5834 H   0  0  0  0  0  0  0  0  0  0  0  0
  1  2  1  0  0  0  0
  2  3  1  0  0  0  0
  2  4  1  0  0  0  0
  2  5  1  0  0  0  0
  5  6  2  0  0  0  0
  5  7  1  0  0  0  0
  7  8  1  0  0  0  0
  7  9  1  0  0  0  0
  9 10  1  0  0  0  0
  9 11  1  0  0  0  0
  9 19  1  0  0  0  0
 11 12  1  0  0  0  0
 11 13  1  0  0  0  0
 11 17  1  0  0  0  0
 13 14  1  0  0  0  0
 13 15  1  0  0  0  0
 13 16  1  0  0  0  0
 17 18  1  0  0  0  0
 19 20  2  0  0  0  0
 19 21  1  0  0  0  0
 21 22  1  0  0  0  0
 21 23  1  0  0  0  0
 23 24  1  0  0  0  0
 23 25  1  0  0  0  0
 23 26  1  0  0  0  0
M  END
$$$$

  -OEChem-04042216033D

 26 25  0     1  0  0  0  0  0999 V2000
   -2.2769   -3.7552    0.1256 H   0  0  0  0  0  0  0  0  0  0  0  0
   -2.2053   -2.8030   -0.4081 C   0  0  0  0  0  0  0  0  0  0  0  0
   -3.0244   -2.1565   -0.0842 H   0  0  0  0  0  0  0  0  0  0  0  0
   -2.3006   -2.9940   -1.4797 H   0  0  0  0  0  0  0  0  0  0  0  0
   -0.8720   -2.1406   -0.1149 C   0  0  0  0  0  0  0  0  0  0  0  0
   -0.0961   -2.6664    0.6613 O   0  0  0  0  0  0  0  0  0  0  0  0
   -0.5573   -0.9398   -0.7209 N   0  0  0  0  0  0  0  0  0  0  0  0
   -1.2066   -0.6109   -1.4284 H   0  0  0  0  0  0  0  0  0  0  0  0
    0.7721   -0.2935   -0.6425 C   0  0  1  0  0  0  0  0  0  0  0  0
    1.4975   -1.0262   -1.0132 H   0  0  0  0  0  0  0  0  0  0  0  0
    0.8214    0.9090   -1.6176 C   0  0  1  0  0  0  0  0  0  0  0  0
    0.2054    0.6608   -2.4886 H   0  0  0  0  0  0  0  0  0  0  0  0
    0.3026    2.2267   -1.0390 C   0  0  0  0  0  0  0  0  0  0  0  0
    0.9656    2.5936   -0.2488 H   0  0  0  0  0  0  0  0  0  0  0  0
    0.2524    2.9875   -1.8235 H   0  0  0  0  0  0  0  0  0  0  0  0
   -0.7012    2.0941   -0.6247 H   0  0  0  0  0  0  0  0  0  0  0  0
    2.1552    1.1031   -2.0838 O   0  0  0  0  0  0  0  0  0  0  0  0
    2.2196    1.8861   -2.6558 H   0  0  0  0  0  0  0  0  0  0  0  0
    1.2340    0.0552    0.7925 C   0  0  0  0  0  0  0  0  0  0  0  0
    2.4119   -0.0469    1.1107 O   0  0  0  0  0  0  0  0  0  0  0  0
    0.3543    0.6498    1.6833 N   0  0  0  0  0  0  0  0  0  0  0  0
   -0.6286    0.6049    1.4380 H   0  0  0  0  0  0  0  0  0  0  0  0
    0.7169    0.9673    3.0584 C   0  0  0  0  0  0  0  0  0  0  0  0
    1.5648    1.6599    3.0816 H   0  0  0  0  0  0  0  0  0  0  0  0
   -0.1263    1.4385    3.5722 H   0  0  0  0  0  0  0  0  0  0  0  0
    0.9905    0.0563    3.6012 H   0  0  0  0  0  0  0  0  0  0  0  0
  1  2  1  0  0  0  0
  2  3  1  0  0  0  0
  2  4  1  0  0  0  0
  2  5  1  0  0  0  0
  5  6  2  0  0  0  0
  5  7  1  0  0  0  0
  7  8  1  0  0  0  0
  7  9  1  0  0  0  0
  9 10  1  0  0  0  0
  9 11  1  0  0  0  0
  9 19  1  0  0  0  0
 11 12  1  0  0  0  0
 11 13  1  0  0  0  0
 11 17  1  0  0  0  0
 13 14  1  0  0  0  0
 13 15  1  0  0  0  0
 13 16  1  0  0  0  0
 17 18  1  0  0  0  0
 19 20  2  0  0  0  0
 19 21  1  0  0  0  0
 21 22  1  0  0  0  0
 21 23  1  0  0  0  0
 23 24  1  0  0  0  0
 23 25  1  0  0  0  0
 23 26  1  0  0  0  0
M  END
$$$$

  -OEChem-04042216033D

 26 25  0     1  0  0  0  0  0999 V2000
   -2.2739   -3.7682    0.1050 H   0  0  0  0  0  0  0  0  0  0  0  0
   -2.2056   -2.8139   -0.4256 C   0  0  0  0  0  0  0  0  0  0  0  0
   -3.0399   -2.1796   -0.1167 H   0  0  0  0  0  0  0  0  0  0  0  0
   -2.2773   -3.0045   -1.4992 H   0  0  0  0  0  0  0  0  0  0  0  0
   -0.8877   -2.1336   -0.1052 C   0  0  0  0  0  0  0  0  0  0  0  0
   -0.1232   -2.6465    0.6909 O   0  0  0  0  0  0  0  0  0  0  0  0
   -0.5748   -0.9315   -0.7095 N   0  0  0  0  0  0  0  0  0  0  0  0
   -1.2048   -0.6281   -1.4452 H   0  0  0  0  0  0  0  0  0  0  0  0
    0.7583   -0.2914   -0.6372 C   0  0  1  0  0  0  0  0  0  0  0  0
    1.4755   -1.0332   -1.0062 H   0  0  0  0  0  0  0  0  0  0  0  0
    0.8152    0.9116   -1.6189 C   0  0  1  0  0  0  0  0  0  0  0  0
    0.0060    0.7980   -2.3482 H   0  0  0  0  0  0  0  0  0  0  0  0
    0.6673    2.2952   -0.9812 C   0  0  0  0  0  0  0  0  0  0  0  0
    1.5068    2.5092   -0.3115 H   0  0  0  0  0  0  0  0  0  0  0  0
    0.6438    3.0663   -1.7569 H   0  0  0  0  0  0  0  0  0  0  0  0
   -0.2647    2.3565   -0.4117 H   0  0  0  0  0  0  0  0  0  0  0  0
    2.0448    0.8786   -2.3429 O   0  0  0  0  0  0  0  0  0  0  0  0
    2.1438    1.6664   -2.9037 H   0  0  0  0  0  0  0  0  0  0  0  0
    1.2275    0.0475    0.7977 C   0  0  0  0  0  0  0  0  0  0  0  0
    2.4128   -0.0270    1.0959 O   0  0  0  0  0  0  0  0  0  0  0  0
    0.3532    0.6409    1.6942 N   0  0  0  0  0  0  0  0  0  0  0  0
   -0.6326    0.5737    1.4645 H   0  0  0  0  0  0  0  0  0  0  0  0
    0.7286    0.9641    3.0647 C   0  0  0  0  0  0  0  0  0  0  0  0
    1.5677    1.6676    3.0775 H   0  0  0  0  0  0  0  0  0  0  0  0
   -0.1139    1.4250    3.5888 H   0  0  0  0  0  0  0  0  0  0  0  0
    1.0203    0.0570    3.6044 H   0  0  0  0  0  0  0  0  0  0  0  0
  1  2  1  0  0  0  0
  2  3  1  0  0  0  0
  2  4  1  0  0  0  0
  2  5  1  0  0  0  0
  5  6  2  0  0  0  0
  5  7  1  0  0  0  0
  7  8  1  0  0  0  0
  7  9  1  0  0  0  0
  9 10  1  0  0  0  0
  9 11  1  0  0  0  0
  9 19  1  0  0  0  0
 11 12  1  0  0  0  0
 11 13  1  0  0  0  0
 11 17  1  0  0  0  0
 13 14  1  0  0  0  0
 13 15  1  0  0  0  0
 13 16  1  0  0  0  0
 17 18  1  0  0  0  0
 19 20  2  0  0  0  0
 19 21  1  0  0  0  0
 21 22  1  0  0  0  0
 21 23  1  0  0  0  0
 23 24  1  0  0  0  0
 23 25  1  0  0  0  0
 23 26  1  0  0  0  0
M  END
$$$$

  -OEChem-04042216033D

 26 25  0     1  0  0  0  0  0999 V2000
   -2.2769   -3.7616    0.1181 H   0  0  0  0  0  0  0  0  0  0  0  0
   -2.2010   -2.8153   -0.4252 C   0  0  0  0  0  0  0  0  0  0  0  0
   -3.0396   -2.1770   -0.1374 H   0  0  0  0  0  0  0  0  0  0  0  0
   -2.2576   -3.0217   -1.4967 H   0  0  0  0  0  0  0  0  0  0  0  0
   -0.8885   -2.1289   -0.0962 C   0  0  0  0  0  0  0  0  0  0  0  0
   -0.1315   -2.6333    0.7125 O   0  0  0  0  0  0  0  0  0  0  0  0
   -0.5747   -0.9300   -0.7063 N   0  0  0  0  0  0  0  0  0  0  0  0
   -1.1890   -0.6502   -1.4645 H   0  0  0  0  0  0  0  0  0  0  0  0
    0.7608   -0.2940   -0.6435 C   0  0  1  0  0  0  0  0  0  0  0  0
    1.4828   -1.0310   -1.0129 H   0  0  0  0  0  0  0  0  0  0  0  0
    0.7979    0.9201   -1.6188 C   0  0  1  0  0  0  0  0  0  0  0  0
   -0.1612    0.9834   -2.1437 H   0  0  0  0  0  0  0  0  0  0  0  0
    1.0636    2.2901   -0.9860 C   0  0  0  0  0  0  0  0  0  0  0  0
    2.0379    2.3075   -0.4864 H   0  0  0  0  0  0  0  0  0  0  0  0
    1.0594    3.0674   -1.7558 H   0  0  0  0  0  0  0  0  0  0  0  0
    0.2870    2.5361   -0.2563 H   0  0  0  0  0  0  0  0  0  0  0  0
    1.8223    0.7023   -2.5897 O   0  0  0  0  0  0  0  0  0  0  0  0
    1.9480    1.4888   -3.1471 H   0  0  0  0  0  0  0  0  0  0  0  0
    1.2218    0.0410    0.7949 C   0  0  0  0  0  0  0  0  0  0  0  0
    2.4075   -0.0262    1.0941 O   0  0  0  0  0  0  0  0  0  0  0  0
    0.3425    0.6345    1.6862 N   0  0  0  0  0  0  0  0  0  0  0  0
   -0.6425    0.5579    1.4550 H   0  0  0  0  0  0  0  0  0  0  0  0
    0.7128    0.9579    3.0580 C   0  0  0  0  0  0  0  0  0  0  0  0
    1.5554    1.6570    3.0733 H   0  0  0  0  0  0  0  0  0  0  0  0
   -0.1295    1.4242    3.5778 H   0  0  0  0  0  0  0  0  0  0  0  0
    0.9978    0.0500    3.6002 H   0  0  0  0  0  0  0  0  0  0  0  0
  1  2  1  0  0  0  0
  2  3  1  0  0  0  0
  2  4  1  0  0  0  0
  2  5  1  0  0  0  0
  5  6  2  0  0  0  0
  5  7  1  0  0  0  0
  7  8  1  0  0  0  0
  7  9  1  0  0  0  0
  9 10  1  0  0  0  0
  9 11  1  0  0  0  0
  9 19  1  0  0  0  0
 11 12  1  0  0  0  0
 11 13  1  0  0  0  0
 11 17  1  0  0  0  0
 13 14  1  0  0  0  0
 13 15  1  0  0  0  0
 13 16  1  0  0  0  0
 17 18  1  0  0  0  0
 19 20  2  0  0  0  0
 19 21  1  0  0  0  0
 21 22  1  0  0  0  0
 21 23  1  0  0  0  0
 23 24  1  0  0  0  0
 23 25  1  0  0  0  0
 23 26  1  0  0  0  0
M  END
$$$$

  -OEChem-04042216033D

 26 25  0     1  0  0  0  0  0999 V2000
   -2.2700   -3.7557    0.1273 H   0  0  0  0  0  0  0  0  0  0  0  0
   -2.1890   -2.8158   -0.4265 C   0  0  0  0  0  0  0  0  0  0  0  0
   -3.0377   -2.1796   -0.1646 H   0  0  0  0  0  0  0  0  0  0  0  0
   -2.2216   -3.0359   -1.4963 H   0  0  0  0  0  0  0  0  0  0  0  0
   -0.8878   -2.1166   -0.0798 C   0  0  0  0  0  0  0  0  0  0  0  0
   -0.1468   -2.6052    0.7532 O   0  0  0  0  0  0  0  0  0  0  0  0
   -0.5663   -0.9272   -0.7049 N   0  0  0  0  0  0  0  0  0  0  0  0
   -1.1548   -0.6819   -1.4952 H   0  0  0  0  0  0  0  0  0  0  0  0
    0.7749   -0.3017   -0.6544 C   0  0  1  0  0  0  0  0  0  0  0  0
    1.5078   -1.0224   -1.0342 H   0  0  0  0  0  0  0  0  0  0  0  0
    0.7707    0.9350   -1.6008 C   0  0  1  0  0  0  0  0  0  0  0  0
   -0.2607    1.1989   -1.8583 H   0  0  0  0  0  0  0  0  0  0  0  0
    1.4544    2.1975   -1.0611 C   0  0  0  0  0  0  0  0  0  0  0  0
    2.4939    1.9885   -0.7869 H   0  0  0  0  0  0  0  0  0  0  0  0
    1.4503    2.9837   -1.8220 H   0  0  0  0  0  0  0  0  0  0  0  0
    0.9279    2.5817   -0.1826 H   0  0  0  0  0  0  0  0  0  0  0  0
    1.4911    0.5930   -2.7863 O   0  0  0  0  0  0  0  0  0  0  0  0
    1.6157    1.3728   -3.3538 H   0  0  0  0  0  0  0  0  0  0  0  0
    1.2218    0.0365    0.7883 C   0  0  0  0  0  0  0  0  0  0  0  0
    2.4025   -0.0466    1.1040 O   0  0  0  0  0  0  0  0  0  0  0  0
    0.3349    0.6407    1.6644 N   0  0  0  0  0  0  0  0  0  0  0  0
   -0.6472    0.5689    1.4194 H   0  0  0  0  0  0  0  0  0  0  0  0
    0.6870    0.9641    3.0411 C   0  0  0  0  0  0  0  0  0  0  0  0
    1.5392    1.6513    3.0685 H   0  0  0  0  0  0  0  0  0  0  0  0
   -0.1574    1.4444    3.5442 H   0  0  0  0  0  0  0  0  0  0  0  0
    0.9494    0.0547    3.5917 H   0  0  0  0  0  0  0  0  0  0  0  0
  1  2  1  0  0  0  0
  2  3  1  0  0  0  0
  2  4  1  0  0  0  0
  2  5  1  0  0  0  0
  5  6  2  0  0  0  0
  5  7  1  0  0  0  0
  7  8  1  0  0  0  0
  7  9  1  0  0  0  0
  9 10  1  0  0  0  0
  9 11  1  0  0  0  0
  9 19  1  0  0  0  0
 11 12  1  0  0  0  0
 11 13  1  0  0  0  0
 11 17  1  0  0  0  0
 13 14  1  0  0  0  0
 13 15  1  0  0  0  0
 13 16  1  0  0  0  0
 17 18  1  0  0  0  0
 19 20  2  0  0  0  0
 19 21  1  0  0  0  0
 21 22  1  0  0  0  0
 21 23  1  0  0  0  0
 23 24  1  0  0  0  0
 23 25  1  0  0  0  0
 23 26  1  0  0  0  0
M  END
$$$$

  -OEChem-04042216033D

 26 25  0     1  0  0  0  0  0999 V2000
   -2.2675   -3.7463    0.1208 H   0  0  0  0  0  0  0  0  0  0  0  0
   -2.1830   -2.8065   -0.4327 C   0  0  0  0  0  0  0  0  0  0  0  0
   -3.0326   -2.1693   -0.1763 H   0  0  0  0  0  0  0  0  0  0  0  0
   -2.2095   -3.0268   -1.5026 H   0  0  0  0  0  0  0  0  0  0  0  0
   -0.8840   -2.1076   -0.0773 C   0  0  0  0  0  0  0  0  0  0  0  0
   -0.1563   -2.5876    0.7725 O   0  0  0  0  0  0  0  0  0  0  0  0
   -0.5507   -0.9272   -0.7125 N   0  0  0  0  0  0  0  0  0  0  0  0
   -1.1167   -0.7008   -1.5251 H   0  0  0  0  0  0  0  0  0  0  0  0
    0.7930   -0.3105   -0.6610 C   0  0  1  0  0  0  0  0  0  0  0  0
    1.5339   -1.0162   -1.0523 H   0  0  0  0  0  0  0  0  0  0  0  0
    0.7595    0.9418   -1.5758 C   0  0  1  0  0  0  0  0  0  0  0  0
   -0.2450    1.3790   -1.5787 H   0  0  0  0  0  0  0  0  0  0  0  0
    1.7625    2.0412   -1.2058 C   0  0  0  0  0  0  0  0  0  0  0  0
    2.7745    1.6288   -1.1326 H   0  0  0  0  0  0  0  0  0  0  0  0
    1.7619    2.8282   -1.9656 H   0  0  0  0  0  0  0  0  0  0  0  0
    1.5023    2.5031   -0.2485 H   0  0  0  0  0  0  0  0  0  0  0  0
    1.1323    0.5322   -2.8933 O   0  0  0  0  0  0  0  0  0  0  0  0
    1.2488    1.3041   -3.4736 H   0  0  0  0  0  0  0  0  0  0  0  0
    1.2304    0.0382    0.7813 C   0  0  0  0  0  0  0  0  0  0  0  0
    2.4075   -0.0532    1.1081 O   0  0  0  0  0  0  0  0  0  0  0  0
    0.3393    0.6566    1.6426 N   0  0  0  0  0  0  0  0  0  0  0  0
   -0.6407    0.5857    1.3886 H   0  0  0  0  0  0  0  0  0  0  0  0
    0.6776    0.9773    3.0234 C   0  0  0  0  0  0  0  0  0  0  0  0
    1.5376    1.6542    3.0605 H   0  0  0  0  0  0  0  0  0  0  0  0
   -0.1674    1.4679    3.5157 H   0  0  0  0  0  0  0  0  0  0  0  0
    0.9224    0.0653    3.5782 H   0  0  0  0  0  0  0  0  0  0  0  0
  1  2  1  0  0  0  0
  2  3  1  0  0  0  0
  2  4  1  0  0  0  0
  2  5  1  0  0  0  0
  5  6  2  0  0  0  0
  5  7  1  0  0  0  0
  7  8  1  0  0  0  0
  7  9  1  0  0  0  0
  9 10  1  0  0  0  0
  9 11  1  0  0  0  0
  9 19  1  0  0  0  0
 11 12  1  0  0  0  0
 11 13  1  0  0  0  0
 11 17  1  0  0  0  0
 13 14  1  0  0  0  0
 13 15  1  0  0  0  0
 13 16  1  0  0  0  0
 17 18  1  0  0  0  0
 19 20  2  0  0  0  0
 19 21  1  0  0  0  0
 21 22  1  0  0  0  0
 21 23  1  0  0  0  0
 23 24  1  0  0  0  0
 23 25  1  0  0  0  0
 23 26  1  0  0  0  0
M  END
$$$$

  -OEChem-04042216033D

 26 25  0     1  0  0  0  0  0999 V2000
   -2.2800   -3.7409    0.0988 H   0  0  0  0  0  0  0  0  0  0  0  0
   -2.1829   -2.8067   -0.4619 C   0  0  0  0  0  0  0  0  0  0  0  0
   -3.0402   -2.1688   -0.2341 H   0  0  0  0  0  0  0  0  0  0  0  0
   -2.1811   -3.0377   -1.5298 H   0  0  0  0  0  0  0  0  0  0  0  0
   -0.8945   -2.1016   -0.0809 C   0  0  0  0  0  0  0  0  0  0  0  0
   -0.1865   -2.5714    0.7912 O   0  0  0  0  0  0  0  0  0  0  0  0
   -0.5471   -0.9274   -0.7190 N   0  0  0  0  0  0  0  0  0  0  0  0
   -1.0896   -0.7108   -1.5510 H   0  0  0  0  0  0  0  0  0  0  0  0
    0.7992   -0.3210   -0.6590 C   0  0  1  0  0  0  0  0  0  0  0  0
    1.5373   -1.0237   -1.0605 H   0  0  0  0  0  0  0  0  0  0  0  0
    0.7589    0.9391   -1.5528 C   0  0  1  0  0  0  0  0  0  0  0  0
   -0.1447    1.5212   -1.3406 H   0  0  0  0  0  0  0  0  0  0  0  0
    1.9815    1.8497   -1.3981 C   0  0  0  0  0  0  0  0  0  0  0  0
    2.9050    1.2735   -1.5175 H   0  0  0  0  0  0  0  0  0  0  0  0
    1.9644    2.6432   -2.1509 H   0  0  0  0  0  0  0  0  0  0  0  0
    1.9926    2.3253   -0.4126 H   0  0  0  0  0  0  0  0  0  0  0  0
    0.7730    0.5117   -2.9177 O   0  0  0  0  0  0  0  0  0  0  0  0
    0.8782    1.2735   -3.5137 H   0  0  0  0  0  0  0  0  0  0  0  0
    1.2407    0.0372    0.7785 C   0  0  0  0  0  0  0  0  0  0  0  0
    2.4181   -0.0598    1.1029 O   0  0  0  0  0  0  0  0  0  0  0  0
    0.3558    0.6712    1.6341 N   0  0  0  0  0  0  0  0  0  0  0  0
   -0.6253    0.5995    1.3840 H   0  0  0  0  0  0  0  0  0  0  0  0
    0.6988    1.0075    3.0101 C   0  0  0  0  0  0  0  0  0  0  0  0
    1.5647    1.6774    3.0377 H   0  0  0  0  0  0  0  0  0  0  0  0
   -0.1413    1.5123    3.4963 H   0  0  0  0  0  0  0  0  0  0  0  0
    0.9360    0.1009    3.5766 H   0  0  0  0  0  0  0  0  0  0  0  0
  1  2  1  0  0  0  0
  2  3  1  0  0  0  0
  2  4  1  0  0  0  0
  2  5  1  0  0  0  0
  5  6  2  0  0  0  0
  5  7  1  0  0  0  0
  7  8  1  0  0  0  0
  7  9  1  0  0  0  0
  9 10  1  0  0  0  0
  9 11  1  0  0  0  0
  9 19  1  0  0  0  0
 11 12  1  0  0  0  0
 11 13  1  0  0  0  0
 11 17  1  0  0  0  0
 13 14  1  0  0  0  0
 13 15  1  0  0  0  0
 13 16  1  0  0  0  0
 17 18  1  0  0  0  0
 19 20  2  0  0  0  0
 19 21  1  0  0  0  0
 21 22  1  0  0  0  0
 21 23  1  0  0  0  0
 23 24  1  0  0  0  0
 23 25  1  0  0  0  0
 23 26  1  0  0  0  0
M  END
$$$$

  -OEChem-04042216033D

 26 25  0     1  0  0  0  0  0999 V2000
   -2.2878   -3.7446    0.0802 H   0  0  0  0  0  0  0  0  0  0  0  0
   -2.1877   -2.8090   -0.4776 C   0  0  0  0  0  0  0  0  0  0  0  0
   -3.0473   -2.1727   -0.2545 H   0  0  0  0  0  0  0  0  0  0  0  0
   -2.1787   -3.0373   -1.5461 H   0  0  0  0  0  0  0  0  0  0  0  0
   -0.9025   -2.1033   -0.0869 C   0  0  0  0  0  0  0  0  0  0  0  0
   -0.2014   -2.5695    0.7930 O   0  0  0  0  0  0  0  0  0  0  0  0
   -0.5470   -0.9328   -0.7257 N   0  0  0  0  0  0  0  0  0  0  0  0
   -1.0789   -0.7126   -1.5647 H   0  0  0  0  0  0  0  0  0  0  0  0
    0.7982   -0.3279   -0.6589 C   0  0  1  0  0  0  0  0  0  0  0  0
    1.5303   -1.0358   -1.0614 H   0  0  0  0  0  0  0  0  0  0  0  0
    0.7681    0.9310   -1.5494 C   0  0  1  0  0  0  0  0  0  0  0  0
    0.0164    1.6336   -1.1728 H   0  0  0  0  0  0  0  0  0  0  0  0
    2.1226    1.6397   -1.6282 C   0  0  0  0  0  0  0  0  0  0  0  0
    2.9064    0.9369   -1.9291 H   0  0  0  0  0  0  0  0  0  0  0  0
    2.0846    2.4549   -2.3566 H   0  0  0  0  0  0  0  0  0  0  0  0
    2.3949    2.0686   -0.6591 H   0  0  0  0  0  0  0  0  0  0  0  0
    0.4400    0.5362   -2.8865 O   0  0  0  0  0  0  0  0  0  0  0  0
    0.5282    1.2910   -3.4946 H   0  0  0  0  0  0  0  0  0  0  0  0
    1.2471    0.0422    0.7716 C   0  0  0  0  0  0  0  0  0  0  0  0
    2.4268   -0.0513    1.0884 O   0  0  0  0  0  0  0  0  0  0  0  0
    0.3681    0.6857    1.6257 N   0  0  0  0  0  0  0  0  0  0  0  0
   -0.6146    0.6110    1.3818 H   0  0  0  0  0  0  0  0  0  0  0  0
    0.7182    1.0313    2.9977 C   0  0  0  0  0  0  0  0  0  0  0  0
    1.5859    1.6991    3.0170 H   0  0  0  0  0  0  0  0  0  0  0  0
   -0.1185    1.5417    3.4839 H   0  0  0  0  0  0  0  0  0  0  0  0
    0.9556    0.1282    3.5699 H   0  0  0  0  0  0  0  0  0  0  0  0
  1  2  1  0  0  0  0
  2  3  1  0  0  0  0
  2  4  1  0  0  0  0
  2  5  1  0  0  0  0
  5  6  2  0  0  0  0
  5  7  1  0  0  0  0
  7  8  1  0  0  0  0
  7  9  1  0  0  0  0
  9 10  1  0  0  0  0
  9 11  1  0  0  0  0
  9 19  1  0  0  0  0
 11 12  1  0  0  0  0
 11 13  1  0  0  0  0
 11 17  1  0  0  0  0
 13 14  1  0  0  0  0
 13 15  1  0  0  0  0
 13 16  1  0  0  0  0
 17 18  1  0  0  0  0
 19 20  2  0  0  0  0
 19 21  1  0  0  0  0
 21 22  1  0  0  0  0
 21 23  1  0  0  0  0
 23 24  1  0  0  0  0
 23 25  1  0  0  0  0
 23 26  1  0  0  0  0
M  END
$$$$

  -OEChem-04042216033D

 26 25  0     1  0  0  0  0  0999 V2000
   -2.2832   -3.7600    0.0719 H   0  0  0  0  0  0  0  0  0  0  0  0
   -2.1938   -2.8148   -0.4713 C   0  0  0  0  0  0  0  0  0  0  0  0
   -3.0472   -2.1809   -0.2194 H   0  0  0  0  0  0  0  0  0  0  0  0
   -2.2064   -3.0239   -1.5437 H   0  0  0  0  0  0  0  0  0  0  0  0
   -0.9009   -2.1165   -0.0942 C   0  0  0  0  0  0  0  0  0  0  0  0
   -0.1892   -2.5877    0.7748 O   0  0  0  0  0  0  0  0  0  0  0  0
   -0.5486   -0.9450   -0.7315 N   0  0  0  0  0  0  0  0  0  0  0  0
   -1.0931   -0.7035   -1.5576 H   0  0  0  0  0  0  0  0  0  0  0  0
    0.7907   -0.3298   -0.6647 C   0  0  1  0  0  0  0  0  0  0  0  0
    1.5178   -1.0452   -1.0628 H   0  0  0  0  0  0  0  0  0  0  0  0
    0.7783    0.9255   -1.5621 C   0  0  1  0  0  0  0  0  0  0  0  0
    0.2229    1.7265   -1.0615 H   0  0  0  0  0  0  0  0  0  0  0  0
    2.1896    1.4182   -1.8848 C   0  0  0  0  0  0  0  0  0  0  0  0
    2.7743    0.6238   -2.3591 H   0  0  0  0  0  0  0  0  0  0  0  0
    2.1477    2.2752   -2.5632 H   0  0  0  0  0  0  0  0  0  0  0  0
    2.7083    1.7335   -0.9746 H   0  0  0  0  0  0  0  0  0  0  0  0
    0.1399    0.6217   -2.8107 O   0  0  0  0  0  0  0  0  0  0  0  0
    0.2192    1.3757   -3.4215 H   0  0  0  0  0  0  0  0  0  0  0  0
    1.2468    0.0496    0.7597 C   0  0  0  0  0  0  0  0  0  0  0  0
    2.4305   -0.0269    1.0654 O   0  0  0  0  0  0  0  0  0  0  0  0
    0.3681    0.6906    1.6157 N   0  0  0  0  0  0  0  0  0  0  0  0
   -0.6155    0.6078    1.3775 H   0  0  0  0  0  0  0  0  0  0  0  0
    0.7233    1.0469    2.9833 C   0  0  0  0  0  0  0  0  0  0  0  0
    1.5857    1.7216    2.9926 H   0  0  0  0  0  0  0  0  0  0  0  0
   -0.1147    1.5534    3.4714 H   0  0  0  0  0  0  0  0  0  0  0  0
    0.9711    0.1491    3.5594 H   0  0  0  0  0  0  0  0  0  0  0  0
  1  2  1  0  0  0  0
  2  3  1  0  0  0  0
  2  4  1  0  0  0  0
  2  5  1  0  0  0  0
  5  6  2  0  0  0  0
  5  7  1  0  0  0  0
  7  8  1  0  0  0  0
  7  9  1  0  0  0  0
  9 10  1  0  0  0  0
  9 11  1  0  0  0  0
  9 19  1  0  0  0  0
 11 12  1  0  0  0  0
 11 13  1  0  0  0  0
 11 17  1  0  0  0  0
 13 14  1  0  0  0  0
 13 15  1  0  0  0  0
 13 16  1  0  0  0  0
 17 18  1  0  0  0  0
 19 20  2  0  0  0  0
 19 21  1  0  0  0  0
 21 22  1  0  0  0  0
 21 23  1  0  0  0  0
 23 24  1  0  0  0  0
 23 25  1  0  0  0  0
 23 26  1  0  0  0  0
M  END
$$$$

  -OEChem-04042216033D

 26 25  0     1  0  0  0  0  0999 V2000
   -2.2861   -3.7751    0.0871 H   0  0  0  0  0  0  0  0  0  0  0  0
   -2.2038   -2.8286   -0.4548 C   0  0  0  0  0  0  0  0  0  0  0  0
   -3.0454   -2.1895   -0.1778 H   0  0  0  0  0  0  0  0  0  0  0  0
   -2.2472   -3.0334   -1.5273 H   0  0  0  0  0  0  0  0  0  0  0  0
   -0.8958   -2.1417   -0.1097 C   0  0  0  0  0  0  0  0  0  0  0  0
   -0.1587   -2.6269    0.7303 O   0  0  0  0  0  0  0  0  0  0  0  0
   -0.5544   -0.9639   -0.7408 N   0  0  0  0  0  0  0  0  0  0  0  0
   -1.1303   -0.6836   -1.5334 H   0  0  0  0  0  0  0  0  0  0  0  0
    0.7766   -0.3315   -0.6751 C   0  0  1  0  0  0  0  0  0  0  0  0
    1.5017   -1.0529   -1.0662 H   0  0  0  0  0  0  0  0  0  0  0  0
    0.7845    0.9237   -1.5784 C   0  0  1  0  0  0  0  0  0  0  0  0
    0.4599    1.7915   -0.9931 H   0  0  0  0  0  0  0  0  0  0  0  0
    2.1772    1.1981   -2.1444 C   0  0  0  0  0  0  0  0  0  0  0  0
    2.5137    0.3578   -2.7597 H   0  0  0  0  0  0  0  0  0  0  0  0
    2.1661    2.1016   -2.7609 H   0  0  0  0  0  0  0  0  0  0  0  0
    2.8990    1.3461   -1.3351 H   0  0  0  0  0  0  0  0  0  0  0  0
   -0.1160    0.7651   -2.6865 O   0  0  0  0  0  0  0  0  0  0  0  0
   -0.0503    1.5315   -3.2836 H   0  0  0  0  0  0  0  0  0  0  0  0
    1.2406    0.0525    0.7443 C   0  0  0  0  0  0  0  0  0  0  0  0
    2.4311    0.0128    1.0291 O   0  0  0  0  0  0  0  0  0  0  0  0
    0.3608    0.6815    1.6077 N   0  0  0  0  0  0  0  0  0  0  0  0
   -0.6240    0.5875    1.3784 H   0  0  0  0  0  0  0  0  0  0  0  0
    0.7258    1.0627    2.9659 C   0  0  0  0  0  0  0  0  0  0  0  0
    1.5746    1.7545    2.9563 H   0  0  0  0  0  0  0  0  0  0  0  0
   -0.1161    1.5593    3.4575 H   0  0  0  0  0  0  0  0  0  0  0  0
    0.9987    0.1779    3.5505 H   0  0  0  0  0  0  0  0  0  0  0  0
  1  2  1  0  0  0  0
  2  3  1  0  0  0  0
  2  4  1  0  0  0  0
  2  5  1  0  0  0  0
  5  6  2  0  0  0  0
  5  7  1  0  0  0  0
  7  8  1  0  0  0  0
  7  9  1  0  0  0  0
  9 10  1  0  0  0  0
  9 11  1  0  0  0  0
  9 19  1  0  0  0  0
 11 12  1  0  0  0  0
 11 13  1  0  0  0  0
 11 17  1  0  0  0  0
 13 14  1  0  0  0  0
 13 15  1  0  0  0  0
 13 16  1  0  0  0  0
 17 18  1  0  0  0  0
 19 20  2  0  0  0  0
 19 21  1  0  0  0  0
 21 22  1  0  0  0  0
 21 23  1  0  0  0  0
 23 24  1  0  0  0  0
 23 25  1  0  0  0  0
 23 26  1  0  0  0  0
M  END
$$$$

  -OEChem-04042216033D

 26 25  0     1  0  0  0  0  0999 V2000
   -2.2929   -3.7800    0.1050 H   0  0  0  0  0  0  0  0  0  0  0  0
   -2.2136   -2.8334   -0.4370 C   0  0  0  0  0  0  0  0  0  0  0  0
   -3.0366   -2.1827   -0.1320 H   0  0  0  0  0  0  0  0  0  0  0  0
   -2.2930   -3.0343   -1.5081 H   0  0  0  0  0  0  0  0  0  0  0  0
   -0.8853   -2.1674   -0.1315 C   0  0  0  0  0  0  0  0  0  0  0  0
   -0.1188   -2.6769    0.6669 O   0  0  0  0  0  0  0  0  0  0  0  0
   -0.5547   -0.9816   -0.7520 N   0  0  0  0  0  0  0  0  0  0  0  0
   -1.1731   -0.6484   -1.4905 H   0  0  0  0  0  0  0  0  0  0  0  0
    0.7667   -0.3308   -0.6847 C   0  0  1  0  0  0  0  0  0  0  0  0
    1.4957   -1.0532   -1.0666 H   0  0  0  0  0  0  0  0  0  0  0  0
    0.7868    0.9257   -1.5915 C   0  0  1  0  0  0  0  0  0  0  0  0
    0.7191    1.8236   -0.9665 H   0  0  0  0  0  0  0  0  0  0  0  0
    2.0769    0.9940   -2.4062 C   0  0  0  0  0  0  0  0  0  0  0  0
    2.1543    0.1322   -3.0765 H   0  0  0  0  0  0  0  0  0  0  0  0
    2.1017    1.9085   -3.0060 H   0  0  0  0  0  0  0  0  0  0  0  0
    2.9461    0.9960   -1.7407 H   0  0  0  0  0  0  0  0  0  0  0  0
   -0.3209    0.9400   -2.5080 O   0  0  0  0  0  0  0  0  0  0  0  0
   -0.2655    1.7213   -3.0866 H   0  0  0  0  0  0  0  0  0  0  0  0
    1.2320    0.0521    0.7336 C   0  0  0  0  0  0  0  0  0  0  0  0
    2.4271    0.0460    1.0010 O   0  0  0  0  0  0  0  0  0  0  0  0
    0.3496    0.6643    1.6064 N   0  0  0  0  0  0  0  0  0  0  0  0
   -0.6358    0.5709    1.3794 H   0  0  0  0  0  0  0  0  0  0  0  0
    0.7219    1.0637    2.9575 C   0  0  0  0  0  0  0  0  0  0  0  0
    1.5535    1.7757    2.9322 H   0  0  0  0  0  0  0  0  0  0  0  0
   -0.1254    1.5429    3.4567 H   0  0  0  0  0  0  0  0  0  0  0  0
    1.0232    0.1900    3.5448 H   0  0  0  0  0  0  0  0  0  0  0  0
  1  2  1  0  0  0  0
  2  3  1  0  0  0  0
  2  4  1  0  0  0  0
  2  5  1  0  0  0  0
  5  6  2  0  0  0  0
  5  7  1  0  0  0  0
  7  8  1  0  0  0  0
  7  9  1  0  0  0  0
  9 10  1  0  0  0  0
  9 11  1  0  0  0  0
  9 19  1  0  0  0  0
 11 12  1  0  0  0  0
 11 13  1  0  0  0  0
 11 17  1  0  0  0  0
 13 14  1  0  0  0  0
 13 15  1  0  0  0  0
 13 16  1  0  0  0  0
 17 18  1  0  0  0  0
 19 20  2  0  0  0  0
 19 21  1  0  0  0  0
 21 22  1  0  0  0  0
 21 23  1  0  0  0  0
 23 24  1  0  0  0  0
 23 25  1  0  0  0  0
 23 26  1  0  0  0  0
M  END
$$$$

  -OEChem-04042216033D

 26 25  0     1  0  0  0  0  0999 V2000
   -2.2962   -3.7640    0.1291 H   0  0  0  0  0  0  0  0  0  0  0  0
   -2.2153   -2.8121   -0.4034 C   0  0  0  0  0  0  0  0  0  0  0  0
   -3.0055   -2.1438   -0.0533 H   0  0  0  0  0  0  0  0  0  0  0  0
   -2.3487   -2.9954   -1.4723 H   0  0  0  0  0  0  0  0  0  0  0  0
   -0.8570   -2.1859   -0.1506 C   0  0  0  0  0  0  0  0  0  0  0  0
   -0.0647   -2.7292    0.5988 O   0  0  0  0  0  0  0  0  0  0  0  0
   -0.5259   -0.9987   -0.7670 N   0  0  0  0  0  0  0  0  0  0  0  0
   -1.1916   -0.6004   -1.4279 H   0  0  0  0  0  0  0  0  0  0  0  0
    0.7887   -0.3355   -0.6948 C   0  0  1  0  0  0  0  0  0  0  0  0
    1.5327   -1.0489   -1.0649 H   0  0  0  0  0  0  0  0  0  0  0  0
    0.8018    0.9284   -1.5953 C   0  0  1  0  0  0  0  0  0  0  0  0
    1.0126    1.8135   -0.9839 H   0  0  0  0  0  0  0  0  0  0  0  0
    1.8811    0.8166   -2.6699 C   0  0  0  0  0  0  0  0  0  0  0  0
    1.6879   -0.0424   -3.3202 H   0  0  0  0  0  0  0  0  0  0  0  0
    1.9057    1.7225   -3.2825 H   0  0  0  0  0  0  0  0  0  0  0  0
    2.8646    0.6892   -2.2061 H   0  0  0  0  0  0  0  0  0  0  0  0
   -0.4561    1.1287   -2.2632 O   0  0  0  0  0  0  0  0  0  0  0  0
   -0.4147    1.9268   -2.8197 H   0  0  0  0  0  0  0  0  0  0  0  0
    1.2330    0.0484    0.7292 C   0  0  0  0  0  0  0  0  0  0  0  0
    2.4247    0.0511    1.0112 O   0  0  0  0  0  0  0  0  0  0  0  0
    0.3344    0.6492    1.5931 N   0  0  0  0  0  0  0  0  0  0  0  0
   -0.6464    0.5699    1.3429 H   0  0  0  0  0  0  0  0  0  0  0  0
    0.6827    1.0426    2.9521 C   0  0  0  0  0  0  0  0  0  0  0  0
    1.5112    1.7587    2.9451 H   0  0  0  0  0  0  0  0  0  0  0  0
   -0.1751    1.5146    3.4405 H   0  0  0  0  0  0  0  0  0  0  0  0
    0.9786    0.1664    3.5386 H   0  0  0  0  0  0  0  0  0  0  0  0
  1  2  1  0  0  0  0
  2  3  1  0  0  0  0
  2  4  1  0  0  0  0
  2  5  1  0  0  0  0
  5  6  2  0  0  0  0
  5  7  1  0  0  0  0
  7  8  1  0  0  0  0
  7  9  1  0  0  0  0
  9 10  1  0  0  0  0
  9 11  1  0  0  0  0
  9 19  1  0  0  0  0
 11 12  1  0  0  0  0
 11 13  1  0  0  0  0
 11 17  1  0  0  0  0
 13 14  1  0  0  0  0
 13 15  1  0  0  0  0
 13 16  1  0  0  0  0
 17 18  1  0  0  0  0
 19 20  2  0  0  0  0
 19 21  1  0  0  0  0
 21 22  1  0  0  0  0
 21 23  1  0  0  0  0
 23 24  1  0  0  0  0
 23 25  1  0  0  0  0
 23 26  1  0  0  0  0
M  END
$$$$

  -OEChem-04042216033D

 26 25  0     1  0  0  0  0  0999 V2000
   -2.3028   -3.7284    0.1762 H   0  0  0  0  0  0  0  0  0  0  0  0
   -2.2145   -2.7806   -0.3623 C   0  0  0  0  0  0  0  0  0  0  0  0
   -2.9592   -2.0828    0.0277 H   0  0  0  0  0  0  0  0  0  0  0  0
   -2.4109   -2.9592   -1.4223 H   0  0  0  0  0  0  0  0  0  0  0  0
   -0.8216   -2.2069   -0.1834 C   0  0  0  0  0  0  0  0  0  0  0  0
   -0.0030   -2.7951    0.5009 O   0  0  0  0  0  0  0  0  0  0  0  0
   -0.4859   -1.0196   -0.7974 N   0  0  0  0  0  0  0  0  0  0  0  0
   -1.1952   -0.5483   -1.3565 H   0  0  0  0  0  0  0  0  0  0  0  0
    0.8261   -0.3526   -0.7093 C   0  0  1  0  0  0  0  0  0  0  0  0
    1.5892   -1.0487   -1.0736 H   0  0  0  0  0  0  0  0  0  0  0  0
    0.8281    0.9253   -1.5869 C   0  0  1  0  0  0  0  0  0  0  0  0
    1.3085    1.7494   -1.0462 H   0  0  0  0  0  0  0  0  0  0  0  0
    1.6021    0.6825   -2.8810 C   0  0  0  0  0  0  0  0  0  0  0  0
    1.1481   -0.1339   -3.4515 H   0  0  0  0  0  0  0  0  0  0  0  0
    1.6053    1.5850   -3.4993 H   0  0  0  0  0  0  0  0  0  0  0  0
    2.6404    0.4171   -2.6581 H   0  0  0  0  0  0  0  0  0  0  0  0
   -0.5035    1.3165   -1.9644 O   0  0  0  0  0  0  0  0  0  0  0  0
   -0.4735    2.1304   -2.4985 H   0  0  0  0  0  0  0  0  0  0  0  0
    1.2360    0.0283    0.7258 C   0  0  0  0  0  0  0  0  0  0  0  0
    2.4181    0.0111    1.0450 O   0  0  0  0  0  0  0  0  0  0  0  0
    0.3172    0.6237    1.5720 N   0  0  0  0  0  0  0  0  0  0  0  0
   -0.6532    0.6010    1.2742 H   0  0  0  0  0  0  0  0  0  0  0  0
    0.6313    1.0283    2.9360 C   0  0  0  0  0  0  0  0  0  0  0  0
    1.4514    1.7538    2.9434 H   0  0  0  0  0  0  0  0  0  0  0  0
   -0.2424    1.4924    3.4033 H   0  0  0  0  0  0  0  0  0  0  0  0
    0.9245    0.1586    3.5333 H   0  0  0  0  0  0  0  0  0  0  0  0
  1  2  1  0  0  0  0
  2  3  1  0  0  0  0
  2  4  1  0  0  0  0
  2  5  1  0  0  0  0
  5  6  2  0  0  0  0
  5  7  1  0  0  0  0
  7  8  1  0  0  0  0
  7  9  1  0  0  0  0
  9 10  1  0  0  0  0
  9 11  1  0  0  0  0
  9 19  1  0  0  0  0
 11 12  1  0  0  0  0
 11 13  1  0  0  0  0
 11 17  1  0  0  0  0
 13 14  1  0  0  0  0
 13 15  1  0  0  0  0
 13 16  1  0  0  0  0
 17 18  1  0  0  0  0
 19 20  2  0  0  0  0
 19 21  1  0  0  0  0
 21 22  1  0  0  0  0
 21 23  1  0  0  0  0
 23 24  1  0  0  0  0
 23 25  1  0  0  0  0
 23 26  1  0  0  0  0
M  END
$$$$

  -OEChem-04042216033D

 26 25  0     1  0  0  0  0  0999 V2000
   -2.3092   -3.7080    0.2001 H   0  0  0  0  0  0  0  0  0  0  0  0
   -2.2182   -2.7604   -0.3384 C   0  0  0  0  0  0  0  0  0  0  0  0
   -2.9226   -2.0434    0.0897 H   0  0  0  0  0  0  0  0  0  0  0  0
   -2.4695   -2.9269   -1.3887 H   0  0  0  0  0  0  0  0  0  0  0  0
   -0.8017   -2.2299   -0.2232 C   0  0  0  0  0  0  0  0  0  0  0  0
    0.0349   -2.8578    0.4014 O   0  0  0  0  0  0  0  0  0  0  0  0
   -0.4640   -1.0397   -0.8310 N   0  0  0  0  0  0  0  0  0  0  0  0
   -1.2020   -0.5116   -1.2924 H   0  0  0  0  0  0  0  0  0  0  0  0
    0.8478   -0.3754   -0.7198 C   0  0  1  0  0  0  0  0  0  0  0  0
    1.6225   -1.0580   -1.0852 H   0  0  0  0  0  0  0  0  0  0  0  0
    0.8450    0.9103   -1.5755 C   0  0  1  0  0  0  0  0  0  0  0  0
    1.5426    1.6416   -1.1505 H   0  0  0  0  0  0  0  0  0  0  0  0
    1.2792    0.5990   -3.0062 C   0  0  0  0  0  0  0  0  0  0  0  0
    0.6061   -0.1343   -3.4615 H   0  0  0  0  0  0  0  0  0  0  0  0
    1.2703    1.5088   -3.6137 H   0  0  0  0  0  0  0  0  0  0  0  0
    2.2950    0.1914   -3.0146 H   0  0  0  0  0  0  0  0  0  0  0  0
   -0.4728    1.4786   -1.6527 O   0  0  0  0  0  0  0  0  0  0  0  0
   -0.4471    2.3139   -2.1532 H   0  0  0  0  0  0  0  0  0  0  0  0
    1.2341   -0.0023    0.7239 C   0  0  0  0  0  0  0  0  0  0  0  0
    2.4077   -0.0428    1.0712 O   0  0  0  0  0  0  0  0  0  0  0  0
    0.3034    0.5909    1.5582 N   0  0  0  0  0  0  0  0  0  0  0  0
   -0.6477    0.6573    1.2088 H   0  0  0  0  0  0  0  0  0  0  0  0
    0.6029    1.0391    2.9114 C   0  0  0  0  0  0  0  0  0  0  0  0
    1.3980    1.7920    2.8991 H   0  0  0  0  0  0  0  0  0  0  0  0
   -0.2865    1.4836    3.3679 H   0  0  0  0  0  0  0  0  0  0  0  0
    0.9252    0.1949    3.5300 H   0  0  0  0  0  0  0  0  0  0  0  0
  1  2  1  0  0  0  0
  2  3  1  0  0  0  0
  2  4  1  0  0  0  0
  2  5  1  0  0  0  0
  5  6  2  0  0  0  0
  5  7  1  0  0  0  0
  7  8  1  0  0  0  0
  7  9  1  0  0  0  0
  9 10  1  0  0  0  0
  9 11  1  0  0  0  0
  9 19  1  0  0  0  0
 11 12  1  0  0  0  0
 11 13  1  0  0  0  0
 11 17  1  0  0  0  0
 13 14  1  0  0  0  0
 13 15  1  0  0  0  0
 13 16  1  0  0  0  0
 17 18  1  0  0  0  0
 19 20  2  0  0  0  0
 19 21  1  0  0  0  0
 21 22  1  0  0  0  0
 21 23  1  0  0  0  0
 23 24  1  0  0  0  0
 23 25  1  0  0  0  0
 23 26  1  0  0  0  0
M  END
$$$$

  -OEChem-04042216033D

 26 25  0     1  0  0  0  0  0999 V2000
   -2.3167   -3.7196    0.1970 H   0  0  0  0  0  0  0  0  0  0  0  0
   -2.2326   -2.7620   -0.3245 C   0  0  0  0  0  0  0  0  0  0  0  0
   -2.9042   -2.0428    0.1504 H   0  0  0  0  0  0  0  0  0  0  0  0
   -2.5334   -2.9006   -1.3658 H   0  0  0  0  0  0  0  0  0  0  0  0
   -0.8029   -2.2583   -0.2619 C   0  0  0  0  0  0  0  0  0  0  0  0
    0.0505   -2.9171    0.3056 O   0  0  0  0  0  0  0  0  0  0  0  0
   -0.4722   -1.0591   -0.8563 N   0  0  0  0  0  0  0  0  0  0  0  0
   -1.2298   -0.4982   -1.2383 H   0  0  0  0  0  0  0  0  0  0  0  0
    0.8381   -0.3960   -0.7210 C   0  0  1  0  0  0  0  0  0  0  0  0
    1.6156   -1.0711   -1.0940 H   0  0  0  0  0  0  0  0  0  0  0  0
    0.8401    0.8910   -1.5661 C   0  0  1  0  0  0  0  0  0  0  0  0
    1.6959    1.5113   -1.2748 H   0  0  0  0  0  0  0  0  0  0  0  0
    0.9560    0.5734   -3.0564 C   0  0  0  0  0  0  0  0  0  0  0  0
    0.1075   -0.0300   -3.3927 H   0  0  0  0  0  0  0  0  0  0  0  0
    0.9808    1.4982   -3.6403 H   0  0  0  0  0  0  0  0  0  0  0  0
    1.8777    0.0178   -3.2551 H   0  0  0  0  0  0  0  0  0  0  0  0
   -0.3796    1.6211   -1.3655 O   0  0  0  0  0  0  0  0  0  0  0  0
   -0.3388    2.4748   -1.8328 H   0  0  0  0  0  0  0  0  0  0  0  0
    1.2181   -0.0366    0.7281 C   0  0  0  0  0  0  0  0  0  0  0  0
    2.3880   -0.0960    1.0850 O   0  0  0  0  0  0  0  0  0  0  0  0
    0.2853    0.5499    1.5650 N   0  0  0  0  0  0  0  0  0  0  0  0
   -0.6291    0.7352    1.1636 H   0  0  0  0  0  0  0  0  0  0  0  0
    0.6033    1.0695    2.8881 C   0  0  0  0  0  0  0  0  0  0  0  0
    1.3313    1.8840    2.8150 H   0  0  0  0  0  0  0  0  0  0  0  0
   -0.3005    1.4534    3.3705 H   0  0  0  0  0  0  0  0  0  0  0  0
    1.0212    0.2780    3.5190 H   0  0  0  0  0  0  0  0  0  0  0  0
  1  2  1  0  0  0  0
  2  3  1  0  0  0  0
  2  4  1  0  0  0  0
  2  5  1  0  0  0  0
  5  6  2  0  0  0  0
  5  7  1  0  0  0  0
  7  8  1  0  0  0  0
  7  9  1  0  0  0  0
  9 10  1  0  0  0  0
  9 11  1  0  0  0  0
  9 19  1  0  0  0  0
 11 12  1  0  0  0  0
 11 13  1  0  0  0  0
 11 17  1  0  0  0  0
 13 14  1  0  0  0  0
 13 15  1  0  0  0  0
 13 16  1  0  0  0  0
 17 18  1  0  0  0  0
 19 20  2  0  0  0  0
 19 21  1  0  0  0  0
 21 22  1  0  0  0  0
 21 23  1  0  0  0  0
 23 24  1  0  0  0  0
 23 25  1  0  0  0  0
 23 26  1  0  0  0  0
M  END
$$$$

  -OEChem-04042216033D

 26 25  0     1  0  0  0  0  0999 V2000
   -2.3032   -3.7444    0.2058 H   0  0  0  0  0  0  0  0  0  0  0  0
   -2.2380   -2.7811   -0.3081 C   0  0  0  0  0  0  0  0  0  0  0  0
   -2.9045   -2.0723    0.1889 H   0  0  0  0  0  0  0  0  0  0  0  0
   -2.5606   -2.9120   -1.3437 H   0  0  0  0  0  0  0  0  0  0  0  0
   -0.8115   -2.2660   -0.2711 C   0  0  0  0  0  0  0  0  0  0  0  0
    0.0600   -2.9270    0.2653 O   0  0  0  0  0  0  0  0  0  0  0  0
   -0.5049   -1.0546   -0.8546 N   0  0  0  0  0  0  0  0  0  0  0  0
   -1.2797   -0.4968   -1.2028 H   0  0  0  0  0  0  0  0  0  0  0  0
    0.7988   -0.3781   -0.7155 C   0  0  1  0  0  0  0  0  0  0  0  0
    1.5724   -1.0558   -1.0925 H   0  0  0  0  0  0  0  0  0  0  0  0
    0.8149    0.8938   -1.5813 C   0  0  1  0  0  0  0  0  0  0  0  0
    1.7850    1.3861   -1.4468 H   0  0  0  0  0  0  0  0  0  0  0  0
    0.6350    0.5865   -3.0686 C   0  0  0  0  0  0  0  0  0  0  0  0
   -0.3534    0.1607   -3.2652 H   0  0  0  0  0  0  0  0  0  0  0  0
    0.7427    1.5013   -3.6588 H   0  0  0  0  0  0  0  0  0  0  0  0
    1.3942   -0.1280   -3.4016 H   0  0  0  0  0  0  0  0  0  0  0  0
   -0.2261    1.7879   -1.1676 O   0  0  0  0  0  0  0  0  0  0  0  0
   -0.1338    2.6443   -1.6221 H   0  0  0  0  0  0  0  0  0  0  0  0
    1.1960   -0.0259    0.7319 C   0  0  0  0  0  0  0  0  0  0  0  0
    2.3687   -0.1015    1.0774 O   0  0  0  0  0  0  0  0  0  0  0  0
    0.2730    0.5446    1.5906 N   0  0  0  0  0  0  0  0  0  0  0  0
   -0.6217    0.7941    1.1796 H   0  0  0  0  0  0  0  0  0  0  0  0
    0.6177    1.0648    2.9069 C   0  0  0  0  0  0  0  0  0  0  0  0
    1.3235    1.8969    2.8172 H   0  0  0  0  0  0  0  0  0  0  0  0
   -0.2807    1.4235    3.4181 H   0  0  0  0  0  0  0  0  0  0  0  0
    1.0728    0.2803    3.5207 H   0  0  0  0  0  0  0  0  0  0  0  0
  1  2  1  0  0  0  0
  2  3  1  0  0  0  0
  2  4  1  0  0  0  0
  2  5  1  0  0  0  0
  5  6  2  0  0  0  0
  5  7  1  0  0  0  0
  7  8  1  0  0  0  0
  7  9  1  0  0  0  0
  9 10  1  0  0  0  0
  9 11  1  0  0  0  0
  9 19  1  0  0  0  0
 11 12  1  0  0  0  0
 11 13  1  0  0  0  0
 11 17  1  0  0  0  0
 13 14  1  0  0  0  0
 13 15  1  0  0  0  0
 13 16  1  0  0  0  0
 17 18  1  0  0  0  0
 19 20  2  0  0  0  0
 19 21  1  0  0  0  0
 21 22  1  0  0  0  0
 21 23  1  0  0  0  0
 23 24  1  0  0  0  0
 23 25  1  0  0  0  0
 23 26  1  0  0  0  0
M  END
$$$$

  -OEChem-04042216033D

 26 25  0     1  0  0  0  0  0999 V2000
   -2.2838   -3.7752    0.2125 H   0  0  0  0  0  0  0  0  0  0  0  0
   -2.2411   -2.8071   -0.2949 C   0  0  0  0  0  0  0  0  0  0  0  0
   -2.9159   -2.1145    0.2136 H   0  0  0  0  0  0  0  0  0  0  0  0
   -2.5712   -2.9371   -1.3284 H   0  0  0  0  0  0  0  0  0  0  0  0
   -0.8236   -2.2667   -0.2672 C   0  0  0  0  0  0  0  0  0  0  0  0
    0.0654   -2.9210    0.2480 O   0  0  0  0  0  0  0  0  0  0  0  0
   -0.5453   -1.0413   -0.8367 N   0  0  0  0  0  0  0  0  0  0  0  0
   -1.3347   -0.4975   -1.1718 H   0  0  0  0  0  0  0  0  0  0  0  0
    0.7510   -0.3475   -0.7032 C   0  0  1  0  0  0  0  0  0  0  0  0
    1.5167   -1.0315   -1.0850 H   0  0  0  0  0  0  0  0  0  0  0  0
    0.7886    0.9100   -1.5944 C   0  0  1  0  0  0  0  0  0  0  0  0
    1.8301    1.2495   -1.6311 H   0  0  0  0  0  0  0  0  0  0  0  0
    0.3245    0.6509   -3.0291 C   0  0  0  0  0  0  0  0  0  0  0  0
   -0.7445    0.4218   -3.0626 H   0  0  0  0  0  0  0  0  0  0  0  0
    0.5078    1.5340   -3.6481 H   0  0  0  0  0  0  0  0  0  0  0  0
    0.8764   -0.1908   -3.4590 H   0  0  0  0  0  0  0  0  0  0  0  0
   -0.0036    1.9591   -1.0276 O   0  0  0  0  0  0  0  0  0  0  0  0
    0.1633    2.7984   -1.4923 H   0  0  0  0  0  0  0  0  0  0  0  0
    1.1728   -0.0070    0.7411 C   0  0  0  0  0  0  0  0  0  0  0  0
    2.3510   -0.0920    1.0661 O   0  0  0  0  0  0  0  0  0  0  0  0
    0.2632    0.5403    1.6294 N   0  0  0  0  0  0  0  0  0  0  0  0
   -0.6289    0.8188    1.2324 H   0  0  0  0  0  0  0  0  0  0  0  0
    0.6387    1.0491    2.9417 C   0  0  0  0  0  0  0  0  0  0  0  0
    1.3307    1.8917    2.8424 H   0  0  0  0  0  0  0  0  0  0  0  0
   -0.2490    1.3894    3.4831 H   0  0  0  0  0  0  0  0  0  0  0  0
    1.1214    0.2636    3.5325 H   0  0  0  0  0  0  0  0  0  0  0  0
  1  2  1  0  0  0  0
  2  3  1  0  0  0  0
  2  4  1  0  0  0  0
  2  5  1  0  0  0  0
  5  6  2  0  0  0  0
  5  7  1  0  0  0  0
  7  8  1  0  0  0  0
  7  9  1  0  0  0  0
  9 10  1  0  0  0  0
  9 11  1  0  0  0  0
  9 19  1  0  0  0  0
 11 12  1  0  0  0  0
 11 13  1  0  0  0  0
 11 17  1  0  0  0  0
 13 14  1  0  0  0  0
 13 15  1  0  0  0  0
 13 16  1  0  0  0  0
 17 18  1  0  0  0  0
 19 20  2  0  0  0  0
 19 21  1  0  0  0  0
 21 22  1  0  0  0  0
 21 23  1  0  0  0  0
 23 24  1  0  0  0  0
 23 25  1  0  0  0  0
 23 26  1  0  0  0  0
M  END
$$$$

  -OEChem-04042216033D

 26 25  0     1  0  0  0  0  0999 V2000
   -2.2668   -3.8012    0.2082 H   0  0  0  0  0  0  0  0  0  0  0  0
   -2.2416   -2.8255   -0.2856 C   0  0  0  0  0  0  0  0  0  0  0  0
   -2.9269   -2.1516    0.2338 H   0  0  0  0  0  0  0  0  0  0  0  0
   -2.5720   -2.9465   -1.3199 H   0  0  0  0  0  0  0  0  0  0  0  0
   -0.8334   -2.2616   -0.2531 C   0  0  0  0  0  0  0  0  0  0  0  0
    0.0668   -2.9076    0.2524 O   0  0  0  0  0  0  0  0  0  0  0  0
   -0.5770   -1.0248   -0.8091 N   0  0  0  0  0  0  0  0  0  0  0  0
   -1.3756   -0.4975   -1.1474 H   0  0  0  0  0  0  0  0  0  0  0  0
    0.7140   -0.3166   -0.6859 C   0  0  1  0  0  0  0  0  0  0  0  0
    1.4712   -1.0087   -1.0703 H   0  0  0  0  0  0  0  0  0  0  0  0
    0.7736    0.9294   -1.6012 C   0  0  1  0  0  0  0  0  0  0  0  0
    1.8328    1.1007   -1.8247 H   0  0  0  0  0  0  0  0  0  0  0  0
    0.0356    0.7682   -2.9324 C   0  0  0  0  0  0  0  0  0  0  0  0
   -1.0466    0.7240   -2.7793 H   0  0  0  0  0  0  0  0  0  0  0  0
    0.2555    1.6160   -3.5879 H   0  0  0  0  0  0  0  0  0  0  0  0
    0.3587   -0.1479   -3.4367 H   0  0  0  0  0  0  0  0  0  0  0  0
    0.2839    2.0966   -0.9352 O   0  0  0  0  0  0  0  0  0  0  0  0
    0.5194    2.8985   -1.4344 H   0  0  0  0  0  0  0  0  0  0  0  0
    1.1571    0.0105    0.7560 C   0  0  0  0  0  0  0  0  0  0  0  0
    2.3392   -0.0845    1.0645 O   0  0  0  0  0  0  0  0  0  0  0  0
    0.2580    0.5355    1.6687 N   0  0  0  0  0  0  0  0  0  0  0  0
   -0.6414    0.8174    1.2926 H   0  0  0  0  0  0  0  0  0  0  0  0
    0.6557    1.0280    2.9807 C   0  0  0  0  0  0  0  0  0  0  0  0
    1.3236    1.8896    2.8792 H   0  0  0  0  0  0  0  0  0  0  0  0
   -0.2255    1.3346    3.5521 H   0  0  0  0  0  0  0  0  0  0  0  0
    1.1741    0.2438    3.5425 H   0  0  0  0  0  0  0  0  0  0  0  0
  1  2  1  0  0  0  0
  2  3  1  0  0  0  0
  2  4  1  0  0  0  0
  2  5  1  0  0  0  0
  5  6  2  0  0  0  0
  5  7  1  0  0  0  0
  7  8  1  0  0  0  0
  7  9  1  0  0  0  0
  9 10  1  0  0  0  0
  9 11  1  0  0  0  0
  9 19  1  0  0  0  0
 11 12  1  0  0  0  0
 11 13  1  0  0  0  0
 11 17  1  0  0  0  0
 13 14  1  0  0  0  0
 13 15  1  0  0  0  0
 13 16  1  0  0  0  0
 17 18  1  0  0  0  0
 19 20  2  0  0  0  0
 19 21  1  0  0  0  0
 21 22  1  0  0  0  0
 21 23  1  0  0  0  0
 23 24  1  0  0  0  0
 23 25  1  0  0  0  0
 23 26  1  0  0  0  0
M  END
$$$$

  -OEChem-04042216033D

 26 25  0     1  0  0  0  0  0999 V2000
   -2.2471   -3.8060    0.2250 H   0  0  0  0  0  0  0  0  0  0  0  0
   -2.2298   -2.8316   -0.2718 C   0  0  0  0  0  0  0  0  0  0  0  0
   -2.9287   -2.1654    0.2392 H   0  0  0  0  0  0  0  0  0  0  0  0
   -2.5487   -2.9606   -1.3087 H   0  0  0  0  0  0  0  0  0  0  0  0
   -0.8294   -2.2493   -0.2278 C   0  0  0  0  0  0  0  0  0  0  0  0
    0.0748   -2.8847    0.2835 O   0  0  0  0  0  0  0  0  0  0  0  0
   -0.5852   -1.0093   -0.7831 N   0  0  0  0  0  0  0  0  0  0  0  0
   -1.3852   -0.5011   -1.1454 H   0  0  0  0  0  0  0  0  0  0  0  0
    0.7038   -0.2923   -0.6753 C   0  0  1  0  0  0  0  0  0  0  0  0
    1.4566   -0.9906   -1.0571 H   0  0  0  0  0  0  0  0  0  0  0  0
    0.7752    0.9460   -1.6106 C   0  0  1  0  0  0  0  0  0  0  0  0
    1.7824    0.9465   -2.0420 H   0  0  0  0  0  0  0  0  0  0  0  0
   -0.2256    0.9390   -2.7695 C   0  0  0  0  0  0  0  0  0  0  0  0
   -1.2500    1.0470   -2.4012 H   0  0  0  0  0  0  0  0  0  0  0  0
   -0.0160    1.7691   -3.4506 H   0  0  0  0  0  0  0  0  0  0  0  0
   -0.1467    0.0054   -3.3354 H   0  0  0  0  0  0  0  0  0  0  0  0
    0.6248    2.1752   -0.8965 O   0  0  0  0  0  0  0  0  0  0  0  0
    0.9065    2.9287   -1.4441 H   0  0  0  0  0  0  0  0  0  0  0  0
    1.1547    0.0294    0.7667 C   0  0  0  0  0  0  0  0  0  0  0  0
    2.3341   -0.0900    1.0779 O   0  0  0  0  0  0  0  0  0  0  0  0
    0.2580    0.5429    1.6889 N   0  0  0  0  0  0  0  0  0  0  0  0
   -0.6499    0.8157    1.3287 H   0  0  0  0  0  0  0  0  0  0  0  0
    0.6547    0.9952    3.0154 C   0  0  0  0  0  0  0  0  0  0  0  0
    1.3435    1.8430    2.9403 H   0  0  0  0  0  0  0  0  0  0  0  0
   -0.2243    1.3094    3.5861 H   0  0  0  0  0  0  0  0  0  0  0  0
    1.1490    0.1858    3.5630 H   0  0  0  0  0  0  0  0  0  0  0  0
  1  2  1  0  0  0  0
  2  3  1  0  0  0  0
  2  4  1  0  0  0  0
  2  5  1  0  0  0  0
  5  6  2  0  0  0  0
  5  7  1  0  0  0  0
  7  8  1  0  0  0  0
  7  9  1  0  0  0  0
  9 10  1  0  0  0  0
  9 11  1  0  0  0  0
  9 19  1  0  0  0  0
 11 12  1  0  0  0  0
 11 13  1  0  0  0  0
 11 17  1  0  0  0  0
 13 14  1  0  0  0  0
 13 15  1  0  0  0  0
 13 16  1  0  0  0  0
 17 18  1  0  0  0  0
 19 20  2  0  0  0  0
 19 21  1  0  0  0  0
 21 22  1  0  0  0  0
 21 23  1  0  0  0  0
 23 24  1  0  0  0  0
 23 25  1  0  0  0  0
 23 26  1  0  0  0  0
M  END
$$$$

  -OEChem-04042216033D

 26 25  0     1  0  0  0  0  0999 V2000
   -2.2336   -3.7918    0.2520 H   0  0  0  0  0  0  0  0  0  0  0  0
   -2.2130   -2.8232   -0.2561 C   0  0  0  0  0  0  0  0  0  0  0  0
   -2.9185   -2.1522    0.2395 H   0  0  0  0  0  0  0  0  0  0  0  0
   -2.5206   -2.9650   -1.2949 H   0  0  0  0  0  0  0  0  0  0  0  0
   -0.8143   -2.2379   -0.2038 C   0  0  0  0  0  0  0  0  0  0  0  0
    0.0855   -2.8670    0.3221 O   0  0  0  0  0  0  0  0  0  0  0  0
   -0.5676   -1.0033   -0.7701 N   0  0  0  0  0  0  0  0  0  0  0  0
   -1.3619   -0.5113   -1.1651 H   0  0  0  0  0  0  0  0  0  0  0  0
    0.7246   -0.2879   -0.6755 C   0  0  1  0  0  0  0  0  0  0  0  0
    1.4803   -0.9879   -1.0484 H   0  0  0  0  0  0  0  0  0  0  0  0
    0.7954    0.9493   -1.6220 C   0  0  1  0  0  0  0  0  0  0  0  0
    1.6645    0.7957   -2.2713 H   0  0  0  0  0  0  0  0  0  0  0  0
   -0.4273    1.1537   -2.5231 C   0  0  0  0  0  0  0  0  0  0  0  0
   -1.3194    1.3615   -1.9244 H   0  0  0  0  0  0  0  0  0  0  0  0
   -0.2594    1.9999   -3.1961 H   0  0  0  0  0  0  0  0  0  0  0  0
   -0.6056    0.2654   -3.1371 H   0  0  0  0  0  0  0  0  0  0  0  0
    1.0008    2.1743   -0.9147 O   0  0  0  0  0  0  0  0  0  0  0  0
    1.2740    2.8846   -1.5208 H   0  0  0  0  0  0  0  0  0  0  0  0
    1.1641    0.0349    0.7714 C   0  0  0  0  0  0  0  0  0  0  0  0
    2.3335   -0.1166    1.1059 O   0  0  0  0  0  0  0  0  0  0  0  0
    0.2594    0.5512    1.6848 N   0  0  0  0  0  0  0  0  0  0  0  0
   -0.6545    0.8047    1.3273 H   0  0  0  0  0  0  0  0  0  0  0  0
    0.6353    0.9695    3.0285 C   0  0  0  0  0  0  0  0  0  0  0  0
    1.3569    1.7919    2.9849 H   0  0  0  0  0  0  0  0  0  0  0  0
   -0.2468    1.3090    3.5795 H   0  0  0  0  0  0  0  0  0  0  0  0
    1.0840    0.1345    3.5770 H   0  0  0  0  0  0  0  0  0  0  0  0
  1  2  1  0  0  0  0
  2  3  1  0  0  0  0
  2  4  1  0  0  0  0
  2  5  1  0  0  0  0
  5  6  2  0  0  0  0
  5  7  1  0  0  0  0
  7  8  1  0  0  0  0
  7  9  1  0  0  0  0
  9 10  1  0  0  0  0
  9 11  1  0  0  0  0
  9 19  1  0  0  0  0
 11 12  1  0  0  0  0
 11 13  1  0  0  0  0
 11 17  1  0  0  0  0
 13 14  1  0  0  0  0
 13 15  1  0  0  0  0
 13 16  1  0  0  0  0
 17 18  1  0  0  0  0
 19 20  2  0  0  0  0
 19 21  1  0  0  0  0
 21 22  1  0  0  0  0
 21 23  1  0  0  0  0
 23 24  1  0  0  0  0
 23 25  1  0  0  0  0
 23 26  1  0  0  0  0
M  END
$$$$

  -OEChem-04042216033D

 26 25  0     1  0  0  0  0  0999 V2000
   -2.2284   -3.7652    0.2842 H   0  0  0  0  0  0  0  0  0  0  0  0
   -2.1968   -2.8047   -0.2384 C   0  0  0  0  0  0  0  0  0  0  0  0
   -2.9038   -2.1223    0.2394 H   0  0  0  0  0  0  0  0  0  0  0  0
   -2.4947   -2.9611   -1.2779 H   0  0  0  0  0  0  0  0  0  0  0  0
   -0.7949   -2.2267   -0.1808 C   0  0  0  0  0  0  0  0  0  0  0  0
    0.0930   -2.8500    0.3710 O   0  0  0  0  0  0  0  0  0  0  0  0
   -0.5326   -1.0073   -0.7733 N   0  0  0  0  0  0  0  0  0  0  0  0
   -1.3167   -0.5270   -1.2016 H   0  0  0  0  0  0  0  0  0  0  0  0
    0.7671   -0.3012   -0.6920 C   0  0  1  0  0  0  0  0  0  0  0  0
    1.5313   -0.9978   -1.0535 H   0  0  0  0  0  0  0  0  0  0  0  0
    0.8233    0.9380   -1.6403 C   0  0  1  0  0  0  0  0  0  0  0  0
    1.4647    0.6695   -2.4872 H   0  0  0  0  0  0  0  0  0  0  0  0
   -0.5342    1.3856   -2.1956 C   0  0  0  0  0  0  0  0  0  0  0  0
   -1.2228    1.6268   -1.3798 H   0  0  0  0  0  0  0  0  0  0  0  0
   -0.4114    2.2772   -2.8182 H   0  0  0  0  0  0  0  0  0  0  0  0
   -0.9755    0.6022   -2.8191 H   0  0  0  0  0  0  0  0  0  0  0  0
    1.3768    2.0924   -1.0061 O   0  0  0  0  0  0  0  0  0  0  0  0
    1.5942    2.7811   -1.6573 H   0  0  0  0  0  0  0  0  0  0  0  0
    1.1827    0.0384    0.7593 C   0  0  0  0  0  0  0  0  0  0  0  0
    2.3354   -0.1472    1.1325 O   0  0  0  0  0  0  0  0  0  0  0  0
    0.2636    0.5749    1.6467 N   0  0  0  0  0  0  0  0  0  0  0  0
   -0.6568    0.7930    1.2837 H   0  0  0  0  0  0  0  0  0  0  0  0
    0.5999    0.9549    3.0121 C   0  0  0  0  0  0  0  0  0  0  0  0
    1.3582    1.7449    3.0135 H   0  0  0  0  0  0  0  0  0  0  0  0
   -0.2886    1.3252    3.5321 H   0  0  0  0  0  0  0  0  0  0  0  0
    0.9881    0.0919    3.5636 H   0  0  0  0  0  0  0  0  0  0  0  0
  1  2  1  0  0  0  0
  2  3  1  0  0  0  0
  2  4  1  0  0  0  0
  2  5  1  0  0  0  0
  5  6  2  0  0  0  0
  5  7  1  0  0  0  0
  7  8  1  0  0  0  0
  7  9  1  0  0  0  0
  9 10  1  0  0  0  0
  9 11  1  0  0  0  0
  9 19  1  0  0  0  0
 11 12  1  0  0  0  0
 11 13  1  0  0  0  0
 11 17  1  0  0  0  0
 13 14  1  0  0  0  0
 13 15  1  0  0  0  0
 13 16  1  0  0  0  0
 17 18  1  0  0  0  0
 19 20  2  0  0  0  0
 19 21  1  0  0  0  0
 21 22  1  0  0  0  0
 21 23  1  0  0  0  0
 23 24  1  0  0  0  0
 23 25  1  0  0  0  0
 23 26  1  0  0  0  0
M  END
$$$$

  -OEChem-04042216033D

 26 25  0     1  0  0  0  0  0999 V2000
   -2.2380   -3.7320    0.3062 H   0  0  0  0  0  0  0  0  0  0  0  0
   -2.1851   -2.7916   -0.2498 C   0  0  0  0  0  0  0  0  0  0  0  0
   -2.9139   -2.0946    0.1703 H   0  0  0  0  0  0  0  0  0  0  0  0
   -2.4361   -2.9876   -1.2950 H   0  0  0  0  0  0  0  0  0  0  0  0
   -0.7882   -2.2071   -0.1520 C   0  0  0  0  0  0  0  0  0  0  0  0
    0.0765   -2.8086    0.4571 O   0  0  0  0  0  0  0  0  0  0  0  0
   -0.5061   -1.0057   -0.7719 N   0  0  0  0  0  0  0  0  0  0  0  0
   -1.2651   -0.5601   -1.2757 H   0  0  0  0  0  0  0  0  0  0  0  0
    0.8013   -0.3121   -0.7048 C   0  0  1  0  0  0  0  0  0  0  0  0
    1.5697   -1.0053   -1.0636 H   0  0  0  0  0  0  0  0  0  0  0  0
    0.8295    0.9246   -1.6520 C   0  0  1  0  0  0  0  0  0  0  0  0
    1.1909    0.5902   -2.6305 H   0  0  0  0  0  0  0  0  0  0  0  0
   -0.5352    1.5985   -1.8446 C   0  0  0  0  0  0  0  0  0  0  0  0
   -0.9751    1.8587   -0.8768 H   0  0  0  0  0  0  0  0  0  0  0  0
   -0.4238    2.5153   -2.4318 H   0  0  0  0  0  0  0  0  0  0  0  0
   -1.2229    0.9418   -2.3850 H   0  0  0  0  0  0  0  0  0  0  0  0
    1.6894    1.9558   -1.1662 O   0  0  0  0  0  0  0  0  0  0  0  0
    1.8117    2.6569   -1.8283 H   0  0  0  0  0  0  0  0  0  0  0  0
    1.2083    0.0541    0.7434 C   0  0  0  0  0  0  0  0  0  0  0  0
    2.3505   -0.1477    1.1394 O   0  0  0  0  0  0  0  0  0  0  0  0
    0.2858    0.6190    1.6096 N   0  0  0  0  0  0  0  0  0  0  0  0
   -0.6569    0.7497    1.2628 H   0  0  0  0  0  0  0  0  0  0  0  0
    0.5899    0.9539    2.9944 C   0  0  0  0  0  0  0  0  0  0  0  0
    1.4360    1.6474    3.0437 H   0  0  0  0  0  0  0  0  0  0  0  0
   -0.2740    1.4299    3.4676 H   0  0  0  0  0  0  0  0  0  0  0  0
    0.8414    0.0500    3.5591 H   0  0  0  0  0  0  0  0  0  0  0  0
  1  2  1  0  0  0  0
  2  3  1  0  0  0  0
  2  4  1  0  0  0  0
  2  5  1  0  0  0  0
  5  6  2  0  0  0  0
  5  7  1  0  0  0  0
  7  8  1  0  0  0  0
  7  9  1  0  0  0  0
  9 10  1  0  0  0  0
  9 11  1  0  0  0  0
  9 19  1  0  0  0  0
 11 12  1  0  0  0  0
 11 13  1  0  0  0  0
 11 17  1  0  0  0  0
 13 14  1  0  0  0  0
 13 15  1  0  0  0  0
 13 16  1  0  0  0  0
 17 18  1  0  0  0  0
 19 20  2  0  0  0  0
 19 21  1  0  0  0  0
 21 22  1  0  0  0  0
 21 23  1  0  0  0  0
 23 24  1  0  0  0  0
 23 25  1  0  0  0  0
 23 26  1  0  0  0  0
M  END
$$$$

  -OEChem-04042216033D

 26 25  0     1  0  0  0  0  0999 V2000
   -2.2465   -3.7297    0.2655 H   0  0  0  0  0  0  0  0  0  0  0  0
   -2.1865   -2.7849   -0.2824 C   0  0  0  0  0  0  0  0  0  0  0  0
   -2.9383   -2.0999    0.1165 H   0  0  0  0  0  0  0  0  0  0  0  0
   -2.3984   -2.9772   -1.3369 H   0  0  0  0  0  0  0  0  0  0  0  0
   -0.8024   -2.1821   -0.1307 C   0  0  0  0  0  0  0  0  0  0  0  0
    0.0340   -2.7541    0.5425 O   0  0  0  0  0  0  0  0  0  0  0  0
   -0.5058   -0.9894   -0.7604 N   0  0  0  0  0  0  0  0  0  0  0  0
   -1.2280   -0.5929   -1.3521 H   0  0  0  0  0  0  0  0  0  0  0  0
    0.8078   -0.3086   -0.6961 C   0  0  1  0  0  0  0  0  0  0  0  0
    1.5713   -1.0062   -1.0563 H   0  0  0  0  0  0  0  0  0  0  0  0
    0.8225    0.9172   -1.6493 C   0  0  1  0  0  0  0  0  0  0  0  0
    0.9154    0.5459   -2.6756 H   0  0  0  0  0  0  0  0  0  0  0  0
   -0.4356    1.7909   -1.5608 C   0  0  0  0  0  0  0  0  0  0  0  0
   -0.5905    2.1443   -0.5373 H   0  0  0  0  0  0  0  0  0  0  0  0
   -0.3329    2.6630   -2.2139 H   0  0  0  0  0  0  0  0  0  0  0  0
   -1.3233    1.2392   -1.8812 H   0  0  0  0  0  0  0  0  0  0  0  0
    1.9216    1.7821   -1.3664 O   0  0  0  0  0  0  0  0  0  0  0  0
    1.9843    2.5030   -2.0152 H   0  0  0  0  0  0  0  0  0  0  0  0
    1.2247    0.0708    0.7463 C   0  0  0  0  0  0  0  0  0  0  0  0
    2.3678   -0.1286    1.1401 O   0  0  0  0  0  0  0  0  0  0  0  0
    0.3116    0.6552    1.6096 N   0  0  0  0  0  0  0  0  0  0  0  0
   -0.6479    0.7143    1.2894 H   0  0  0  0  0  0  0  0  0  0  0  0
    0.6120    0.9511    3.0042 C   0  0  0  0  0  0  0  0  0  0  0  0
    1.4694    1.6285    3.0757 H   0  0  0  0  0  0  0  0  0  0  0  0
   -0.2469    1.4307    3.4829 H   0  0  0  0  0  0  0  0  0  0  0  0
    0.8438    0.0296    3.5486 H   0  0  0  0  0  0  0  0  0  0  0  0
  1  2  1  0  0  0  0
  2  3  1  0  0  0  0
  2  4  1  0  0  0  0
  2  5  1  0  0  0  0
  5  6  2  0  0  0  0
  5  7  1  0  0  0  0
  7  8  1  0  0  0  0
  7  9  1  0  0  0  0
  9 10  1  0  0  0  0
  9 11  1  0  0  0  0
  9 19  1  0  0  0  0
 11 12  1  0  0  0  0
 11 13  1  0  0  0  0
 11 17  1  0  0  0  0
 13 14  1  0  0  0  0
 13 15  1  0  0  0  0
 13 16  1  0  0  0  0
 17 18  1  0  0  0  0
 19 20  2  0  0  0  0
 19 21  1  0  0  0  0
 21 22  1  0  0  0  0
 21 23  1  0  0  0  0
 23 24  1  0  0  0  0
 23 25  1  0  0  0  0
 23 26  1  0  0  0  0
M  END
$$$$
