default_name
  -OEChem-02102213163D

 26 25  0     1  0  0  0  0  0999 V2000
   -2.8882   -3.2497    1.2537 H   0  0  0  0  0  0  0  0  0  0  0  0
   -2.8032   -2.3157    0.7017 C   0  0  0  0  0  0  0  0  0  0  0  0
   -3.5012   -1.5857    1.1067 H   0  0  0  0  0  0  0  0  0  0  0  0
   -3.0182   -2.4907   -0.3513 H   0  0  0  0  0  0  0  0  0  0  0  0
   -1.3942   -1.7897    0.8407 C   0  0  0  0  0  0  0  0  0  0  0  0
   -0.5672   -2.4077    1.5007 O   0  0  0  0  0  0  0  0  0  0  0  0
   -1.1222   -0.6447    0.2217 N   0  0  0  0  0  0  0  0  0  0  0  0
   -1.8592   -0.1777   -0.2863 H   0  0  0  0  0  0  0  0  0  0  0  0
    0.1838    0.0363    0.2367 C   0  0  1  0  0  0  0  0  0  0  0  0
    0.7766   -0.3642    1.0583 H   0  0  0  0  0  0  0  0  0  0  0  0
    0.9683   -0.1991   -1.0705 C   0  0  1  0  0  0  0  0  0  0  0  0
    1.1475   -1.2692   -1.1727 H   0  0  0  0  0  0  0  0  0  0  0  0
    0.2401    0.2723   -2.3277 C   0  0  0  0  0  0  0  0  0  0  0  0
    0.1537    1.3596   -2.3318 H   0  0  0  0  0  0  0  0  0  0  0  0
    0.7878   -0.0465   -3.2137 H   0  0  0  0  0  0  0  0  0  0  0  0
   -0.7597   -0.1620   -2.3566 H   0  0  0  0  0  0  0  0  0  0  0  0
    2.2112    0.4577   -1.0385 O   0  0  0  0  0  0  0  0  0  0  0  0
    2.6186    0.3655   -1.9022 H   0  0  0  0  0  0  0  0  0  0  0  0
    0.0133    1.5398    0.4869 C   0  0  0  0  0  0  0  0  0  0  0  0
   -0.8661    2.1816   -0.0876 O   0  0  0  0  0  0  0  0  0  0  0  0
    0.8416    2.1074    1.3747 N   0  0  0  0  0  0  0  0  0  0  0  0
    1.5275    1.5253    1.8265 H   0  0  0  0  0  0  0  0  0  0  0  0
    0.8100    3.5262    1.7267 C   0  0  0  0  0  0  0  0  0  0  0  0
   -0.1999    3.8089    2.0304 H   0  0  0  0  0  0  0  0  0  0  0  0
    1.5010    3.7310    2.5446 H   0  0  0  0  0  0  0  0  0  0  0  0
    1.0903    4.1265    0.8585 H   0  0  0  0  0  0  0  0  0  0  0  0
  5  6  2  0  0  0  0
  5  7  1  0  0  0  0
  2  3  1  0  0  0  0
  2  4  1  0  0  0  0
  2  5  1  0  0  0  0
  1  2  1  0  0  0  0
 19 20  2  0  0  0  0
 19 21  1  0  0  0  0
 17 18  1  0  0  0  0
 13 14  1  0  0  0  0
 13 15  1  0  0  0  0
 13 16  1  0  0  0  0
 11 12  1  0  0  0  0
 11 13  1  0  0  0  0
 11 17  1  0  0  0  0
  9 10  1  0  0  0  0
  9 11  1  0  0  0  0
  9 19  1  0  0  0  0
  7  8  1  0  0  0  0
  7  9  1  0  0  0  0
 23 24  1  0  0  0  0
 23 25  1  0  0  0  0
 23 26  1  0  0  0  0
 21 22  1  0  0  0  0
 21 23  1  0  0  0  0
M  END
$$$$
default_name
  -OEChem-02102213163D

 26 25  0     1  0  0  0  0  0999 V2000
   -2.8882   -3.2497    1.2537 H   0  0  0  0  0  0  0  0  0  0  0  0
   -2.8032   -2.3157    0.7017 C   0  0  0  0  0  0  0  0  0  0  0  0
   -3.5012   -1.5857    1.1067 H   0  0  0  0  0  0  0  0  0  0  0  0
   -3.0182   -2.4907   -0.3513 H   0  0  0  0  0  0  0  0  0  0  0  0
   -1.3942   -1.7897    0.8407 C   0  0  0  0  0  0  0  0  0  0  0  0
   -0.5672   -2.4077    1.5007 O   0  0  0  0  0  0  0  0  0  0  0  0
   -1.1222   -0.6447    0.2217 N   0  0  0  0  0  0  0  0  0  0  0  0
   -1.8592   -0.1777   -0.2863 H   0  0  0  0  0  0  0  0  0  0  0  0
    0.1838    0.0363    0.2367 C   0  0  1  0  0  0  0  0  0  0  0  0
    0.7766   -0.3642    1.0583 H   0  0  0  0  0  0  0  0  0  0  0  0
    0.9683   -0.1991   -1.0705 C   0  0  1  0  0  0  0  0  0  0  0  0
    0.9166   -1.2603   -1.3129 H   0  0  0  0  0  0  0  0  0  0  0  0
    0.4287    0.5782   -2.2696 C   0  0  0  0  0  0  0  0  0  0  0  0
    0.5804    1.6489   -2.1278 H   0  0  0  0  0  0  0  0  0  0  0  0
    0.9415    0.2612   -3.1768 H   0  0  0  0  0  0  0  0  0  0  0  0
   -0.6383    0.3840   -2.3821 H   0  0  0  0  0  0  0  0  0  0  0  0
    2.3204    0.1559   -0.9186 O   0  0  0  0  0  0  0  0  0  0  0  0
    2.7443    0.0862   -1.7765 H   0  0  0  0  0  0  0  0  0  0  0  0
    0.0133    1.5398    0.4869 C   0  0  0  0  0  0  0  0  0  0  0  0
   -0.8661    2.1816   -0.0876 O   0  0  0  0  0  0  0  0  0  0  0  0
    0.8416    2.1074    1.3747 N   0  0  0  0  0  0  0  0  0  0  0  0
    1.5275    1.5253    1.8265 H   0  0  0  0  0  0  0  0  0  0  0  0
    0.8100    3.5262    1.7267 C   0  0  0  0  0  0  0  0  0  0  0  0
   -0.1999    3.8089    2.0304 H   0  0  0  0  0  0  0  0  0  0  0  0
    1.5010    3.7310    2.5446 H   0  0  0  0  0  0  0  0  0  0  0  0
    1.0903    4.1265    0.8585 H   0  0  0  0  0  0  0  0  0  0  0  0
  5  6  2  0  0  0  0
  5  7  1  0  0  0  0
  2  3  1  0  0  0  0
  2  4  1  0  0  0  0
  2  5  1  0  0  0  0
  1  2  1  0  0  0  0
 19 20  2  0  0  0  0
 19 21  1  0  0  0  0
 17 18  1  0  0  0  0
 13 14  1  0  0  0  0
 13 15  1  0  0  0  0
 13 16  1  0  0  0  0
 11 12  1  0  0  0  0
 11 13  1  0  0  0  0
 11 17  1  0  0  0  0
  9 10  1  0  0  0  0
  9 11  1  0  0  0  0
  9 19  1  0  0  0  0
  7  8  1  0  0  0  0
  7  9  1  0  0  0  0
 23 24  1  0  0  0  0
 23 25  1  0  0  0  0
 23 26  1  0  0  0  0
 21 22  1  0  0  0  0
 21 23  1  0  0  0  0
M  END
$$$$
default_name
  -OEChem-02102213163D

 26 25  0     1  0  0  0  0  0999 V2000
   -2.8882   -3.2497    1.2537 H   0  0  0  0  0  0  0  0  0  0  0  0
   -2.8032   -2.3157    0.7017 C   0  0  0  0  0  0  0  0  0  0  0  0
   -3.5012   -1.5857    1.1067 H   0  0  0  0  0  0  0  0  0  0  0  0
   -3.0182   -2.4907   -0.3513 H   0  0  0  0  0  0  0  0  0  0  0  0
   -1.3942   -1.7897    0.8407 C   0  0  0  0  0  0  0  0  0  0  0  0
   -0.5672   -2.4077    1.5007 O   0  0  0  0  0  0  0  0  0  0  0  0
   -1.1222   -0.6447    0.2217 N   0  0  0  0  0  0  0  0  0  0  0  0
   -1.8592   -0.1777   -0.2863 H   0  0  0  0  0  0  0  0  0  0  0  0
    0.1838    0.0363    0.2367 C   0  0  1  0  0  0  0  0  0  0  0  0
    0.7766   -0.3642    1.0583 H   0  0  0  0  0  0  0  0  0  0  0  0
    0.9683   -0.1991   -1.0705 C   0  0  1  0  0  0  0  0  0  0  0  0
    0.7011   -1.1827   -1.4562 H   0  0  0  0  0  0  0  0  0  0  0  0
    0.6757    0.8246   -2.1657 C   0  0  0  0  0  0  0  0  0  0  0  0
    1.0479    1.8081   -1.8759 H   0  0  0  0  0  0  0  0  0  0  0  0
    1.1560    0.5197   -3.0947 H   0  0  0  0  0  0  0  0  0  0  0  0
   -0.4004    0.8881   -2.3300 H   0  0  0  0  0  0  0  0  0  0  0  0
    2.3549   -0.1753   -0.8383 O   0  0  0  0  0  0  0  0  0  0  0  0
    2.7995   -0.2277   -1.6869 H   0  0  0  0  0  0  0  0  0  0  0  0
    0.0133    1.5398    0.4869 C   0  0  0  0  0  0  0  0  0  0  0  0
   -0.8661    2.1816   -0.0876 O   0  0  0  0  0  0  0  0  0  0  0  0
    0.8416    2.1074    1.3747 N   0  0  0  0  0  0  0  0  0  0  0  0
    1.5275    1.5253    1.8265 H   0  0  0  0  0  0  0  0  0  0  0  0
    0.8100    3.5262    1.7267 C   0  0  0  0  0  0  0  0  0  0  0  0
   -0.1999    3.8089    2.0304 H   0  0  0  0  0  0  0  0  0  0  0  0
    1.5010    3.7310    2.5446 H   0  0  0  0  0  0  0  0  0  0  0  0
    1.0903    4.1265    0.8585 H   0  0  0  0  0  0  0  0  0  0  0  0
  5  6  2  0  0  0  0
  5  7  1  0  0  0  0
  2  3  1  0  0  0  0
  2  4  1  0  0  0  0
  2  5  1  0  0  0  0
  1  2  1  0  0  0  0
 19 20  2  0  0  0  0
 19 21  1  0  0  0  0
 17 18  1  0  0  0  0
 13 14  1  0  0  0  0
 13 15  1  0  0  0  0
 13 16  1  0  0  0  0
 11 12  1  0  0  0  0
 11 13  1  0  0  0  0
 11 17  1  0  0  0  0
  9 10  1  0  0  0  0
  9 11  1  0  0  0  0
  9 19  1  0  0  0  0
  7  8  1  0  0  0  0
  7  9  1  0  0  0  0
 23 24  1  0  0  0  0
 23 25  1  0  0  0  0
 23 26  1  0  0  0  0
 21 22  1  0  0  0  0
 21 23  1  0  0  0  0
M  END
$$$$
default_name
  -OEChem-02102213163D

 26 25  0     1  0  0  0  0  0999 V2000
   -2.8882   -3.2497    1.2537 H   0  0  0  0  0  0  0  0  0  0  0  0
   -2.8032   -2.3157    0.7017 C   0  0  0  0  0  0  0  0  0  0  0  0
   -3.5012   -1.5857    1.1067 H   0  0  0  0  0  0  0  0  0  0  0  0
   -3.0182   -2.4907   -0.3513 H   0  0  0  0  0  0  0  0  0  0  0  0
   -1.3942   -1.7897    0.8407 C   0  0  0  0  0  0  0  0  0  0  0  0
   -0.5672   -2.4077    1.5007 O   0  0  0  0  0  0  0  0  0  0  0  0
   -1.1222   -0.6447    0.2217 N   0  0  0  0  0  0  0  0  0  0  0  0
   -1.8592   -0.1777   -0.2863 H   0  0  0  0  0  0  0  0  0  0  0  0
    0.1838    0.0363    0.2367 C   0  0  1  0  0  0  0  0  0  0  0  0
    0.7766   -0.3642    1.0583 H   0  0  0  0  0  0  0  0  0  0  0  0
    0.9683   -0.1991   -1.0705 C   0  0  1  0  0  0  0  0  0  0  0  0
    0.5156   -1.0416   -1.5929 H   0  0  0  0  0  0  0  0  0  0  0  0
    0.9642    0.9948   -2.0232 C   0  0  0  0  0  0  0  0  0  0  0  0
    1.5244    1.8261   -1.5932 H   0  0  0  0  0  0  0  0  0  0  0  0
    1.4167    0.7117   -2.9728 H   0  0  0  0  0  0  0  0  0  0  0  0
   -0.0620    1.3159   -2.2040 H   0  0  0  0  0  0  0  0  0  0  0  0
    2.3125   -0.5135   -0.8029 O   0  0  0  0  0  0  0  0  0  0  0  0
    2.7804   -0.5548   -1.6395 H   0  0  0  0  0  0  0  0  0  0  0  0
    0.0133    1.5398    0.4869 C   0  0  0  0  0  0  0  0  0  0  0  0
   -0.8661    2.1816   -0.0876 O   0  0  0  0  0  0  0  0  0  0  0  0
    0.8416    2.1074    1.3747 N   0  0  0  0  0  0  0  0  0  0  0  0
    1.5275    1.5253    1.8265 H   0  0  0  0  0  0  0  0  0  0  0  0
    0.8100    3.5262    1.7267 C   0  0  0  0  0  0  0  0  0  0  0  0
   -0.1999    3.8089    2.0304 H   0  0  0  0  0  0  0  0  0  0  0  0
    1.5010    3.7310    2.5446 H   0  0  0  0  0  0  0  0  0  0  0  0
    1.0903    4.1265    0.8585 H   0  0  0  0  0  0  0  0  0  0  0  0
  5  6  2  0  0  0  0
  5  7  1  0  0  0  0
  2  3  1  0  0  0  0
  2  4  1  0  0  0  0
  2  5  1  0  0  0  0
  1  2  1  0  0  0  0
 19 20  2  0  0  0  0
 19 21  1  0  0  0  0
 17 18  1  0  0  0  0
 13 14  1  0  0  0  0
 13 15  1  0  0  0  0
 13 16  1  0  0  0  0
 11 12  1  0  0  0  0
 11 13  1  0  0  0  0
 11 17  1  0  0  0  0
  9 10  1  0  0  0  0
  9 11  1  0  0  0  0
  9 19  1  0  0  0  0
  7  8  1  0  0  0  0
  7  9  1  0  0  0  0
 23 24  1  0  0  0  0
 23 25  1  0  0  0  0
 23 26  1  0  0  0  0
 21 22  1  0  0  0  0
 21 23  1  0  0  0  0
M  END
$$$$
default_name
  -OEChem-02102213163D

 26 25  0     1  0  0  0  0  0999 V2000
   -2.8882   -3.2497    1.2537 H   0  0  0  0  0  0  0  0  0  0  0  0
   -2.8032   -2.3157    0.7017 C   0  0  0  0  0  0  0  0  0  0  0  0
   -3.5012   -1.5857    1.1067 H   0  0  0  0  0  0  0  0  0  0  0  0
   -3.0182   -2.4907   -0.3513 H   0  0  0  0  0  0  0  0  0  0  0  0
   -1.3942   -1.7897    0.8407 C   0  0  0  0  0  0  0  0  0  0  0  0
   -0.5672   -2.4077    1.5007 O   0  0  0  0  0  0  0  0  0  0  0  0
   -1.1222   -0.6447    0.2217 N   0  0  0  0  0  0  0  0  0  0  0  0
   -1.8592   -0.1777   -0.2863 H   0  0  0  0  0  0  0  0  0  0  0  0
    0.1838    0.0363    0.2367 C   0  0  1  0  0  0  0  0  0  0  0  0
    0.7766   -0.3642    1.0583 H   0  0  0  0  0  0  0  0  0  0  0  0
    0.9683   -0.1991   -1.0705 C   0  0  1  0  0  0  0  0  0  0  0  0
    0.3728   -0.8466   -1.7137 H   0  0  0  0  0  0  0  0  0  0  0  0
    1.2746    1.0772   -1.8517 C   0  0  0  0  0  0  0  0  0  0  0  0
    1.9775    1.7017   -1.2989 H   0  0  0  0  0  0  0  0  0  0  0  0
    1.7058    0.8238   -2.8195 H   0  0  0  0  0  0  0  0  0  0  0  0
    0.3537    1.6384   -2.0126 H   0  0  0  0  0  0  0  0  0  0  0  0
    2.1959   -0.8354   -0.8149 O   0  0  0  0  0  0  0  0  0  0  0  0
    2.6884   -0.8728   -1.6374 H   0  0  0  0  0  0  0  0  0  0  0  0
    0.0133    1.5398    0.4869 C   0  0  0  0  0  0  0  0  0  0  0  0
   -0.8661    2.1816   -0.0876 O   0  0  0  0  0  0  0  0  0  0  0  0
    0.8416    2.1074    1.3747 N   0  0  0  0  0  0  0  0  0  0  0  0
    1.5275    1.5253    1.8265 H   0  0  0  0  0  0  0  0  0  0  0  0
    0.8100    3.5262    1.7267 C   0  0  0  0  0  0  0  0  0  0  0  0
   -0.1999    3.8089    2.0304 H   0  0  0  0  0  0  0  0  0  0  0  0
    1.5010    3.7310    2.5446 H   0  0  0  0  0  0  0  0  0  0  0  0
    1.0903    4.1265    0.8585 H   0  0  0  0  0  0  0  0  0  0  0  0
  5  6  2  0  0  0  0
  5  7  1  0  0  0  0
  2  3  1  0  0  0  0
  2  4  1  0  0  0  0
  2  5  1  0  0  0  0
  1  2  1  0  0  0  0
 19 20  2  0  0  0  0
 19 21  1  0  0  0  0
 17 18  1  0  0  0  0
 13 14  1  0  0  0  0
 13 15  1  0  0  0  0
 13 16  1  0  0  0  0
 11 12  1  0  0  0  0
 11 13  1  0  0  0  0
 11 17  1  0  0  0  0
  9 10  1  0  0  0  0
  9 11  1  0  0  0  0
  9 19  1  0  0  0  0
  7  8  1  0  0  0  0
  7  9  1  0  0  0  0
 23 24  1  0  0  0  0
 23 25  1  0  0  0  0
 23 26  1  0  0  0  0
 21 22  1  0  0  0  0
 21 23  1  0  0  0  0
M  END
$$$$
default_name
  -OEChem-02102213163D

 26 25  0     1  0  0  0  0  0999 V2000
   -2.8882   -3.2497    1.2537 H   0  0  0  0  0  0  0  0  0  0  0  0
   -2.8032   -2.3157    0.7017 C   0  0  0  0  0  0  0  0  0  0  0  0
   -3.5012   -1.5857    1.1067 H   0  0  0  0  0  0  0  0  0  0  0  0
   -3.0182   -2.4907   -0.3513 H   0  0  0  0  0  0  0  0  0  0  0  0
   -1.3942   -1.7897    0.8407 C   0  0  0  0  0  0  0  0  0  0  0  0
   -0.5672   -2.4077    1.5007 O   0  0  0  0  0  0  0  0  0  0  0  0
   -1.1222   -0.6447    0.2217 N   0  0  0  0  0  0  0  0  0  0  0  0
   -1.8592   -0.1777   -0.2863 H   0  0  0  0  0  0  0  0  0  0  0  0
    0.1838    0.0363    0.2367 C   0  0  1  0  0  0  0  0  0  0  0  0
    0.7766   -0.3642    1.0583 H   0  0  0  0  0  0  0  0  0  0  0  0
    0.9683   -0.1991   -1.0705 C   0  0  1  0  0  0  0  0  0  0  0  0
    0.2824   -0.6110   -1.8104 H   0  0  0  0  0  0  0  0  0  0  0  0
    1.5858    1.0661   -1.6630 C   0  0  0  0  0  0  0  0  0  0  0  0
    2.3762    1.4435   -1.0131 H   0  0  0  0  0  0  0  0  0  0  0  0
    2.0035    0.8486   -2.6453 H   0  0  0  0  0  0  0  0  0  0  0  0
    0.8184    1.8335   -1.7689 H   0  0  0  0  0  0  0  0  0  0  0  0
    2.0131   -1.1192   -0.8734 O   0  0  0  0  0  0  0  0  0  0  0  0
    2.5296   -1.1601   -1.6810 H   0  0  0  0  0  0  0  0  0  0  0  0
    0.0133    1.5398    0.4869 C   0  0  0  0  0  0  0  0  0  0  0  0
   -0.8661    2.1816   -0.0876 O   0  0  0  0  0  0  0  0  0  0  0  0
    0.8416    2.1074    1.3747 N   0  0  0  0  0  0  0  0  0  0  0  0
    1.5275    1.5253    1.8265 H   0  0  0  0  0  0  0  0  0  0  0  0
    0.8100    3.5262    1.7267 C   0  0  0  0  0  0  0  0  0  0  0  0
   -0.1999    3.8089    2.0304 H   0  0  0  0  0  0  0  0  0  0  0  0
    1.5010    3.7310    2.5446 H   0  0  0  0  0  0  0  0  0  0  0  0
    1.0903    4.1265    0.8585 H   0  0  0  0  0  0  0  0  0  0  0  0
  5  6  2  0  0  0  0
  5  7  1  0  0  0  0
  2  3  1  0  0  0  0
  2  4  1  0  0  0  0
  2  5  1  0  0  0  0
  1  2  1  0  0  0  0
 19 20  2  0  0  0  0
 19 21  1  0  0  0  0
 17 18  1  0  0  0  0
 13 14  1  0  0  0  0
 13 15  1  0  0  0  0
 13 16  1  0  0  0  0
 11 12  1  0  0  0  0
 11 13  1  0  0  0  0
 11 17  1  0  0  0  0
  9 10  1  0  0  0  0
  9 11  1  0  0  0  0
  9 19  1  0  0  0  0
  7  8  1  0  0  0  0
  7  9  1  0  0  0  0
 23 24  1  0  0  0  0
 23 25  1  0  0  0  0
 23 26  1  0  0  0  0
 21 22  1  0  0  0  0
 21 23  1  0  0  0  0
M  END
$$$$
default_name
  -OEChem-02102213163D

 26 25  0     1  0  0  0  0  0999 V2000
   -2.8882   -3.2497    1.2537 H   0  0  0  0  0  0  0  0  0  0  0  0
   -2.8032   -2.3157    0.7017 C   0  0  0  0  0  0  0  0  0  0  0  0
   -3.5012   -1.5857    1.1067 H   0  0  0  0  0  0  0  0  0  0  0  0
   -3.0182   -2.4907   -0.3513 H   0  0  0  0  0  0  0  0  0  0  0  0
   -1.3942   -1.7897    0.8407 C   0  0  0  0  0  0  0  0  0  0  0  0
   -0.5672   -2.4077    1.5007 O   0  0  0  0  0  0  0  0  0  0  0  0
   -1.1222   -0.6447    0.2217 N   0  0  0  0  0  0  0  0  0  0  0  0
   -1.8592   -0.1777   -0.2863 H   0  0  0  0  0  0  0  0  0  0  0  0
    0.1838    0.0363    0.2367 C   0  0  1  0  0  0  0  0  0  0  0  0
    0.7766   -0.3642    1.0583 H   0  0  0  0  0  0  0  0  0  0  0  0
    0.9683   -0.1991   -1.0705 C   0  0  1  0  0  0  0  0  0  0  0  0
    0.2505   -0.3509   -1.8763 H   0  0  0  0  0  0  0  0  0  0  0  0
    1.8764    0.9623   -1.4699 C   0  0  0  0  0  0  0  0  0  0  0  0
    2.6935    1.0690   -0.7553 H   0  0  0  0  0  0  0  0  0  0  0  0
    2.2897    0.7843   -2.4620 H   0  0  0  0  0  0  0  0  0  0  0  0
    1.3004    1.8880   -1.4894 H   0  0  0  0  0  0  0  0  0  0  0  0
    1.7767   -1.3456   -0.9746 O   0  0  0  0  0  0  0  0  0  0  0  0
    2.3150   -1.3970   -1.7671 H   0  0  0  0  0  0  0  0  0  0  0  0
    0.0133    1.5398    0.4869 C   0  0  0  0  0  0  0  0  0  0  0  0
   -0.8661    2.1816   -0.0876 O   0  0  0  0  0  0  0  0  0  0  0  0
    0.8416    2.1074    1.3747 N   0  0  0  0  0  0  0  0  0  0  0  0
    1.5275    1.5253    1.8265 H   0  0  0  0  0  0  0  0  0  0  0  0
    0.8100    3.5262    1.7267 C   0  0  0  0  0  0  0  0  0  0  0  0
   -0.1999    3.8089    2.0304 H   0  0  0  0  0  0  0  0  0  0  0  0
    1.5010    3.7310    2.5446 H   0  0  0  0  0  0  0  0  0  0  0  0
    1.0903    4.1265    0.8585 H   0  0  0  0  0  0  0  0  0  0  0  0
  5  6  2  0  0  0  0
  5  7  1  0  0  0  0
  2  3  1  0  0  0  0
  2  4  1  0  0  0  0
  2  5  1  0  0  0  0
  1  2  1  0  0  0  0
 19 20  2  0  0  0  0
 19 21  1  0  0  0  0
 17 18  1  0  0  0  0
 13 14  1  0  0  0  0
 13 15  1  0  0  0  0
 13 16  1  0  0  0  0
 11 12  1  0  0  0  0
 11 13  1  0  0  0  0
 11 17  1  0  0  0  0
  9 10  1  0  0  0  0
  9 11  1  0  0  0  0
  9 19  1  0  0  0  0
  7  8  1  0  0  0  0
  7  9  1  0  0  0  0
 23 24  1  0  0  0  0
 23 25  1  0  0  0  0
 23 26  1  0  0  0  0
 21 22  1  0  0  0  0
 21 23  1  0  0  0  0
M  END
$$$$
default_name
  -OEChem-02102213163D

 26 25  0     1  0  0  0  0  0999 V2000
   -2.8882   -3.2497    1.2537 H   0  0  0  0  0  0  0  0  0  0  0  0
   -2.8032   -2.3157    0.7017 C   0  0  0  0  0  0  0  0  0  0  0  0
   -3.5012   -1.5857    1.1067 H   0  0  0  0  0  0  0  0  0  0  0  0
   -3.0182   -2.4907   -0.3513 H   0  0  0  0  0  0  0  0  0  0  0  0
   -1.3942   -1.7897    0.8407 C   0  0  0  0  0  0  0  0  0  0  0  0
   -0.5672   -2.4077    1.5007 O   0  0  0  0  0  0  0  0  0  0  0  0
   -1.1222   -0.6447    0.2217 N   0  0  0  0  0  0  0  0  0  0  0  0
   -1.8592   -0.1777   -0.2863 H   0  0  0  0  0  0  0  0  0  0  0  0
    0.1838    0.0363    0.2367 C   0  0  1  0  0  0  0  0  0  0  0  0
    0.7766   -0.3642    1.0583 H   0  0  0  0  0  0  0  0  0  0  0  0
    0.9683   -0.1991   -1.0705 C   0  0  1  0  0  0  0  0  0  0  0  0
    0.2794   -0.0840   -1.9071 H   0  0  0  0  0  0  0  0  0  0  0  0
    2.1267    0.7729   -1.2856 C   0  0  0  0  0  0  0  0  0  0  0  0
    2.9076    0.6038   -0.5431 H   0  0  0  0  0  0  0  0  0  0  0  0
    2.5448    0.6353   -2.2821 H   0  0  0  0  0  0  0  0  0  0  0  0
    1.7670    1.7981   -1.1932 H   0  0  0  0  0  0  0  0  0  0  0  0
    1.5026   -1.4991   -1.1114 O   0  0  0  0  0  0  0  0  0  0  0  0
    2.0592   -1.5674   -1.8900 H   0  0  0  0  0  0  0  0  0  0  0  0
    0.0133    1.5398    0.4869 C   0  0  0  0  0  0  0  0  0  0  0  0
   -0.8661    2.1816   -0.0876 O   0  0  0  0  0  0  0  0  0  0  0  0
    0.8416    2.1074    1.3747 N   0  0  0  0  0  0  0  0  0  0  0  0
    1.5275    1.5253    1.8265 H   0  0  0  0  0  0  0  0  0  0  0  0
    0.8100    3.5262    1.7267 C   0  0  0  0  0  0  0  0  0  0  0  0
   -0.1999    3.8089    2.0304 H   0  0  0  0  0  0  0  0  0  0  0  0
    1.5010    3.7310    2.5446 H   0  0  0  0  0  0  0  0  0  0  0  0
    1.0903    4.1265    0.8585 H   0  0  0  0  0  0  0  0  0  0  0  0
  5  6  2  0  0  0  0
  5  7  1  0  0  0  0
  2  3  1  0  0  0  0
  2  4  1  0  0  0  0
  2  5  1  0  0  0  0
  1  2  1  0  0  0  0
 19 20  2  0  0  0  0
 19 21  1  0  0  0  0
 17 18  1  0  0  0  0
 13 14  1  0  0  0  0
 13 15  1  0  0  0  0
 13 16  1  0  0  0  0
 11 12  1  0  0  0  0
 11 13  1  0  0  0  0
 11 17  1  0  0  0  0
  9 10  1  0  0  0  0
  9 11  1  0  0  0  0
  9 19  1  0  0  0  0
  7  8  1  0  0  0  0
  7  9  1  0  0  0  0
 23 24  1  0  0  0  0
 23 25  1  0  0  0  0
 23 26  1  0  0  0  0
 21 22  1  0  0  0  0
 21 23  1  0  0  0  0
M  END
$$$$
default_name
  -OEChem-02102213163D

 26 25  0     1  0  0  0  0  0999 V2000
   -2.8882   -3.2497    1.2537 H   0  0  0  0  0  0  0  0  0  0  0  0
   -2.8032   -2.3157    0.7017 C   0  0  0  0  0  0  0  0  0  0  0  0
   -3.5012   -1.5857    1.1067 H   0  0  0  0  0  0  0  0  0  0  0  0
   -3.0182   -2.4907   -0.3513 H   0  0  0  0  0  0  0  0  0  0  0  0
   -1.3942   -1.7897    0.8407 C   0  0  0  0  0  0  0  0  0  0  0  0
   -0.5672   -2.4077    1.5007 O   0  0  0  0  0  0  0  0  0  0  0  0
   -1.1222   -0.6447    0.2217 N   0  0  0  0  0  0  0  0  0  0  0  0
   -1.8592   -0.1777   -0.2863 H   0  0  0  0  0  0  0  0  0  0  0  0
    0.1838    0.0363    0.2367 C   0  0  1  0  0  0  0  0  0  0  0  0
    0.7766   -0.3642    1.0583 H   0  0  0  0  0  0  0  0  0  0  0  0
    0.9683   -0.1991   -1.0705 C   0  0  1  0  0  0  0  0  0  0  0  0
    0.3670    0.1715   -1.9005 H   0  0  0  0  0  0  0  0  0  0  0  0
    2.3197    0.5108   -1.1226 C   0  0  0  0  0  0  0  0  0  0  0  0
    3.0040    0.0795   -0.3908 H   0  0  0  0  0  0  0  0  0  0  0  0
    2.7513    0.4117   -2.1179 H   0  0  0  0  0  0  0  0  0  0  0  0
    2.1862    1.5699   -0.9006 H   0  0  0  0  0  0  0  0  0  0  0  0
    1.2097   -1.5692   -1.2746 O   0  0  0  0  0  0  0  0  0  0  0  0
    1.7795   -1.6598   -2.0412 H   0  0  0  0  0  0  0  0  0  0  0  0
    0.0133    1.5398    0.4869 C   0  0  0  0  0  0  0  0  0  0  0  0
   -0.8661    2.1816   -0.0876 O   0  0  0  0  0  0  0  0  0  0  0  0
    0.8416    2.1074    1.3747 N   0  0  0  0  0  0  0  0  0  0  0  0
    1.5275    1.5253    1.8265 H   0  0  0  0  0  0  0  0  0  0  0  0
    0.8100    3.5262    1.7267 C   0  0  0  0  0  0  0  0  0  0  0  0
   -0.1999    3.8089    2.0304 H   0  0  0  0  0  0  0  0  0  0  0  0
    1.5010    3.7310    2.5446 H   0  0  0  0  0  0  0  0  0  0  0  0
    1.0903    4.1265    0.8585 H   0  0  0  0  0  0  0  0  0  0  0  0
  5  6  2  0  0  0  0
  5  7  1  0  0  0  0
  2  3  1  0  0  0  0
  2  4  1  0  0  0  0
  2  5  1  0  0  0  0
  1  2  1  0  0  0  0
 19 20  2  0  0  0  0
 19 21  1  0  0  0  0
 17 18  1  0  0  0  0
 13 14  1  0  0  0  0
 13 15  1  0  0  0  0
 13 16  1  0  0  0  0
 11 12  1  0  0  0  0
 11 13  1  0  0  0  0
 11 17  1  0  0  0  0
  9 10  1  0  0  0  0
  9 11  1  0  0  0  0
  9 19  1  0  0  0  0
  7  8  1  0  0  0  0
  7  9  1  0  0  0  0
 23 24  1  0  0  0  0
 23 25  1  0  0  0  0
 23 26  1  0  0  0  0
 21 22  1  0  0  0  0
 21 23  1  0  0  0  0
M  END
$$$$
default_name
  -OEChem-02102213163D

 26 25  0     1  0  0  0  0  0999 V2000
   -2.8882   -3.2497    1.2537 H   0  0  0  0  0  0  0  0  0  0  0  0
   -2.8032   -2.3157    0.7017 C   0  0  0  0  0  0  0  0  0  0  0  0
   -3.5012   -1.5857    1.1067 H   0  0  0  0  0  0  0  0  0  0  0  0
   -3.0182   -2.4907   -0.3513 H   0  0  0  0  0  0  0  0  0  0  0  0
   -1.3942   -1.7897    0.8407 C   0  0  0  0  0  0  0  0  0  0  0  0
   -0.5672   -2.4077    1.5007 O   0  0  0  0  0  0  0  0  0  0  0  0
   -1.1222   -0.6447    0.2217 N   0  0  0  0  0  0  0  0  0  0  0  0
   -1.8592   -0.1777   -0.2863 H   0  0  0  0  0  0  0  0  0  0  0  0
    0.1838    0.0363    0.2367 C   0  0  1  0  0  0  0  0  0  0  0  0
    0.7766   -0.3642    1.0583 H   0  0  0  0  0  0  0  0  0  0  0  0
    0.9683   -0.1991   -1.0705 C   0  0  1  0  0  0  0  0  0  0  0  0
    0.5075    0.3982   -1.8570 H   0  0  0  0  0  0  0  0  0  0  0  0
    2.4422    0.1938   -0.9920 C   0  0  0  0  0  0  0  0  0  0  0  0
    2.9761   -0.4681   -0.3090 H   0  0  0  0  0  0  0  0  0  0  0  0
    2.8954    0.1288   -1.9805 H   0  0  0  0  0  0  0  0  0  0  0  0
    2.5295    1.2191   -0.6314 H   0  0  0  0  0  0  0  0  0  0  0  0
    0.9177   -1.5512   -1.4531 O   0  0  0  0  0  0  0  0  0  0  0  0
    1.4951   -1.6677   -2.2104 H   0  0  0  0  0  0  0  0  0  0  0  0
    0.0133    1.5398    0.4869 C   0  0  0  0  0  0  0  0  0  0  0  0
   -0.8661    2.1816   -0.0876 O   0  0  0  0  0  0  0  0  0  0  0  0
    0.8416    2.1074    1.3747 N   0  0  0  0  0  0  0  0  0  0  0  0
    1.5275    1.5253    1.8265 H   0  0  0  0  0  0  0  0  0  0  0  0
    0.8100    3.5262    1.7267 C   0  0  0  0  0  0  0  0  0  0  0  0
   -0.1999    3.8089    2.0304 H   0  0  0  0  0  0  0  0  0  0  0  0
    1.5010    3.7310    2.5446 H   0  0  0  0  0  0  0  0  0  0  0  0
    1.0903    4.1265    0.8585 H   0  0  0  0  0  0  0  0  0  0  0  0
  5  6  2  0  0  0  0
  5  7  1  0  0  0  0
  2  3  1  0  0  0  0
  2  4  1  0  0  0  0
  2  5  1  0  0  0  0
  1  2  1  0  0  0  0
 19 20  2  0  0  0  0
 19 21  1  0  0  0  0
 17 18  1  0  0  0  0
 13 14  1  0  0  0  0
 13 15  1  0  0  0  0
 13 16  1  0  0  0  0
 11 12  1  0  0  0  0
 11 13  1  0  0  0  0
 11 17  1  0  0  0  0
  9 10  1  0  0  0  0
  9 11  1  0  0  0  0
  9 19  1  0  0  0  0
  7  8  1  0  0  0  0
  7  9  1  0  0  0  0
 23 24  1  0  0  0  0
 23 25  1  0  0  0  0
 23 26  1  0  0  0  0
 21 22  1  0  0  0  0
 21 23  1  0  0  0  0
M  END
$$$$
default_name
  -OEChem-02102213163D

 26 25  0     1  0  0  0  0  0999 V2000
   -2.8882   -3.2497    1.2537 H   0  0  0  0  0  0  0  0  0  0  0  0
   -2.8032   -2.3157    0.7017 C   0  0  0  0  0  0  0  0  0  0  0  0
   -3.5012   -1.5857    1.1067 H   0  0  0  0  0  0  0  0  0  0  0  0
   -3.0182   -2.4907   -0.3513 H   0  0  0  0  0  0  0  0  0  0  0  0
   -1.3942   -1.7897    0.8407 C   0  0  0  0  0  0  0  0  0  0  0  0
   -0.5672   -2.4077    1.5007 O   0  0  0  0  0  0  0  0  0  0  0  0
   -1.1222   -0.6447    0.2217 N   0  0  0  0  0  0  0  0  0  0  0  0
   -1.8592   -0.1777   -0.2863 H   0  0  0  0  0  0  0  0  0  0  0  0
    0.1838    0.0363    0.2367 C   0  0  1  0  0  0  0  0  0  0  0  0
    0.7766   -0.3642    1.0583 H   0  0  0  0  0  0  0  0  0  0  0  0
    0.9683   -0.1991   -1.0705 C   0  0  1  0  0  0  0  0  0  0  0  0
    0.6911    0.5807   -1.7796 H   0  0  0  0  0  0  0  0  0  0  0  0
    2.4859   -0.1564   -0.9028 C   0  0  0  0  0  0  0  0  0  0  0  0
    2.8258   -1.0017   -0.3031 H   0  0  0  0  0  0  0  0  0  0  0  0
    2.9670   -0.1941   -1.8793 H   0  0  0  0  0  0  0  0  0  0  0  0
    2.7736    0.7695   -0.4040 H   0  0  0  0  0  0  0  0  0  0  0  0
    0.6467   -1.4463   -1.6346 O   0  0  0  0  0  0  0  0  0  0  0  0
    1.2253   -1.5908   -2.3862 H   0  0  0  0  0  0  0  0  0  0  0  0
    0.0133    1.5398    0.4869 C   0  0  0  0  0  0  0  0  0  0  0  0
   -0.8661    2.1816   -0.0876 O   0  0  0  0  0  0  0  0  0  0  0  0
    0.8416    2.1074    1.3747 N   0  0  0  0  0  0  0  0  0  0  0  0
    1.5275    1.5253    1.8265 H   0  0  0  0  0  0  0  0  0  0  0  0
    0.8100    3.5262    1.7267 C   0  0  0  0  0  0  0  0  0  0  0  0
   -0.1999    3.8089    2.0304 H   0  0  0  0  0  0  0  0  0  0  0  0
    1.5010    3.7310    2.5446 H   0  0  0  0  0  0  0  0  0  0  0  0
    1.0903    4.1265    0.8585 H   0  0  0  0  0  0  0  0  0  0  0  0
  5  6  2  0  0  0  0
  5  7  1  0  0  0  0
  2  3  1  0  0  0  0
  2  4  1  0  0  0  0
  2  5  1  0  0  0  0
  1  2  1  0  0  0  0
 19 20  2  0  0  0  0
 19 21  1  0  0  0  0
 17 18  1  0  0  0  0
 13 14  1  0  0  0  0
 13 15  1  0  0  0  0
 13 16  1  0  0  0  0
 11 12  1  0  0  0  0
 11 13  1  0  0  0  0
 11 17  1  0  0  0  0
  9 10  1  0  0  0  0
  9 11  1  0  0  0  0
  9 19  1  0  0  0  0
  7  8  1  0  0  0  0
  7  9  1  0  0  0  0
 23 24  1  0  0  0  0
 23 25  1  0  0  0  0
 23 26  1  0  0  0  0
 21 22  1  0  0  0  0
 21 23  1  0  0  0  0
M  END
$$$$
default_name
  -OEChem-02102213163D

 26 25  0     1  0  0  0  0  0999 V2000
   -2.8882   -3.2497    1.2537 H   0  0  0  0  0  0  0  0  0  0  0  0
   -2.8032   -2.3157    0.7017 C   0  0  0  0  0  0  0  0  0  0  0  0
   -3.5012   -1.5857    1.1067 H   0  0  0  0  0  0  0  0  0  0  0  0
   -3.0182   -2.4907   -0.3513 H   0  0  0  0  0  0  0  0  0  0  0  0
   -1.3942   -1.7897    0.8407 C   0  0  0  0  0  0  0  0  0  0  0  0
   -0.5672   -2.4077    1.5007 O   0  0  0  0  0  0  0  0  0  0  0  0
   -1.1222   -0.6447    0.2217 N   0  0  0  0  0  0  0  0  0  0  0  0
   -1.8592   -0.1777   -0.2863 H   0  0  0  0  0  0  0  0  0  0  0  0
    0.1838    0.0363    0.2367 C   0  0  1  0  0  0  0  0  0  0  0  0
    0.7766   -0.3642    1.0583 H   0  0  0  0  0  0  0  0  0  0  0  0
    0.9683   -0.1991   -1.0705 C   0  0  1  0  0  0  0  0  0  0  0  0
    0.9055    0.7065   -1.6736 H   0  0  0  0  0  0  0  0  0  0  0  0
    2.4477   -0.5160   -0.8609 C   0  0  0  0  0  0  0  0  0  0  0  0
    2.5634   -1.4849   -0.3735 H   0  0  0  0  0  0  0  0  0  0  0  0
    2.9614   -0.5350   -1.8213 H   0  0  0  0  0  0  0  0  0  0  0  0
    2.9017    0.2518   -0.2338 H   0  0  0  0  0  0  0  0  0  0  0  0
    0.4152   -1.2617   -1.8068 O   0  0  0  0  0  0  0  0  0  0  0  0
    0.9885   -1.4341   -2.5565 H   0  0  0  0  0  0  0  0  0  0  0  0
    0.0133    1.5398    0.4869 C   0  0  0  0  0  0  0  0  0  0  0  0
   -0.8661    2.1816   -0.0876 O   0  0  0  0  0  0  0  0  0  0  0  0
    0.8416    2.1074    1.3747 N   0  0  0  0  0  0  0  0  0  0  0  0
    1.5275    1.5253    1.8265 H   0  0  0  0  0  0  0  0  0  0  0  0
    0.8100    3.5262    1.7267 C   0  0  0  0  0  0  0  0  0  0  0  0
   -0.1999    3.8089    2.0304 H   0  0  0  0  0  0  0  0  0  0  0  0
    1.5010    3.7310    2.5446 H   0  0  0  0  0  0  0  0  0  0  0  0
    1.0903    4.1265    0.8585 H   0  0  0  0  0  0  0  0  0  0  0  0
  5  6  2  0  0  0  0
  5  7  1  0  0  0  0
  2  3  1  0  0  0  0
  2  4  1  0  0  0  0
  2  5  1  0  0  0  0
  1  2  1  0  0  0  0
 19 20  2  0  0  0  0
 19 21  1  0  0  0  0
 17 18  1  0  0  0  0
 13 14  1  0  0  0  0
 13 15  1  0  0  0  0
 13 16  1  0  0  0  0
 11 12  1  0  0  0  0
 11 13  1  0  0  0  0
 11 17  1  0  0  0  0
  9 10  1  0  0  0  0
  9 11  1  0  0  0  0
  9 19  1  0  0  0  0
  7  8  1  0  0  0  0
  7  9  1  0  0  0  0
 23 24  1  0  0  0  0
 23 25  1  0  0  0  0
 23 26  1  0  0  0  0
 21 22  1  0  0  0  0
 21 23  1  0  0  0  0
M  END
$$$$
default_name
  -OEChem-02102213163D

 26 25  0     1  0  0  0  0  0999 V2000
   -2.8882   -3.2497    1.2537 H   0  0  0  0  0  0  0  0  0  0  0  0
   -2.8032   -2.3157    0.7017 C   0  0  0  0  0  0  0  0  0  0  0  0
   -3.5012   -1.5857    1.1067 H   0  0  0  0  0  0  0  0  0  0  0  0
   -3.0182   -2.4907   -0.3513 H   0  0  0  0  0  0  0  0  0  0  0  0
   -1.3942   -1.7897    0.8407 C   0  0  0  0  0  0  0  0  0  0  0  0
   -0.5672   -2.4077    1.5007 O   0  0  0  0  0  0  0  0  0  0  0  0
   -1.1222   -0.6447    0.2217 N   0  0  0  0  0  0  0  0  0  0  0  0
   -1.8592   -0.1777   -0.2863 H   0  0  0  0  0  0  0  0  0  0  0  0
    0.1838    0.0363    0.2367 C   0  0  1  0  0  0  0  0  0  0  0  0
    0.7766   -0.3642    1.0583 H   0  0  0  0  0  0  0  0  0  0  0  0
    0.9683   -0.1991   -1.0705 C   0  0  1  0  0  0  0  0  0  0  0  0
    1.1360    0.7670   -1.5462 H   0  0  0  0  0  0  0  0  0  0  0  0
    2.3303   -0.8605   -0.8694 C   0  0  0  0  0  0  0  0  0  0  0  0
    2.2067   -1.8848   -0.5156 H   0  0  0  0  0  0  0  0  0  0  0  0
    2.8790   -0.8707   -1.8104 H   0  0  0  0  0  0  0  0  0  0  0  0
    2.9053   -0.2988   -0.1326 H   0  0  0  0  0  0  0  0  0  0  0  0
    0.2388   -1.0099   -1.9580 O   0  0  0  0  0  0  0  0  0  0  0  0
    0.8009   -1.2085   -2.7097 H   0  0  0  0  0  0  0  0  0  0  0  0
    0.0133    1.5398    0.4869 C   0  0  0  0  0  0  0  0  0  0  0  0
   -0.8661    2.1816   -0.0876 O   0  0  0  0  0  0  0  0  0  0  0  0
    0.8416    2.1074    1.3747 N   0  0  0  0  0  0  0  0  0  0  0  0
    1.5275    1.5253    1.8265 H   0  0  0  0  0  0  0  0  0  0  0  0
    0.8100    3.5262    1.7267 C   0  0  0  0  0  0  0  0  0  0  0  0
   -0.1999    3.8089    2.0304 H   0  0  0  0  0  0  0  0  0  0  0  0
    1.5010    3.7310    2.5446 H   0  0  0  0  0  0  0  0  0  0  0  0
    1.0903    4.1265    0.8585 H   0  0  0  0  0  0  0  0  0  0  0  0
  5  6  2  0  0  0  0
  5  7  1  0  0  0  0
  2  3  1  0  0  0  0
  2  4  1  0  0  0  0
  2  5  1  0  0  0  0
  1  2  1  0  0  0  0
 19 20  2  0  0  0  0
 19 21  1  0  0  0  0
 17 18  1  0  0  0  0
 13 14  1  0  0  0  0
 13 15  1  0  0  0  0
 13 16  1  0  0  0  0
 11 12  1  0  0  0  0
 11 13  1  0  0  0  0
 11 17  1  0  0  0  0
  9 10  1  0  0  0  0
  9 11  1  0  0  0  0
  9 19  1  0  0  0  0
  7  8  1  0  0  0  0
  7  9  1  0  0  0  0
 23 24  1  0  0  0  0
 23 25  1  0  0  0  0
 23 26  1  0  0  0  0
 21 22  1  0  0  0  0
 21 23  1  0  0  0  0
M  END
$$$$
default_name
  -OEChem-02102213163D

 26 25  0     1  0  0  0  0  0999 V2000
   -2.8882   -3.2497    1.2537 H   0  0  0  0  0  0  0  0  0  0  0  0
   -2.8032   -2.3157    0.7017 C   0  0  0  0  0  0  0  0  0  0  0  0
   -3.5012   -1.5857    1.1067 H   0  0  0  0  0  0  0  0  0  0  0  0
   -3.0182   -2.4907   -0.3513 H   0  0  0  0  0  0  0  0  0  0  0  0
   -1.3942   -1.7897    0.8407 C   0  0  0  0  0  0  0  0  0  0  0  0
   -0.5672   -2.4077    1.5007 O   0  0  0  0  0  0  0  0  0  0  0  0
   -1.1222   -0.6447    0.2217 N   0  0  0  0  0  0  0  0  0  0  0  0
   -1.8592   -0.1777   -0.2863 H   0  0  0  0  0  0  0  0  0  0  0  0
    0.1838    0.0363    0.2367 C   0  0  1  0  0  0  0  0  0  0  0  0
    0.7766   -0.3642    1.0583 H   0  0  0  0  0  0  0  0  0  0  0  0
    0.9683   -0.1991   -1.0705 C   0  0  1  0  0  0  0  0  0  0  0  0
    1.3668    0.7581   -1.4061 H   0  0  0  0  0  0  0  0  0  0  0  0
    2.1417   -1.1664   -0.9275 C   0  0  0  0  0  0  0  0  0  0  0  0
    1.7801   -2.1742   -0.7195 H   0  0  0  0  0  0  0  0  0  0  0  0
    2.7253   -1.1784   -1.8472 H   0  0  0  0  0  0  0  0  0  0  0  0
    2.7839   -0.8448   -0.1071 H   0  0  0  0  0  0  0  0  0  0  0  0
    0.1296   -0.7080   -2.0778 O   0  0  0  0  0  0  0  0  0  0  0  0
    0.6752   -0.9292   -2.8354 H   0  0  0  0  0  0  0  0  0  0  0  0
    0.0133    1.5398    0.4869 C   0  0  0  0  0  0  0  0  0  0  0  0
   -0.8661    2.1816   -0.0876 O   0  0  0  0  0  0  0  0  0  0  0  0
    0.8416    2.1074    1.3747 N   0  0  0  0  0  0  0  0  0  0  0  0
    1.5275    1.5253    1.8265 H   0  0  0  0  0  0  0  0  0  0  0  0
    0.8100    3.5262    1.7267 C   0  0  0  0  0  0  0  0  0  0  0  0
   -0.1999    3.8089    2.0304 H   0  0  0  0  0  0  0  0  0  0  0  0
    1.5010    3.7310    2.5446 H   0  0  0  0  0  0  0  0  0  0  0  0
    1.0903    4.1265    0.8585 H   0  0  0  0  0  0  0  0  0  0  0  0
  5  6  2  0  0  0  0
  5  7  1  0  0  0  0
  2  3  1  0  0  0  0
  2  4  1  0  0  0  0
  2  5  1  0  0  0  0
  1  2  1  0  0  0  0
 19 20  2  0  0  0  0
 19 21  1  0  0  0  0
 17 18  1  0  0  0  0
 13 14  1  0  0  0  0
 13 15  1  0  0  0  0
 13 16  1  0  0  0  0
 11 12  1  0  0  0  0
 11 13  1  0  0  0  0
 11 17  1  0  0  0  0
  9 10  1  0  0  0  0
  9 11  1  0  0  0  0
  9 19  1  0  0  0  0
  7  8  1  0  0  0  0
  7  9  1  0  0  0  0
 23 24  1  0  0  0  0
 23 25  1  0  0  0  0
 23 26  1  0  0  0  0
 21 22  1  0  0  0  0
 21 23  1  0  0  0  0
M  END
$$$$
default_name
  -OEChem-02102213163D

 26 25  0     1  0  0  0  0  0999 V2000
   -2.8882   -3.2497    1.2537 H   0  0  0  0  0  0  0  0  0  0  0  0
   -2.8032   -2.3157    0.7017 C   0  0  0  0  0  0  0  0  0  0  0  0
   -3.5012   -1.5857    1.1067 H   0  0  0  0  0  0  0  0  0  0  0  0
   -3.0182   -2.4907   -0.3513 H   0  0  0  0  0  0  0  0  0  0  0  0
   -1.3942   -1.7897    0.8407 C   0  0  0  0  0  0  0  0  0  0  0  0
   -0.5672   -2.4077    1.5007 O   0  0  0  0  0  0  0  0  0  0  0  0
   -1.1222   -0.6447    0.2217 N   0  0  0  0  0  0  0  0  0  0  0  0
   -1.8592   -0.1777   -0.2863 H   0  0  0  0  0  0  0  0  0  0  0  0
    0.1838    0.0363    0.2367 C   0  0  1  0  0  0  0  0  0  0  0  0
    0.7766   -0.3642    1.0583 H   0  0  0  0  0  0  0  0  0  0  0  0
    0.9683   -0.1991   -1.0705 C   0  0  1  0  0  0  0  0  0  0  0  0
    1.5823    0.6805   -1.2628 H   0  0  0  0  0  0  0  0  0  0  0  0
    1.8947   -1.4129   -1.0313 C   0  0  0  0  0  0  0  0  0  0  0  0
    1.3126   -2.3333   -0.9714 H   0  0  0  0  0  0  0  0  0  0  0  0
    2.5107   -1.4369   -1.9294 H   0  0  0  0  0  0  0  0  0  0  0  0
    2.5459   -1.3489   -0.1592 H   0  0  0  0  0  0  0  0  0  0  0  0
    0.0950   -0.3768   -2.1582 O   0  0  0  0  0  0  0  0  0  0  0  0
    0.6200   -0.6153   -2.9251 H   0  0  0  0  0  0  0  0  0  0  0  0
    0.0133    1.5398    0.4869 C   0  0  0  0  0  0  0  0  0  0  0  0
   -0.8661    2.1816   -0.0876 O   0  0  0  0  0  0  0  0  0  0  0  0
    0.8416    2.1074    1.3747 N   0  0  0  0  0  0  0  0  0  0  0  0
    1.5275    1.5253    1.8265 H   0  0  0  0  0  0  0  0  0  0  0  0
    0.8100    3.5262    1.7267 C   0  0  0  0  0  0  0  0  0  0  0  0
   -0.1999    3.8089    2.0304 H   0  0  0  0  0  0  0  0  0  0  0  0
    1.5010    3.7310    2.5446 H   0  0  0  0  0  0  0  0  0  0  0  0
    1.0903    4.1265    0.8585 H   0  0  0  0  0  0  0  0  0  0  0  0
  5  6  2  0  0  0  0
  5  7  1  0  0  0  0
  2  3  1  0  0  0  0
  2  4  1  0  0  0  0
  2  5  1  0  0  0  0
  1  2  1  0  0  0  0
 19 20  2  0  0  0  0
 19 21  1  0  0  0  0
 17 18  1  0  0  0  0
 13 14  1  0  0  0  0
 13 15  1  0  0  0  0
 13 16  1  0  0  0  0
 11 12  1  0  0  0  0
 11 13  1  0  0  0  0
 11 17  1  0  0  0  0
  9 10  1  0  0  0  0
  9 11  1  0  0  0  0
  9 19  1  0  0  0  0
  7  8  1  0  0  0  0
  7  9  1  0  0  0  0
 23 24  1  0  0  0  0
 23 25  1  0  0  0  0
 23 26  1  0  0  0  0
 21 22  1  0  0  0  0
 21 23  1  0  0  0  0
M  END
$$$$
default_name
  -OEChem-02102213163D

 26 25  0     1  0  0  0  0  0999 V2000
   -2.8882   -3.2497    1.2537 H   0  0  0  0  0  0  0  0  0  0  0  0
   -2.8032   -2.3157    0.7017 C   0  0  0  0  0  0  0  0  0  0  0  0
   -3.5012   -1.5857    1.1067 H   0  0  0  0  0  0  0  0  0  0  0  0
   -3.0182   -2.4907   -0.3513 H   0  0  0  0  0  0  0  0  0  0  0  0
   -1.3942   -1.7897    0.8407 C   0  0  0  0  0  0  0  0  0  0  0  0
   -0.5672   -2.4077    1.5007 O   0  0  0  0  0  0  0  0  0  0  0  0
   -1.1222   -0.6447    0.2217 N   0  0  0  0  0  0  0  0  0  0  0  0
   -1.8592   -0.1777   -0.2863 H   0  0  0  0  0  0  0  0  0  0  0  0
    0.1838    0.0363    0.2367 C   0  0  1  0  0  0  0  0  0  0  0  0
    0.7766   -0.3642    1.0583 H   0  0  0  0  0  0  0  0  0  0  0  0
    0.9683   -0.1991   -1.0705 C   0  0  1  0  0  0  0  0  0  0  0  0
    1.7678    0.5394   -1.1261 H   0  0  0  0  0  0  0  0  0  0  0  0
    1.6061   -1.5831   -1.1738 C   0  0  0  0  0  0  0  0  0  0  0  0
    0.8361   -2.3513   -1.2541 H   0  0  0  0  0  0  0  0  0  0  0  0
    2.2501   -1.6289   -2.0513 H   0  0  0  0  0  0  0  0  0  0  0  0
    2.2076   -1.7767   -0.2852 H   0  0  0  0  0  0  0  0  0  0  0  0
    0.1375   -0.0387   -2.1936 O   0  0  0  0  0  0  0  0  0  0  0  0
    0.6391   -0.2882   -2.9725 H   0  0  0  0  0  0  0  0  0  0  0  0
    0.0133    1.5398    0.4869 C   0  0  0  0  0  0  0  0  0  0  0  0
   -0.8661    2.1816   -0.0876 O   0  0  0  0  0  0  0  0  0  0  0  0
    0.8416    2.1074    1.3747 N   0  0  0  0  0  0  0  0  0  0  0  0
    1.5275    1.5253    1.8265 H   0  0  0  0  0  0  0  0  0  0  0  0
    0.8100    3.5262    1.7267 C   0  0  0  0  0  0  0  0  0  0  0  0
   -0.1999    3.8089    2.0304 H   0  0  0  0  0  0  0  0  0  0  0  0
    1.5010    3.7310    2.5446 H   0  0  0  0  0  0  0  0  0  0  0  0
    1.0903    4.1265    0.8585 H   0  0  0  0  0  0  0  0  0  0  0  0
  5  6  2  0  0  0  0
  5  7  1  0  0  0  0
  2  3  1  0  0  0  0
  2  4  1  0  0  0  0
  2  5  1  0  0  0  0
  1  2  1  0  0  0  0
 19 20  2  0  0  0  0
 19 21  1  0  0  0  0
 17 18  1  0  0  0  0
 13 14  1  0  0  0  0
 13 15  1  0  0  0  0
 13 16  1  0  0  0  0
 11 12  1  0  0  0  0
 11 13  1  0  0  0  0
 11 17  1  0  0  0  0
  9 10  1  0  0  0  0
  9 11  1  0  0  0  0
  9 19  1  0  0  0  0
  7  8  1  0  0  0  0
  7  9  1  0  0  0  0
 23 24  1  0  0  0  0
 23 25  1  0  0  0  0
 23 26  1  0  0  0  0
 21 22  1  0  0  0  0
 21 23  1  0  0  0  0
M  END
$$$$
default_name
  -OEChem-02102213163D

 26 25  0     1  0  0  0  0  0999 V2000
   -2.8882   -3.2497    1.2537 H   0  0  0  0  0  0  0  0  0  0  0  0
   -2.8032   -2.3157    0.7017 C   0  0  0  0  0  0  0  0  0  0  0  0
   -3.5012   -1.5857    1.1067 H   0  0  0  0  0  0  0  0  0  0  0  0
   -3.0182   -2.4907   -0.3513 H   0  0  0  0  0  0  0  0  0  0  0  0
   -1.3942   -1.7897    0.8407 C   0  0  0  0  0  0  0  0  0  0  0  0
   -0.5672   -2.4077    1.5007 O   0  0  0  0  0  0  0  0  0  0  0  0
   -1.1222   -0.6447    0.2217 N   0  0  0  0  0  0  0  0  0  0  0  0
   -1.8592   -0.1777   -0.2863 H   0  0  0  0  0  0  0  0  0  0  0  0
    0.1838    0.0363    0.2367 C   0  0  1  0  0  0  0  0  0  0  0  0
    0.7766   -0.3642    1.0583 H   0  0  0  0  0  0  0  0  0  0  0  0
    0.9683   -0.1991   -1.0705 C   0  0  1  0  0  0  0  0  0  0  0  0
    1.9107    0.3444   -1.0052 H   0  0  0  0  0  0  0  0  0  0  0  0
    1.2957   -1.6654   -1.3453 C   0  0  0  0  0  0  0  0  0  0  0  0
    0.3830   -2.2270   -1.5484 H   0  0  0  0  0  0  0  0  0  0  0  0
    1.9610   -1.7410   -2.2045 H   0  0  0  0  0  0  0  0  0  0  0  0
    1.7919   -2.0992   -0.4766 H   0  0  0  0  0  0  0  0  0  0  0  0
    0.2541    0.2833   -2.1816 O   0  0  0  0  0  0  0  0  0  0  0  0
    0.7311    0.0298   -2.9745 H   0  0  0  0  0  0  0  0  0  0  0  0
    0.0133    1.5398    0.4869 C   0  0  0  0  0  0  0  0  0  0  0  0
   -0.8661    2.1816   -0.0876 O   0  0  0  0  0  0  0  0  0  0  0  0
    0.8416    2.1074    1.3747 N   0  0  0  0  0  0  0  0  0  0  0  0
    1.5275    1.5253    1.8265 H   0  0  0  0  0  0  0  0  0  0  0  0
    0.8100    3.5262    1.7267 C   0  0  0  0  0  0  0  0  0  0  0  0
   -0.1999    3.8089    2.0304 H   0  0  0  0  0  0  0  0  0  0  0  0
    1.5010    3.7310    2.5446 H   0  0  0  0  0  0  0  0  0  0  0  0
    1.0903    4.1265    0.8585 H   0  0  0  0  0  0  0  0  0  0  0  0
  5  6  2  0  0  0  0
  5  7  1  0  0  0  0
  2  3  1  0  0  0  0
  2  4  1  0  0  0  0
  2  5  1  0  0  0  0
  1  2  1  0  0  0  0
 19 20  2  0  0  0  0
 19 21  1  0  0  0  0
 17 18  1  0  0  0  0
 13 14  1  0  0  0  0
 13 15  1  0  0  0  0
 13 16  1  0  0  0  0
 11 12  1  0  0  0  0
 11 13  1  0  0  0  0
 11 17  1  0  0  0  0
  9 10  1  0  0  0  0
  9 11  1  0  0  0  0
  9 19  1  0  0  0  0
  7  8  1  0  0  0  0
  7  9  1  0  0  0  0
 23 24  1  0  0  0  0
 23 25  1  0  0  0  0
 23 26  1  0  0  0  0
 21 22  1  0  0  0  0
 21 23  1  0  0  0  0
M  END
$$$$
default_name
  -OEChem-02102213163D

 26 25  0     1  0  0  0  0  0999 V2000
   -2.8882   -3.2497    1.2537 H   0  0  0  0  0  0  0  0  0  0  0  0
   -2.8032   -2.3157    0.7017 C   0  0  0  0  0  0  0  0  0  0  0  0
   -3.5012   -1.5857    1.1067 H   0  0  0  0  0  0  0  0  0  0  0  0
   -3.0182   -2.4907   -0.3513 H   0  0  0  0  0  0  0  0  0  0  0  0
   -1.3942   -1.7897    0.8407 C   0  0  0  0  0  0  0  0  0  0  0  0
   -0.5672   -2.4077    1.5007 O   0  0  0  0  0  0  0  0  0  0  0  0
   -1.1222   -0.6447    0.2217 N   0  0  0  0  0  0  0  0  0  0  0  0
   -1.8592   -0.1777   -0.2863 H   0  0  0  0  0  0  0  0  0  0  0  0
    0.1838    0.0363    0.2367 C   0  0  1  0  0  0  0  0  0  0  0  0
    0.7766   -0.3642    1.0583 H   0  0  0  0  0  0  0  0  0  0  0  0
    0.9683   -0.1991   -1.0705 C   0  0  1  0  0  0  0  0  0  0  0  0
    2.0011    0.1089   -0.9086 H   0  0  0  0  0  0  0  0  0  0  0  0
    0.9846   -1.6544   -1.5340 C   0  0  0  0  0  0  0  0  0  0  0  0
   -0.0157   -1.9688   -1.8342 H   0  0  0  0  0  0  0  0  0  0  0  0
    1.6633   -1.7658   -2.3788 H   0  0  0  0  0  0  0  0  0  0  0  0
    1.3272   -2.2943   -0.7203 H   0  0  0  0  0  0  0  0  0  0  0  0
    0.4368    0.5671   -2.1230 O   0  0  0  0  0  0  0  0  0  0  0  0
    0.8899    0.3171   -2.9310 H   0  0  0  0  0  0  0  0  0  0  0  0
    0.0133    1.5398    0.4869 C   0  0  0  0  0  0  0  0  0  0  0  0
   -0.8661    2.1816   -0.0876 O   0  0  0  0  0  0  0  0  0  0  0  0
    0.8416    2.1074    1.3747 N   0  0  0  0  0  0  0  0  0  0  0  0
    1.5275    1.5253    1.8265 H   0  0  0  0  0  0  0  0  0  0  0  0
    0.8100    3.5262    1.7267 C   0  0  0  0  0  0  0  0  0  0  0  0
   -0.1999    3.8089    2.0304 H   0  0  0  0  0  0  0  0  0  0  0  0
    1.5010    3.7310    2.5446 H   0  0  0  0  0  0  0  0  0  0  0  0
    1.0903    4.1265    0.8585 H   0  0  0  0  0  0  0  0  0  0  0  0
  5  6  2  0  0  0  0
  5  7  1  0  0  0  0
  2  3  1  0  0  0  0
  2  4  1  0  0  0  0
  2  5  1  0  0  0  0
  1  2  1  0  0  0  0
 19 20  2  0  0  0  0
 19 21  1  0  0  0  0
 17 18  1  0  0  0  0
 13 14  1  0  0  0  0
 13 15  1  0  0  0  0
 13 16  1  0  0  0  0
 11 12  1  0  0  0  0
 11 13  1  0  0  0  0
 11 17  1  0  0  0  0
  9 10  1  0  0  0  0
  9 11  1  0  0  0  0
  9 19  1  0  0  0  0
  7  8  1  0  0  0  0
  7  9  1  0  0  0  0
 23 24  1  0  0  0  0
 23 25  1  0  0  0  0
 23 26  1  0  0  0  0
 21 22  1  0  0  0  0
 21 23  1  0  0  0  0
M  END
$$$$
default_name
  -OEChem-02102213163D

 26 25  0     1  0  0  0  0  0999 V2000
   -2.8882   -3.2497    1.2537 H   0  0  0  0  0  0  0  0  0  0  0  0
   -2.8032   -2.3157    0.7017 C   0  0  0  0  0  0  0  0  0  0  0  0
   -3.5012   -1.5857    1.1067 H   0  0  0  0  0  0  0  0  0  0  0  0
   -3.0182   -2.4907   -0.3513 H   0  0  0  0  0  0  0  0  0  0  0  0
   -1.3942   -1.7897    0.8407 C   0  0  0  0  0  0  0  0  0  0  0  0
   -0.5672   -2.4077    1.5007 O   0  0  0  0  0  0  0  0  0  0  0  0
   -1.1222   -0.6447    0.2217 N   0  0  0  0  0  0  0  0  0  0  0  0
   -1.8592   -0.1777   -0.2863 H   0  0  0  0  0  0  0  0  0  0  0  0
    0.1838    0.0363    0.2367 C   0  0  1  0  0  0  0  0  0  0  0  0
    0.7766   -0.3642    1.0583 H   0  0  0  0  0  0  0  0  0  0  0  0
    0.9683   -0.1991   -1.0705 C   0  0  1  0  0  0  0  0  0  0  0  0
    2.0329   -0.1512   -0.8426 H   0  0  0  0  0  0  0  0  0  0  0  0
    0.6940   -1.5506   -1.7271 C   0  0  0  0  0  0  0  0  0  0  0  0
   -0.3330   -1.5943   -2.0920 H   0  0  0  0  0  0  0  0  0  0  0  0
    1.3771   -1.7015   -2.5621 H   0  0  0  0  0  0  0  0  0  0  0  0
    0.8451   -2.3488   -0.9998 H   0  0  0  0  0  0  0  0  0  0  0  0
    0.6733    0.7935   -2.0219 O   0  0  0  0  0  0  0  0  0  0  0  0
    1.1045    0.5540   -2.8449 H   0  0  0  0  0  0  0  0  0  0  0  0
    0.0133    1.5398    0.4869 C   0  0  0  0  0  0  0  0  0  0  0  0
   -0.8661    2.1816   -0.0876 O   0  0  0  0  0  0  0  0  0  0  0  0
    0.8416    2.1074    1.3747 N   0  0  0  0  0  0  0  0  0  0  0  0
    1.5275    1.5253    1.8265 H   0  0  0  0  0  0  0  0  0  0  0  0
    0.8100    3.5262    1.7267 C   0  0  0  0  0  0  0  0  0  0  0  0
   -0.1999    3.8089    2.0304 H   0  0  0  0  0  0  0  0  0  0  0  0
    1.5010    3.7310    2.5446 H   0  0  0  0  0  0  0  0  0  0  0  0
    1.0903    4.1265    0.8585 H   0  0  0  0  0  0  0  0  0  0  0  0
  5  6  2  0  0  0  0
  5  7  1  0  0  0  0
  2  3  1  0  0  0  0
  2  4  1  0  0  0  0
  2  5  1  0  0  0  0
  1  2  1  0  0  0  0
 19 20  2  0  0  0  0
 19 21  1  0  0  0  0
 17 18  1  0  0  0  0
 13 14  1  0  0  0  0
 13 15  1  0  0  0  0
 13 16  1  0  0  0  0
 11 12  1  0  0  0  0
 11 13  1  0  0  0  0
 11 17  1  0  0  0  0
  9 10  1  0  0  0  0
  9 11  1  0  0  0  0
  9 19  1  0  0  0  0
  7  8  1  0  0  0  0
  7  9  1  0  0  0  0
 23 24  1  0  0  0  0
 23 25  1  0  0  0  0
 23 26  1  0  0  0  0
 21 22  1  0  0  0  0
 21 23  1  0  0  0  0
M  END
$$$$
default_name
  -OEChem-02102213163D

 26 25  0     1  0  0  0  0  0999 V2000
   -2.8882   -3.2497    1.2537 H   0  0  0  0  0  0  0  0  0  0  0  0
   -2.8032   -2.3157    0.7017 C   0  0  0  0  0  0  0  0  0  0  0  0
   -3.5012   -1.5857    1.1067 H   0  0  0  0  0  0  0  0  0  0  0  0
   -3.0182   -2.4907   -0.3513 H   0  0  0  0  0  0  0  0  0  0  0  0
   -1.3942   -1.7897    0.8407 C   0  0  0  0  0  0  0  0  0  0  0  0
   -0.5672   -2.4077    1.5007 O   0  0  0  0  0  0  0  0  0  0  0  0
   -1.1222   -0.6447    0.2217 N   0  0  0  0  0  0  0  0  0  0  0  0
   -1.8592   -0.1777   -0.2863 H   0  0  0  0  0  0  0  0  0  0  0  0
    0.1838    0.0363    0.2367 C   0  0  1  0  0  0  0  0  0  0  0  0
    0.7766   -0.3642    1.0583 H   0  0  0  0  0  0  0  0  0  0  0  0
    0.9683   -0.1991   -1.0705 C   0  0  1  0  0  0  0  0  0  0  0  0
    2.0041   -0.4181   -0.8119 H   0  0  0  0  0  0  0  0  0  0  0  0
    0.4436   -1.3612   -1.9114 C   0  0  0  0  0  0  0  0  0  0  0  0
   -0.5471   -1.1291   -2.3043 H   0  0  0  0  0  0  0  0  0  0  0  0
    1.1220   -1.5525   -2.7420 H   0  0  0  0  0  0  0  0  0  0  0  0
    0.3786   -2.2589   -1.2960 H   0  0  0  0  0  0  0  0  0  0  0  0
    0.9474    0.9470   -1.8851 O   0  0  0  0  0  0  0  0  0  0  0  0
    1.3603    0.7244   -2.7220 H   0  0  0  0  0  0  0  0  0  0  0  0
    0.0133    1.5398    0.4869 C   0  0  0  0  0  0  0  0  0  0  0  0
   -0.8661    2.1816   -0.0876 O   0  0  0  0  0  0  0  0  0  0  0  0
    0.8416    2.1074    1.3747 N   0  0  0  0  0  0  0  0  0  0  0  0
    1.5275    1.5253    1.8265 H   0  0  0  0  0  0  0  0  0  0  0  0
    0.8100    3.5262    1.7267 C   0  0  0  0  0  0  0  0  0  0  0  0
   -0.1999    3.8089    2.0304 H   0  0  0  0  0  0  0  0  0  0  0  0
    1.5010    3.7310    2.5446 H   0  0  0  0  0  0  0  0  0  0  0  0
    1.0903    4.1265    0.8585 H   0  0  0  0  0  0  0  0  0  0  0  0
  5  6  2  0  0  0  0
  5  7  1  0  0  0  0
  2  3  1  0  0  0  0
  2  4  1  0  0  0  0
  2  5  1  0  0  0  0
  1  2  1  0  0  0  0
 19 20  2  0  0  0  0
 19 21  1  0  0  0  0
 17 18  1  0  0  0  0
 13 14  1  0  0  0  0
 13 15  1  0  0  0  0
 13 16  1  0  0  0  0
 11 12  1  0  0  0  0
 11 13  1  0  0  0  0
 11 17  1  0  0  0  0
  9 10  1  0  0  0  0
  9 11  1  0  0  0  0
  9 19  1  0  0  0  0
  7  8  1  0  0  0  0
  7  9  1  0  0  0  0
 23 24  1  0  0  0  0
 23 25  1  0  0  0  0
 23 26  1  0  0  0  0
 21 22  1  0  0  0  0
 21 23  1  0  0  0  0
M  END
$$$$
default_name
  -OEChem-02102213163D

 26 25  0     1  0  0  0  0  0999 V2000
   -2.8882   -3.2497    1.2537 H   0  0  0  0  0  0  0  0  0  0  0  0
   -2.8032   -2.3157    0.7017 C   0  0  0  0  0  0  0  0  0  0  0  0
   -3.5012   -1.5857    1.1067 H   0  0  0  0  0  0  0  0  0  0  0  0
   -3.0182   -2.4907   -0.3513 H   0  0  0  0  0  0  0  0  0  0  0  0
   -1.3942   -1.7897    0.8407 C   0  0  0  0  0  0  0  0  0  0  0  0
   -0.5672   -2.4077    1.5007 O   0  0  0  0  0  0  0  0  0  0  0  0
   -1.1222   -0.6447    0.2217 N   0  0  0  0  0  0  0  0  0  0  0  0
   -1.8592   -0.1777   -0.2863 H   0  0  0  0  0  0  0  0  0  0  0  0
    0.1838    0.0363    0.2367 C   0  0  1  0  0  0  0  0  0  0  0  0
    0.7766   -0.3642    1.0583 H   0  0  0  0  0  0  0  0  0  0  0  0
    0.9683   -0.1991   -1.0705 C   0  0  1  0  0  0  0  0  0  0  0  0
    1.9164   -0.6736   -0.8185 H   0  0  0  0  0  0  0  0  0  0  0  0
    0.2506   -1.0990   -2.0745 C   0  0  0  0  0  0  0  0  0  0  0  0
   -0.6435   -0.6048   -2.4565 H   0  0  0  0  0  0  0  0  0  0  0  0
    0.9154   -1.3289   -2.9062 H   0  0  0  0  0  0  0  0  0  0  0  0
   -0.0406   -2.0307   -1.5886 H   0  0  0  0  0  0  0  0  0  0  0  0
    1.2403    1.0171   -1.7219 O   0  0  0  0  0  0  0  0  0  0  0  0
    1.6400    0.8168   -2.5708 H   0  0  0  0  0  0  0  0  0  0  0  0
    0.0133    1.5398    0.4869 C   0  0  0  0  0  0  0  0  0  0  0  0
   -0.8661    2.1816   -0.0876 O   0  0  0  0  0  0  0  0  0  0  0  0
    0.8416    2.1074    1.3747 N   0  0  0  0  0  0  0  0  0  0  0  0
    1.5275    1.5253    1.8265 H   0  0  0  0  0  0  0  0  0  0  0  0
    0.8100    3.5262    1.7267 C   0  0  0  0  0  0  0  0  0  0  0  0
   -0.1999    3.8089    2.0304 H   0  0  0  0  0  0  0  0  0  0  0  0
    1.5010    3.7310    2.5446 H   0  0  0  0  0  0  0  0  0  0  0  0
    1.0903    4.1265    0.8585 H   0  0  0  0  0  0  0  0  0  0  0  0
  5  6  2  0  0  0  0
  5  7  1  0  0  0  0
  2  3  1  0  0  0  0
  2  4  1  0  0  0  0
  2  5  1  0  0  0  0
  1  2  1  0  0  0  0
 19 20  2  0  0  0  0
 19 21  1  0  0  0  0
 17 18  1  0  0  0  0
 13 14  1  0  0  0  0
 13 15  1  0  0  0  0
 13 16  1  0  0  0  0
 11 12  1  0  0  0  0
 11 13  1  0  0  0  0
 11 17  1  0  0  0  0
  9 10  1  0  0  0  0
  9 11  1  0  0  0  0
  9 19  1  0  0  0  0
  7  8  1  0  0  0  0
  7  9  1  0  0  0  0
 23 24  1  0  0  0  0
 23 25  1  0  0  0  0
 23 26  1  0  0  0  0
 21 22  1  0  0  0  0
 21 23  1  0  0  0  0
M  END
$$$$
default_name
  -OEChem-02102213163D

 26 25  0     1  0  0  0  0  0999 V2000
   -2.8882   -3.2497    1.2537 H   0  0  0  0  0  0  0  0  0  0  0  0
   -2.8032   -2.3157    0.7017 C   0  0  0  0  0  0  0  0  0  0  0  0
   -3.5012   -1.5857    1.1067 H   0  0  0  0  0  0  0  0  0  0  0  0
   -3.0182   -2.4907   -0.3513 H   0  0  0  0  0  0  0  0  0  0  0  0
   -1.3942   -1.7897    0.8407 C   0  0  0  0  0  0  0  0  0  0  0  0
   -0.5672   -2.4077    1.5007 O   0  0  0  0  0  0  0  0  0  0  0  0
   -1.1222   -0.6447    0.2217 N   0  0  0  0  0  0  0  0  0  0  0  0
   -1.8592   -0.1777   -0.2863 H   0  0  0  0  0  0  0  0  0  0  0  0
    0.1838    0.0363    0.2367 C   0  0  1  0  0  0  0  0  0  0  0  0
    0.7766   -0.3642    1.0583 H   0  0  0  0  0  0  0  0  0  0  0  0
    0.9683   -0.1991   -1.0705 C   0  0  1  0  0  0  0  0  0  0  0  0
    1.7760   -0.9004   -0.8620 H   0  0  0  0  0  0  0  0  0  0  0  0
    0.1281   -0.7821   -2.2050 C   0  0  0  0  0  0  0  0  0  0  0  0
   -0.6156   -0.0572   -2.5384 H   0  0  0  0  0  0  0  0  0  0  0  0
    0.7714   -1.0460   -3.0436 H   0  0  0  0  0  0  0  0  0  0  0  0
   -0.3840   -1.6799   -1.8578 H   0  0  0  0  0  0  0  0  0  0  0  0
    1.5323    0.9991   -1.5434 O   0  0  0  0  0  0  0  0  0  0  0  0
    1.9244    0.8247   -2.4015 H   0  0  0  0  0  0  0  0  0  0  0  0
    0.0133    1.5398    0.4869 C   0  0  0  0  0  0  0  0  0  0  0  0
   -0.8661    2.1816   -0.0876 O   0  0  0  0  0  0  0  0  0  0  0  0
    0.8416    2.1074    1.3747 N   0  0  0  0  0  0  0  0  0  0  0  0
    1.5275    1.5253    1.8265 H   0  0  0  0  0  0  0  0  0  0  0  0
    0.8100    3.5262    1.7267 C   0  0  0  0  0  0  0  0  0  0  0  0
   -0.1999    3.8089    2.0304 H   0  0  0  0  0  0  0  0  0  0  0  0
    1.5010    3.7310    2.5446 H   0  0  0  0  0  0  0  0  0  0  0  0
    1.0903    4.1265    0.8585 H   0  0  0  0  0  0  0  0  0  0  0  0
  5  6  2  0  0  0  0
  5  7  1  0  0  0  0
  2  3  1  0  0  0  0
  2  4  1  0  0  0  0
  2  5  1  0  0  0  0
  1  2  1  0  0  0  0
 19 20  2  0  0  0  0
 19 21  1  0  0  0  0
 17 18  1  0  0  0  0
 13 14  1  0  0  0  0
 13 15  1  0  0  0  0
 13 16  1  0  0  0  0
 11 12  1  0  0  0  0
 11 13  1  0  0  0  0
 11 17  1  0  0  0  0
  9 10  1  0  0  0  0
  9 11  1  0  0  0  0
  9 19  1  0  0  0  0
  7  8  1  0  0  0  0
  7  9  1  0  0  0  0
 23 24  1  0  0  0  0
 23 25  1  0  0  0  0
 23 26  1  0  0  0  0
 21 22  1  0  0  0  0
 21 23  1  0  0  0  0
M  END
$$$$
default_name
  -OEChem-02102213163D

 26 25  0     1  0  0  0  0  0999 V2000
   -2.8882   -3.2497    1.2537 H   0  0  0  0  0  0  0  0  0  0  0  0
   -2.8032   -2.3157    0.7017 C   0  0  0  0  0  0  0  0  0  0  0  0
   -3.5012   -1.5857    1.1067 H   0  0  0  0  0  0  0  0  0  0  0  0
   -3.0182   -2.4907   -0.3513 H   0  0  0  0  0  0  0  0  0  0  0  0
   -1.3942   -1.7897    0.8407 C   0  0  0  0  0  0  0  0  0  0  0  0
   -0.5672   -2.4077    1.5007 O   0  0  0  0  0  0  0  0  0  0  0  0
   -1.1222   -0.6447    0.2217 N   0  0  0  0  0  0  0  0  0  0  0  0
   -1.8592   -0.1777   -0.2863 H   0  0  0  0  0  0  0  0  0  0  0  0
    0.1838    0.0363    0.2367 C   0  0  1  0  0  0  0  0  0  0  0  0
    0.7766   -0.3642    1.0583 H   0  0  0  0  0  0  0  0  0  0  0  0
    0.9683   -0.1991   -1.0705 C   0  0  1  0  0  0  0  0  0  0  0  0
    1.5923   -1.0828   -0.9393 H   0  0  0  0  0  0  0  0  0  0  0  0
    0.0845   -0.4318   -2.2943 C   0  0  0  0  0  0  0  0  0  0  0  0
   -0.4653    0.4764   -2.5443 H   0  0  0  0  0  0  0  0  0  0  0  0
    0.6997   -0.7231   -3.1447 H   0  0  0  0  0  0  0  0  0  0  0  0
   -0.6280   -1.2303   -2.0852 H   0  0  0  0  0  0  0  0  0  0  0  0
    1.8033    0.8942   -1.3619 O   0  0  0  0  0  0  0  0  0  0  0  0
    2.1942    0.7478   -2.2258 H   0  0  0  0  0  0  0  0  0  0  0  0
    0.0133    1.5398    0.4869 C   0  0  0  0  0  0  0  0  0  0  0  0
   -0.8661    2.1816   -0.0876 O   0  0  0  0  0  0  0  0  0  0  0  0
    0.8416    2.1074    1.3747 N   0  0  0  0  0  0  0  0  0  0  0  0
    1.5275    1.5253    1.8265 H   0  0  0  0  0  0  0  0  0  0  0  0
    0.8100    3.5262    1.7267 C   0  0  0  0  0  0  0  0  0  0  0  0
   -0.1999    3.8089    2.0304 H   0  0  0  0  0  0  0  0  0  0  0  0
    1.5010    3.7310    2.5446 H   0  0  0  0  0  0  0  0  0  0  0  0
    1.0903    4.1265    0.8585 H   0  0  0  0  0  0  0  0  0  0  0  0
  5  6  2  0  0  0  0
  5  7  1  0  0  0  0
  2  3  1  0  0  0  0
  2  4  1  0  0  0  0
  2  5  1  0  0  0  0
  1  2  1  0  0  0  0
 19 20  2  0  0  0  0
 19 21  1  0  0  0  0
 17 18  1  0  0  0  0
 13 14  1  0  0  0  0
 13 15  1  0  0  0  0
 13 16  1  0  0  0  0
 11 12  1  0  0  0  0
 11 13  1  0  0  0  0
 11 17  1  0  0  0  0
  9 10  1  0  0  0  0
  9 11  1  0  0  0  0
  9 19  1  0  0  0  0
  7  8  1  0  0  0  0
  7  9  1  0  0  0  0
 23 24  1  0  0  0  0
 23 25  1  0  0  0  0
 23 26  1  0  0  0  0
 21 22  1  0  0  0  0
 21 23  1  0  0  0  0
M  END
$$$$
default_name
  -OEChem-02102213163D

 26 25  0     1  0  0  0  0  0999 V2000
   -2.8882   -3.2497    1.2537 H   0  0  0  0  0  0  0  0  0  0  0  0
   -2.8032   -2.3157    0.7017 C   0  0  0  0  0  0  0  0  0  0  0  0
   -3.5012   -1.5857    1.1067 H   0  0  0  0  0  0  0  0  0  0  0  0
   -3.0182   -2.4907   -0.3513 H   0  0  0  0  0  0  0  0  0  0  0  0
   -1.3942   -1.7897    0.8407 C   0  0  0  0  0  0  0  0  0  0  0  0
   -0.5672   -2.4077    1.5007 O   0  0  0  0  0  0  0  0  0  0  0  0
   -1.1222   -0.6447    0.2217 N   0  0  0  0  0  0  0  0  0  0  0  0
   -1.8592   -0.1777   -0.2863 H   0  0  0  0  0  0  0  0  0  0  0  0
    0.1838    0.0363    0.2367 C   0  0  1  0  0  0  0  0  0  0  0  0
    0.7766   -0.3642    1.0583 H   0  0  0  0  0  0  0  0  0  0  0  0
    0.9683   -0.1991   -1.0705 C   0  0  1  0  0  0  0  0  0  0  0  0
    1.3780   -1.2086   -1.0453 H   0  0  0  0  0  0  0  0  0  0  0  0
    0.1227   -0.0722   -2.3361 C   0  0  0  0  0  0  0  0  0  0  0  0
   -0.2029    0.9596   -2.4738 H   0  0  0  0  0  0  0  0  0  0  0  0
    0.7053   -0.3822   -3.2028 H   0  0  0  0  0  0  0  0  0  0  0  0
   -0.7562   -0.7126   -2.2554 H   0  0  0  0  0  0  0  0  0  0  0  0
    2.0348    0.7095   -1.1897 O   0  0  0  0  0  0  0  0  0  0  0  0
    2.4310    0.5911   -2.0555 H   0  0  0  0  0  0  0  0  0  0  0  0
    0.0133    1.5398    0.4869 C   0  0  0  0  0  0  0  0  0  0  0  0
   -0.8661    2.1816   -0.0876 O   0  0  0  0  0  0  0  0  0  0  0  0
    0.8416    2.1074    1.3747 N   0  0  0  0  0  0  0  0  0  0  0  0
    1.5275    1.5253    1.8265 H   0  0  0  0  0  0  0  0  0  0  0  0
    0.8100    3.5262    1.7267 C   0  0  0  0  0  0  0  0  0  0  0  0
   -0.1999    3.8089    2.0304 H   0  0  0  0  0  0  0  0  0  0  0  0
    1.5010    3.7310    2.5446 H   0  0  0  0  0  0  0  0  0  0  0  0
    1.0903    4.1265    0.8585 H   0  0  0  0  0  0  0  0  0  0  0  0
  5  6  2  0  0  0  0
  5  7  1  0  0  0  0
  2  3  1  0  0  0  0
  2  4  1  0  0  0  0
  2  5  1  0  0  0  0
  1  2  1  0  0  0  0
 19 20  2  0  0  0  0
 19 21  1  0  0  0  0
 17 18  1  0  0  0  0
 13 14  1  0  0  0  0
 13 15  1  0  0  0  0
 13 16  1  0  0  0  0
 11 12  1  0  0  0  0
 11 13  1  0  0  0  0
 11 17  1  0  0  0  0
  9 10  1  0  0  0  0
  9 11  1  0  0  0  0
  9 19  1  0  0  0  0
  7  8  1  0  0  0  0
  7  9  1  0  0  0  0
 23 24  1  0  0  0  0
 23 25  1  0  0  0  0
 23 26  1  0  0  0  0
 21 22  1  0  0  0  0
 21 23  1  0  0  0  0
M  END
$$$$
