
  -OEChem-05262214473D

 53 52  0     1  0  0  0  0  0999 V2000
   -1.0338   -5.6785    0.1476 C   0  0  0  0  0  0  0  0  0  0  0  0
   -2.0514   -5.7797    0.8227 O   0  0  0  0  0  0  0  0  0  0  0  0
   -0.6558   -6.7819   -0.7841 C   0  0  0  0  0  0  0  0  0  0  0  0
   -0.0111   -7.5354   -0.3038 H   0  0  0  0  0  0  0  0  0  0  0  0
   -1.5317   -7.3401   -1.1520 H   0  0  0  0  0  0  0  0  0  0  0  0
   -0.1109   -6.4687   -1.6890 H   0  0  0  0  0  0  0  0  0  0  0  0
   -0.1543   -4.6083    0.1480 N   0  0  0  0  0  0  0  0  0  0  0  0
   -0.3302   -3.4398    0.9696 C   0  0  2  0  0  0  0  0  0  0  0  0
    0.2328   -2.2439    0.2131 C   0  0  0  0  0  0  0  0  0  0  0  0
    1.2097   -2.3192   -0.5294 O   0  0  0  0  0  0  0  0  0  0  0  0
    0.3557   -3.6024    2.3171 C   0  0  0  0  0  0  0  0  0  0  0  0
    0.6584   -4.6506   -0.4643 H   0  0  0  0  0  0  0  0  0  0  0  0
   -1.4091   -3.3101    1.1082 H   0  0  0  0  0  0  0  0  0  0  0  0
    1.4375   -3.7336    2.1985 H   0  0  0  0  0  0  0  0  0  0  0  0
    0.1969   -2.7243    2.9517 H   0  0  0  0  0  0  0  0  0  0  0  0
   -0.0294   -4.4803    2.8470 H   0  0  0  0  0  0  0  0  0  0  0  0
   -0.4616   -1.0893    0.5050 N   0  0  0  0  0  0  0  0  0  0  0  0
   -0.0884    0.2050   -0.0621 C   0  0  2  0  0  0  0  0  0  0  0  0
   -1.0675    1.2448    0.4755 C   0  0  0  0  0  0  0  0  0  0  0  0
   -1.9946    0.9638    1.2325 O   0  0  0  0  0  0  0  0  0  0  0  0
   -0.1370    0.2034   -1.5973 C   0  0  0  0  0  0  0  0  0  0  0  0
    0.9393   -0.6785   -2.2388 C   0  0  0  0  0  0  0  0  0  0  0  0
    0.8614   -0.6244   -3.7670 C   0  0  0  0  0  0  0  0  0  0  0  0
    1.9189   -1.5230   -4.4060 C   0  0  0  0  0  0  0  0  0  0  0  0
    1.8124   -1.4755   -5.8594 N   0  0  0  0  0  0  0  0  0  0  0  0
   -1.2794   -1.1113    1.0935 H   0  0  0  0  0  0  0  0  0  0  0  0
    0.9234    0.4559    0.2784 H   0  0  0  0  0  0  0  0  0  0  0  0
   -0.0150    1.2320   -1.9617 H   0  0  0  0  0  0  0  0  0  0  0  0
   -1.1292   -0.1206   -1.9396 H   0  0  0  0  0  0  0  0  0  0  0  0
    0.8211   -1.7175   -1.9114 H   0  0  0  0  0  0  0  0  0  0  0  0
    1.9307   -0.3438   -1.9108 H   0  0  0  0  0  0  0  0  0  0  0  0
   -0.1390   -0.9370   -4.0921 H   0  0  0  0  0  0  0  0  0  0  0  0
    1.0018    0.4105   -4.1041 H   0  0  0  0  0  0  0  0  0  0  0  0
    1.7930   -2.5570   -4.0666 H   0  0  0  0  0  0  0  0  0  0  0  0
    2.9209   -1.1945   -4.1106 H   0  0  0  0  0  0  0  0  0  0  0  0
    1.0542   -0.8802   -6.0984 H   0  0  0  0  0  0  0  0  0  0  0  0
    2.6648   -1.1184   -6.2235 H   0  0  0  0  0  0  0  0  0  0  0  0
   -0.7958    2.5173   -0.0080 N   0  0  0  0  0  0  0  0  0  0  0  0
   -1.5867    3.6789    0.3296 C   0  0  2  0  0  0  0  0  0  0  0  0
   -1.5759    4.6195   -0.8681 C   0  0  0  0  0  0  0  0  0  0  0  0
   -0.6071    4.7442   -1.6144 O   0  0  0  0  0  0  0  0  0  0  0  0
   -1.0483    4.3731    1.5709 C   0  0  0  0  0  0  0  0  0  0  0  0
   -0.0001    2.6564   -0.6237 H   0  0  0  0  0  0  0  0  0  0  0  0
   -2.6081    3.3252    0.5077 H   0  0  0  0  0  0  0  0  0  0  0  0
   -0.0258    4.7344    1.4115 H   0  0  0  0  0  0  0  0  0  0  0  0
   -1.6653    5.2362    1.8419 H   0  0  0  0  0  0  0  0  0  0  0  0
   -1.0289    3.6865    2.4240 H   0  0  0  0  0  0  0  0  0  0  0  0
   -2.7597    5.3352   -0.9803 N   0  0  0  0  0  0  0  0  0  0  0  0
   -2.9787    6.3234   -2.0106 C   0  0  0  0  0  0  0  0  0  0  0  0
   -3.5248    5.1388   -0.3418 H   0  0  0  0  0  0  0  0  0  0  0  0
   -2.6919    7.3163   -1.6340 H   0  0  0  0  0  0  0  0  0  0  0  0
   -2.3688    6.0754   -2.8919 H   0  0  0  0  0  0  0  0  0  0  0  0
   -4.0423    6.3309   -2.2912 H   0  0  0  0  0  0  0  0  0  0  0  0
  1  3  1  0  0  0  0
  1  7  1  0  0  0  0
  1  2  2  0  0  0  0
 39 40  1  0  0  0  0
 40 48  1  0  0  0  0
 40 41  2  0  0  0  0
  8  9  1  0  0  0  0
  9 17  1  0  0  0  0
  9 10  2  0  0  0  0
 18 19  1  0  0  0  0
 19 38  1  0  0  0  0
 19 20  2  0  0  0  0
 39 42  1  0  0  0  0
  8 11  1  0  0  0  0
 48 49  1  0  0  0  0
 22 23  1  0  0  0  0
 21 22  1  0  0  0  0
 23 24  1  0  0  0  0
 18 21  1  0  0  0  0
 24 25  1  0  0  0  0
 38 39  1  0  0  0  0
  7  8  1  0  0  0  0
 17 18  1  0  0  0  0
  3  4  1  0  0  0  0
  3  5  1  0  0  0  0
  3  6  1  0  0  0  0
 42 45  1  0  0  0  0
 42 46  1  0  0  0  0
 42 47  1  0  0  0  0
 11 14  1  0  0  0  0
 11 15  1  0  0  0  0
 11 16  1  0  0  0  0
 49 51  1  0  0  0  0
 49 52  1  0  0  0  0
 49 53  1  0  0  0  0
 22 30  1  0  0  0  0
 22 31  1  0  0  0  0
 23 32  1  0  0  0  0
 23 33  1  0  0  0  0
 21 28  1  0  0  0  0
 21 29  1  0  0  0  0
 24 34  1  0  0  0  0
 24 35  1  0  0  0  0
 39 44  1  0  0  0  0
  8 13  1  0  0  0  0
 18 27  1  0  0  0  0
 25 36  1  0  0  0  0
 25 37  1  0  0  0  0
 48 50  1  0  0  0  0
  7 12  1  0  0  0  0
 38 43  1  0  0  0  0
 17 26  1  0  0  0  0
M  END
$$$$

  -OEChem-05262214473D

 53 52  0     1  0  0  0  0  0999 V2000
   -1.0338   -5.6785    0.1476 C   0  0  0  0  0  0  0  0  0  0  0  0
   -2.0514   -5.7797    0.8227 O   0  0  0  0  0  0  0  0  0  0  0  0
   -0.6558   -6.7819   -0.7841 C   0  0  0  0  0  0  0  0  0  0  0  0
   -0.0111   -7.5354   -0.3038 H   0  0  0  0  0  0  0  0  0  0  0  0
   -1.5317   -7.3401   -1.1520 H   0  0  0  0  0  0  0  0  0  0  0  0
   -0.1109   -6.4687   -1.6890 H   0  0  0  0  0  0  0  0  0  0  0  0
   -0.1543   -4.6083    0.1480 N   0  0  0  0  0  0  0  0  0  0  0  0
   -0.3302   -3.4398    0.9696 C   0  0  2  0  0  0  0  0  0  0  0  0
    0.2328   -2.2439    0.2131 C   0  0  0  0  0  0  0  0  0  0  0  0
    1.2097   -2.3192   -0.5294 O   0  0  0  0  0  0  0  0  0  0  0  0
    0.3557   -3.6024    2.3171 C   0  0  0  0  0  0  0  0  0  0  0  0
    0.6584   -4.6506   -0.4643 H   0  0  0  0  0  0  0  0  0  0  0  0
   -1.4091   -3.3101    1.1082 H   0  0  0  0  0  0  0  0  0  0  0  0
    1.4375   -3.7336    2.1985 H   0  0  0  0  0  0  0  0  0  0  0  0
    0.1969   -2.7243    2.9517 H   0  0  0  0  0  0  0  0  0  0  0  0
   -0.0294   -4.4803    2.8470 H   0  0  0  0  0  0  0  0  0  0  0  0
   -0.4616   -1.0893    0.5050 N   0  0  0  0  0  0  0  0  0  0  0  0
   -0.0884    0.2050   -0.0621 C   0  0  2  0  0  0  0  0  0  0  0  0
   -1.0675    1.2448    0.4755 C   0  0  0  0  0  0  0  0  0  0  0  0
   -1.8185    1.0302    1.4249 O   0  0  0  0  0  0  0  0  0  0  0  0
   -0.1370    0.2034   -1.5973 C   0  0  0  0  0  0  0  0  0  0  0  0
    0.9393   -0.6785   -2.2388 C   0  0  0  0  0  0  0  0  0  0  0  0
    0.8614   -0.6244   -3.7670 C   0  0  0  0  0  0  0  0  0  0  0  0
    1.9189   -1.5230   -4.4060 C   0  0  0  0  0  0  0  0  0  0  0  0
    1.8124   -1.4755   -5.8594 N   0  0  0  0  0  0  0  0  0  0  0  0
   -1.2794   -1.1113    1.0935 H   0  0  0  0  0  0  0  0  0  0  0  0
    0.9234    0.4559    0.2784 H   0  0  0  0  0  0  0  0  0  0  0  0
   -0.0150    1.2320   -1.9617 H   0  0  0  0  0  0  0  0  0  0  0  0
   -1.1292   -0.1206   -1.9396 H   0  0  0  0  0  0  0  0  0  0  0  0
    0.8211   -1.7175   -1.9114 H   0  0  0  0  0  0  0  0  0  0  0  0
    1.9307   -0.3438   -1.9108 H   0  0  0  0  0  0  0  0  0  0  0  0
   -0.1390   -0.9370   -4.0921 H   0  0  0  0  0  0  0  0  0  0  0  0
    1.0018    0.4105   -4.1041 H   0  0  0  0  0  0  0  0  0  0  0  0
    1.7930   -2.5570   -4.0666 H   0  0  0  0  0  0  0  0  0  0  0  0
    2.9209   -1.1945   -4.1106 H   0  0  0  0  0  0  0  0  0  0  0  0
    1.0542   -0.8802   -6.0984 H   0  0  0  0  0  0  0  0  0  0  0  0
    2.6648   -1.1184   -6.2235 H   0  0  0  0  0  0  0  0  0  0  0  0
   -1.0178    2.4305   -0.2445 N   0  0  0  0  0  0  0  0  0  0  0  0
   -1.8591    3.5694    0.0452 C   0  0  2  0  0  0  0  0  0  0  0  0
   -2.1503    4.2850   -1.2672 C   0  0  0  0  0  0  0  0  0  0  0  0
   -1.3400    4.3513   -2.1893 O   0  0  0  0  0  0  0  0  0  0  0  0
   -1.1958    4.5084    1.0407 C   0  0  0  0  0  0  0  0  0  0  0  0
   -0.3566    2.5205   -1.0102 H   0  0  0  0  0  0  0  0  0  0  0  0
   -2.7924    3.1753    0.4619 H   0  0  0  0  0  0  0  0  0  0  0  0
   -0.2590    4.9133    0.6409 H   0  0  0  0  0  0  0  0  0  0  0  0
   -1.8462    5.3558    1.2810 H   0  0  0  0  0  0  0  0  0  0  0  0
   -0.9600    3.9843    1.9733 H   0  0  0  0  0  0  0  0  0  0  0  0
   -3.4052    4.8778   -1.2712 N   0  0  0  0  0  0  0  0  0  0  0  0
   -3.8983    5.6517   -2.3865 C   0  0  0  0  0  0  0  0  0  0  0  0
   -4.0264    4.7378   -0.4799 H   0  0  0  0  0  0  0  0  0  0  0  0
   -3.6591    6.7140   -2.2307 H   0  0  0  0  0  0  0  0  0  0  0  0
   -3.4230    5.3012   -3.3145 H   0  0  0  0  0  0  0  0  0  0  0  0
   -4.9887    5.5291   -2.4641 H   0  0  0  0  0  0  0  0  0  0  0  0
  1  3  1  0  0  0  0
  1  7  1  0  0  0  0
  1  2  2  0  0  0  0
 39 40  1  0  0  0  0
 40 48  1  0  0  0  0
 40 41  2  0  0  0  0
  8  9  1  0  0  0  0
  9 17  1  0  0  0  0
  9 10  2  0  0  0  0
 18 19  1  0  0  0  0
 19 38  1  0  0  0  0
 19 20  2  0  0  0  0
 39 42  1  0  0  0  0
  8 11  1  0  0  0  0
 48 49  1  0  0  0  0
 22 23  1  0  0  0  0
 21 22  1  0  0  0  0
 23 24  1  0  0  0  0
 18 21  1  0  0  0  0
 24 25  1  0  0  0  0
 38 39  1  0  0  0  0
  7  8  1  0  0  0  0
 17 18  1  0  0  0  0
  3  4  1  0  0  0  0
  3  5  1  0  0  0  0
  3  6  1  0  0  0  0
 42 45  1  0  0  0  0
 42 46  1  0  0  0  0
 42 47  1  0  0  0  0
 11 14  1  0  0  0  0
 11 15  1  0  0  0  0
 11 16  1  0  0  0  0
 49 51  1  0  0  0  0
 49 52  1  0  0  0  0
 49 53  1  0  0  0  0
 22 30  1  0  0  0  0
 22 31  1  0  0  0  0
 23 32  1  0  0  0  0
 23 33  1  0  0  0  0
 21 28  1  0  0  0  0
 21 29  1  0  0  0  0
 24 34  1  0  0  0  0
 24 35  1  0  0  0  0
 39 44  1  0  0  0  0
  8 13  1  0  0  0  0
 18 27  1  0  0  0  0
 25 36  1  0  0  0  0
 25 37  1  0  0  0  0
 48 50  1  0  0  0  0
  7 12  1  0  0  0  0
 38 43  1  0  0  0  0
 17 26  1  0  0  0  0
M  END
$$$$

  -OEChem-05262214473D

 53 52  0     1  0  0  0  0  0999 V2000
   -1.0338   -5.6785    0.1476 C   0  0  0  0  0  0  0  0  0  0  0  0
   -2.0514   -5.7797    0.8227 O   0  0  0  0  0  0  0  0  0  0  0  0
   -0.6558   -6.7819   -0.7841 C   0  0  0  0  0  0  0  0  0  0  0  0
   -0.0111   -7.5354   -0.3038 H   0  0  0  0  0  0  0  0  0  0  0  0
   -1.5317   -7.3401   -1.1520 H   0  0  0  0  0  0  0  0  0  0  0  0
   -0.1109   -6.4687   -1.6890 H   0  0  0  0  0  0  0  0  0  0  0  0
   -0.1543   -4.6083    0.1480 N   0  0  0  0  0  0  0  0  0  0  0  0
   -0.3302   -3.4398    0.9696 C   0  0  2  0  0  0  0  0  0  0  0  0
    0.2328   -2.2439    0.2131 C   0  0  0  0  0  0  0  0  0  0  0  0
    1.2097   -2.3192   -0.5294 O   0  0  0  0  0  0  0  0  0  0  0  0
    0.3557   -3.6024    2.3171 C   0  0  0  0  0  0  0  0  0  0  0  0
    0.6584   -4.6506   -0.4643 H   0  0  0  0  0  0  0  0  0  0  0  0
   -1.4091   -3.3101    1.1082 H   0  0  0  0  0  0  0  0  0  0  0  0
    1.4375   -3.7336    2.1985 H   0  0  0  0  0  0  0  0  0  0  0  0
    0.1969   -2.7243    2.9517 H   0  0  0  0  0  0  0  0  0  0  0  0
   -0.0294   -4.4803    2.8470 H   0  0  0  0  0  0  0  0  0  0  0  0
   -0.4616   -1.0893    0.5050 N   0  0  0  0  0  0  0  0  0  0  0  0
   -0.0884    0.2050   -0.0621 C   0  0  2  0  0  0  0  0  0  0  0  0
   -1.0675    1.2448    0.4755 C   0  0  0  0  0  0  0  0  0  0  0  0
   -1.6206    1.1422    1.5687 O   0  0  0  0  0  0  0  0  0  0  0  0
   -0.1370    0.2034   -1.5973 C   0  0  0  0  0  0  0  0  0  0  0  0
    0.9393   -0.6785   -2.2388 C   0  0  0  0  0  0  0  0  0  0  0  0
    0.8614   -0.6244   -3.7670 C   0  0  0  0  0  0  0  0  0  0  0  0
    1.9189   -1.5230   -4.4060 C   0  0  0  0  0  0  0  0  0  0  0  0
    1.8124   -1.4755   -5.8594 N   0  0  0  0  0  0  0  0  0  0  0  0
   -1.2794   -1.1113    1.0935 H   0  0  0  0  0  0  0  0  0  0  0  0
    0.9234    0.4559    0.2784 H   0  0  0  0  0  0  0  0  0  0  0  0
   -0.0150    1.2320   -1.9617 H   0  0  0  0  0  0  0  0  0  0  0  0
   -1.1292   -0.1206   -1.9396 H   0  0  0  0  0  0  0  0  0  0  0  0
    0.8211   -1.7175   -1.9114 H   0  0  0  0  0  0  0  0  0  0  0  0
    1.9307   -0.3438   -1.9108 H   0  0  0  0  0  0  0  0  0  0  0  0
   -0.1390   -0.9370   -4.0921 H   0  0  0  0  0  0  0  0  0  0  0  0
    1.0018    0.4105   -4.1041 H   0  0  0  0  0  0  0  0  0  0  0  0
    1.7930   -2.5570   -4.0666 H   0  0  0  0  0  0  0  0  0  0  0  0
    2.9209   -1.1945   -4.1106 H   0  0  0  0  0  0  0  0  0  0  0  0
    1.0542   -0.8802   -6.0984 H   0  0  0  0  0  0  0  0  0  0  0  0
    2.6648   -1.1184   -6.2235 H   0  0  0  0  0  0  0  0  0  0  0  0
   -1.2660    2.2872   -0.4194 N   0  0  0  0  0  0  0  0  0  0  0  0
   -2.1624    3.3916   -0.1632 C   0  0  2  0  0  0  0  0  0  0  0  0
   -2.7450    3.8433   -1.4959 C   0  0  0  0  0  0  0  0  0  0  0  0
   -2.1135    3.8095   -2.5500 O   0  0  0  0  0  0  0  0  0  0  0  0
   -1.4440    4.5375    0.5322 C   0  0  0  0  0  0  0  0  0  0  0  0
   -0.7567    2.2926   -1.2981 H   0  0  0  0  0  0  0  0  0  0  0  0
   -2.9649    3.0061    0.4750 H   0  0  0  0  0  0  0  0  0  0  0  0
   -0.6364    4.9368   -0.0921 H   0  0  0  0  0  0  0  0  0  0  0  0
   -2.1308    5.3617    0.7512 H   0  0  0  0  0  0  0  0  0  0  0  0
   -1.0002    4.2035    1.4763 H   0  0  0  0  0  0  0  0  0  0  0  0
   -4.0382    4.3288   -1.3624 N   0  0  0  0  0  0  0  0  0  0  0  0
   -4.7917    4.8567   -2.4758 C   0  0  0  0  0  0  0  0  0  0  0  0
   -4.4987    4.2819   -0.4582 H   0  0  0  0  0  0  0  0  0  0  0  0
   -4.6437    5.9450   -2.5364 H   0  0  0  0  0  0  0  0  0  0  0  0
   -4.4452    4.3872   -3.4083 H   0  0  0  0  0  0  0  0  0  0  0  0
   -5.8603    4.6396   -2.3311 H   0  0  0  0  0  0  0  0  0  0  0  0
  1  3  1  0  0  0  0
  1  7  1  0  0  0  0
  1  2  2  0  0  0  0
 39 40  1  0  0  0  0
 40 48  1  0  0  0  0
 40 41  2  0  0  0  0
  8  9  1  0  0  0  0
  9 17  1  0  0  0  0
  9 10  2  0  0  0  0
 18 19  1  0  0  0  0
 19 38  1  0  0  0  0
 19 20  2  0  0  0  0
 39 42  1  0  0  0  0
  8 11  1  0  0  0  0
 48 49  1  0  0  0  0
 22 23  1  0  0  0  0
 21 22  1  0  0  0  0
 23 24  1  0  0  0  0
 18 21  1  0  0  0  0
 24 25  1  0  0  0  0
 38 39  1  0  0  0  0
  7  8  1  0  0  0  0
 17 18  1  0  0  0  0
  3  4  1  0  0  0  0
  3  5  1  0  0  0  0
  3  6  1  0  0  0  0
 42 45  1  0  0  0  0
 42 46  1  0  0  0  0
 42 47  1  0  0  0  0
 11 14  1  0  0  0  0
 11 15  1  0  0  0  0
 11 16  1  0  0  0  0
 49 51  1  0  0  0  0
 49 52  1  0  0  0  0
 49 53  1  0  0  0  0
 22 30  1  0  0  0  0
 22 31  1  0  0  0  0
 23 32  1  0  0  0  0
 23 33  1  0  0  0  0
 21 28  1  0  0  0  0
 21 29  1  0  0  0  0
 24 34  1  0  0  0  0
 24 35  1  0  0  0  0
 39 44  1  0  0  0  0
  8 13  1  0  0  0  0
 18 27  1  0  0  0  0
 25 36  1  0  0  0  0
 25 37  1  0  0  0  0
 48 50  1  0  0  0  0
  7 12  1  0  0  0  0
 38 43  1  0  0  0  0
 17 26  1  0  0  0  0
M  END
$$$$

  -OEChem-05262214473D

 53 52  0     1  0  0  0  0  0999 V2000
   -1.0338   -5.6785    0.1476 C   0  0  0  0  0  0  0  0  0  0  0  0
   -2.0514   -5.7797    0.8227 O   0  0  0  0  0  0  0  0  0  0  0  0
   -0.6558   -6.7819   -0.7841 C   0  0  0  0  0  0  0  0  0  0  0  0
   -0.0111   -7.5354   -0.3038 H   0  0  0  0  0  0  0  0  0  0  0  0
   -1.5317   -7.3401   -1.1520 H   0  0  0  0  0  0  0  0  0  0  0  0
   -0.1109   -6.4687   -1.6890 H   0  0  0  0  0  0  0  0  0  0  0  0
   -0.1543   -4.6083    0.1480 N   0  0  0  0  0  0  0  0  0  0  0  0
   -0.3302   -3.4398    0.9696 C   0  0  2  0  0  0  0  0  0  0  0  0
    0.2328   -2.2439    0.2131 C   0  0  0  0  0  0  0  0  0  0  0  0
    1.2097   -2.3192   -0.5294 O   0  0  0  0  0  0  0  0  0  0  0  0
    0.3557   -3.6024    2.3171 C   0  0  0  0  0  0  0  0  0  0  0  0
    0.6584   -4.6506   -0.4643 H   0  0  0  0  0  0  0  0  0  0  0  0
   -1.4091   -3.3101    1.1082 H   0  0  0  0  0  0  0  0  0  0  0  0
    1.4375   -3.7336    2.1985 H   0  0  0  0  0  0  0  0  0  0  0  0
    0.1969   -2.7243    2.9517 H   0  0  0  0  0  0  0  0  0  0  0  0
   -0.0294   -4.4803    2.8470 H   0  0  0  0  0  0  0  0  0  0  0  0
   -0.4616   -1.0893    0.5050 N   0  0  0  0  0  0  0  0  0  0  0  0
   -0.0884    0.2050   -0.0621 C   0  0  2  0  0  0  0  0  0  0  0  0
   -1.0675    1.2448    0.4755 C   0  0  0  0  0  0  0  0  0  0  0  0
   -1.4143    1.2924    1.6540 O   0  0  0  0  0  0  0  0  0  0  0  0
   -0.1370    0.2034   -1.5973 C   0  0  0  0  0  0  0  0  0  0  0  0
    0.9393   -0.6785   -2.2388 C   0  0  0  0  0  0  0  0  0  0  0  0
    0.8614   -0.6244   -3.7670 C   0  0  0  0  0  0  0  0  0  0  0  0
    1.9189   -1.5230   -4.4060 C   0  0  0  0  0  0  0  0  0  0  0  0
    1.8124   -1.4755   -5.8594 N   0  0  0  0  0  0  0  0  0  0  0  0
   -1.2794   -1.1113    1.0935 H   0  0  0  0  0  0  0  0  0  0  0  0
    0.9234    0.4559    0.2784 H   0  0  0  0  0  0  0  0  0  0  0  0
   -0.0150    1.2320   -1.9617 H   0  0  0  0  0  0  0  0  0  0  0  0
   -1.1292   -0.1206   -1.9396 H   0  0  0  0  0  0  0  0  0  0  0  0
    0.8211   -1.7175   -1.9114 H   0  0  0  0  0  0  0  0  0  0  0  0
    1.9307   -0.3438   -1.9108 H   0  0  0  0  0  0  0  0  0  0  0  0
   -0.1390   -0.9370   -4.0921 H   0  0  0  0  0  0  0  0  0  0  0  0
    1.0018    0.4105   -4.1041 H   0  0  0  0  0  0  0  0  0  0  0  0
    1.7930   -2.5570   -4.0666 H   0  0  0  0  0  0  0  0  0  0  0  0
    2.9209   -1.1945   -4.1106 H   0  0  0  0  0  0  0  0  0  0  0  0
    1.0542   -0.8802   -6.0984 H   0  0  0  0  0  0  0  0  0  0  0  0
    2.6648   -1.1184   -6.2235 H   0  0  0  0  0  0  0  0  0  0  0  0
   -1.5235    2.0972   -0.5207 N   0  0  0  0  0  0  0  0  0  0  0  0
   -2.4759    3.1576   -0.2816 C   0  0  2  0  0  0  0  0  0  0  0  0
   -3.3194    3.3244   -1.5386 C   0  0  0  0  0  0  0  0  0  0  0  0
   -2.8748    3.1557   -2.6721 O   0  0  0  0  0  0  0  0  0  0  0  0
   -1.7762    4.4585    0.0800 C   0  0  0  0  0  0  0  0  0  0  0  0
   -1.1732    1.9882   -1.4678 H   0  0  0  0  0  0  0  0  0  0  0  0
   -3.1138    2.8291    0.5461 H   0  0  0  0  0  0  0  0  0  0  0  0
   -1.1324    4.8034   -0.7374 H   0  0  0  0  0  0  0  0  0  0  0  0
   -2.4997    5.2535    0.2887 H   0  0  0  0  0  0  0  0  0  0  0  0
   -1.1466    4.3290    0.9669 H   0  0  0  0  0  0  0  0  0  0  0  0
   -4.6158    3.7257   -1.2477 N   0  0  0  0  0  0  0  0  0  0  0  0
   -5.5979    3.9924   -2.2725 C   0  0  0  0  0  0  0  0  0  0  0  0
   -4.9096    3.8020   -0.2784 H   0  0  0  0  0  0  0  0  0  0  0  0
   -5.5785    5.0616   -2.5304 H   0  0  0  0  0  0  0  0  0  0  0  0
   -5.3658    3.3954   -3.1668 H   0  0  0  0  0  0  0  0  0  0  0  0
   -6.5976    3.7230   -1.9012 H   0  0  0  0  0  0  0  0  0  0  0  0
  1  3  1  0  0  0  0
  1  7  1  0  0  0  0
  1  2  2  0  0  0  0
 39 40  1  0  0  0  0
 40 48  1  0  0  0  0
 40 41  2  0  0  0  0
  8  9  1  0  0  0  0
  9 17  1  0  0  0  0
  9 10  2  0  0  0  0
 18 19  1  0  0  0  0
 19 38  1  0  0  0  0
 19 20  2  0  0  0  0
 39 42  1  0  0  0  0
  8 11  1  0  0  0  0
 48 49  1  0  0  0  0
 22 23  1  0  0  0  0
 21 22  1  0  0  0  0
 23 24  1  0  0  0  0
 18 21  1  0  0  0  0
 24 25  1  0  0  0  0
 38 39  1  0  0  0  0
  7  8  1  0  0  0  0
 17 18  1  0  0  0  0
  3  4  1  0  0  0  0
  3  5  1  0  0  0  0
  3  6  1  0  0  0  0
 42 45  1  0  0  0  0
 42 46  1  0  0  0  0
 42 47  1  0  0  0  0
 11 14  1  0  0  0  0
 11 15  1  0  0  0  0
 11 16  1  0  0  0  0
 49 51  1  0  0  0  0
 49 52  1  0  0  0  0
 49 53  1  0  0  0  0
 22 30  1  0  0  0  0
 22 31  1  0  0  0  0
 23 32  1  0  0  0  0
 23 33  1  0  0  0  0
 21 28  1  0  0  0  0
 21 29  1  0  0  0  0
 24 34  1  0  0  0  0
 24 35  1  0  0  0  0
 39 44  1  0  0  0  0
  8 13  1  0  0  0  0
 18 27  1  0  0  0  0
 25 36  1  0  0  0  0
 25 37  1  0  0  0  0
 48 50  1  0  0  0  0
  7 12  1  0  0  0  0
 38 43  1  0  0  0  0
 17 26  1  0  0  0  0
M  END
$$$$

  -OEChem-05262214473D

 53 52  0     1  0  0  0  0  0999 V2000
   -1.0338   -5.6785    0.1476 C   0  0  0  0  0  0  0  0  0  0  0  0
   -2.0514   -5.7797    0.8227 O   0  0  0  0  0  0  0  0  0  0  0  0
   -0.6558   -6.7819   -0.7841 C   0  0  0  0  0  0  0  0  0  0  0  0
   -0.0111   -7.5354   -0.3038 H   0  0  0  0  0  0  0  0  0  0  0  0
   -1.5317   -7.3401   -1.1520 H   0  0  0  0  0  0  0  0  0  0  0  0
   -0.1109   -6.4687   -1.6890 H   0  0  0  0  0  0  0  0  0  0  0  0
   -0.1543   -4.6083    0.1480 N   0  0  0  0  0  0  0  0  0  0  0  0
   -0.3302   -3.4398    0.9696 C   0  0  2  0  0  0  0  0  0  0  0  0
    0.2328   -2.2439    0.2131 C   0  0  0  0  0  0  0  0  0  0  0  0
    1.2097   -2.3192   -0.5294 O   0  0  0  0  0  0  0  0  0  0  0  0
    0.3557   -3.6024    2.3171 C   0  0  0  0  0  0  0  0  0  0  0  0
    0.6584   -4.6506   -0.4643 H   0  0  0  0  0  0  0  0  0  0  0  0
   -1.4091   -3.3101    1.1082 H   0  0  0  0  0  0  0  0  0  0  0  0
    1.4375   -3.7336    2.1985 H   0  0  0  0  0  0  0  0  0  0  0  0
    0.1969   -2.7243    2.9517 H   0  0  0  0  0  0  0  0  0  0  0  0
   -0.0294   -4.4803    2.8470 H   0  0  0  0  0  0  0  0  0  0  0  0
   -0.4616   -1.0893    0.5050 N   0  0  0  0  0  0  0  0  0  0  0  0
   -0.0884    0.2050   -0.0621 C   0  0  2  0  0  0  0  0  0  0  0  0
   -1.0675    1.2448    0.4755 C   0  0  0  0  0  0  0  0  0  0  0  0
   -1.2136    1.4704    1.6752 O   0  0  0  0  0  0  0  0  0  0  0  0
   -0.1370    0.2034   -1.5973 C   0  0  0  0  0  0  0  0  0  0  0  0
    0.9393   -0.6785   -2.2388 C   0  0  0  0  0  0  0  0  0  0  0  0
    0.8614   -0.6244   -3.7670 C   0  0  0  0  0  0  0  0  0  0  0  0
    1.9189   -1.5230   -4.4060 C   0  0  0  0  0  0  0  0  0  0  0  0
    1.8124   -1.4755   -5.8594 N   0  0  0  0  0  0  0  0  0  0  0  0
   -1.2794   -1.1113    1.0935 H   0  0  0  0  0  0  0  0  0  0  0  0
    0.9234    0.4559    0.2784 H   0  0  0  0  0  0  0  0  0  0  0  0
   -0.0150    1.2320   -1.9617 H   0  0  0  0  0  0  0  0  0  0  0  0
   -1.1292   -0.1206   -1.9396 H   0  0  0  0  0  0  0  0  0  0  0  0
    0.8211   -1.7175   -1.9114 H   0  0  0  0  0  0  0  0  0  0  0  0
    1.9307   -0.3438   -1.9108 H   0  0  0  0  0  0  0  0  0  0  0  0
   -0.1390   -0.9370   -4.0921 H   0  0  0  0  0  0  0  0  0  0  0  0
    1.0018    0.4105   -4.1041 H   0  0  0  0  0  0  0  0  0  0  0  0
    1.7930   -2.5570   -4.0666 H   0  0  0  0  0  0  0  0  0  0  0  0
    2.9209   -1.1945   -4.1106 H   0  0  0  0  0  0  0  0  0  0  0  0
    1.0542   -0.8802   -6.0984 H   0  0  0  0  0  0  0  0  0  0  0  0
    2.6648   -1.1184   -6.2235 H   0  0  0  0  0  0  0  0  0  0  0  0
   -1.7728    1.8732   -0.5416 N   0  0  0  0  0  0  0  0  0  0  0  0
   -2.7782    2.8834   -0.3018 C   0  0  2  0  0  0  0  0  0  0  0  0
   -3.8345    2.7637   -1.3923 C   0  0  0  0  0  0  0  0  0  0  0  0
   -3.5721    2.4345   -2.5472 O   0  0  0  0  0  0  0  0  0  0  0  0
   -2.1695    4.2769   -0.2852 C   0  0  0  0  0  0  0  0  0  0  0  0
   -1.5776    1.6279   -1.5077 H   0  0  0  0  0  0  0  0  0  0  0  0
   -3.2289    2.6564    0.6705 H   0  0  0  0  0  0  0  0  0  0  0  0
   -1.7131    4.5222   -1.2511 H   0  0  0  0  0  0  0  0  0  0  0  0
   -2.9277    5.0385   -0.0750 H   0  0  0  0  0  0  0  0  0  0  0  0
   -1.3893    4.3523    0.4799 H   0  0  0  0  0  0  0  0  0  0  0  0
   -5.0984    3.1095   -0.9349 N   0  0  0  0  0  0  0  0  0  0  0  0
   -6.2619    3.1179   -1.7905 C   0  0  0  0  0  0  0  0  0  0  0  0
   -5.2309    3.3309    0.0475 H   0  0  0  0  0  0  0  0  0  0  0  0
   -6.3998    4.1241   -2.2130 H   0  0  0  0  0  0  0  0  0  0  0  0
   -6.1220    2.3937   -2.6066 H   0  0  0  0  0  0  0  0  0  0  0  0
   -7.1504    2.8418   -1.2037 H   0  0  0  0  0  0  0  0  0  0  0  0
  1  3  1  0  0  0  0
  1  7  1  0  0  0  0
  1  2  2  0  0  0  0
 39 40  1  0  0  0  0
 40 48  1  0  0  0  0
 40 41  2  0  0  0  0
  8  9  1  0  0  0  0
  9 17  1  0  0  0  0
  9 10  2  0  0  0  0
 18 19  1  0  0  0  0
 19 38  1  0  0  0  0
 19 20  2  0  0  0  0
 39 42  1  0  0  0  0
  8 11  1  0  0  0  0
 48 49  1  0  0  0  0
 22 23  1  0  0  0  0
 21 22  1  0  0  0  0
 23 24  1  0  0  0  0
 18 21  1  0  0  0  0
 24 25  1  0  0  0  0
 38 39  1  0  0  0  0
  7  8  1  0  0  0  0
 17 18  1  0  0  0  0
  3  4  1  0  0  0  0
  3  5  1  0  0  0  0
  3  6  1  0  0  0  0
 42 45  1  0  0  0  0
 42 46  1  0  0  0  0
 42 47  1  0  0  0  0
 11 14  1  0  0  0  0
 11 15  1  0  0  0  0
 11 16  1  0  0  0  0
 49 51  1  0  0  0  0
 49 52  1  0  0  0  0
 49 53  1  0  0  0  0
 22 30  1  0  0  0  0
 22 31  1  0  0  0  0
 23 32  1  0  0  0  0
 23 33  1  0  0  0  0
 21 28  1  0  0  0  0
 21 29  1  0  0  0  0
 24 34  1  0  0  0  0
 24 35  1  0  0  0  0
 39 44  1  0  0  0  0
  8 13  1  0  0  0  0
 18 27  1  0  0  0  0
 25 36  1  0  0  0  0
 25 37  1  0  0  0  0
 48 50  1  0  0  0  0
  7 12  1  0  0  0  0
 38 43  1  0  0  0  0
 17 26  1  0  0  0  0
M  END
$$$$

  -OEChem-05262214473D

 53 52  0     1  0  0  0  0  0999 V2000
   -1.0338   -5.6785    0.1476 C   0  0  0  0  0  0  0  0  0  0  0  0
   -2.0514   -5.7797    0.8227 O   0  0  0  0  0  0  0  0  0  0  0  0
   -0.6558   -6.7819   -0.7841 C   0  0  0  0  0  0  0  0  0  0  0  0
   -0.0111   -7.5354   -0.3038 H   0  0  0  0  0  0  0  0  0  0  0  0
   -1.5317   -7.3401   -1.1520 H   0  0  0  0  0  0  0  0  0  0  0  0
   -0.1109   -6.4687   -1.6890 H   0  0  0  0  0  0  0  0  0  0  0  0
   -0.1543   -4.6083    0.1480 N   0  0  0  0  0  0  0  0  0  0  0  0
   -0.3302   -3.4398    0.9696 C   0  0  2  0  0  0  0  0  0  0  0  0
    0.2328   -2.2439    0.2131 C   0  0  0  0  0  0  0  0  0  0  0  0
    1.2097   -2.3192   -0.5294 O   0  0  0  0  0  0  0  0  0  0  0  0
    0.3557   -3.6024    2.3171 C   0  0  0  0  0  0  0  0  0  0  0  0
    0.6584   -4.6506   -0.4643 H   0  0  0  0  0  0  0  0  0  0  0  0
   -1.4091   -3.3101    1.1082 H   0  0  0  0  0  0  0  0  0  0  0  0
    1.4375   -3.7336    2.1985 H   0  0  0  0  0  0  0  0  0  0  0  0
    0.1969   -2.7243    2.9517 H   0  0  0  0  0  0  0  0  0  0  0  0
   -0.0294   -4.4803    2.8470 H   0  0  0  0  0  0  0  0  0  0  0  0
   -0.4616   -1.0893    0.5050 N   0  0  0  0  0  0  0  0  0  0  0  0
   -0.0884    0.2050   -0.0621 C   0  0  2  0  0  0  0  0  0  0  0  0
   -1.0675    1.2448    0.4755 C   0  0  0  0  0  0  0  0  0  0  0  0
   -1.0323    1.6641    1.6307 O   0  0  0  0  0  0  0  0  0  0  0  0
   -0.1370    0.2034   -1.5973 C   0  0  0  0  0  0  0  0  0  0  0  0
    0.9393   -0.6785   -2.2388 C   0  0  0  0  0  0  0  0  0  0  0  0
    0.8614   -0.6244   -3.7670 C   0  0  0  0  0  0  0  0  0  0  0  0
    1.9189   -1.5230   -4.4060 C   0  0  0  0  0  0  0  0  0  0  0  0
    1.8124   -1.4755   -5.8594 N   0  0  0  0  0  0  0  0  0  0  0  0
   -1.2794   -1.1113    1.0935 H   0  0  0  0  0  0  0  0  0  0  0  0
    0.9234    0.4559    0.2784 H   0  0  0  0  0  0  0  0  0  0  0  0
   -0.0150    1.2320   -1.9617 H   0  0  0  0  0  0  0  0  0  0  0  0
   -1.1292   -0.1206   -1.9396 H   0  0  0  0  0  0  0  0  0  0  0  0
    0.8211   -1.7175   -1.9114 H   0  0  0  0  0  0  0  0  0  0  0  0
    1.9307   -0.3438   -1.9108 H   0  0  0  0  0  0  0  0  0  0  0  0
   -0.1390   -0.9370   -4.0921 H   0  0  0  0  0  0  0  0  0  0  0  0
    1.0018    0.4105   -4.1041 H   0  0  0  0  0  0  0  0  0  0  0  0
    1.7930   -2.5570   -4.0666 H   0  0  0  0  0  0  0  0  0  0  0  0
    2.9209   -1.1945   -4.1106 H   0  0  0  0  0  0  0  0  0  0  0  0
    1.0542   -0.8802   -6.0984 H   0  0  0  0  0  0  0  0  0  0  0  0
    2.6648   -1.1184   -6.2235 H   0  0  0  0  0  0  0  0  0  0  0  0
   -1.9968    1.6308   -0.4807 N   0  0  0  0  0  0  0  0  0  0  0  0
   -3.0488    2.5875   -0.2224 C   0  0  2  0  0  0  0  0  0  0  0  0
   -4.2552    2.1995   -1.0671 C   0  0  0  0  0  0  0  0  0  0  0  0
   -4.1578    1.6951   -2.1839 O   0  0  0  0  0  0  0  0  0  0  0  0
   -2.5974    4.0050   -0.5383 C   0  0  0  0  0  0  0  0  0  0  0  0
   -1.9425    1.2365   -1.4151 H   0  0  0  0  0  0  0  0  0  0  0  0
   -3.3024    2.4998    0.8396 H   0  0  0  0  0  0  0  0  0  0  0  0
   -2.3389    4.1122   -1.5981 H   0  0  0  0  0  0  0  0  0  0  0  0
   -3.3857    4.7315   -0.3152 H   0  0  0  0  0  0  0  0  0  0  0  0
   -1.7117    4.2718    0.0484 H   0  0  0  0  0  0  0  0  0  0  0  0
   -5.4532    2.5223   -0.4453 N   0  0  0  0  0  0  0  0  0  0  0  0
   -6.7386    2.2926   -1.0626 C   0  0  0  0  0  0  0  0  0  0  0  0
   -5.4409    2.9007    0.4972 H   0  0  0  0  0  0  0  0  0  0  0  0
   -7.0517    3.1963   -1.6060 H   0  0  0  0  0  0  0  0  0  0  0  0
   -6.6623    1.4501   -1.7657 H   0  0  0  0  0  0  0  0  0  0  0  0
   -7.4811    2.0561   -0.2861 H   0  0  0  0  0  0  0  0  0  0  0  0
  1  3  1  0  0  0  0
  1  7  1  0  0  0  0
  1  2  2  0  0  0  0
 39 40  1  0  0  0  0
 40 48  1  0  0  0  0
 40 41  2  0  0  0  0
  8  9  1  0  0  0  0
  9 17  1  0  0  0  0
  9 10  2  0  0  0  0
 18 19  1  0  0  0  0
 19 38  1  0  0  0  0
 19 20  2  0  0  0  0
 39 42  1  0  0  0  0
  8 11  1  0  0  0  0
 48 49  1  0  0  0  0
 22 23  1  0  0  0  0
 21 22  1  0  0  0  0
 23 24  1  0  0  0  0
 18 21  1  0  0  0  0
 24 25  1  0  0  0  0
 38 39  1  0  0  0  0
  7  8  1  0  0  0  0
 17 18  1  0  0  0  0
  3  4  1  0  0  0  0
  3  5  1  0  0  0  0
  3  6  1  0  0  0  0
 42 45  1  0  0  0  0
 42 46  1  0  0  0  0
 42 47  1  0  0  0  0
 11 14  1  0  0  0  0
 11 15  1  0  0  0  0
 11 16  1  0  0  0  0
 49 51  1  0  0  0  0
 49 52  1  0  0  0  0
 49 53  1  0  0  0  0
 22 30  1  0  0  0  0
 22 31  1  0  0  0  0
 23 32  1  0  0  0  0
 23 33  1  0  0  0  0
 21 28  1  0  0  0  0
 21 29  1  0  0  0  0
 24 34  1  0  0  0  0
 24 35  1  0  0  0  0
 39 44  1  0  0  0  0
  8 13  1  0  0  0  0
 18 27  1  0  0  0  0
 25 36  1  0  0  0  0
 25 37  1  0  0  0  0
 48 50  1  0  0  0  0
  7 12  1  0  0  0  0
 38 43  1  0  0  0  0
 17 26  1  0  0  0  0
M  END
$$$$

  -OEChem-05262214473D

 53 52  0     1  0  0  0  0  0999 V2000
   -1.0338   -5.6785    0.1476 C   0  0  0  0  0  0  0  0  0  0  0  0
   -2.0514   -5.7797    0.8227 O   0  0  0  0  0  0  0  0  0  0  0  0
   -0.6558   -6.7819   -0.7841 C   0  0  0  0  0  0  0  0  0  0  0  0
   -0.0111   -7.5354   -0.3038 H   0  0  0  0  0  0  0  0  0  0  0  0
   -1.5317   -7.3401   -1.1520 H   0  0  0  0  0  0  0  0  0  0  0  0
   -0.1109   -6.4687   -1.6890 H   0  0  0  0  0  0  0  0  0  0  0  0
   -0.1543   -4.6083    0.1480 N   0  0  0  0  0  0  0  0  0  0  0  0
   -0.3302   -3.4398    0.9696 C   0  0  2  0  0  0  0  0  0  0  0  0
    0.2328   -2.2439    0.2131 C   0  0  0  0  0  0  0  0  0  0  0  0
    1.2097   -2.3192   -0.5294 O   0  0  0  0  0  0  0  0  0  0  0  0
    0.3557   -3.6024    2.3171 C   0  0  0  0  0  0  0  0  0  0  0  0
    0.6584   -4.6506   -0.4643 H   0  0  0  0  0  0  0  0  0  0  0  0
   -1.4091   -3.3101    1.1082 H   0  0  0  0  0  0  0  0  0  0  0  0
    1.4375   -3.7336    2.1985 H   0  0  0  0  0  0  0  0  0  0  0  0
    0.1969   -2.7243    2.9517 H   0  0  0  0  0  0  0  0  0  0  0  0
   -0.0294   -4.4803    2.8470 H   0  0  0  0  0  0  0  0  0  0  0  0
   -0.4616   -1.0893    0.5050 N   0  0  0  0  0  0  0  0  0  0  0  0
   -0.0884    0.2050   -0.0621 C   0  0  2  0  0  0  0  0  0  0  0  0
   -1.0675    1.2448    0.4755 C   0  0  0  0  0  0  0  0  0  0  0  0
   -0.8826    1.8605    1.5235 O   0  0  0  0  0  0  0  0  0  0  0  0
   -0.1370    0.2034   -1.5973 C   0  0  0  0  0  0  0  0  0  0  0  0
    0.9393   -0.6785   -2.2388 C   0  0  0  0  0  0  0  0  0  0  0  0
    0.8614   -0.6244   -3.7670 C   0  0  0  0  0  0  0  0  0  0  0  0
    1.9189   -1.5230   -4.4060 C   0  0  0  0  0  0  0  0  0  0  0  0
    1.8124   -1.4755   -5.8594 N   0  0  0  0  0  0  0  0  0  0  0  0
   -1.2794   -1.1113    1.0935 H   0  0  0  0  0  0  0  0  0  0  0  0
    0.9234    0.4559    0.2784 H   0  0  0  0  0  0  0  0  0  0  0  0
   -0.0150    1.2320   -1.9617 H   0  0  0  0  0  0  0  0  0  0  0  0
   -1.1292   -0.1206   -1.9396 H   0  0  0  0  0  0  0  0  0  0  0  0
    0.8211   -1.7175   -1.9114 H   0  0  0  0  0  0  0  0  0  0  0  0
    1.9307   -0.3438   -1.9108 H   0  0  0  0  0  0  0  0  0  0  0  0
   -0.1390   -0.9370   -4.0921 H   0  0  0  0  0  0  0  0  0  0  0  0
    1.0018    0.4105   -4.1041 H   0  0  0  0  0  0  0  0  0  0  0  0
    1.7930   -2.5570   -4.0666 H   0  0  0  0  0  0  0  0  0  0  0  0
    2.9209   -1.1945   -4.1106 H   0  0  0  0  0  0  0  0  0  0  0  0
    1.0542   -0.8802   -6.0984 H   0  0  0  0  0  0  0  0  0  0  0  0
    2.6648   -1.1184   -6.2235 H   0  0  0  0  0  0  0  0  0  0  0  0
   -2.1804    1.3862   -0.3420 N   0  0  0  0  0  0  0  0  0  0  0  0
   -3.2692    2.2903   -0.0489 C   0  0  2  0  0  0  0  0  0  0  0  0
   -4.5527    1.6701   -0.5851 C   0  0  0  0  0  0  0  0  0  0  0  0
   -4.5921    0.9878   -1.6068 O   0  0  0  0  0  0  0  0  0  0  0  0
   -3.0304    3.6612   -0.6623 C   0  0  0  0  0  0  0  0  0  0  0  0
   -2.2429    0.8405   -1.1963 H   0  0  0  0  0  0  0  0  0  0  0  0
   -3.3293    2.3698    1.0420 H   0  0  0  0  0  0  0  0  0  0  0  0
   -2.9673    3.6016   -1.7550 H   0  0  0  0  0  0  0  0  0  0  0  0
   -3.8424    4.3532   -0.4154 H   0  0  0  0  0  0  0  0  0  0  0  0
   -2.0919    4.0930   -0.2982 H   0  0  0  0  0  0  0  0  0  0  0  0
   -5.6561    2.0039    0.1877 N   0  0  0  0  0  0  0  0  0  0  0  0
   -6.9955    1.5729   -0.1383 C   0  0  0  0  0  0  0  0  0  0  0  0
   -5.5252    2.5406    1.0401 H   0  0  0  0  0  0  0  0  0  0  0  0
   -7.4898    2.3416   -0.7505 H   0  0  0  0  0  0  0  0  0  0  0  0
   -6.9499    0.6291   -0.7015 H   0  0  0  0  0  0  0  0  0  0  0  0
   -7.5670    1.4194    0.7889 H   0  0  0  0  0  0  0  0  0  0  0  0
  1  3  1  0  0  0  0
  1  7  1  0  0  0  0
  1  2  2  0  0  0  0
 39 40  1  0  0  0  0
 40 48  1  0  0  0  0
 40 41  2  0  0  0  0
  8  9  1  0  0  0  0
  9 17  1  0  0  0  0
  9 10  2  0  0  0  0
 18 19  1  0  0  0  0
 19 38  1  0  0  0  0
 19 20  2  0  0  0  0
 39 42  1  0  0  0  0
  8 11  1  0  0  0  0
 48 49  1  0  0  0  0
 22 23  1  0  0  0  0
 21 22  1  0  0  0  0
 23 24  1  0  0  0  0
 18 21  1  0  0  0  0
 24 25  1  0  0  0  0
 38 39  1  0  0  0  0
  7  8  1  0  0  0  0
 17 18  1  0  0  0  0
  3  4  1  0  0  0  0
  3  5  1  0  0  0  0
  3  6  1  0  0  0  0
 42 45  1  0  0  0  0
 42 46  1  0  0  0  0
 42 47  1  0  0  0  0
 11 14  1  0  0  0  0
 11 15  1  0  0  0  0
 11 16  1  0  0  0  0
 49 51  1  0  0  0  0
 49 52  1  0  0  0  0
 49 53  1  0  0  0  0
 22 30  1  0  0  0  0
 22 31  1  0  0  0  0
 23 32  1  0  0  0  0
 23 33  1  0  0  0  0
 21 28  1  0  0  0  0
 21 29  1  0  0  0  0
 24 34  1  0  0  0  0
 24 35  1  0  0  0  0
 39 44  1  0  0  0  0
  8 13  1  0  0  0  0
 18 27  1  0  0  0  0
 25 36  1  0  0  0  0
 25 37  1  0  0  0  0
 48 50  1  0  0  0  0
  7 12  1  0  0  0  0
 38 43  1  0  0  0  0
 17 26  1  0  0  0  0
M  END
$$$$

  -OEChem-05262214473D

 53 52  0     1  0  0  0  0  0999 V2000
   -1.0338   -5.6785    0.1476 C   0  0  0  0  0  0  0  0  0  0  0  0
   -2.0514   -5.7797    0.8227 O   0  0  0  0  0  0  0  0  0  0  0  0
   -0.6558   -6.7819   -0.7841 C   0  0  0  0  0  0  0  0  0  0  0  0
   -0.0111   -7.5354   -0.3038 H   0  0  0  0  0  0  0  0  0  0  0  0
   -1.5317   -7.3401   -1.1520 H   0  0  0  0  0  0  0  0  0  0  0  0
   -0.1109   -6.4687   -1.6890 H   0  0  0  0  0  0  0  0  0  0  0  0
   -0.1543   -4.6083    0.1480 N   0  0  0  0  0  0  0  0  0  0  0  0
   -0.3302   -3.4398    0.9696 C   0  0  2  0  0  0  0  0  0  0  0  0
    0.2328   -2.2439    0.2131 C   0  0  0  0  0  0  0  0  0  0  0  0
    1.2097   -2.3192   -0.5294 O   0  0  0  0  0  0  0  0  0  0  0  0
    0.3557   -3.6024    2.3171 C   0  0  0  0  0  0  0  0  0  0  0  0
    0.6584   -4.6506   -0.4643 H   0  0  0  0  0  0  0  0  0  0  0  0
   -1.4091   -3.3101    1.1082 H   0  0  0  0  0  0  0  0  0  0  0  0
    1.4375   -3.7336    2.1985 H   0  0  0  0  0  0  0  0  0  0  0  0
    0.1969   -2.7243    2.9517 H   0  0  0  0  0  0  0  0  0  0  0  0
   -0.0294   -4.4803    2.8470 H   0  0  0  0  0  0  0  0  0  0  0  0
   -0.4616   -1.0893    0.5050 N   0  0  0  0  0  0  0  0  0  0  0  0
   -0.0884    0.2050   -0.0621 C   0  0  2  0  0  0  0  0  0  0  0  0
   -1.0675    1.2448    0.4755 C   0  0  0  0  0  0  0  0  0  0  0  0
   -0.7749    2.0459    1.3610 O   0  0  0  0  0  0  0  0  0  0  0  0
   -0.1370    0.2034   -1.5973 C   0  0  0  0  0  0  0  0  0  0  0  0
    0.9393   -0.6785   -2.2388 C   0  0  0  0  0  0  0  0  0  0  0  0
    0.8614   -0.6244   -3.7670 C   0  0  0  0  0  0  0  0  0  0  0  0
    1.9189   -1.5230   -4.4060 C   0  0  0  0  0  0  0  0  0  0  0  0
    1.8124   -1.4755   -5.8594 N   0  0  0  0  0  0  0  0  0  0  0  0
   -1.2794   -1.1113    1.0935 H   0  0  0  0  0  0  0  0  0  0  0  0
    0.9234    0.4559    0.2784 H   0  0  0  0  0  0  0  0  0  0  0  0
   -0.0150    1.2320   -1.9617 H   0  0  0  0  0  0  0  0  0  0  0  0
   -1.1292   -0.1206   -1.9396 H   0  0  0  0  0  0  0  0  0  0  0  0
    0.8211   -1.7175   -1.9114 H   0  0  0  0  0  0  0  0  0  0  0  0
    1.9307   -0.3438   -1.9108 H   0  0  0  0  0  0  0  0  0  0  0  0
   -0.1390   -0.9370   -4.0921 H   0  0  0  0  0  0  0  0  0  0  0  0
    1.0018    0.4105   -4.1041 H   0  0  0  0  0  0  0  0  0  0  0  0
    1.7930   -2.5570   -4.0666 H   0  0  0  0  0  0  0  0  0  0  0  0
    2.9209   -1.1945   -4.1106 H   0  0  0  0  0  0  0  0  0  0  0  0
    1.0542   -0.8802   -6.0984 H   0  0  0  0  0  0  0  0  0  0  0  0
    2.6648   -1.1184   -6.2235 H   0  0  0  0  0  0  0  0  0  0  0  0
   -2.3109    1.1563   -0.1351 N   0  0  0  0  0  0  0  0  0  0  0  0
   -3.4244    2.0119    0.2069 C   0  0  2  0  0  0  0  0  0  0  0  0
   -4.7068    1.2117    0.0209 C   0  0  0  0  0  0  0  0  0  0  0  0
   -4.8454    0.3608   -0.8554 O   0  0  0  0  0  0  0  0  0  0  0  0
   -3.4393    3.2691   -0.6485 C   0  0  0  0  0  0  0  0  0  0  0  0
   -2.4584    0.4669   -0.8662 H   0  0  0  0  0  0  0  0  0  0  0  0
   -3.3077    2.2755    1.2637 H   0  0  0  0  0  0  0  0  0  0  0  0
   -3.5554    3.0250   -1.7108 H   0  0  0  0  0  0  0  0  0  0  0  0
   -4.2667    3.9296   -0.3689 H   0  0  0  0  0  0  0  0  0  0  0  0
   -2.5039    3.8280   -0.5363 H   0  0  0  0  0  0  0  0  0  0  0  0
   -5.6932    1.5899    0.9209 N   0  0  0  0  0  0  0  0  0  0  0  0
   -7.0149    1.0078    0.9192 C   0  0  0  0  0  0  0  0  0  0  0  0
   -5.4781    2.2753    1.6391 H   0  0  0  0  0  0  0  0  0  0  0  0
   -7.6841    1.6180    0.2949 H   0  0  0  0  0  0  0  0  0  0  0  0
   -6.9651   -0.0134    0.5135 H   0  0  0  0  0  0  0  0  0  0  0  0
   -7.4023    0.9750    1.9482 H   0  0  0  0  0  0  0  0  0  0  0  0
  1  3  1  0  0  0  0
  1  7  1  0  0  0  0
  1  2  2  0  0  0  0
 39 40  1  0  0  0  0
 40 48  1  0  0  0  0
 40 41  2  0  0  0  0
  8  9  1  0  0  0  0
  9 17  1  0  0  0  0
  9 10  2  0  0  0  0
 18 19  1  0  0  0  0
 19 38  1  0  0  0  0
 19 20  2  0  0  0  0
 39 42  1  0  0  0  0
  8 11  1  0  0  0  0
 48 49  1  0  0  0  0
 22 23  1  0  0  0  0
 21 22  1  0  0  0  0
 23 24  1  0  0  0  0
 18 21  1  0  0  0  0
 24 25  1  0  0  0  0
 38 39  1  0  0  0  0
  7  8  1  0  0  0  0
 17 18  1  0  0  0  0
  3  4  1  0  0  0  0
  3  5  1  0  0  0  0
  3  6  1  0  0  0  0
 42 45  1  0  0  0  0
 42 46  1  0  0  0  0
 42 47  1  0  0  0  0
 11 14  1  0  0  0  0
 11 15  1  0  0  0  0
 11 16  1  0  0  0  0
 49 51  1  0  0  0  0
 49 52  1  0  0  0  0
 49 53  1  0  0  0  0
 22 30  1  0  0  0  0
 22 31  1  0  0  0  0
 23 32  1  0  0  0  0
 23 33  1  0  0  0  0
 21 28  1  0  0  0  0
 21 29  1  0  0  0  0
 24 34  1  0  0  0  0
 24 35  1  0  0  0  0
 39 44  1  0  0  0  0
  8 13  1  0  0  0  0
 18 27  1  0  0  0  0
 25 36  1  0  0  0  0
 25 37  1  0  0  0  0
 48 50  1  0  0  0  0
  7 12  1  0  0  0  0
 38 43  1  0  0  0  0
 17 26  1  0  0  0  0
M  END
$$$$

  -OEChem-05262214473D

 53 52  0     1  0  0  0  0  0999 V2000
   -1.0338   -5.6785    0.1476 C   0  0  0  0  0  0  0  0  0  0  0  0
   -2.0514   -5.7797    0.8227 O   0  0  0  0  0  0  0  0  0  0  0  0
   -0.6558   -6.7819   -0.7841 C   0  0  0  0  0  0  0  0  0  0  0  0
   -0.0111   -7.5354   -0.3038 H   0  0  0  0  0  0  0  0  0  0  0  0
   -1.5317   -7.3401   -1.1520 H   0  0  0  0  0  0  0  0  0  0  0  0
   -0.1109   -6.4687   -1.6890 H   0  0  0  0  0  0  0  0  0  0  0  0
   -0.1543   -4.6083    0.1480 N   0  0  0  0  0  0  0  0  0  0  0  0
   -0.3302   -3.4398    0.9696 C   0  0  2  0  0  0  0  0  0  0  0  0
    0.2328   -2.2439    0.2131 C   0  0  0  0  0  0  0  0  0  0  0  0
    1.2097   -2.3192   -0.5294 O   0  0  0  0  0  0  0  0  0  0  0  0
    0.3557   -3.6024    2.3171 C   0  0  0  0  0  0  0  0  0  0  0  0
    0.6584   -4.6506   -0.4643 H   0  0  0  0  0  0  0  0  0  0  0  0
   -1.4091   -3.3101    1.1082 H   0  0  0  0  0  0  0  0  0  0  0  0
    1.4375   -3.7336    2.1985 H   0  0  0  0  0  0  0  0  0  0  0  0
    0.1969   -2.7243    2.9517 H   0  0  0  0  0  0  0  0  0  0  0  0
   -0.0294   -4.4803    2.8470 H   0  0  0  0  0  0  0  0  0  0  0  0
   -0.4616   -1.0893    0.5050 N   0  0  0  0  0  0  0  0  0  0  0  0
   -0.0884    0.2050   -0.0621 C   0  0  2  0  0  0  0  0  0  0  0  0
   -1.0675    1.2448    0.4755 C   0  0  0  0  0  0  0  0  0  0  0  0
   -0.7164    2.2079    1.1542 O   0  0  0  0  0  0  0  0  0  0  0  0
   -0.1370    0.2034   -1.5973 C   0  0  0  0  0  0  0  0  0  0  0  0
    0.9393   -0.6785   -2.2388 C   0  0  0  0  0  0  0  0  0  0  0  0
    0.8614   -0.6244   -3.7670 C   0  0  0  0  0  0  0  0  0  0  0  0
    1.9189   -1.5230   -4.4060 C   0  0  0  0  0  0  0  0  0  0  0  0
    1.8124   -1.4755   -5.8594 N   0  0  0  0  0  0  0  0  0  0  0  0
   -1.2794   -1.1113    1.0935 H   0  0  0  0  0  0  0  0  0  0  0  0
    0.9234    0.4559    0.2784 H   0  0  0  0  0  0  0  0  0  0  0  0
   -0.0150    1.2320   -1.9617 H   0  0  0  0  0  0  0  0  0  0  0  0
   -1.1292   -0.1206   -1.9396 H   0  0  0  0  0  0  0  0  0  0  0  0
    0.8211   -1.7175   -1.9114 H   0  0  0  0  0  0  0  0  0  0  0  0
    1.9307   -0.3438   -1.9108 H   0  0  0  0  0  0  0  0  0  0  0  0
   -0.1390   -0.9370   -4.0921 H   0  0  0  0  0  0  0  0  0  0  0  0
    1.0018    0.4105   -4.1041 H   0  0  0  0  0  0  0  0  0  0  0  0
    1.7930   -2.5570   -4.0666 H   0  0  0  0  0  0  0  0  0  0  0  0
    2.9209   -1.1945   -4.1106 H   0  0  0  0  0  0  0  0  0  0  0  0
    1.0542   -0.8802   -6.0984 H   0  0  0  0  0  0  0  0  0  0  0  0
    2.6648   -1.1184   -6.2235 H   0  0  0  0  0  0  0  0  0  0  0  0
   -2.3796    0.9567    0.1259 N   0  0  0  0  0  0  0  0  0  0  0  0
   -3.5038    1.7713    0.5276 C   0  0  2  0  0  0  0  0  0  0  0  0
   -4.7070    0.8555    0.7095 C   0  0  0  0  0  0  0  0  0  0  0  0
   -4.9003   -0.1431    0.0192 O   0  0  0  0  0  0  0  0  0  0  0  0
   -3.7960    2.8554   -0.4981 C   0  0  0  0  0  0  0  0  0  0  0  0
   -2.5743    0.1412   -0.4474 H   0  0  0  0  0  0  0  0  0  0  0  0
   -3.2392    2.2231    1.4898 H   0  0  0  0  0  0  0  0  0  0  0  0
   -4.0630    2.4218   -1.4687 H   0  0  0  0  0  0  0  0  0  0  0  0
   -4.6297    3.4894   -0.1787 H   0  0  0  0  0  0  0  0  0  0  0  0
   -2.9198    3.4950   -0.6495 H   0  0  0  0  0  0  0  0  0  0  0  0
   -5.5619    1.3084    1.7045 N   0  0  0  0  0  0  0  0  0  0  0  0
   -6.7957    0.6358    2.0380 C   0  0  0  0  0  0  0  0  0  0  0  0
   -5.3027    2.1228    2.2534 H   0  0  0  0  0  0  0  0  0  0  0  0
   -7.6215    1.0750    1.4592 H   0  0  0  0  0  0  0  0  0  0  0  0
   -6.7070   -0.4337    1.7965 H   0  0  0  0  0  0  0  0  0  0  0  0
   -6.9984    0.7533    3.1128 H   0  0  0  0  0  0  0  0  0  0  0  0
  1  3  1  0  0  0  0
  1  7  1  0  0  0  0
  1  2  2  0  0  0  0
 39 40  1  0  0  0  0
 40 48  1  0  0  0  0
 40 41  2  0  0  0  0
  8  9  1  0  0  0  0
  9 17  1  0  0  0  0
  9 10  2  0  0  0  0
 18 19  1  0  0  0  0
 19 38  1  0  0  0  0
 19 20  2  0  0  0  0
 39 42  1  0  0  0  0
  8 11  1  0  0  0  0
 48 49  1  0  0  0  0
 22 23  1  0  0  0  0
 21 22  1  0  0  0  0
 23 24  1  0  0  0  0
 18 21  1  0  0  0  0
 24 25  1  0  0  0  0
 38 39  1  0  0  0  0
  7  8  1  0  0  0  0
 17 18  1  0  0  0  0
  3  4  1  0  0  0  0
  3  5  1  0  0  0  0
  3  6  1  0  0  0  0
 42 45  1  0  0  0  0
 42 46  1  0  0  0  0
 42 47  1  0  0  0  0
 11 14  1  0  0  0  0
 11 15  1  0  0  0  0
 11 16  1  0  0  0  0
 49 51  1  0  0  0  0
 49 52  1  0  0  0  0
 49 53  1  0  0  0  0
 22 30  1  0  0  0  0
 22 31  1  0  0  0  0
 23 32  1  0  0  0  0
 23 33  1  0  0  0  0
 21 28  1  0  0  0  0
 21 29  1  0  0  0  0
 24 34  1  0  0  0  0
 24 35  1  0  0  0  0
 39 44  1  0  0  0  0
  8 13  1  0  0  0  0
 18 27  1  0  0  0  0
 25 36  1  0  0  0  0
 25 37  1  0  0  0  0
 48 50  1  0  0  0  0
  7 12  1  0  0  0  0
 38 43  1  0  0  0  0
 17 26  1  0  0  0  0
M  END
$$$$

  -OEChem-05262214473D

 53 52  0     1  0  0  0  0  0999 V2000
   -1.0338   -5.6785    0.1476 C   0  0  0  0  0  0  0  0  0  0  0  0
   -2.0514   -5.7797    0.8227 O   0  0  0  0  0  0  0  0  0  0  0  0
   -0.6558   -6.7819   -0.7841 C   0  0  0  0  0  0  0  0  0  0  0  0
   -0.0111   -7.5354   -0.3038 H   0  0  0  0  0  0  0  0  0  0  0  0
   -1.5317   -7.3401   -1.1520 H   0  0  0  0  0  0  0  0  0  0  0  0
   -0.1109   -6.4687   -1.6890 H   0  0  0  0  0  0  0  0  0  0  0  0
   -0.1543   -4.6083    0.1480 N   0  0  0  0  0  0  0  0  0  0  0  0
   -0.3302   -3.4398    0.9696 C   0  0  2  0  0  0  0  0  0  0  0  0
    0.2328   -2.2439    0.2131 C   0  0  0  0  0  0  0  0  0  0  0  0
    1.2097   -2.3192   -0.5294 O   0  0  0  0  0  0  0  0  0  0  0  0
    0.3557   -3.6024    2.3171 C   0  0  0  0  0  0  0  0  0  0  0  0
    0.6584   -4.6506   -0.4643 H   0  0  0  0  0  0  0  0  0  0  0  0
   -1.4091   -3.3101    1.1082 H   0  0  0  0  0  0  0  0  0  0  0  0
    1.4375   -3.7336    2.1985 H   0  0  0  0  0  0  0  0  0  0  0  0
    0.1969   -2.7243    2.9517 H   0  0  0  0  0  0  0  0  0  0  0  0
   -0.0294   -4.4803    2.8470 H   0  0  0  0  0  0  0  0  0  0  0  0
   -0.4616   -1.0893    0.5050 N   0  0  0  0  0  0  0  0  0  0  0  0
   -0.0884    0.2050   -0.0621 C   0  0  2  0  0  0  0  0  0  0  0  0
   -1.0675    1.2448    0.4755 C   0  0  0  0  0  0  0  0  0  0  0  0
   -0.7111    2.3354    0.9173 O   0  0  0  0  0  0  0  0  0  0  0  0
   -0.1370    0.2034   -1.5973 C   0  0  0  0  0  0  0  0  0  0  0  0
    0.9393   -0.6785   -2.2388 C   0  0  0  0  0  0  0  0  0  0  0  0
    0.8614   -0.6244   -3.7670 C   0  0  0  0  0  0  0  0  0  0  0  0
    1.9189   -1.5230   -4.4060 C   0  0  0  0  0  0  0  0  0  0  0  0
    1.8124   -1.4755   -5.8594 N   0  0  0  0  0  0  0  0  0  0  0  0
   -1.2794   -1.1113    1.0935 H   0  0  0  0  0  0  0  0  0  0  0  0
    0.9234    0.4559    0.2784 H   0  0  0  0  0  0  0  0  0  0  0  0
   -0.0150    1.2320   -1.9617 H   0  0  0  0  0  0  0  0  0  0  0  0
   -1.1292   -0.1206   -1.9396 H   0  0  0  0  0  0  0  0  0  0  0  0
    0.8211   -1.7175   -1.9114 H   0  0  0  0  0  0  0  0  0  0  0  0
    1.9307   -0.3438   -1.9108 H   0  0  0  0  0  0  0  0  0  0  0  0
   -0.1390   -0.9370   -4.0921 H   0  0  0  0  0  0  0  0  0  0  0  0
    1.0018    0.4105   -4.1041 H   0  0  0  0  0  0  0  0  0  0  0  0
    1.7930   -2.5570   -4.0666 H   0  0  0  0  0  0  0  0  0  0  0  0
    2.9209   -1.1945   -4.1106 H   0  0  0  0  0  0  0  0  0  0  0  0
    1.0542   -0.8802   -6.0984 H   0  0  0  0  0  0  0  0  0  0  0  0
    2.6648   -1.1184   -6.2235 H   0  0  0  0  0  0  0  0  0  0  0  0
   -2.3817    0.8010    0.4233 N   0  0  0  0  0  0  0  0  0  0  0  0
   -3.5020    1.5849    0.8913 C   0  0  2  0  0  0  0  0  0  0  0  0
   -4.5533    0.6257    1.4338 C   0  0  0  0  0  0  0  0  0  0  0  0
   -4.7532   -0.4897    0.9574 O   0  0  0  0  0  0  0  0  0  0  0  0
   -4.0763    2.4483   -0.2211 C   0  0  0  0  0  0  0  0  0  0  0  0
   -2.5826   -0.1144    0.0317 H   0  0  0  0  0  0  0  0  0  0  0  0
   -3.1284    2.2163    1.7048 H   0  0  0  0  0  0  0  0  0  0  0  0
   -4.4557    1.8331   -1.0452 H   0  0  0  0  0  0  0  0  0  0  0  0
   -4.9067    3.0627    0.1421 H   0  0  0  0  0  0  0  0  0  0  0  0
   -3.3110    3.1166   -0.6303 H   0  0  0  0  0  0  0  0  0  0  0  0
   -5.2713    1.1785    2.4850 N   0  0  0  0  0  0  0  0  0  0  0  0
   -6.3528    0.4822    3.1418 C   0  0  0  0  0  0  0  0  0  0  0  0
   -5.0111    2.0935    2.8412 H   0  0  0  0  0  0  0  0  0  0  0  0
   -7.3062    0.7496    2.6629 H   0  0  0  0  0  0  0  0  0  0  0  0
   -6.1932   -0.6031    3.0600 H   0  0  0  0  0  0  0  0  0  0  0  0
   -6.3825    0.7694    4.2033 H   0  0  0  0  0  0  0  0  0  0  0  0
  1  3  1  0  0  0  0
  1  7  1  0  0  0  0
  1  2  2  0  0  0  0
 39 40  1  0  0  0  0
 40 48  1  0  0  0  0
 40 41  2  0  0  0  0
  8  9  1  0  0  0  0
  9 17  1  0  0  0  0
  9 10  2  0  0  0  0
 18 19  1  0  0  0  0
 19 38  1  0  0  0  0
 19 20  2  0  0  0  0
 39 42  1  0  0  0  0
  8 11  1  0  0  0  0
 48 49  1  0  0  0  0
 22 23  1  0  0  0  0
 21 22  1  0  0  0  0
 23 24  1  0  0  0  0
 18 21  1  0  0  0  0
 24 25  1  0  0  0  0
 38 39  1  0  0  0  0
  7  8  1  0  0  0  0
 17 18  1  0  0  0  0
  3  4  1  0  0  0  0
  3  5  1  0  0  0  0
  3  6  1  0  0  0  0
 42 45  1  0  0  0  0
 42 46  1  0  0  0  0
 42 47  1  0  0  0  0
 11 14  1  0  0  0  0
 11 15  1  0  0  0  0
 11 16  1  0  0  0  0
 49 51  1  0  0  0  0
 49 52  1  0  0  0  0
 49 53  1  0  0  0  0
 22 30  1  0  0  0  0
 22 31  1  0  0  0  0
 23 32  1  0  0  0  0
 23 33  1  0  0  0  0
 21 28  1  0  0  0  0
 21 29  1  0  0  0  0
 24 34  1  0  0  0  0
 24 35  1  0  0  0  0
 39 44  1  0  0  0  0
  8 13  1  0  0  0  0
 18 27  1  0  0  0  0
 25 36  1  0  0  0  0
 25 37  1  0  0  0  0
 48 50  1  0  0  0  0
  7 12  1  0  0  0  0
 38 43  1  0  0  0  0
 17 26  1  0  0  0  0
M  END
$$$$

  -OEChem-05262214473D

 53 52  0     1  0  0  0  0  0999 V2000
   -1.0338   -5.6785    0.1476 C   0  0  0  0  0  0  0  0  0  0  0  0
   -2.0514   -5.7797    0.8227 O   0  0  0  0  0  0  0  0  0  0  0  0
   -0.6558   -6.7819   -0.7841 C   0  0  0  0  0  0  0  0  0  0  0  0
   -0.0111   -7.5354   -0.3038 H   0  0  0  0  0  0  0  0  0  0  0  0
   -1.5317   -7.3401   -1.1520 H   0  0  0  0  0  0  0  0  0  0  0  0
   -0.1109   -6.4687   -1.6890 H   0  0  0  0  0  0  0  0  0  0  0  0
   -0.1543   -4.6083    0.1480 N   0  0  0  0  0  0  0  0  0  0  0  0
   -0.3302   -3.4398    0.9696 C   0  0  2  0  0  0  0  0  0  0  0  0
    0.2328   -2.2439    0.2131 C   0  0  0  0  0  0  0  0  0  0  0  0
    1.2097   -2.3192   -0.5294 O   0  0  0  0  0  0  0  0  0  0  0  0
    0.3557   -3.6024    2.3171 C   0  0  0  0  0  0  0  0  0  0  0  0
    0.6584   -4.6506   -0.4643 H   0  0  0  0  0  0  0  0  0  0  0  0
   -1.4091   -3.3101    1.1082 H   0  0  0  0  0  0  0  0  0  0  0  0
    1.4375   -3.7336    2.1985 H   0  0  0  0  0  0  0  0  0  0  0  0
    0.1969   -2.7243    2.9517 H   0  0  0  0  0  0  0  0  0  0  0  0
   -0.0294   -4.4803    2.8470 H   0  0  0  0  0  0  0  0  0  0  0  0
   -0.4616   -1.0893    0.5050 N   0  0  0  0  0  0  0  0  0  0  0  0
   -0.0884    0.2050   -0.0621 C   0  0  2  0  0  0  0  0  0  0  0  0
   -1.0675    1.2448    0.4755 C   0  0  0  0  0  0  0  0  0  0  0  0
   -0.7594    2.4196    0.6664 O   0  0  0  0  0  0  0  0  0  0  0  0
   -0.1370    0.2034   -1.5973 C   0  0  0  0  0  0  0  0  0  0  0  0
    0.9393   -0.6785   -2.2388 C   0  0  0  0  0  0  0  0  0  0  0  0
    0.8614   -0.6244   -3.7670 C   0  0  0  0  0  0  0  0  0  0  0  0
    1.9189   -1.5230   -4.4060 C   0  0  0  0  0  0  0  0  0  0  0  0
    1.8124   -1.4755   -5.8594 N   0  0  0  0  0  0  0  0  0  0  0  0
   -1.2794   -1.1113    1.0935 H   0  0  0  0  0  0  0  0  0  0  0  0
    0.9234    0.4559    0.2784 H   0  0  0  0  0  0  0  0  0  0  0  0
   -0.0150    1.2320   -1.9617 H   0  0  0  0  0  0  0  0  0  0  0  0
   -1.1292   -0.1206   -1.9396 H   0  0  0  0  0  0  0  0  0  0  0  0
    0.8211   -1.7175   -1.9114 H   0  0  0  0  0  0  0  0  0  0  0  0
    1.9307   -0.3438   -1.9108 H   0  0  0  0  0  0  0  0  0  0  0  0
   -0.1390   -0.9370   -4.0921 H   0  0  0  0  0  0  0  0  0  0  0  0
    1.0018    0.4105   -4.1041 H   0  0  0  0  0  0  0  0  0  0  0  0
    1.7930   -2.5570   -4.0666 H   0  0  0  0  0  0  0  0  0  0  0  0
    2.9209   -1.1945   -4.1106 H   0  0  0  0  0  0  0  0  0  0  0  0
    1.0542   -0.8802   -6.0984 H   0  0  0  0  0  0  0  0  0  0  0  0
    2.6648   -1.1184   -6.2235 H   0  0  0  0  0  0  0  0  0  0  0  0
   -2.3170    0.6997    0.7369 N   0  0  0  0  0  0  0  0  0  0  0  0
   -3.4192    1.4654    1.2733 C   0  0  2  0  0  0  0  0  0  0  0  0
   -4.2561    0.5381    2.1445 C   0  0  0  0  0  0  0  0  0  0  0  0
   -4.4141   -0.6552    1.8952 O   0  0  0  0  0  0  0  0  0  0  0  0
   -4.2611    2.0754    0.1634 C   0  0  0  0  0  0  0  0  0  0  0  0
   -2.4829   -0.2824    0.5384 H   0  0  0  0  0  0  0  0  0  0  0  0
   -2.9828    2.2556    1.8940 H   0  0  0  0  0  0  0  0  0  0  0  0
   -4.7066    1.2989   -0.4691 H   0  0  0  0  0  0  0  0  0  0  0  0
   -5.0788    2.6786    0.5716 H   0  0  0  0  0  0  0  0  0  0  0  0
   -3.6511    2.7186   -0.4799 H   0  0  0  0  0  0  0  0  0  0  0  0
   -4.8411    1.2092    3.2092 N   0  0  0  0  0  0  0  0  0  0  0  0
   -5.7162    0.5575    4.1554 C   0  0  0  0  0  0  0  0  0  0  0  0
   -4.6231    2.1894    3.3625 H   0  0  0  0  0  0  0  0  0  0  0  0
   -6.7597    0.6639    3.8240 H   0  0  0  0  0  0  0  0  0  0  0  0
   -5.4585   -0.5100    4.2180 H   0  0  0  0  0  0  0  0  0  0  0  0
   -5.5969    1.0222    5.1453 H   0  0  0  0  0  0  0  0  0  0  0  0
  1  3  1  0  0  0  0
  1  7  1  0  0  0  0
  1  2  2  0  0  0  0
 39 40  1  0  0  0  0
 40 48  1  0  0  0  0
 40 41  2  0  0  0  0
  8  9  1  0  0  0  0
  9 17  1  0  0  0  0
  9 10  2  0  0  0  0
 18 19  1  0  0  0  0
 19 38  1  0  0  0  0
 19 20  2  0  0  0  0
 39 42  1  0  0  0  0
  8 11  1  0  0  0  0
 48 49  1  0  0  0  0
 22 23  1  0  0  0  0
 21 22  1  0  0  0  0
 23 24  1  0  0  0  0
 18 21  1  0  0  0  0
 24 25  1  0  0  0  0
 38 39  1  0  0  0  0
  7  8  1  0  0  0  0
 17 18  1  0  0  0  0
  3  4  1  0  0  0  0
  3  5  1  0  0  0  0
  3  6  1  0  0  0  0
 42 45  1  0  0  0  0
 42 46  1  0  0  0  0
 42 47  1  0  0  0  0
 11 14  1  0  0  0  0
 11 15  1  0  0  0  0
 11 16  1  0  0  0  0
 49 51  1  0  0  0  0
 49 52  1  0  0  0  0
 49 53  1  0  0  0  0
 22 30  1  0  0  0  0
 22 31  1  0  0  0  0
 23 32  1  0  0  0  0
 23 33  1  0  0  0  0
 21 28  1  0  0  0  0
 21 29  1  0  0  0  0
 24 34  1  0  0  0  0
 24 35  1  0  0  0  0
 39 44  1  0  0  0  0
  8 13  1  0  0  0  0
 18 27  1  0  0  0  0
 25 36  1  0  0  0  0
 25 37  1  0  0  0  0
 48 50  1  0  0  0  0
  7 12  1  0  0  0  0
 38 43  1  0  0  0  0
 17 26  1  0  0  0  0
M  END
$$$$

  -OEChem-05262214473D

 53 52  0     1  0  0  0  0  0999 V2000
   -1.0338   -5.6785    0.1476 C   0  0  0  0  0  0  0  0  0  0  0  0
   -2.0514   -5.7797    0.8227 O   0  0  0  0  0  0  0  0  0  0  0  0
   -0.6558   -6.7819   -0.7841 C   0  0  0  0  0  0  0  0  0  0  0  0
   -0.0111   -7.5354   -0.3038 H   0  0  0  0  0  0  0  0  0  0  0  0
   -1.5317   -7.3401   -1.1520 H   0  0  0  0  0  0  0  0  0  0  0  0
   -0.1109   -6.4687   -1.6890 H   0  0  0  0  0  0  0  0  0  0  0  0
   -0.1543   -4.6083    0.1480 N   0  0  0  0  0  0  0  0  0  0  0  0
   -0.3302   -3.4398    0.9696 C   0  0  2  0  0  0  0  0  0  0  0  0
    0.2328   -2.2439    0.2131 C   0  0  0  0  0  0  0  0  0  0  0  0
    1.2097   -2.3192   -0.5294 O   0  0  0  0  0  0  0  0  0  0  0  0
    0.3557   -3.6024    2.3171 C   0  0  0  0  0  0  0  0  0  0  0  0
    0.6584   -4.6506   -0.4643 H   0  0  0  0  0  0  0  0  0  0  0  0
   -1.4091   -3.3101    1.1082 H   0  0  0  0  0  0  0  0  0  0  0  0
    1.4375   -3.7336    2.1985 H   0  0  0  0  0  0  0  0  0  0  0  0
    0.1969   -2.7243    2.9517 H   0  0  0  0  0  0  0  0  0  0  0  0
   -0.0294   -4.4803    2.8470 H   0  0  0  0  0  0  0  0  0  0  0  0
   -0.4616   -1.0893    0.5050 N   0  0  0  0  0  0  0  0  0  0  0  0
   -0.0884    0.2050   -0.0621 C   0  0  2  0  0  0  0  0  0  0  0  0
   -1.0675    1.2448    0.4755 C   0  0  0  0  0  0  0  0  0  0  0  0
   -0.8580    2.4549    0.4185 O   0  0  0  0  0  0  0  0  0  0  0  0
   -0.1370    0.2034   -1.5973 C   0  0  0  0  0  0  0  0  0  0  0  0
    0.9393   -0.6785   -2.2388 C   0  0  0  0  0  0  0  0  0  0  0  0
    0.8614   -0.6244   -3.7670 C   0  0  0  0  0  0  0  0  0  0  0  0
    1.9189   -1.5230   -4.4060 C   0  0  0  0  0  0  0  0  0  0  0  0
    1.8124   -1.4755   -5.8594 N   0  0  0  0  0  0  0  0  0  0  0  0
   -1.2794   -1.1113    1.0935 H   0  0  0  0  0  0  0  0  0  0  0  0
    0.9234    0.4559    0.2784 H   0  0  0  0  0  0  0  0  0  0  0  0
   -0.0150    1.2320   -1.9617 H   0  0  0  0  0  0  0  0  0  0  0  0
   -1.1292   -0.1206   -1.9396 H   0  0  0  0  0  0  0  0  0  0  0  0
    0.8211   -1.7175   -1.9114 H   0  0  0  0  0  0  0  0  0  0  0  0
    1.9307   -0.3438   -1.9108 H   0  0  0  0  0  0  0  0  0  0  0  0
   -0.1390   -0.9370   -4.0921 H   0  0  0  0  0  0  0  0  0  0  0  0
    1.0018    0.4105   -4.1041 H   0  0  0  0  0  0  0  0  0  0  0  0
    1.7930   -2.5570   -4.0666 H   0  0  0  0  0  0  0  0  0  0  0  0
    2.9209   -1.1945   -4.1106 H   0  0  0  0  0  0  0  0  0  0  0  0
    1.0542   -0.8802   -6.0984 H   0  0  0  0  0  0  0  0  0  0  0  0
    2.6648   -1.1184   -6.2235 H   0  0  0  0  0  0  0  0  0  0  0  0
   -2.1901    0.6599    1.0451 N   0  0  0  0  0  0  0  0  0  0  0  0
   -3.2609    1.4210    1.6475 C   0  0  2  0  0  0  0  0  0  0  0  0
   -3.8358    0.5986    2.7931 C   0  0  0  0  0  0  0  0  0  0  0  0
   -3.9060   -0.6284    2.7687 O   0  0  0  0  0  0  0  0  0  0  0  0
   -4.3378    1.7622    0.6294 C   0  0  0  0  0  0  0  0  0  0  0  0
   -2.2819   -0.3516    1.0382 H   0  0  0  0  0  0  0  0  0  0  0  0
   -2.8124    2.3382    2.0446 H   0  0  0  0  0  0  0  0  0  0  0  0
   -4.7987    0.8558    0.2203 H   0  0  0  0  0  0  0  0  0  0  0  0
   -5.1343    2.3632    1.0807 H   0  0  0  0  0  0  0  0  0  0  0  0
   -3.9168    2.3282   -0.2086 H   0  0  0  0  0  0  0  0  0  0  0  0
   -4.3006    1.3983    3.8277 N   0  0  0  0  0  0  0  0  0  0  0  0
   -4.9295    0.8566    5.0097 C   0  0  0  0  0  0  0  0  0  0  0  0
   -4.1651    2.4040    3.7816 H   0  0  0  0  0  0  0  0  0  0  0  0
   -6.0193    0.8237    4.8634 H   0  0  0  0  0  0  0  0  0  0  0  0
   -4.5532   -0.1608    5.1915 H   0  0  0  0  0  0  0  0  0  0  0  0
   -4.6949    1.4944    5.8747 H   0  0  0  0  0  0  0  0  0  0  0  0
  1  3  1  0  0  0  0
  1  7  1  0  0  0  0
  1  2  2  0  0  0  0
 39 40  1  0  0  0  0
 40 48  1  0  0  0  0
 40 41  2  0  0  0  0
  8  9  1  0  0  0  0
  9 17  1  0  0  0  0
  9 10  2  0  0  0  0
 18 19  1  0  0  0  0
 19 38  1  0  0  0  0
 19 20  2  0  0  0  0
 39 42  1  0  0  0  0
  8 11  1  0  0  0  0
 48 49  1  0  0  0  0
 22 23  1  0  0  0  0
 21 22  1  0  0  0  0
 23 24  1  0  0  0  0
 18 21  1  0  0  0  0
 24 25  1  0  0  0  0
 38 39  1  0  0  0  0
  7  8  1  0  0  0  0
 17 18  1  0  0  0  0
  3  4  1  0  0  0  0
  3  5  1  0  0  0  0
  3  6  1  0  0  0  0
 42 45  1  0  0  0  0
 42 46  1  0  0  0  0
 42 47  1  0  0  0  0
 11 14  1  0  0  0  0
 11 15  1  0  0  0  0
 11 16  1  0  0  0  0
 49 51  1  0  0  0  0
 49 52  1  0  0  0  0
 49 53  1  0  0  0  0
 22 30  1  0  0  0  0
 22 31  1  0  0  0  0
 23 32  1  0  0  0  0
 23 33  1  0  0  0  0
 21 28  1  0  0  0  0
 21 29  1  0  0  0  0
 24 34  1  0  0  0  0
 24 35  1  0  0  0  0
 39 44  1  0  0  0  0
  8 13  1  0  0  0  0
 18 27  1  0  0  0  0
 25 36  1  0  0  0  0
 25 37  1  0  0  0  0
 48 50  1  0  0  0  0
  7 12  1  0  0  0  0
 38 43  1  0  0  0  0
 17 26  1  0  0  0  0
M  END
$$$$

  -OEChem-05262214473D

 53 52  0     1  0  0  0  0  0999 V2000
   -1.0338   -5.6785    0.1476 C   0  0  0  0  0  0  0  0  0  0  0  0
   -2.0514   -5.7797    0.8227 O   0  0  0  0  0  0  0  0  0  0  0  0
   -0.6558   -6.7819   -0.7841 C   0  0  0  0  0  0  0  0  0  0  0  0
   -0.0111   -7.5354   -0.3038 H   0  0  0  0  0  0  0  0  0  0  0  0
   -1.5317   -7.3401   -1.1520 H   0  0  0  0  0  0  0  0  0  0  0  0
   -0.1109   -6.4687   -1.6890 H   0  0  0  0  0  0  0  0  0  0  0  0
   -0.1543   -4.6083    0.1480 N   0  0  0  0  0  0  0  0  0  0  0  0
   -0.3302   -3.4398    0.9696 C   0  0  2  0  0  0  0  0  0  0  0  0
    0.2328   -2.2439    0.2131 C   0  0  0  0  0  0  0  0  0  0  0  0
    1.2097   -2.3192   -0.5294 O   0  0  0  0  0  0  0  0  0  0  0  0
    0.3557   -3.6024    2.3171 C   0  0  0  0  0  0  0  0  0  0  0  0
    0.6584   -4.6506   -0.4643 H   0  0  0  0  0  0  0  0  0  0  0  0
   -1.4091   -3.3101    1.1082 H   0  0  0  0  0  0  0  0  0  0  0  0
    1.4375   -3.7336    2.1985 H   0  0  0  0  0  0  0  0  0  0  0  0
    0.1969   -2.7243    2.9517 H   0  0  0  0  0  0  0  0  0  0  0  0
   -0.0294   -4.4803    2.8470 H   0  0  0  0  0  0  0  0  0  0  0  0
   -0.4616   -1.0893    0.5050 N   0  0  0  0  0  0  0  0  0  0  0  0
   -0.0884    0.2050   -0.0621 C   0  0  2  0  0  0  0  0  0  0  0  0
   -1.0675    1.2448    0.4755 C   0  0  0  0  0  0  0  0  0  0  0  0
   -1.0002    2.4389    0.1906 O   0  0  0  0  0  0  0  0  0  0  0  0
   -0.1370    0.2034   -1.5973 C   0  0  0  0  0  0  0  0  0  0  0  0
    0.9393   -0.6785   -2.2388 C   0  0  0  0  0  0  0  0  0  0  0  0
    0.8614   -0.6244   -3.7670 C   0  0  0  0  0  0  0  0  0  0  0  0
    1.9189   -1.5230   -4.4060 C   0  0  0  0  0  0  0  0  0  0  0  0
    1.8124   -1.4755   -5.8594 N   0  0  0  0  0  0  0  0  0  0  0  0
   -1.2794   -1.1113    1.0935 H   0  0  0  0  0  0  0  0  0  0  0  0
    0.9234    0.4559    0.2784 H   0  0  0  0  0  0  0  0  0  0  0  0
   -0.0150    1.2320   -1.9617 H   0  0  0  0  0  0  0  0  0  0  0  0
   -1.1292   -0.1206   -1.9396 H   0  0  0  0  0  0  0  0  0  0  0  0
    0.8211   -1.7175   -1.9114 H   0  0  0  0  0  0  0  0  0  0  0  0
    1.9307   -0.3438   -1.9108 H   0  0  0  0  0  0  0  0  0  0  0  0
   -0.1390   -0.9370   -4.0921 H   0  0  0  0  0  0  0  0  0  0  0  0
    1.0018    0.4105   -4.1041 H   0  0  0  0  0  0  0  0  0  0  0  0
    1.7930   -2.5570   -4.0666 H   0  0  0  0  0  0  0  0  0  0  0  0
    2.9209   -1.1945   -4.1106 H   0  0  0  0  0  0  0  0  0  0  0  0
    1.0542   -0.8802   -6.0984 H   0  0  0  0  0  0  0  0  0  0  0  0
    2.6648   -1.1184   -6.2235 H   0  0  0  0  0  0  0  0  0  0  0  0
   -2.0095    0.6842    1.3270 N   0  0  0  0  0  0  0  0  0  0  0  0
   -3.0379    1.4547    1.9883 C   0  0  2  0  0  0  0  0  0  0  0  0
   -3.3208    0.8030    3.3355 C   0  0  0  0  0  0  0  0  0  0  0  0
   -3.2637   -0.4112    3.5185 O   0  0  0  0  0  0  0  0  0  0  0  0
   -4.3012    1.5302    1.1450 C   0  0  0  0  0  0  0  0  0  0  0  0
   -1.9934   -0.3170    1.4969 H   0  0  0  0  0  0  0  0  0  0  0  0
   -2.6287    2.4585    2.1463 H   0  0  0  0  0  0  0  0  0  0  0  0
   -4.7257    0.5338    0.9761 H   0  0  0  0  0  0  0  0  0  0  0  0
   -5.0693    2.1380    1.6345 H   0  0  0  0  0  0  0  0  0  0  0  0
   -4.0899    1.9719    0.1652 H   0  0  0  0  0  0  0  0  0  0  0  0
   -3.6868    1.7330    4.2985 N   0  0  0  0  0  0  0  0  0  0  0  0
   -4.0463    1.3592    5.6465 C   0  0  0  0  0  0  0  0  0  0  0  0
   -3.6684    2.7226    4.0700 H   0  0  0  0  0  0  0  0  0  0  0  0
   -5.1353    1.2182    5.7103 H   0  0  0  0  0  0  0  0  0  0  0  0
   -3.5389    0.4206    5.9142 H   0  0  0  0  0  0  0  0  0  0  0  0
   -3.7381    2.1539    6.3418 H   0  0  0  0  0  0  0  0  0  0  0  0
  1  3  1  0  0  0  0
  1  7  1  0  0  0  0
  1  2  2  0  0  0  0
 39 40  1  0  0  0  0
 40 48  1  0  0  0  0
 40 41  2  0  0  0  0
  8  9  1  0  0  0  0
  9 17  1  0  0  0  0
  9 10  2  0  0  0  0
 18 19  1  0  0  0  0
 19 38  1  0  0  0  0
 19 20  2  0  0  0  0
 39 42  1  0  0  0  0
  8 11  1  0  0  0  0
 48 49  1  0  0  0  0
 22 23  1  0  0  0  0
 21 22  1  0  0  0  0
 23 24  1  0  0  0  0
 18 21  1  0  0  0  0
 24 25  1  0  0  0  0
 38 39  1  0  0  0  0
  7  8  1  0  0  0  0
 17 18  1  0  0  0  0
  3  4  1  0  0  0  0
  3  5  1  0  0  0  0
  3  6  1  0  0  0  0
 42 45  1  0  0  0  0
 42 46  1  0  0  0  0
 42 47  1  0  0  0  0
 11 14  1  0  0  0  0
 11 15  1  0  0  0  0
 11 16  1  0  0  0  0
 49 51  1  0  0  0  0
 49 52  1  0  0  0  0
 49 53  1  0  0  0  0
 22 30  1  0  0  0  0
 22 31  1  0  0  0  0
 23 32  1  0  0  0  0
 23 33  1  0  0  0  0
 21 28  1  0  0  0  0
 21 29  1  0  0  0  0
 24 34  1  0  0  0  0
 24 35  1  0  0  0  0
 39 44  1  0  0  0  0
  8 13  1  0  0  0  0
 18 27  1  0  0  0  0
 25 36  1  0  0  0  0
 25 37  1  0  0  0  0
 48 50  1  0  0  0  0
  7 12  1  0  0  0  0
 38 43  1  0  0  0  0
 17 26  1  0  0  0  0
M  END
$$$$

  -OEChem-05262214473D

 53 52  0     1  0  0  0  0  0999 V2000
   -1.0338   -5.6785    0.1476 C   0  0  0  0  0  0  0  0  0  0  0  0
   -2.0514   -5.7797    0.8227 O   0  0  0  0  0  0  0  0  0  0  0  0
   -0.6558   -6.7819   -0.7841 C   0  0  0  0  0  0  0  0  0  0  0  0
   -0.0111   -7.5354   -0.3038 H   0  0  0  0  0  0  0  0  0  0  0  0
   -1.5317   -7.3401   -1.1520 H   0  0  0  0  0  0  0  0  0  0  0  0
   -0.1109   -6.4687   -1.6890 H   0  0  0  0  0  0  0  0  0  0  0  0
   -0.1543   -4.6083    0.1480 N   0  0  0  0  0  0  0  0  0  0  0  0
   -0.3302   -3.4398    0.9696 C   0  0  2  0  0  0  0  0  0  0  0  0
    0.2328   -2.2439    0.2131 C   0  0  0  0  0  0  0  0  0  0  0  0
    1.2097   -2.3192   -0.5294 O   0  0  0  0  0  0  0  0  0  0  0  0
    0.3557   -3.6024    2.3171 C   0  0  0  0  0  0  0  0  0  0  0  0
    0.6584   -4.6506   -0.4643 H   0  0  0  0  0  0  0  0  0  0  0  0
   -1.4091   -3.3101    1.1082 H   0  0  0  0  0  0  0  0  0  0  0  0
    1.4375   -3.7336    2.1985 H   0  0  0  0  0  0  0  0  0  0  0  0
    0.1969   -2.7243    2.9517 H   0  0  0  0  0  0  0  0  0  0  0  0
   -0.0294   -4.4803    2.8470 H   0  0  0  0  0  0  0  0  0  0  0  0
   -0.4616   -1.0893    0.5050 N   0  0  0  0  0  0  0  0  0  0  0  0
   -0.0884    0.2050   -0.0621 C   0  0  2  0  0  0  0  0  0  0  0  0
   -1.0675    1.2448    0.4755 C   0  0  0  0  0  0  0  0  0  0  0  0
   -1.1763    2.3726   -0.0018 O   0  0  0  0  0  0  0  0  0  0  0  0
   -0.1370    0.2034   -1.5973 C   0  0  0  0  0  0  0  0  0  0  0  0
    0.9393   -0.6785   -2.2388 C   0  0  0  0  0  0  0  0  0  0  0  0
    0.8614   -0.6244   -3.7670 C   0  0  0  0  0  0  0  0  0  0  0  0
    1.9189   -1.5230   -4.4060 C   0  0  0  0  0  0  0  0  0  0  0  0
    1.8124   -1.4755   -5.8594 N   0  0  0  0  0  0  0  0  0  0  0  0
   -1.2794   -1.1113    1.0935 H   0  0  0  0  0  0  0  0  0  0  0  0
    0.9234    0.4559    0.2784 H   0  0  0  0  0  0  0  0  0  0  0  0
   -0.0150    1.2320   -1.9617 H   0  0  0  0  0  0  0  0  0  0  0  0
   -1.1292   -0.1206   -1.9396 H   0  0  0  0  0  0  0  0  0  0  0  0
    0.8211   -1.7175   -1.9114 H   0  0  0  0  0  0  0  0  0  0  0  0
    1.9307   -0.3438   -1.9108 H   0  0  0  0  0  0  0  0  0  0  0  0
   -0.1390   -0.9370   -4.0921 H   0  0  0  0  0  0  0  0  0  0  0  0
    1.0018    0.4105   -4.1041 H   0  0  0  0  0  0  0  0  0  0  0  0
    1.7930   -2.5570   -4.0666 H   0  0  0  0  0  0  0  0  0  0  0  0
    2.9209   -1.1945   -4.1106 H   0  0  0  0  0  0  0  0  0  0  0  0
    1.0542   -0.8802   -6.0984 H   0  0  0  0  0  0  0  0  0  0  0  0
    2.6648   -1.1184   -6.2235 H   0  0  0  0  0  0  0  0  0  0  0  0
   -1.7875    0.7710    1.5635 N   0  0  0  0  0  0  0  0  0  0  0  0
   -2.7656    1.5642    2.2727 C   0  0  2  0  0  0  0  0  0  0  0  0
   -2.7465    1.1375    3.7346 C   0  0  0  0  0  0  0  0  0  0  0  0
   -2.5308   -0.0183    4.0933 O   0  0  0  0  0  0  0  0  0  0  0  0
   -4.1537    1.3949    1.6752 C   0  0  0  0  0  0  0  0  0  0  0  0
   -1.6369   -0.1812    1.8835 H   0  0  0  0  0  0  0  0  0  0  0  0
   -2.4444    2.6084    2.1922 H   0  0  0  0  0  0  0  0  0  0  0  0
   -4.4925    0.3549    1.7467 H   0  0  0  0  0  0  0  0  0  0  0  0
   -4.8884    2.0184    2.1955 H   0  0  0  0  0  0  0  0  0  0  0  0
   -4.1588    1.6740    0.6160 H   0  0  0  0  0  0  0  0  0  0  0  0
   -3.0413    2.1904    4.5894 N   0  0  0  0  0  0  0  0  0  0  0  0
   -3.1266    2.0308    6.0223 C   0  0  0  0  0  0  0  0  0  0  0  0
   -3.1668    3.1235    4.2081 H   0  0  0  0  0  0  0  0  0  0  0  0
   -4.1681    1.8205    6.3070 H   0  0  0  0  0  0  0  0  0  0  0  0
   -2.4847    1.1948    6.3369 H   0  0  0  0  0  0  0  0  0  0  0  0
   -2.7917    2.9557    6.5147 H   0  0  0  0  0  0  0  0  0  0  0  0
  1  3  1  0  0  0  0
  1  7  1  0  0  0  0
  1  2  2  0  0  0  0
 39 40  1  0  0  0  0
 40 48  1  0  0  0  0
 40 41  2  0  0  0  0
  8  9  1  0  0  0  0
  9 17  1  0  0  0  0
  9 10  2  0  0  0  0
 18 19  1  0  0  0  0
 19 38  1  0  0  0  0
 19 20  2  0  0  0  0
 39 42  1  0  0  0  0
  8 11  1  0  0  0  0
 48 49  1  0  0  0  0
 22 23  1  0  0  0  0
 21 22  1  0  0  0  0
 23 24  1  0  0  0  0
 18 21  1  0  0  0  0
 24 25  1  0  0  0  0
 38 39  1  0  0  0  0
  7  8  1  0  0  0  0
 17 18  1  0  0  0  0
  3  4  1  0  0  0  0
  3  5  1  0  0  0  0
  3  6  1  0  0  0  0
 42 45  1  0  0  0  0
 42 46  1  0  0  0  0
 42 47  1  0  0  0  0
 11 14  1  0  0  0  0
 11 15  1  0  0  0  0
 11 16  1  0  0  0  0
 49 51  1  0  0  0  0
 49 52  1  0  0  0  0
 49 53  1  0  0  0  0
 22 30  1  0  0  0  0
 22 31  1  0  0  0  0
 23 32  1  0  0  0  0
 23 33  1  0  0  0  0
 21 28  1  0  0  0  0
 21 29  1  0  0  0  0
 24 34  1  0  0  0  0
 24 35  1  0  0  0  0
 39 44  1  0  0  0  0
  8 13  1  0  0  0  0
 18 27  1  0  0  0  0
 25 36  1  0  0  0  0
 25 37  1  0  0  0  0
 48 50  1  0  0  0  0
  7 12  1  0  0  0  0
 38 43  1  0  0  0  0
 17 26  1  0  0  0  0
M  END
$$$$

  -OEChem-05262214473D

 53 52  0     1  0  0  0  0  0999 V2000
   -1.0338   -5.6785    0.1476 C   0  0  0  0  0  0  0  0  0  0  0  0
   -2.0514   -5.7797    0.8227 O   0  0  0  0  0  0  0  0  0  0  0  0
   -0.6558   -6.7819   -0.7841 C   0  0  0  0  0  0  0  0  0  0  0  0
   -0.0111   -7.5354   -0.3038 H   0  0  0  0  0  0  0  0  0  0  0  0
   -1.5317   -7.3401   -1.1520 H   0  0  0  0  0  0  0  0  0  0  0  0
   -0.1109   -6.4687   -1.6890 H   0  0  0  0  0  0  0  0  0  0  0  0
   -0.1543   -4.6083    0.1480 N   0  0  0  0  0  0  0  0  0  0  0  0
   -0.3302   -3.4398    0.9696 C   0  0  2  0  0  0  0  0  0  0  0  0
    0.2328   -2.2439    0.2131 C   0  0  0  0  0  0  0  0  0  0  0  0
    1.2097   -2.3192   -0.5294 O   0  0  0  0  0  0  0  0  0  0  0  0
    0.3557   -3.6024    2.3171 C   0  0  0  0  0  0  0  0  0  0  0  0
    0.6584   -4.6506   -0.4643 H   0  0  0  0  0  0  0  0  0  0  0  0
   -1.4091   -3.3101    1.1082 H   0  0  0  0  0  0  0  0  0  0  0  0
    1.4375   -3.7336    2.1985 H   0  0  0  0  0  0  0  0  0  0  0  0
    0.1969   -2.7243    2.9517 H   0  0  0  0  0  0  0  0  0  0  0  0
   -0.0294   -4.4803    2.8470 H   0  0  0  0  0  0  0  0  0  0  0  0
   -0.4616   -1.0893    0.5050 N   0  0  0  0  0  0  0  0  0  0  0  0
   -0.0884    0.2050   -0.0621 C   0  0  2  0  0  0  0  0  0  0  0  0
   -1.0675    1.2448    0.4755 C   0  0  0  0  0  0  0  0  0  0  0  0
   -1.3742    2.2605   -0.1456 O   0  0  0  0  0  0  0  0  0  0  0  0
   -0.1370    0.2034   -1.5973 C   0  0  0  0  0  0  0  0  0  0  0  0
    0.9393   -0.6785   -2.2388 C   0  0  0  0  0  0  0  0  0  0  0  0
    0.8614   -0.6244   -3.7670 C   0  0  0  0  0  0  0  0  0  0  0  0
    1.9189   -1.5230   -4.4060 C   0  0  0  0  0  0  0  0  0  0  0  0
    1.8124   -1.4755   -5.8594 N   0  0  0  0  0  0  0  0  0  0  0  0
   -1.2794   -1.1113    1.0935 H   0  0  0  0  0  0  0  0  0  0  0  0
    0.9234    0.4559    0.2784 H   0  0  0  0  0  0  0  0  0  0  0  0
   -0.0150    1.2320   -1.9617 H   0  0  0  0  0  0  0  0  0  0  0  0
   -1.1292   -0.1206   -1.9396 H   0  0  0  0  0  0  0  0  0  0  0  0
    0.8211   -1.7175   -1.9114 H   0  0  0  0  0  0  0  0  0  0  0  0
    1.9307   -0.3438   -1.9108 H   0  0  0  0  0  0  0  0  0  0  0  0
   -0.1390   -0.9370   -4.0921 H   0  0  0  0  0  0  0  0  0  0  0  0
    1.0018    0.4105   -4.1041 H   0  0  0  0  0  0  0  0  0  0  0  0
    1.7930   -2.5570   -4.0666 H   0  0  0  0  0  0  0  0  0  0  0  0
    2.9209   -1.1945   -4.1106 H   0  0  0  0  0  0  0  0  0  0  0  0
    1.0542   -0.8802   -6.0984 H   0  0  0  0  0  0  0  0  0  0  0  0
    2.6648   -1.1184   -6.2235 H   0  0  0  0  0  0  0  0  0  0  0  0
   -1.5393    0.9143    1.7384 N   0  0  0  0  0  0  0  0  0  0  0  0
   -2.4623    1.7420    2.4812 C   0  0  2  0  0  0  0  0  0  0  0  0
   -2.1518    1.5793    3.9633 C   0  0  0  0  0  0  0  0  0  0  0  0
   -1.7574    0.5235    4.4541 O   0  0  0  0  0  0  0  0  0  0  0  0
   -3.9055    1.3658    2.1837 C   0  0  0  0  0  0  0  0  0  0  0  0
   -1.2368    0.0468    2.1714 H   0  0  0  0  0  0  0  0  0  0  0  0
   -2.2719    2.7776    2.1791 H   0  0  0  0  0  0  0  0  0  0  0  0
   -4.1151    0.3314    2.4796 H   0  0  0  0  0  0  0  0  0  0  0  0
   -4.6037    2.0125    2.7252 H   0  0  0  0  0  0  0  0  0  0  0  0
   -4.1186    1.4548    1.1130 H   0  0  0  0  0  0  0  0  0  0  0  0
   -2.4082    2.7394    4.6806 N   0  0  0  0  0  0  0  0  0  0  0  0
   -2.2333    2.8259    6.1117 C   0  0  0  0  0  0  0  0  0  0  0  0
   -2.6945    3.5794    4.1865 H   0  0  0  0  0  0  0  0  0  0  0  0
   -3.1836    2.5896    6.6127 H   0  0  0  0  0  0  0  0  0  0  0  0
   -1.4625    2.1089    6.4307 H   0  0  0  0  0  0  0  0  0  0  0  0
   -1.9201    3.8452    6.3817 H   0  0  0  0  0  0  0  0  0  0  0  0
  1  3  1  0  0  0  0
  1  7  1  0  0  0  0
  1  2  2  0  0  0  0
 39 40  1  0  0  0  0
 40 48  1  0  0  0  0
 40 41  2  0  0  0  0
  8  9  1  0  0  0  0
  9 17  1  0  0  0  0
  9 10  2  0  0  0  0
 18 19  1  0  0  0  0
 19 38  1  0  0  0  0
 19 20  2  0  0  0  0
 39 42  1  0  0  0  0
  8 11  1  0  0  0  0
 48 49  1  0  0  0  0
 22 23  1  0  0  0  0
 21 22  1  0  0  0  0
 23 24  1  0  0  0  0
 18 21  1  0  0  0  0
 24 25  1  0  0  0  0
 38 39  1  0  0  0  0
  7  8  1  0  0  0  0
 17 18  1  0  0  0  0
  3  4  1  0  0  0  0
  3  5  1  0  0  0  0
  3  6  1  0  0  0  0
 42 45  1  0  0  0  0
 42 46  1  0  0  0  0
 42 47  1  0  0  0  0
 11 14  1  0  0  0  0
 11 15  1  0  0  0  0
 11 16  1  0  0  0  0
 49 51  1  0  0  0  0
 49 52  1  0  0  0  0
 49 53  1  0  0  0  0
 22 30  1  0  0  0  0
 22 31  1  0  0  0  0
 23 32  1  0  0  0  0
 23 33  1  0  0  0  0
 21 28  1  0  0  0  0
 21 29  1  0  0  0  0
 24 34  1  0  0  0  0
 24 35  1  0  0  0  0
 39 44  1  0  0  0  0
  8 13  1  0  0  0  0
 18 27  1  0  0  0  0
 25 36  1  0  0  0  0
 25 37  1  0  0  0  0
 48 50  1  0  0  0  0
  7 12  1  0  0  0  0
 38 43  1  0  0  0  0
 17 26  1  0  0  0  0
M  END
$$$$

  -OEChem-05262214473D

 53 52  0     1  0  0  0  0  0999 V2000
   -1.0338   -5.6785    0.1476 C   0  0  0  0  0  0  0  0  0  0  0  0
   -2.0514   -5.7797    0.8227 O   0  0  0  0  0  0  0  0  0  0  0  0
   -0.6558   -6.7819   -0.7841 C   0  0  0  0  0  0  0  0  0  0  0  0
   -0.0111   -7.5354   -0.3038 H   0  0  0  0  0  0  0  0  0  0  0  0
   -1.5317   -7.3401   -1.1520 H   0  0  0  0  0  0  0  0  0  0  0  0
   -0.1109   -6.4687   -1.6890 H   0  0  0  0  0  0  0  0  0  0  0  0
   -0.1543   -4.6083    0.1480 N   0  0  0  0  0  0  0  0  0  0  0  0
   -0.3302   -3.4398    0.9696 C   0  0  2  0  0  0  0  0  0  0  0  0
    0.2328   -2.2439    0.2131 C   0  0  0  0  0  0  0  0  0  0  0  0
    1.2097   -2.3192   -0.5294 O   0  0  0  0  0  0  0  0  0  0  0  0
    0.3557   -3.6024    2.3171 C   0  0  0  0  0  0  0  0  0  0  0  0
    0.6584   -4.6506   -0.4643 H   0  0  0  0  0  0  0  0  0  0  0  0
   -1.4091   -3.3101    1.1082 H   0  0  0  0  0  0  0  0  0  0  0  0
    1.4375   -3.7336    2.1985 H   0  0  0  0  0  0  0  0  0  0  0  0
    0.1969   -2.7243    2.9517 H   0  0  0  0  0  0  0  0  0  0  0  0
   -0.0294   -4.4803    2.8470 H   0  0  0  0  0  0  0  0  0  0  0  0
   -0.4616   -1.0893    0.5050 N   0  0  0  0  0  0  0  0  0  0  0  0
   -0.0884    0.2050   -0.0621 C   0  0  2  0  0  0  0  0  0  0  0  0
   -1.0675    1.2448    0.4755 C   0  0  0  0  0  0  0  0  0  0  0  0
   -1.5805    2.1104   -0.2310 O   0  0  0  0  0  0  0  0  0  0  0  0
   -0.1370    0.2034   -1.5973 C   0  0  0  0  0  0  0  0  0  0  0  0
    0.9393   -0.6785   -2.2388 C   0  0  0  0  0  0  0  0  0  0  0  0
    0.8614   -0.6244   -3.7670 C   0  0  0  0  0  0  0  0  0  0  0  0
    1.9189   -1.5230   -4.4060 C   0  0  0  0  0  0  0  0  0  0  0  0
    1.8124   -1.4755   -5.8594 N   0  0  0  0  0  0  0  0  0  0  0  0
   -1.2794   -1.1113    1.0935 H   0  0  0  0  0  0  0  0  0  0  0  0
    0.9234    0.4559    0.2784 H   0  0  0  0  0  0  0  0  0  0  0  0
   -0.0150    1.2320   -1.9617 H   0  0  0  0  0  0  0  0  0  0  0  0
   -1.1292   -0.1206   -1.9396 H   0  0  0  0  0  0  0  0  0  0  0  0
    0.8211   -1.7175   -1.9114 H   0  0  0  0  0  0  0  0  0  0  0  0
    1.9307   -0.3438   -1.9108 H   0  0  0  0  0  0  0  0  0  0  0  0
   -0.1390   -0.9370   -4.0921 H   0  0  0  0  0  0  0  0  0  0  0  0
    1.0018    0.4105   -4.1041 H   0  0  0  0  0  0  0  0  0  0  0  0
    1.7930   -2.5570   -4.0666 H   0  0  0  0  0  0  0  0  0  0  0  0
    2.9209   -1.1945   -4.1106 H   0  0  0  0  0  0  0  0  0  0  0  0
    1.0542   -0.8802   -6.0984 H   0  0  0  0  0  0  0  0  0  0  0  0
    2.6648   -1.1184   -6.2235 H   0  0  0  0  0  0  0  0  0  0  0  0
   -1.2818    1.1043    1.8397 N   0  0  0  0  0  0  0  0  0  0  0  0
   -2.1488    1.9760    2.5995 C   0  0  2  0  0  0  0  0  0  0  0  0
   -1.5774    2.0982    4.0060 C   0  0  0  0  0  0  0  0  0  0  0  0
   -0.9960    1.1773    4.5762 O   0  0  0  0  0  0  0  0  0  0  0  0
   -3.5733    1.4448    2.6359 C   0  0  0  0  0  0  0  0  0  0  0  0
   -0.8203    0.3512    2.3411 H   0  0  0  0  0  0  0  0  0  0  0  0
   -2.1231    2.9546    2.1079 H   0  0  0  0  0  0  0  0  0  0  0  0
   -3.6191    0.4648    3.1249 H   0  0  0  0  0  0  0  0  0  0  0  0
   -4.2349    2.1207    3.1877 H   0  0  0  0  0  0  0  0  0  0  0  0
   -3.9722    1.3293    1.6223 H   0  0  0  0  0  0  0  0  0  0  0  0
   -1.8307    3.3425    4.5659 N   0  0  0  0  0  0  0  0  0  0  0  0
   -1.4271    3.6902    5.9084 C   0  0  0  0  0  0  0  0  0  0  0  0
   -2.2837    4.0593    4.0066 H   0  0  0  0  0  0  0  0  0  0  0  0
   -2.2488    3.4730    6.6067 H   0  0  0  0  0  0  0  0  0  0  0  0
   -0.5419    3.1006    6.1892 H   0  0  0  0  0  0  0  0  0  0  0  0
   -1.1828    4.7618    5.9518 H   0  0  0  0  0  0  0  0  0  0  0  0
  1  3  1  0  0  0  0
  1  7  1  0  0  0  0
  1  2  2  0  0  0  0
 39 40  1  0  0  0  0
 40 48  1  0  0  0  0
 40 41  2  0  0  0  0
  8  9  1  0  0  0  0
  9 17  1  0  0  0  0
  9 10  2  0  0  0  0
 18 19  1  0  0  0  0
 19 38  1  0  0  0  0
 19 20  2  0  0  0  0
 39 42  1  0  0  0  0
  8 11  1  0  0  0  0
 48 49  1  0  0  0  0
 22 23  1  0  0  0  0
 21 22  1  0  0  0  0
 23 24  1  0  0  0  0
 18 21  1  0  0  0  0
 24 25  1  0  0  0  0
 38 39  1  0  0  0  0
  7  8  1  0  0  0  0
 17 18  1  0  0  0  0
  3  4  1  0  0  0  0
  3  5  1  0  0  0  0
  3  6  1  0  0  0  0
 42 45  1  0  0  0  0
 42 46  1  0  0  0  0
 42 47  1  0  0  0  0
 11 14  1  0  0  0  0
 11 15  1  0  0  0  0
 11 16  1  0  0  0  0
 49 51  1  0  0  0  0
 49 52  1  0  0  0  0
 49 53  1  0  0  0  0
 22 30  1  0  0  0  0
 22 31  1  0  0  0  0
 23 32  1  0  0  0  0
 23 33  1  0  0  0  0
 21 28  1  0  0  0  0
 21 29  1  0  0  0  0
 24 34  1  0  0  0  0
 24 35  1  0  0  0  0
 39 44  1  0  0  0  0
  8 13  1  0  0  0  0
 18 27  1  0  0  0  0
 25 36  1  0  0  0  0
 25 37  1  0  0  0  0
 48 50  1  0  0  0  0
  7 12  1  0  0  0  0
 38 43  1  0  0  0  0
 17 26  1  0  0  0  0
M  END
$$$$

  -OEChem-05262214473D

 53 52  0     1  0  0  0  0  0999 V2000
   -1.0338   -5.6785    0.1476 C   0  0  0  0  0  0  0  0  0  0  0  0
   -2.0514   -5.7797    0.8227 O   0  0  0  0  0  0  0  0  0  0  0  0
   -0.6558   -6.7819   -0.7841 C   0  0  0  0  0  0  0  0  0  0  0  0
   -0.0111   -7.5354   -0.3038 H   0  0  0  0  0  0  0  0  0  0  0  0
   -1.5317   -7.3401   -1.1520 H   0  0  0  0  0  0  0  0  0  0  0  0
   -0.1109   -6.4687   -1.6890 H   0  0  0  0  0  0  0  0  0  0  0  0
   -0.1543   -4.6083    0.1480 N   0  0  0  0  0  0  0  0  0  0  0  0
   -0.3302   -3.4398    0.9696 C   0  0  2  0  0  0  0  0  0  0  0  0
    0.2328   -2.2439    0.2131 C   0  0  0  0  0  0  0  0  0  0  0  0
    1.2097   -2.3192   -0.5294 O   0  0  0  0  0  0  0  0  0  0  0  0
    0.3557   -3.6024    2.3171 C   0  0  0  0  0  0  0  0  0  0  0  0
    0.6584   -4.6506   -0.4643 H   0  0  0  0  0  0  0  0  0  0  0  0
   -1.4091   -3.3101    1.1082 H   0  0  0  0  0  0  0  0  0  0  0  0
    1.4375   -3.7336    2.1985 H   0  0  0  0  0  0  0  0  0  0  0  0
    0.1969   -2.7243    2.9517 H   0  0  0  0  0  0  0  0  0  0  0  0
   -0.0294   -4.4803    2.8470 H   0  0  0  0  0  0  0  0  0  0  0  0
   -0.4616   -1.0893    0.5050 N   0  0  0  0  0  0  0  0  0  0  0  0
   -0.0884    0.2050   -0.0621 C   0  0  2  0  0  0  0  0  0  0  0  0
   -1.0675    1.2448    0.4755 C   0  0  0  0  0  0  0  0  0  0  0  0
   -1.7812    1.9324   -0.2521 O   0  0  0  0  0  0  0  0  0  0  0  0
   -0.1370    0.2034   -1.5973 C   0  0  0  0  0  0  0  0  0  0  0  0
    0.9393   -0.6785   -2.2388 C   0  0  0  0  0  0  0  0  0  0  0  0
    0.8614   -0.6244   -3.7670 C   0  0  0  0  0  0  0  0  0  0  0  0
    1.9189   -1.5230   -4.4060 C   0  0  0  0  0  0  0  0  0  0  0  0
    1.8124   -1.4755   -5.8594 N   0  0  0  0  0  0  0  0  0  0  0  0
   -1.2794   -1.1113    1.0935 H   0  0  0  0  0  0  0  0  0  0  0  0
    0.9234    0.4559    0.2784 H   0  0  0  0  0  0  0  0  0  0  0  0
   -0.0150    1.2320   -1.9617 H   0  0  0  0  0  0  0  0  0  0  0  0
   -1.1292   -0.1206   -1.9396 H   0  0  0  0  0  0  0  0  0  0  0  0
    0.8211   -1.7175   -1.9114 H   0  0  0  0  0  0  0  0  0  0  0  0
    1.9307   -0.3438   -1.9108 H   0  0  0  0  0  0  0  0  0  0  0  0
   -0.1390   -0.9370   -4.0921 H   0  0  0  0  0  0  0  0  0  0  0  0
    1.0018    0.4105   -4.1041 H   0  0  0  0  0  0  0  0  0  0  0  0
    1.7930   -2.5570   -4.0666 H   0  0  0  0  0  0  0  0  0  0  0  0
    2.9209   -1.1945   -4.1106 H   0  0  0  0  0  0  0  0  0  0  0  0
    1.0542   -0.8802   -6.0984 H   0  0  0  0  0  0  0  0  0  0  0  0
    2.6648   -1.1184   -6.2235 H   0  0  0  0  0  0  0  0  0  0  0  0
   -1.0325    1.3283    1.8606 N   0  0  0  0  0  0  0  0  0  0  0  0
   -1.8465    2.2502    2.6197 C   0  0  2  0  0  0  0  0  0  0  0  0
   -1.0622    2.6589    3.8597 C   0  0  0  0  0  0  0  0  0  0  0  0
   -0.2988    1.8985    4.4513 O   0  0  0  0  0  0  0  0  0  0  0  0
   -3.1799    1.6264    3.0011 C   0  0  0  0  0  0  0  0  0  0  0  0
   -0.4158    0.7114    2.3810 H   0  0  0  0  0  0  0  0  0  0  0  0
   -2.0079    3.1273    1.9835 H   0  0  0  0  0  0  0  0  0  0  0  0
   -3.0384    0.7461    3.6386 H   0  0  0  0  0  0  0  0  0  0  0  0
   -3.8069    2.3357    3.5514 H   0  0  0  0  0  0  0  0  0  0  0  0
   -3.7295    1.3060    2.1094 H   0  0  0  0  0  0  0  0  0  0  0  0
   -1.3481    3.9587    4.2531 N   0  0  0  0  0  0  0  0  0  0  0  0
   -0.7630    4.5647    5.4263 C   0  0  0  0  0  0  0  0  0  0  0  0
   -1.9623    4.5304    3.6807 H   0  0  0  0  0  0  0  0  0  0  0  0
   -1.4274    4.4105    6.2893 H   0  0  0  0  0  0  0  0  0  0  0  0
    0.2143    4.1024    5.6290 H   0  0  0  0  0  0  0  0  0  0  0  0
   -0.6300    5.6430    5.2543 H   0  0  0  0  0  0  0  0  0  0  0  0
  1  3  1  0  0  0  0
  1  7  1  0  0  0  0
  1  2  2  0  0  0  0
 39 40  1  0  0  0  0
 40 48  1  0  0  0  0
 40 41  2  0  0  0  0
  8  9  1  0  0  0  0
  9 17  1  0  0  0  0
  9 10  2  0  0  0  0
 18 19  1  0  0  0  0
 19 38  1  0  0  0  0
 19 20  2  0  0  0  0
 39 42  1  0  0  0  0
  8 11  1  0  0  0  0
 48 49  1  0  0  0  0
 22 23  1  0  0  0  0
 21 22  1  0  0  0  0
 23 24  1  0  0  0  0
 18 21  1  0  0  0  0
 24 25  1  0  0  0  0
 38 39  1  0  0  0  0
  7  8  1  0  0  0  0
 17 18  1  0  0  0  0
  3  4  1  0  0  0  0
  3  5  1  0  0  0  0
  3  6  1  0  0  0  0
 42 45  1  0  0  0  0
 42 46  1  0  0  0  0
 42 47  1  0  0  0  0
 11 14  1  0  0  0  0
 11 15  1  0  0  0  0
 11 16  1  0  0  0  0
 49 51  1  0  0  0  0
 49 52  1  0  0  0  0
 49 53  1  0  0  0  0
 22 30  1  0  0  0  0
 22 31  1  0  0  0  0
 23 32  1  0  0  0  0
 23 33  1  0  0  0  0
 21 28  1  0  0  0  0
 21 29  1  0  0  0  0
 24 34  1  0  0  0  0
 24 35  1  0  0  0  0
 39 44  1  0  0  0  0
  8 13  1  0  0  0  0
 18 27  1  0  0  0  0
 25 36  1  0  0  0  0
 25 37  1  0  0  0  0
 48 50  1  0  0  0  0
  7 12  1  0  0  0  0
 38 43  1  0  0  0  0
 17 26  1  0  0  0  0
M  END
$$$$

  -OEChem-05262214473D

 53 52  0     1  0  0  0  0  0999 V2000
   -1.0338   -5.6785    0.1476 C   0  0  0  0  0  0  0  0  0  0  0  0
   -2.0514   -5.7797    0.8227 O   0  0  0  0  0  0  0  0  0  0  0  0
   -0.6558   -6.7819   -0.7841 C   0  0  0  0  0  0  0  0  0  0  0  0
   -0.0111   -7.5354   -0.3038 H   0  0  0  0  0  0  0  0  0  0  0  0
   -1.5317   -7.3401   -1.1520 H   0  0  0  0  0  0  0  0  0  0  0  0
   -0.1109   -6.4687   -1.6890 H   0  0  0  0  0  0  0  0  0  0  0  0
   -0.1543   -4.6083    0.1480 N   0  0  0  0  0  0  0  0  0  0  0  0
   -0.3302   -3.4398    0.9696 C   0  0  2  0  0  0  0  0  0  0  0  0
    0.2328   -2.2439    0.2131 C   0  0  0  0  0  0  0  0  0  0  0  0
    1.2097   -2.3192   -0.5294 O   0  0  0  0  0  0  0  0  0  0  0  0
    0.3557   -3.6024    2.3171 C   0  0  0  0  0  0  0  0  0  0  0  0
    0.6584   -4.6506   -0.4643 H   0  0  0  0  0  0  0  0  0  0  0  0
   -1.4091   -3.3101    1.1082 H   0  0  0  0  0  0  0  0  0  0  0  0
    1.4375   -3.7336    2.1985 H   0  0  0  0  0  0  0  0  0  0  0  0
    0.1969   -2.7243    2.9517 H   0  0  0  0  0  0  0  0  0  0  0  0
   -0.0294   -4.4803    2.8470 H   0  0  0  0  0  0  0  0  0  0  0  0
   -0.4616   -1.0893    0.5050 N   0  0  0  0  0  0  0  0  0  0  0  0
   -0.0884    0.2050   -0.0621 C   0  0  2  0  0  0  0  0  0  0  0  0
   -1.0675    1.2448    0.4755 C   0  0  0  0  0  0  0  0  0  0  0  0
   -1.9625    1.7386   -0.2076 O   0  0  0  0  0  0  0  0  0  0  0  0
   -0.1370    0.2034   -1.5973 C   0  0  0  0  0  0  0  0  0  0  0  0
    0.9393   -0.6785   -2.2388 C   0  0  0  0  0  0  0  0  0  0  0  0
    0.8614   -0.6244   -3.7670 C   0  0  0  0  0  0  0  0  0  0  0  0
    1.9189   -1.5230   -4.4060 C   0  0  0  0  0  0  0  0  0  0  0  0
    1.8124   -1.4755   -5.8594 N   0  0  0  0  0  0  0  0  0  0  0  0
   -1.2794   -1.1113    1.0935 H   0  0  0  0  0  0  0  0  0  0  0  0
    0.9234    0.4559    0.2784 H   0  0  0  0  0  0  0  0  0  0  0  0
   -0.0150    1.2320   -1.9617 H   0  0  0  0  0  0  0  0  0  0  0  0
   -1.1292   -0.1206   -1.9396 H   0  0  0  0  0  0  0  0  0  0  0  0
    0.8211   -1.7175   -1.9114 H   0  0  0  0  0  0  0  0  0  0  0  0
    1.9307   -0.3438   -1.9108 H   0  0  0  0  0  0  0  0  0  0  0  0
   -0.1390   -0.9370   -4.0921 H   0  0  0  0  0  0  0  0  0  0  0  0
    1.0018    0.4105   -4.1041 H   0  0  0  0  0  0  0  0  0  0  0  0
    1.7930   -2.5570   -4.0666 H   0  0  0  0  0  0  0  0  0  0  0  0
    2.9209   -1.1945   -4.1106 H   0  0  0  0  0  0  0  0  0  0  0  0
    1.0542   -0.8802   -6.0984 H   0  0  0  0  0  0  0  0  0  0  0  0
    2.6648   -1.1184   -6.2235 H   0  0  0  0  0  0  0  0  0  0  0  0
   -0.8085    1.5707    1.7997 N   0  0  0  0  0  0  0  0  0  0  0  0
   -1.5759    2.5461    2.5404 C   0  0  2  0  0  0  0  0  0  0  0  0
   -0.6416    3.2231    3.5345 C   0  0  0  0  0  0  0  0  0  0  0  0
    0.2870    2.6379    4.0879 O   0  0  0  0  0  0  0  0  0  0  0  0
   -2.7521    1.8983    3.2543 C   0  0  0  0  0  0  0  0  0  0  0  0
   -0.0510    1.1029    2.2884 H   0  0  0  0  0  0  0  0  0  0  0  0
   -1.9344    3.2839    1.8144 H   0  0  0  0  0  0  0  0  0  0  0  0
   -2.4125    1.1560    3.9857 H   0  0  0  0  0  0  0  0  0  0  0  0
   -3.3489    2.6428    3.7916 H   0  0  0  0  0  0  0  0  0  0  0  0
   -3.4071    1.3865    2.5409 H   0  0  0  0  0  0  0  0  0  0  0  0
   -0.9932    4.5460    3.7635 N   0  0  0  0  0  0  0  0  0  0  0  0
   -0.2863    5.3900    4.6984 C   0  0  0  0  0  0  0  0  0  0  0  0
   -1.7524    4.9606    3.2310 H   0  0  0  0  0  0  0  0  0  0  0  0
   -0.7755    5.3382    5.6823 H   0  0  0  0  0  0  0  0  0  0  0  0
    0.7546    5.0459    4.7881 H   0  0  0  0  0  0  0  0  0  0  0  0
   -0.2993    6.4287    4.3368 H   0  0  0  0  0  0  0  0  0  0  0  0
  1  3  1  0  0  0  0
  1  7  1  0  0  0  0
  1  2  2  0  0  0  0
 39 40  1  0  0  0  0
 40 48  1  0  0  0  0
 40 41  2  0  0  0  0
  8  9  1  0  0  0  0
  9 17  1  0  0  0  0
  9 10  2  0  0  0  0
 18 19  1  0  0  0  0
 19 38  1  0  0  0  0
 19 20  2  0  0  0  0
 39 42  1  0  0  0  0
  8 11  1  0  0  0  0
 48 49  1  0  0  0  0
 22 23  1  0  0  0  0
 21 22  1  0  0  0  0
 23 24  1  0  0  0  0
 18 21  1  0  0  0  0
 24 25  1  0  0  0  0
 38 39  1  0  0  0  0
  7  8  1  0  0  0  0
 17 18  1  0  0  0  0
  3  4  1  0  0  0  0
  3  5  1  0  0  0  0
  3  6  1  0  0  0  0
 42 45  1  0  0  0  0
 42 46  1  0  0  0  0
 42 47  1  0  0  0  0
 11 14  1  0  0  0  0
 11 15  1  0  0  0  0
 11 16  1  0  0  0  0
 49 51  1  0  0  0  0
 49 52  1  0  0  0  0
 49 53  1  0  0  0  0
 22 30  1  0  0  0  0
 22 31  1  0  0  0  0
 23 32  1  0  0  0  0
 23 33  1  0  0  0  0
 21 28  1  0  0  0  0
 21 29  1  0  0  0  0
 24 34  1  0  0  0  0
 24 35  1  0  0  0  0
 39 44  1  0  0  0  0
  8 13  1  0  0  0  0
 18 27  1  0  0  0  0
 25 36  1  0  0  0  0
 25 37  1  0  0  0  0
 48 50  1  0  0  0  0
  7 12  1  0  0  0  0
 38 43  1  0  0  0  0
 17 26  1  0  0  0  0
M  END
$$$$

  -OEChem-05262214473D

 53 52  0     1  0  0  0  0  0999 V2000
   -1.0338   -5.6785    0.1476 C   0  0  0  0  0  0  0  0  0  0  0  0
   -2.0514   -5.7797    0.8227 O   0  0  0  0  0  0  0  0  0  0  0  0
   -0.6558   -6.7819   -0.7841 C   0  0  0  0  0  0  0  0  0  0  0  0
   -0.0111   -7.5354   -0.3038 H   0  0  0  0  0  0  0  0  0  0  0  0
   -1.5317   -7.3401   -1.1520 H   0  0  0  0  0  0  0  0  0  0  0  0
   -0.1109   -6.4687   -1.6890 H   0  0  0  0  0  0  0  0  0  0  0  0
   -0.1543   -4.6083    0.1480 N   0  0  0  0  0  0  0  0  0  0  0  0
   -0.3302   -3.4398    0.9696 C   0  0  2  0  0  0  0  0  0  0  0  0
    0.2328   -2.2439    0.2131 C   0  0  0  0  0  0  0  0  0  0  0  0
    1.2097   -2.3192   -0.5294 O   0  0  0  0  0  0  0  0  0  0  0  0
    0.3557   -3.6024    2.3171 C   0  0  0  0  0  0  0  0  0  0  0  0
    0.6584   -4.6506   -0.4643 H   0  0  0  0  0  0  0  0  0  0  0  0
   -1.4091   -3.3101    1.1082 H   0  0  0  0  0  0  0  0  0  0  0  0
    1.4375   -3.7336    2.1985 H   0  0  0  0  0  0  0  0  0  0  0  0
    0.1969   -2.7243    2.9517 H   0  0  0  0  0  0  0  0  0  0  0  0
   -0.0294   -4.4803    2.8470 H   0  0  0  0  0  0  0  0  0  0  0  0
   -0.4616   -1.0893    0.5050 N   0  0  0  0  0  0  0  0  0  0  0  0
   -0.0884    0.2050   -0.0621 C   0  0  2  0  0  0  0  0  0  0  0  0
   -1.0675    1.2448    0.4755 C   0  0  0  0  0  0  0  0  0  0  0  0
   -2.1121    1.5423   -0.1004 O   0  0  0  0  0  0  0  0  0  0  0  0
   -0.1370    0.2034   -1.5973 C   0  0  0  0  0  0  0  0  0  0  0  0
    0.9393   -0.6785   -2.2388 C   0  0  0  0  0  0  0  0  0  0  0  0
    0.8614   -0.6244   -3.7670 C   0  0  0  0  0  0  0  0  0  0  0  0
    1.9189   -1.5230   -4.4060 C   0  0  0  0  0  0  0  0  0  0  0  0
    1.8124   -1.4755   -5.8594 N   0  0  0  0  0  0  0  0  0  0  0  0
   -1.2794   -1.1113    1.0935 H   0  0  0  0  0  0  0  0  0  0  0  0
    0.9234    0.4559    0.2784 H   0  0  0  0  0  0  0  0  0  0  0  0
   -0.0150    1.2320   -1.9617 H   0  0  0  0  0  0  0  0  0  0  0  0
   -1.1292   -0.1206   -1.9396 H   0  0  0  0  0  0  0  0  0  0  0  0
    0.8211   -1.7175   -1.9114 H   0  0  0  0  0  0  0  0  0  0  0  0
    1.9307   -0.3438   -1.9108 H   0  0  0  0  0  0  0  0  0  0  0  0
   -0.1390   -0.9370   -4.0921 H   0  0  0  0  0  0  0  0  0  0  0  0
    1.0018    0.4105   -4.1041 H   0  0  0  0  0  0  0  0  0  0  0  0
    1.7930   -2.5570   -4.0666 H   0  0  0  0  0  0  0  0  0  0  0  0
    2.9209   -1.1945   -4.1106 H   0  0  0  0  0  0  0  0  0  0  0  0
    1.0542   -0.8802   -6.0984 H   0  0  0  0  0  0  0  0  0  0  0  0
    2.6648   -1.1184   -6.2235 H   0  0  0  0  0  0  0  0  0  0  0  0
   -0.6249    1.8153    1.6610 N   0  0  0  0  0  0  0  0  0  0  0  0
   -1.3555    2.8433    2.3669 C   0  0  2  0  0  0  0  0  0  0  0  0
   -0.3441    3.7525    3.0525 C   0  0  0  0  0  0  0  0  0  0  0  0
    0.7213    3.3452    3.5109 O   0  0  0  0  0  0  0  0  0  0  0  0
   -2.3191    2.2421    3.3782 C   0  0  0  0  0  0  0  0  0  0  0  0
    0.2494    1.4989    2.0696 H   0  0  0  0  0  0  0  0  0  0  0  0
   -1.9075    3.4139    1.6121 H   0  0  0  0  0  0  0  0  0  0  0  0
   -1.7841    1.6666    4.1425 H   0  0  0  0  0  0  0  0  0  0  0  0
   -2.8922    3.0210    3.8918 H   0  0  0  0  0  0  0  0  0  0  0  0
   -3.0269    1.5654    2.8875 H   0  0  0  0  0  0  0  0  0  0  0  0
   -0.7904    5.0643    3.1305 N   0  0  0  0  0  0  0  0  0  0  0  0
   -0.0295    6.1097    3.7742 C   0  0  0  0  0  0  0  0  0  0  0  0
   -1.6681    5.3207    2.6882 H   0  0  0  0  0  0  0  0  0  0  0  0
   -0.3374    6.1930    4.8269 H   0  0  0  0  0  0  0  0  0  0  0  0
    1.0422    5.8670    3.7239 H   0  0  0  0  0  0  0  0  0  0  0  0
   -0.2134    7.0655    3.2617 H   0  0  0  0  0  0  0  0  0  0  0  0
  1  3  1  0  0  0  0
  1  7  1  0  0  0  0
  1  2  2  0  0  0  0
 39 40  1  0  0  0  0
 40 48  1  0  0  0  0
 40 41  2  0  0  0  0
  8  9  1  0  0  0  0
  9 17  1  0  0  0  0
  9 10  2  0  0  0  0
 18 19  1  0  0  0  0
 19 38  1  0  0  0  0
 19 20  2  0  0  0  0
 39 42  1  0  0  0  0
  8 11  1  0  0  0  0
 48 49  1  0  0  0  0
 22 23  1  0  0  0  0
 21 22  1  0  0  0  0
 23 24  1  0  0  0  0
 18 21  1  0  0  0  0
 24 25  1  0  0  0  0
 38 39  1  0  0  0  0
  7  8  1  0  0  0  0
 17 18  1  0  0  0  0
  3  4  1  0  0  0  0
  3  5  1  0  0  0  0
  3  6  1  0  0  0  0
 42 45  1  0  0  0  0
 42 46  1  0  0  0  0
 42 47  1  0  0  0  0
 11 14  1  0  0  0  0
 11 15  1  0  0  0  0
 11 16  1  0  0  0  0
 49 51  1  0  0  0  0
 49 52  1  0  0  0  0
 49 53  1  0  0  0  0
 22 30  1  0  0  0  0
 22 31  1  0  0  0  0
 23 32  1  0  0  0  0
 23 33  1  0  0  0  0
 21 28  1  0  0  0  0
 21 29  1  0  0  0  0
 24 34  1  0  0  0  0
 24 35  1  0  0  0  0
 39 44  1  0  0  0  0
  8 13  1  0  0  0  0
 18 27  1  0  0  0  0
 25 36  1  0  0  0  0
 25 37  1  0  0  0  0
 48 50  1  0  0  0  0
  7 12  1  0  0  0  0
 38 43  1  0  0  0  0
 17 26  1  0  0  0  0
M  END
$$$$

  -OEChem-05262214473D

 53 52  0     1  0  0  0  0  0999 V2000
   -1.0338   -5.6785    0.1476 C   0  0  0  0  0  0  0  0  0  0  0  0
   -2.0514   -5.7797    0.8227 O   0  0  0  0  0  0  0  0  0  0  0  0
   -0.6558   -6.7819   -0.7841 C   0  0  0  0  0  0  0  0  0  0  0  0
   -0.0111   -7.5354   -0.3038 H   0  0  0  0  0  0  0  0  0  0  0  0
   -1.5317   -7.3401   -1.1520 H   0  0  0  0  0  0  0  0  0  0  0  0
   -0.1109   -6.4687   -1.6890 H   0  0  0  0  0  0  0  0  0  0  0  0
   -0.1543   -4.6083    0.1480 N   0  0  0  0  0  0  0  0  0  0  0  0
   -0.3302   -3.4398    0.9696 C   0  0  2  0  0  0  0  0  0  0  0  0
    0.2328   -2.2439    0.2131 C   0  0  0  0  0  0  0  0  0  0  0  0
    1.2097   -2.3192   -0.5294 O   0  0  0  0  0  0  0  0  0  0  0  0
    0.3557   -3.6024    2.3171 C   0  0  0  0  0  0  0  0  0  0  0  0
    0.6584   -4.6506   -0.4643 H   0  0  0  0  0  0  0  0  0  0  0  0
   -1.4091   -3.3101    1.1082 H   0  0  0  0  0  0  0  0  0  0  0  0
    1.4375   -3.7336    2.1985 H   0  0  0  0  0  0  0  0  0  0  0  0
    0.1969   -2.7243    2.9517 H   0  0  0  0  0  0  0  0  0  0  0  0
   -0.0294   -4.4803    2.8470 H   0  0  0  0  0  0  0  0  0  0  0  0
   -0.4616   -1.0893    0.5050 N   0  0  0  0  0  0  0  0  0  0  0  0
   -0.0884    0.2050   -0.0621 C   0  0  2  0  0  0  0  0  0  0  0  0
   -1.0675    1.2448    0.4755 C   0  0  0  0  0  0  0  0  0  0  0  0
   -2.2199    1.3568    0.0621 O   0  0  0  0  0  0  0  0  0  0  0  0
   -0.1370    0.2034   -1.5973 C   0  0  0  0  0  0  0  0  0  0  0  0
    0.9393   -0.6785   -2.2388 C   0  0  0  0  0  0  0  0  0  0  0  0
    0.8614   -0.6244   -3.7670 C   0  0  0  0  0  0  0  0  0  0  0  0
    1.9189   -1.5230   -4.4060 C   0  0  0  0  0  0  0  0  0  0  0  0
    1.8124   -1.4755   -5.8594 N   0  0  0  0  0  0  0  0  0  0  0  0
   -1.2794   -1.1113    1.0935 H   0  0  0  0  0  0  0  0  0  0  0  0
    0.9234    0.4559    0.2784 H   0  0  0  0  0  0  0  0  0  0  0  0
   -0.0150    1.2320   -1.9617 H   0  0  0  0  0  0  0  0  0  0  0  0
   -1.1292   -0.1206   -1.9396 H   0  0  0  0  0  0  0  0  0  0  0  0
    0.8211   -1.7175   -1.9114 H   0  0  0  0  0  0  0  0  0  0  0  0
    1.9307   -0.3438   -1.9108 H   0  0  0  0  0  0  0  0  0  0  0  0
   -0.1390   -0.9370   -4.0921 H   0  0  0  0  0  0  0  0  0  0  0  0
    1.0018    0.4105   -4.1041 H   0  0  0  0  0  0  0  0  0  0  0  0
    1.7930   -2.5570   -4.0666 H   0  0  0  0  0  0  0  0  0  0  0  0
    2.9209   -1.1945   -4.1106 H   0  0  0  0  0  0  0  0  0  0  0  0
    1.0542   -0.8802   -6.0984 H   0  0  0  0  0  0  0  0  0  0  0  0
    2.6648   -1.1184   -6.2235 H   0  0  0  0  0  0  0  0  0  0  0  0
   -0.4944    2.0452    1.4541 N   0  0  0  0  0  0  0  0  0  0  0  0
   -1.2003    3.1217    2.1111 C   0  0  2  0  0  0  0  0  0  0  0  0
   -0.1900    4.2109    2.4465 C   0  0  0  0  0  0  0  0  0  0  0  0
    0.9746    3.9722    2.7595 O   0  0  0  0  0  0  0  0  0  0  0  0
   -1.9102    2.6342    3.3645 C   0  0  0  0  0  0  0  0  0  0  0  0
    0.4649    1.8725    1.7395 H   0  0  0  0  0  0  0  0  0  0  0  0
   -1.9291    3.5082    1.3903 H   0  0  0  0  0  0  0  0  0  0  0  0
   -1.1961    2.2432    4.0984 H   0  0  0  0  0  0  0  0  0  0  0  0
   -2.4679    3.4446    3.8453 H   0  0  0  0  0  0  0  0  0  0  0  0
   -2.6149    1.8303    3.1255 H   0  0  0  0  0  0  0  0  0  0  0  0
   -0.7533    5.4783    2.3973 N   0  0  0  0  0  0  0  0  0  0  0  0
   -0.0100    6.6748    2.7166 C   0  0  0  0  0  0  0  0  0  0  0  0
   -1.7152    5.5860    2.0892 H   0  0  0  0  0  0  0  0  0  0  0  0
   -0.1431    6.9165    3.7814 H   0  0  0  0  0  0  0  0  0  0  0  0
    1.0575    6.5095    2.5089 H   0  0  0  0  0  0  0  0  0  0  0  0
   -0.3781    7.5098    2.1024 H   0  0  0  0  0  0  0  0  0  0  0  0
  1  3  1  0  0  0  0
  1  7  1  0  0  0  0
  1  2  2  0  0  0  0
 39 40  1  0  0  0  0
 40 48  1  0  0  0  0
 40 41  2  0  0  0  0
  8  9  1  0  0  0  0
  9 17  1  0  0  0  0
  9 10  2  0  0  0  0
 18 19  1  0  0  0  0
 19 38  1  0  0  0  0
 19 20  2  0  0  0  0
 39 42  1  0  0  0  0
  8 11  1  0  0  0  0
 48 49  1  0  0  0  0
 22 23  1  0  0  0  0
 21 22  1  0  0  0  0
 23 24  1  0  0  0  0
 18 21  1  0  0  0  0
 24 25  1  0  0  0  0
 38 39  1  0  0  0  0
  7  8  1  0  0  0  0
 17 18  1  0  0  0  0
  3  4  1  0  0  0  0
  3  5  1  0  0  0  0
  3  6  1  0  0  0  0
 42 45  1  0  0  0  0
 42 46  1  0  0  0  0
 42 47  1  0  0  0  0
 11 14  1  0  0  0  0
 11 15  1  0  0  0  0
 11 16  1  0  0  0  0
 49 51  1  0  0  0  0
 49 52  1  0  0  0  0
 49 53  1  0  0  0  0
 22 30  1  0  0  0  0
 22 31  1  0  0  0  0
 23 32  1  0  0  0  0
 23 33  1  0  0  0  0
 21 28  1  0  0  0  0
 21 29  1  0  0  0  0
 24 34  1  0  0  0  0
 24 35  1  0  0  0  0
 39 44  1  0  0  0  0
  8 13  1  0  0  0  0
 18 27  1  0  0  0  0
 25 36  1  0  0  0  0
 25 37  1  0  0  0  0
 48 50  1  0  0  0  0
  7 12  1  0  0  0  0
 38 43  1  0  0  0  0
 17 26  1  0  0  0  0
M  END
$$$$

  -OEChem-05262214473D

 53 52  0     1  0  0  0  0  0999 V2000
   -1.0338   -5.6785    0.1476 C   0  0  0  0  0  0  0  0  0  0  0  0
   -2.0514   -5.7797    0.8227 O   0  0  0  0  0  0  0  0  0  0  0  0
   -0.6558   -6.7819   -0.7841 C   0  0  0  0  0  0  0  0  0  0  0  0
   -0.0111   -7.5354   -0.3038 H   0  0  0  0  0  0  0  0  0  0  0  0
   -1.5317   -7.3401   -1.1520 H   0  0  0  0  0  0  0  0  0  0  0  0
   -0.1109   -6.4687   -1.6890 H   0  0  0  0  0  0  0  0  0  0  0  0
   -0.1543   -4.6083    0.1480 N   0  0  0  0  0  0  0  0  0  0  0  0
   -0.3302   -3.4398    0.9696 C   0  0  2  0  0  0  0  0  0  0  0  0
    0.2328   -2.2439    0.2131 C   0  0  0  0  0  0  0  0  0  0  0  0
    1.2097   -2.3192   -0.5294 O   0  0  0  0  0  0  0  0  0  0  0  0
    0.3557   -3.6024    2.3171 C   0  0  0  0  0  0  0  0  0  0  0  0
    0.6584   -4.6506   -0.4643 H   0  0  0  0  0  0  0  0  0  0  0  0
   -1.4091   -3.3101    1.1082 H   0  0  0  0  0  0  0  0  0  0  0  0
    1.4375   -3.7336    2.1985 H   0  0  0  0  0  0  0  0  0  0  0  0
    0.1969   -2.7243    2.9517 H   0  0  0  0  0  0  0  0  0  0  0  0
   -0.0294   -4.4803    2.8470 H   0  0  0  0  0  0  0  0  0  0  0  0
   -0.4616   -1.0893    0.5050 N   0  0  0  0  0  0  0  0  0  0  0  0
   -0.0884    0.2050   -0.0621 C   0  0  2  0  0  0  0  0  0  0  0  0
   -1.0675    1.2448    0.4755 C   0  0  0  0  0  0  0  0  0  0  0  0
   -2.2784    1.1948    0.2688 O   0  0  0  0  0  0  0  0  0  0  0  0
   -0.1370    0.2034   -1.5973 C   0  0  0  0  0  0  0  0  0  0  0  0
    0.9393   -0.6785   -2.2388 C   0  0  0  0  0  0  0  0  0  0  0  0
    0.8614   -0.6244   -3.7670 C   0  0  0  0  0  0  0  0  0  0  0  0
    1.9189   -1.5230   -4.4060 C   0  0  0  0  0  0  0  0  0  0  0  0
    1.8124   -1.4755   -5.8594 N   0  0  0  0  0  0  0  0  0  0  0  0
   -1.2794   -1.1113    1.0935 H   0  0  0  0  0  0  0  0  0  0  0  0
    0.9234    0.4559    0.2784 H   0  0  0  0  0  0  0  0  0  0  0  0
   -0.0150    1.2320   -1.9617 H   0  0  0  0  0  0  0  0  0  0  0  0
   -1.1292   -0.1206   -1.9396 H   0  0  0  0  0  0  0  0  0  0  0  0
    0.8211   -1.7175   -1.9114 H   0  0  0  0  0  0  0  0  0  0  0  0
    1.9307   -0.3438   -1.9108 H   0  0  0  0  0  0  0  0  0  0  0  0
   -0.1390   -0.9370   -4.0921 H   0  0  0  0  0  0  0  0  0  0  0  0
    1.0018    0.4105   -4.1041 H   0  0  0  0  0  0  0  0  0  0  0  0
    1.7930   -2.5570   -4.0666 H   0  0  0  0  0  0  0  0  0  0  0  0
    2.9209   -1.1945   -4.1106 H   0  0  0  0  0  0  0  0  0  0  0  0
    1.0542   -0.8802   -6.0984 H   0  0  0  0  0  0  0  0  0  0  0  0
    2.6648   -1.1184   -6.2235 H   0  0  0  0  0  0  0  0  0  0  0  0
   -0.4257    2.2448    1.1931 N   0  0  0  0  0  0  0  0  0  0  0  0
   -1.1209    3.3623    1.7904 C   0  0  2  0  0  0  0  0  0  0  0  0
   -0.1898    4.5671    1.7579 C   0  0  0  0  0  0  0  0  0  0  0  0
    1.0295    4.4762    1.8848 O   0  0  0  0  0  0  0  0  0  0  0  0
   -1.5535    3.0479    3.2140 C   0  0  0  0  0  0  0  0  0  0  0  0
    0.5808    2.1981    1.3207 H   0  0  0  0  0  0  0  0  0  0  0  0
   -1.9976    3.5606    1.1643 H   0  0  0  0  0  0  0  0  0  0  0  0
   -0.6884    2.8464    3.8563 H   0  0  0  0  0  0  0  0  0  0  0  0
   -2.1049    3.8848    3.6551 H   0  0  0  0  0  0  0  0  0  0  0  0
   -2.1990    2.1633    3.2388 H   0  0  0  0  0  0  0  0  0  0  0  0
   -0.8846    5.7598    1.6137 N   0  0  0  0  0  0  0  0  0  0  0  0
   -0.2292    7.0468    1.5978 C   0  0  0  0  0  0  0  0  0  0  0  0
   -1.8905    5.7385    1.4748 H   0  0  0  0  0  0  0  0  0  0  0  0
   -0.2057    7.4595    2.6172 H   0  0  0  0  0  0  0  0  0  0  0  0
    0.7994    6.9298    1.2259 H   0  0  0  0  0  0  0  0  0  0  0  0
   -0.7821    7.7315    0.9378 H   0  0  0  0  0  0  0  0  0  0  0  0
  1  3  1  0  0  0  0
  1  7  1  0  0  0  0
  1  2  2  0  0  0  0
 39 40  1  0  0  0  0
 40 48  1  0  0  0  0
 40 41  2  0  0  0  0
  8  9  1  0  0  0  0
  9 17  1  0  0  0  0
  9 10  2  0  0  0  0
 18 19  1  0  0  0  0
 19 38  1  0  0  0  0
 19 20  2  0  0  0  0
 39 42  1  0  0  0  0
  8 11  1  0  0  0  0
 48 49  1  0  0  0  0
 22 23  1  0  0  0  0
 21 22  1  0  0  0  0
 23 24  1  0  0  0  0
 18 21  1  0  0  0  0
 24 25  1  0  0  0  0
 38 39  1  0  0  0  0
  7  8  1  0  0  0  0
 17 18  1  0  0  0  0
  3  4  1  0  0  0  0
  3  5  1  0  0  0  0
  3  6  1  0  0  0  0
 42 45  1  0  0  0  0
 42 46  1  0  0  0  0
 42 47  1  0  0  0  0
 11 14  1  0  0  0  0
 11 15  1  0  0  0  0
 11 16  1  0  0  0  0
 49 51  1  0  0  0  0
 49 52  1  0  0  0  0
 49 53  1  0  0  0  0
 22 30  1  0  0  0  0
 22 31  1  0  0  0  0
 23 32  1  0  0  0  0
 23 33  1  0  0  0  0
 21 28  1  0  0  0  0
 21 29  1  0  0  0  0
 24 34  1  0  0  0  0
 24 35  1  0  0  0  0
 39 44  1  0  0  0  0
  8 13  1  0  0  0  0
 18 27  1  0  0  0  0
 25 36  1  0  0  0  0
 25 37  1  0  0  0  0
 48 50  1  0  0  0  0
  7 12  1  0  0  0  0
 38 43  1  0  0  0  0
 17 26  1  0  0  0  0
M  END
$$$$

  -OEChem-05262214473D

 53 52  0     1  0  0  0  0  0999 V2000
   -1.0338   -5.6785    0.1476 C   0  0  0  0  0  0  0  0  0  0  0  0
   -2.0514   -5.7797    0.8227 O   0  0  0  0  0  0  0  0  0  0  0  0
   -0.6558   -6.7819   -0.7841 C   0  0  0  0  0  0  0  0  0  0  0  0
   -0.0111   -7.5354   -0.3038 H   0  0  0  0  0  0  0  0  0  0  0  0
   -1.5317   -7.3401   -1.1520 H   0  0  0  0  0  0  0  0  0  0  0  0
   -0.1109   -6.4687   -1.6890 H   0  0  0  0  0  0  0  0  0  0  0  0
   -0.1543   -4.6083    0.1480 N   0  0  0  0  0  0  0  0  0  0  0  0
   -0.3302   -3.4398    0.9696 C   0  0  2  0  0  0  0  0  0  0  0  0
    0.2328   -2.2439    0.2131 C   0  0  0  0  0  0  0  0  0  0  0  0
    1.2097   -2.3192   -0.5294 O   0  0  0  0  0  0  0  0  0  0  0  0
    0.3557   -3.6024    2.3171 C   0  0  0  0  0  0  0  0  0  0  0  0
    0.6584   -4.6506   -0.4643 H   0  0  0  0  0  0  0  0  0  0  0  0
   -1.4091   -3.3101    1.1082 H   0  0  0  0  0  0  0  0  0  0  0  0
    1.4375   -3.7336    2.1985 H   0  0  0  0  0  0  0  0  0  0  0  0
    0.1969   -2.7243    2.9517 H   0  0  0  0  0  0  0  0  0  0  0  0
   -0.0294   -4.4803    2.8470 H   0  0  0  0  0  0  0  0  0  0  0  0
   -0.4616   -1.0893    0.5050 N   0  0  0  0  0  0  0  0  0  0  0  0
   -0.0884    0.2050   -0.0621 C   0  0  2  0  0  0  0  0  0  0  0  0
   -1.0675    1.2448    0.4755 C   0  0  0  0  0  0  0  0  0  0  0  0
   -2.2837    1.0674    0.5057 O   0  0  0  0  0  0  0  0  0  0  0  0
   -0.1370    0.2034   -1.5973 C   0  0  0  0  0  0  0  0  0  0  0  0
    0.9393   -0.6785   -2.2388 C   0  0  0  0  0  0  0  0  0  0  0  0
    0.8614   -0.6244   -3.7670 C   0  0  0  0  0  0  0  0  0  0  0  0
    1.9189   -1.5230   -4.4060 C   0  0  0  0  0  0  0  0  0  0  0  0
    1.8124   -1.4755   -5.8594 N   0  0  0  0  0  0  0  0  0  0  0  0
   -1.2794   -1.1113    1.0935 H   0  0  0  0  0  0  0  0  0  0  0  0
    0.9234    0.4559    0.2784 H   0  0  0  0  0  0  0  0  0  0  0  0
   -0.0150    1.2320   -1.9617 H   0  0  0  0  0  0  0  0  0  0  0  0
   -1.1292   -0.1206   -1.9396 H   0  0  0  0  0  0  0  0  0  0  0  0
    0.8211   -1.7175   -1.9114 H   0  0  0  0  0  0  0  0  0  0  0  0
    1.9307   -0.3438   -1.9108 H   0  0  0  0  0  0  0  0  0  0  0  0
   -0.1390   -0.9370   -4.0921 H   0  0  0  0  0  0  0  0  0  0  0  0
    1.0018    0.4105   -4.1041 H   0  0  0  0  0  0  0  0  0  0  0  0
    1.7930   -2.5570   -4.0666 H   0  0  0  0  0  0  0  0  0  0  0  0
    2.9209   -1.1945   -4.1106 H   0  0  0  0  0  0  0  0  0  0  0  0
    1.0542   -0.8802   -6.0984 H   0  0  0  0  0  0  0  0  0  0  0  0
    2.6648   -1.1184   -6.2235 H   0  0  0  0  0  0  0  0  0  0  0  0
   -0.4236    2.4005    0.8957 N   0  0  0  0  0  0  0  0  0  0  0  0
   -1.1227    3.5487    1.4266 C   0  0  2  0  0  0  0  0  0  0  0  0
   -0.3435    4.7968    1.0336 C   0  0  0  0  0  0  0  0  0  0  0  0
    0.8824    4.8227    0.9467 O   0  0  0  0  0  0  0  0  0  0  0  0
   -1.2732    3.4551    2.9370 C   0  0  0  0  0  0  0  0  0  0  0  0
    0.5892    2.4537    0.8416 H   0  0  0  0  0  0  0  0  0  0  0  0
   -2.1085    3.5674    0.9493 H   0  0  0  0  0  0  0  0  0  0  0  0
   -0.2957    3.4352    3.4328 H   0  0  0  0  0  0  0  0  0  0  0  0
   -1.8279    4.3115    3.3343 H   0  0  0  0  0  0  0  0  0  0  0  0
   -1.8078    2.5417    3.2196 H   0  0  0  0  0  0  0  0  0  0  0  0
   -1.1752    5.8897    0.8332 N   0  0  0  0  0  0  0  0  0  0  0  0
   -0.6722    7.2004    0.4940 C   0  0  0  0  0  0  0  0  0  0  0  0
   -2.1822    5.7678    0.8870 H   0  0  0  0  0  0  0  0  0  0  0  0
   -0.5210    7.7850    1.4135 H   0  0  0  0  0  0  0  0  0  0  0  0
    0.2855    7.0992   -0.0376 H   0  0  0  0  0  0  0  0  0  0  0  0
   -1.3979    7.7154   -0.1526 H   0  0  0  0  0  0  0  0  0  0  0  0
  1  3  1  0  0  0  0
  1  7  1  0  0  0  0
  1  2  2  0  0  0  0
 39 40  1  0  0  0  0
 40 48  1  0  0  0  0
 40 41  2  0  0  0  0
  8  9  1  0  0  0  0
  9 17  1  0  0  0  0
  9 10  2  0  0  0  0
 18 19  1  0  0  0  0
 19 38  1  0  0  0  0
 19 20  2  0  0  0  0
 39 42  1  0  0  0  0
  8 11  1  0  0  0  0
 48 49  1  0  0  0  0
 22 23  1  0  0  0  0
 21 22  1  0  0  0  0
 23 24  1  0  0  0  0
 18 21  1  0  0  0  0
 24 25  1  0  0  0  0
 38 39  1  0  0  0  0
  7  8  1  0  0  0  0
 17 18  1  0  0  0  0
  3  4  1  0  0  0  0
  3  5  1  0  0  0  0
  3  6  1  0  0  0  0
 42 45  1  0  0  0  0
 42 46  1  0  0  0  0
 42 47  1  0  0  0  0
 11 14  1  0  0  0  0
 11 15  1  0  0  0  0
 11 16  1  0  0  0  0
 49 51  1  0  0  0  0
 49 52  1  0  0  0  0
 49 53  1  0  0  0  0
 22 30  1  0  0  0  0
 22 31  1  0  0  0  0
 23 32  1  0  0  0  0
 23 33  1  0  0  0  0
 21 28  1  0  0  0  0
 21 29  1  0  0  0  0
 24 34  1  0  0  0  0
 24 35  1  0  0  0  0
 39 44  1  0  0  0  0
  8 13  1  0  0  0  0
 18 27  1  0  0  0  0
 25 36  1  0  0  0  0
 25 37  1  0  0  0  0
 48 50  1  0  0  0  0
  7 12  1  0  0  0  0
 38 43  1  0  0  0  0
 17 26  1  0  0  0  0
M  END
$$$$

  -OEChem-05262214473D

 53 52  0     1  0  0  0  0  0999 V2000
   -1.0338   -5.6785    0.1476 C   0  0  0  0  0  0  0  0  0  0  0  0
   -2.0514   -5.7797    0.8227 O   0  0  0  0  0  0  0  0  0  0  0  0
   -0.6558   -6.7819   -0.7841 C   0  0  0  0  0  0  0  0  0  0  0  0
   -0.0111   -7.5354   -0.3038 H   0  0  0  0  0  0  0  0  0  0  0  0
   -1.5317   -7.3401   -1.1520 H   0  0  0  0  0  0  0  0  0  0  0  0
   -0.1109   -6.4687   -1.6890 H   0  0  0  0  0  0  0  0  0  0  0  0
   -0.1543   -4.6083    0.1480 N   0  0  0  0  0  0  0  0  0  0  0  0
   -0.3302   -3.4398    0.9696 C   0  0  2  0  0  0  0  0  0  0  0  0
    0.2328   -2.2439    0.2131 C   0  0  0  0  0  0  0  0  0  0  0  0
    1.2097   -2.3192   -0.5294 O   0  0  0  0  0  0  0  0  0  0  0  0
    0.3557   -3.6024    2.3171 C   0  0  0  0  0  0  0  0  0  0  0  0
    0.6584   -4.6506   -0.4643 H   0  0  0  0  0  0  0  0  0  0  0  0
   -1.4091   -3.3101    1.1082 H   0  0  0  0  0  0  0  0  0  0  0  0
    1.4375   -3.7336    2.1985 H   0  0  0  0  0  0  0  0  0  0  0  0
    0.1969   -2.7243    2.9517 H   0  0  0  0  0  0  0  0  0  0  0  0
   -0.0294   -4.4803    2.8470 H   0  0  0  0  0  0  0  0  0  0  0  0
   -0.4616   -1.0893    0.5050 N   0  0  0  0  0  0  0  0  0  0  0  0
   -0.0884    0.2050   -0.0621 C   0  0  2  0  0  0  0  0  0  0  0  0
   -1.0675    1.2448    0.4755 C   0  0  0  0  0  0  0  0  0  0  0  0
   -2.2353    0.9831    0.7567 O   0  0  0  0  0  0  0  0  0  0  0  0
   -0.1370    0.2034   -1.5973 C   0  0  0  0  0  0  0  0  0  0  0  0
    0.9393   -0.6785   -2.2388 C   0  0  0  0  0  0  0  0  0  0  0  0
    0.8614   -0.6244   -3.7670 C   0  0  0  0  0  0  0  0  0  0  0  0
    1.9189   -1.5230   -4.4060 C   0  0  0  0  0  0  0  0  0  0  0  0
    1.8124   -1.4755   -5.8594 N   0  0  0  0  0  0  0  0  0  0  0  0
   -1.2794   -1.1113    1.0935 H   0  0  0  0  0  0  0  0  0  0  0  0
    0.9234    0.4559    0.2784 H   0  0  0  0  0  0  0  0  0  0  0  0
   -0.0150    1.2320   -1.9617 H   0  0  0  0  0  0  0  0  0  0  0  0
   -1.1292   -0.1206   -1.9396 H   0  0  0  0  0  0  0  0  0  0  0  0
    0.8211   -1.7175   -1.9114 H   0  0  0  0  0  0  0  0  0  0  0  0
    1.9307   -0.3438   -1.9108 H   0  0  0  0  0  0  0  0  0  0  0  0
   -0.1390   -0.9370   -4.0921 H   0  0  0  0  0  0  0  0  0  0  0  0
    1.0018    0.4105   -4.1041 H   0  0  0  0  0  0  0  0  0  0  0  0
    1.7930   -2.5570   -4.0666 H   0  0  0  0  0  0  0  0  0  0  0  0
    2.9209   -1.1945   -4.1106 H   0  0  0  0  0  0  0  0  0  0  0  0
    1.0542   -0.8802   -6.0984 H   0  0  0  0  0  0  0  0  0  0  0  0
    2.6648   -1.1184   -6.2235 H   0  0  0  0  0  0  0  0  0  0  0  0
   -0.4883    2.5018    0.5822 N   0  0  0  0  0  0  0  0  0  0  0  0
   -1.2055    3.6681    1.0447 C   0  0  2  0  0  0  0  0  0  0  0  0
   -0.6407    4.8845    0.3229 C   0  0  0  0  0  0  0  0  0  0  0  0
    0.5433    4.9882    0.0089 O   0  0  0  0  0  0  0  0  0  0  0  0
   -1.0883    3.8279    2.5525 C   0  0  0  0  0  0  0  0  0  0  0  0
    0.4895    2.6218    0.3349 H   0  0  0  0  0  0  0  0  0  0  0  0
   -2.2540    3.5281    0.7600 H   0  0  0  0  0  0  0  0  0  0  0  0
   -0.0448    3.9693    2.8567 H   0  0  0  0  0  0  0  0  0  0  0  0
   -1.6558    4.6956    2.9048 H   0  0  0  0  0  0  0  0  0  0  0  0
   -1.4677    2.9397    3.0692 H   0  0  0  0  0  0  0  0  0  0  0  0
   -1.6054    5.8590    0.1090 N   0  0  0  0  0  0  0  0  0  0  0  0
   -1.3087    7.1250   -0.5196 C   0  0  0  0  0  0  0  0  0  0  0  0
   -2.5702    5.6719    0.3658 H   0  0  0  0  0  0  0  0  0  0  0  0
   -1.0675    7.8707    0.2523 H   0  0  0  0  0  0  0  0  0  0  0  0
   -0.4491    7.0061   -1.1956 H   0  0  0  0  0  0  0  0  0  0  0  0
   -2.1835    7.4626   -1.0947 H   0  0  0  0  0  0  0  0  0  0  0  0
  1  3  1  0  0  0  0
  1  7  1  0  0  0  0
  1  2  2  0  0  0  0
 39 40  1  0  0  0  0
 40 48  1  0  0  0  0
 40 41  2  0  0  0  0
  8  9  1  0  0  0  0
  9 17  1  0  0  0  0
  9 10  2  0  0  0  0
 18 19  1  0  0  0  0
 19 38  1  0  0  0  0
 19 20  2  0  0  0  0
 39 42  1  0  0  0  0
  8 11  1  0  0  0  0
 48 49  1  0  0  0  0
 22 23  1  0  0  0  0
 21 22  1  0  0  0  0
 23 24  1  0  0  0  0
 18 21  1  0  0  0  0
 24 25  1  0  0  0  0
 38 39  1  0  0  0  0
  7  8  1  0  0  0  0
 17 18  1  0  0  0  0
  3  4  1  0  0  0  0
  3  5  1  0  0  0  0
  3  6  1  0  0  0  0
 42 45  1  0  0  0  0
 42 46  1  0  0  0  0
 42 47  1  0  0  0  0
 11 14  1  0  0  0  0
 11 15  1  0  0  0  0
 11 16  1  0  0  0  0
 49 51  1  0  0  0  0
 49 52  1  0  0  0  0
 49 53  1  0  0  0  0
 22 30  1  0  0  0  0
 22 31  1  0  0  0  0
 23 32  1  0  0  0  0
 23 33  1  0  0  0  0
 21 28  1  0  0  0  0
 21 29  1  0  0  0  0
 24 34  1  0  0  0  0
 24 35  1  0  0  0  0
 39 44  1  0  0  0  0
  8 13  1  0  0  0  0
 18 27  1  0  0  0  0
 25 36  1  0  0  0  0
 25 37  1  0  0  0  0
 48 50  1  0  0  0  0
  7 12  1  0  0  0  0
 38 43  1  0  0  0  0
 17 26  1  0  0  0  0
M  END
$$$$

  -OEChem-05262214473D

 53 52  0     1  0  0  0  0  0999 V2000
   -1.0338   -5.6785    0.1476 C   0  0  0  0  0  0  0  0  0  0  0  0
   -2.0514   -5.7797    0.8227 O   0  0  0  0  0  0  0  0  0  0  0  0
   -0.6558   -6.7819   -0.7841 C   0  0  0  0  0  0  0  0  0  0  0  0
   -0.0111   -7.5354   -0.3038 H   0  0  0  0  0  0  0  0  0  0  0  0
   -1.5317   -7.3401   -1.1520 H   0  0  0  0  0  0  0  0  0  0  0  0
   -0.1109   -6.4687   -1.6890 H   0  0  0  0  0  0  0  0  0  0  0  0
   -0.1543   -4.6083    0.1480 N   0  0  0  0  0  0  0  0  0  0  0  0
   -0.3302   -3.4398    0.9696 C   0  0  2  0  0  0  0  0  0  0  0  0
    0.2328   -2.2439    0.2131 C   0  0  0  0  0  0  0  0  0  0  0  0
    1.2097   -2.3192   -0.5294 O   0  0  0  0  0  0  0  0  0  0  0  0
    0.3557   -3.6024    2.3171 C   0  0  0  0  0  0  0  0  0  0  0  0
    0.6584   -4.6506   -0.4643 H   0  0  0  0  0  0  0  0  0  0  0  0
   -1.4091   -3.3101    1.1082 H   0  0  0  0  0  0  0  0  0  0  0  0
    1.4375   -3.7336    2.1985 H   0  0  0  0  0  0  0  0  0  0  0  0
    0.1969   -2.7243    2.9517 H   0  0  0  0  0  0  0  0  0  0  0  0
   -0.0294   -4.4803    2.8470 H   0  0  0  0  0  0  0  0  0  0  0  0
   -0.4616   -1.0893    0.5050 N   0  0  0  0  0  0  0  0  0  0  0  0
   -0.0884    0.2050   -0.0621 C   0  0  2  0  0  0  0  0  0  0  0  0
   -1.0675    1.2448    0.4755 C   0  0  0  0  0  0  0  0  0  0  0  0
   -2.1368    0.9478    1.0046 O   0  0  0  0  0  0  0  0  0  0  0  0
   -0.1370    0.2034   -1.5973 C   0  0  0  0  0  0  0  0  0  0  0  0
    0.9393   -0.6785   -2.2388 C   0  0  0  0  0  0  0  0  0  0  0  0
    0.8614   -0.6244   -3.7670 C   0  0  0  0  0  0  0  0  0  0  0  0
    1.9189   -1.5230   -4.4060 C   0  0  0  0  0  0  0  0  0  0  0  0
    1.8124   -1.4755   -5.8594 N   0  0  0  0  0  0  0  0  0  0  0  0
   -1.2794   -1.1113    1.0935 H   0  0  0  0  0  0  0  0  0  0  0  0
    0.9234    0.4559    0.2784 H   0  0  0  0  0  0  0  0  0  0  0  0
   -0.0150    1.2320   -1.9617 H   0  0  0  0  0  0  0  0  0  0  0  0
   -1.1292   -0.1206   -1.9396 H   0  0  0  0  0  0  0  0  0  0  0  0
    0.8211   -1.7175   -1.9114 H   0  0  0  0  0  0  0  0  0  0  0  0
    1.9307   -0.3438   -1.9108 H   0  0  0  0  0  0  0  0  0  0  0  0
   -0.1390   -0.9370   -4.0921 H   0  0  0  0  0  0  0  0  0  0  0  0
    1.0018    0.4105   -4.1041 H   0  0  0  0  0  0  0  0  0  0  0  0
    1.7930   -2.5570   -4.0666 H   0  0  0  0  0  0  0  0  0  0  0  0
    2.9209   -1.1945   -4.1106 H   0  0  0  0  0  0  0  0  0  0  0  0
    1.0542   -0.8802   -6.0984 H   0  0  0  0  0  0  0  0  0  0  0  0
    2.6648   -1.1184   -6.2235 H   0  0  0  0  0  0  0  0  0  0  0  0
   -0.6152    2.5416    0.2739 N   0  0  0  0  0  0  0  0  0  0  0  0
   -1.3638    3.7125    0.6705 C   0  0  2  0  0  0  0  0  0  0  0  0
   -1.0610    4.8240   -0.3258 C   0  0  0  0  0  0  0  0  0  0  0  0
    0.0352    4.9614   -0.8647 O   0  0  0  0  0  0  0  0  0  0  0  0
   -1.0116    4.1411    2.0865 C   0  0  0  0  0  0  0  0  0  0  0  0
    0.2885    2.6909   -0.1649 H   0  0  0  0  0  0  0  0  0  0  0  0
   -2.4245    3.4455    0.6094 H   0  0  0  0  0  0  0  0  0  0  0  0
    0.0473    4.4125    2.1672 H   0  0  0  0  0  0  0  0  0  0  0  0
   -1.6003    5.0110    2.3957 H   0  0  0  0  0  0  0  0  0  0  0  0
   -1.2020    3.3302    2.7978 H   0  0  0  0  0  0  0  0  0  0  0  0
   -2.1458    5.6699   -0.5095 N   0  0  0  0  0  0  0  0  0  0  0  0
   -2.0954    6.8259   -1.3739 C   0  0  0  0  0  0  0  0  0  0  0  0
   -3.0281    5.4574   -0.0533 H   0  0  0  0  0  0  0  0  0  0  0  0
   -1.8079    7.7108   -0.7871 H   0  0  0  0  0  0  0  0  0  0  0  0
   -1.3545    6.6569   -2.1691 H   0  0  0  0  0  0  0  0  0  0  0  0
   -3.0855    6.9904   -1.8241 H   0  0  0  0  0  0  0  0  0  0  0  0
  1  3  1  0  0  0  0
  1  7  1  0  0  0  0
  1  2  2  0  0  0  0
 39 40  1  0  0  0  0
 40 48  1  0  0  0  0
 40 41  2  0  0  0  0
  8  9  1  0  0  0  0
  9 17  1  0  0  0  0
  9 10  2  0  0  0  0
 18 19  1  0  0  0  0
 19 38  1  0  0  0  0
 19 20  2  0  0  0  0
 39 42  1  0  0  0  0
  8 11  1  0  0  0  0
 48 49  1  0  0  0  0
 22 23  1  0  0  0  0
 21 22  1  0  0  0  0
 23 24  1  0  0  0  0
 18 21  1  0  0  0  0
 24 25  1  0  0  0  0
 38 39  1  0  0  0  0
  7  8  1  0  0  0  0
 17 18  1  0  0  0  0
  3  4  1  0  0  0  0
  3  5  1  0  0  0  0
  3  6  1  0  0  0  0
 42 45  1  0  0  0  0
 42 46  1  0  0  0  0
 42 47  1  0  0  0  0
 11 14  1  0  0  0  0
 11 15  1  0  0  0  0
 11 16  1  0  0  0  0
 49 51  1  0  0  0  0
 49 52  1  0  0  0  0
 49 53  1  0  0  0  0
 22 30  1  0  0  0  0
 22 31  1  0  0  0  0
 23 32  1  0  0  0  0
 23 33  1  0  0  0  0
 21 28  1  0  0  0  0
 21 29  1  0  0  0  0
 24 34  1  0  0  0  0
 24 35  1  0  0  0  0
 39 44  1  0  0  0  0
  8 13  1  0  0  0  0
 18 27  1  0  0  0  0
 25 36  1  0  0  0  0
 25 37  1  0  0  0  0
 48 50  1  0  0  0  0
  7 12  1  0  0  0  0
 38 43  1  0  0  0  0
 17 26  1  0  0  0  0
M  END
$$$$

  -OEChem-05262214473D

 53 52  0     1  0  0  0  0  0999 V2000
   -1.0338   -5.6785    0.1476 C   0  0  0  0  0  0  0  0  0  0  0  0
   -2.0514   -5.7797    0.8227 O   0  0  0  0  0  0  0  0  0  0  0  0
   -0.6558   -6.7819   -0.7841 C   0  0  0  0  0  0  0  0  0  0  0  0
   -0.0111   -7.5354   -0.3038 H   0  0  0  0  0  0  0  0  0  0  0  0
   -1.5317   -7.3401   -1.1520 H   0  0  0  0  0  0  0  0  0  0  0  0
   -0.1109   -6.4687   -1.6890 H   0  0  0  0  0  0  0  0  0  0  0  0
   -0.1543   -4.6083    0.1480 N   0  0  0  0  0  0  0  0  0  0  0  0
   -0.3302   -3.4398    0.9696 C   0  0  2  0  0  0  0  0  0  0  0  0
    0.2328   -2.2439    0.2131 C   0  0  0  0  0  0  0  0  0  0  0  0
    1.2097   -2.3192   -0.5294 O   0  0  0  0  0  0  0  0  0  0  0  0
    0.3557   -3.6024    2.3171 C   0  0  0  0  0  0  0  0  0  0  0  0
    0.6584   -4.6506   -0.4643 H   0  0  0  0  0  0  0  0  0  0  0  0
   -1.4091   -3.3101    1.1082 H   0  0  0  0  0  0  0  0  0  0  0  0
    1.4375   -3.7336    2.1985 H   0  0  0  0  0  0  0  0  0  0  0  0
    0.1969   -2.7243    2.9517 H   0  0  0  0  0  0  0  0  0  0  0  0
   -0.0294   -4.4803    2.8470 H   0  0  0  0  0  0  0  0  0  0  0  0
   -0.4616   -1.0893    0.5050 N   0  0  0  0  0  0  0  0  0  0  0  0
   -0.0884    0.2050   -0.0621 C   0  0  2  0  0  0  0  0  0  0  0  0
   -0.8025    1.2861    0.7442 C   0  0  0  0  0  0  0  0  0  0  0  0
   -1.5595    1.0343    1.6796 O   0  0  0  0  0  0  0  0  0  0  0  0
   -0.4823    0.3274   -1.5417 C   0  0  0  0  0  0  0  0  0  0  0  0
    0.3195   -0.5979   -2.4629 C   0  0  0  0  0  0  0  0  0  0  0  0
   -0.0952   -0.4181   -3.9258 C   0  0  0  0  0  0  0  0  0  0  0  0
    0.6871   -1.3585   -4.8411 C   0  0  0  0  0  0  0  0  0  0  0  0
    0.2610   -1.1884   -6.2251 N   0  0  0  0  0  0  0  0  0  0  0  0
   -1.2794   -1.1113    1.0935 H   0  0  0  0  0  0  0  0  0  0  0  0
    0.9952    0.3338    0.0469 H   0  0  0  0  0  0  0  0  0  0  0  0
   -0.3353    1.3654   -1.8679 H   0  0  0  0  0  0  0  0  0  0  0  0
   -1.5552    0.1244   -1.6609 H   0  0  0  0  0  0  0  0  0  0  0  0
    0.1666   -1.6438   -2.1740 H   0  0  0  0  0  0  0  0  0  0  0  0
    1.3896   -0.3831   -2.3567 H   0  0  0  0  0  0  0  0  0  0  0  0
   -1.1709   -0.6104   -4.0258 H   0  0  0  0  0  0  0  0  0  0  0  0
    0.0765    0.6223   -4.2295 H   0  0  0  0  0  0  0  0  0  0  0  0
    0.5301   -2.3996   -4.5385 H   0  0  0  0  0  0  0  0  0  0  0  0
    1.7595   -1.1482   -4.7695 H   0  0  0  0  0  0  0  0  0  0  0  0
   -0.4627   -0.5085   -6.2484 H   0  0  0  0  0  0  0  0  0  0  0  0
    1.0425   -0.8846   -6.7575 H   0  0  0  0  0  0  0  0  0  0  0  0
   -0.5111    2.5617    0.2807 N   0  0  0  0  0  0  0  0  0  0  0  0
   -1.0749    3.7618    0.8557 C   0  0  2  0  0  0  0  0  0  0  0  0
   -1.2333    4.7877   -0.2587 C   0  0  0  0  0  0  0  0  0  0  0  0
   -0.4504    4.8797   -1.2020 O   0  0  0  0  0  0  0  0  0  0  0  0
   -0.1983    4.3045    1.9736 C   0  0  0  0  0  0  0  0  0  0  0  0
    0.1353    2.6739   -0.4946 H   0  0  0  0  0  0  0  0  0  0  0  0
   -2.0618    3.4915    1.2470 H   0  0  0  0  0  0  0  0  0  0  0  0
    0.7947    4.5807    1.6006 H   0  0  0  0  0  0  0  0  0  0  0  0
   -0.6411    5.1973    2.4272 H   0  0  0  0  0  0  0  0  0  0  0  0
   -0.0611    3.5546    2.7602 H   0  0  0  0  0  0  0  0  0  0  0  0
   -2.3273    5.6166   -0.0534 N   0  0  0  0  0  0  0  0  0  0  0  0
   -2.6651    6.6980   -0.9493 C   0  0  0  0  0  0  0  0  0  0  0  0
   -2.9451    5.4429    0.7339 H   0  0  0  0  0  0  0  0  0  0  0  0
   -2.1950    7.6277   -0.5962 H   0  0  0  0  0  0  0  0  0  0  0  0
   -2.3005    6.4639   -1.9603 H   0  0  0  0  0  0  0  0  0  0  0  0
   -3.7574    6.8259   -0.9739 H   0  0  0  0  0  0  0  0  0  0  0  0
  1  3  1  0  0  0  0
  1  7  1  0  0  0  0
  1  2  2  0  0  0  0
 39 40  1  0  0  0  0
 40 48  1  0  0  0  0
 40 41  2  0  0  0  0
  8  9  1  0  0  0  0
  9 17  1  0  0  0  0
  9 10  2  0  0  0  0
 18 19  1  0  0  0  0
 19 38  1  0  0  0  0
 19 20  2  0  0  0  0
 39 42  1  0  0  0  0
  8 11  1  0  0  0  0
 48 49  1  0  0  0  0
 22 23  1  0  0  0  0
 21 22  1  0  0  0  0
 23 24  1  0  0  0  0
 18 21  1  0  0  0  0
 24 25  1  0  0  0  0
 38 39  1  0  0  0  0
  7  8  1  0  0  0  0
 17 18  1  0  0  0  0
  3  4  1  0  0  0  0
  3  5  1  0  0  0  0
  3  6  1  0  0  0  0
 42 45  1  0  0  0  0
 42 46  1  0  0  0  0
 42 47  1  0  0  0  0
 11 14  1  0  0  0  0
 11 15  1  0  0  0  0
 11 16  1  0  0  0  0
 49 51  1  0  0  0  0
 49 52  1  0  0  0  0
 49 53  1  0  0  0  0
 22 30  1  0  0  0  0
 22 31  1  0  0  0  0
 23 32  1  0  0  0  0
 23 33  1  0  0  0  0
 21 28  1  0  0  0  0
 21 29  1  0  0  0  0
 24 34  1  0  0  0  0
 24 35  1  0  0  0  0
 39 44  1  0  0  0  0
  8 13  1  0  0  0  0
 18 27  1  0  0  0  0
 25 36  1  0  0  0  0
 25 37  1  0  0  0  0
 48 50  1  0  0  0  0
  7 12  1  0  0  0  0
 38 43  1  0  0  0  0
 17 26  1  0  0  0  0
M  END
$$$$

  -OEChem-05262214473D

 53 52  0     1  0  0  0  0  0999 V2000
   -1.0338   -5.6785    0.1476 C   0  0  0  0  0  0  0  0  0  0  0  0
   -2.0514   -5.7797    0.8227 O   0  0  0  0  0  0  0  0  0  0  0  0
   -0.6558   -6.7819   -0.7841 C   0  0  0  0  0  0  0  0  0  0  0  0
   -0.0111   -7.5354   -0.3038 H   0  0  0  0  0  0  0  0  0  0  0  0
   -1.5317   -7.3401   -1.1520 H   0  0  0  0  0  0  0  0  0  0  0  0
   -0.1109   -6.4687   -1.6890 H   0  0  0  0  0  0  0  0  0  0  0  0
   -0.1543   -4.6083    0.1480 N   0  0  0  0  0  0  0  0  0  0  0  0
   -0.3302   -3.4398    0.9696 C   0  0  2  0  0  0  0  0  0  0  0  0
    0.2328   -2.2439    0.2131 C   0  0  0  0  0  0  0  0  0  0  0  0
    1.2097   -2.3192   -0.5294 O   0  0  0  0  0  0  0  0  0  0  0  0
    0.3557   -3.6024    2.3171 C   0  0  0  0  0  0  0  0  0  0  0  0
    0.6584   -4.6506   -0.4643 H   0  0  0  0  0  0  0  0  0  0  0  0
   -1.4091   -3.3101    1.1082 H   0  0  0  0  0  0  0  0  0  0  0  0
    1.4375   -3.7336    2.1985 H   0  0  0  0  0  0  0  0  0  0  0  0
    0.1969   -2.7243    2.9517 H   0  0  0  0  0  0  0  0  0  0  0  0
   -0.0294   -4.4803    2.8470 H   0  0  0  0  0  0  0  0  0  0  0  0
   -0.4616   -1.0893    0.5050 N   0  0  0  0  0  0  0  0  0  0  0  0
   -0.0884    0.2050   -0.0621 C   0  0  2  0  0  0  0  0  0  0  0  0
   -0.8025    1.2861    0.7442 C   0  0  0  0  0  0  0  0  0  0  0  0
   -1.3384    1.0688    1.8291 O   0  0  0  0  0  0  0  0  0  0  0  0
   -0.4823    0.3274   -1.5417 C   0  0  0  0  0  0  0  0  0  0  0  0
    0.3195   -0.5979   -2.4629 C   0  0  0  0  0  0  0  0  0  0  0  0
   -0.0952   -0.4181   -3.9258 C   0  0  0  0  0  0  0  0  0  0  0  0
    0.6871   -1.3585   -4.8411 C   0  0  0  0  0  0  0  0  0  0  0  0
    0.2610   -1.1884   -6.2251 N   0  0  0  0  0  0  0  0  0  0  0  0
   -1.2794   -1.1113    1.0935 H   0  0  0  0  0  0  0  0  0  0  0  0
    0.9952    0.3338    0.0469 H   0  0  0  0  0  0  0  0  0  0  0  0
   -0.3353    1.3654   -1.8679 H   0  0  0  0  0  0  0  0  0  0  0  0
   -1.5552    0.1244   -1.6609 H   0  0  0  0  0  0  0  0  0  0  0  0
    0.1666   -1.6438   -2.1740 H   0  0  0  0  0  0  0  0  0  0  0  0
    1.3896   -0.3831   -2.3567 H   0  0  0  0  0  0  0  0  0  0  0  0
   -1.1709   -0.6104   -4.0258 H   0  0  0  0  0  0  0  0  0  0  0  0
    0.0765    0.6223   -4.2295 H   0  0  0  0  0  0  0  0  0  0  0  0
    0.5301   -2.3996   -4.5385 H   0  0  0  0  0  0  0  0  0  0  0  0
    1.7595   -1.1482   -4.7695 H   0  0  0  0  0  0  0  0  0  0  0  0
   -0.4627   -0.5085   -6.2484 H   0  0  0  0  0  0  0  0  0  0  0  0
    1.0425   -0.8846   -6.7575 H   0  0  0  0  0  0  0  0  0  0  0  0
   -0.7887    2.5145    0.0980 N   0  0  0  0  0  0  0  0  0  0  0  0
   -1.4147    3.7005    0.6369 C   0  0  2  0  0  0  0  0  0  0  0  0
   -1.9156    4.5400   -0.5309 C   0  0  0  0  0  0  0  0  0  0  0  0
   -1.3322    4.6023   -1.6111 O   0  0  0  0  0  0  0  0  0  0  0  0
   -0.4461    4.4936    1.5004 C   0  0  0  0  0  0  0  0  0  0  0  0
   -0.3118    2.6021   -0.7944 H   0  0  0  0  0  0  0  0  0  0  0  0
   -2.2668    3.3634    1.2372 H   0  0  0  0  0  0  0  0  0  0  0  0
    0.4143    4.8398    0.9162 H   0  0  0  0  0  0  0  0  0  0  0  0
   -0.9300    5.3765    1.9311 H   0  0  0  0  0  0  0  0  0  0  0  0
   -0.0640    3.8790    2.3227 H   0  0  0  0  0  0  0  0  0  0  0  0
   -3.0673    5.2451   -0.2106 N   0  0  0  0  0  0  0  0  0  0  0  0
   -3.7130    6.1457   -1.1369 C   0  0  0  0  0  0  0  0  0  0  0  0
   -3.5052    5.1021    0.6947 H   0  0  0  0  0  0  0  0  0  0  0  0
   -3.3313    7.1659   -0.9834 H   0  0  0  0  0  0  0  0  0  0  0  0
   -3.5002    5.8260   -2.1676 H   0  0  0  0  0  0  0  0  0  0  0  0
   -4.7994    6.1312   -0.9653 H   0  0  0  0  0  0  0  0  0  0  0  0
  1  3  1  0  0  0  0
  1  7  1  0  0  0  0
  1  2  2  0  0  0  0
 39 40  1  0  0  0  0
 40 48  1  0  0  0  0
 40 41  2  0  0  0  0
  8  9  1  0  0  0  0
  9 17  1  0  0  0  0
  9 10  2  0  0  0  0
 18 19  1  0  0  0  0
 19 38  1  0  0  0  0
 19 20  2  0  0  0  0
 39 42  1  0  0  0  0
  8 11  1  0  0  0  0
 48 49  1  0  0  0  0
 22 23  1  0  0  0  0
 21 22  1  0  0  0  0
 23 24  1  0  0  0  0
 18 21  1  0  0  0  0
 24 25  1  0  0  0  0
 38 39  1  0  0  0  0
  7  8  1  0  0  0  0
 17 18  1  0  0  0  0
  3  4  1  0  0  0  0
  3  5  1  0  0  0  0
  3  6  1  0  0  0  0
 42 45  1  0  0  0  0
 42 46  1  0  0  0  0
 42 47  1  0  0  0  0
 11 14  1  0  0  0  0
 11 15  1  0  0  0  0
 11 16  1  0  0  0  0
 49 51  1  0  0  0  0
 49 52  1  0  0  0  0
 49 53  1  0  0  0  0
 22 30  1  0  0  0  0
 22 31  1  0  0  0  0
 23 32  1  0  0  0  0
 23 33  1  0  0  0  0
 21 28  1  0  0  0  0
 21 29  1  0  0  0  0
 24 34  1  0  0  0  0
 24 35  1  0  0  0  0
 39 44  1  0  0  0  0
  8 13  1  0  0  0  0
 18 27  1  0  0  0  0
 25 36  1  0  0  0  0
 25 37  1  0  0  0  0
 48 50  1  0  0  0  0
  7 12  1  0  0  0  0
 38 43  1  0  0  0  0
 17 26  1  0  0  0  0
M  END
$$$$

  -OEChem-05262214473D

 53 52  0     1  0  0  0  0  0999 V2000
   -1.0338   -5.6785    0.1476 C   0  0  0  0  0  0  0  0  0  0  0  0
   -2.0514   -5.7797    0.8227 O   0  0  0  0  0  0  0  0  0  0  0  0
   -0.6558   -6.7819   -0.7841 C   0  0  0  0  0  0  0  0  0  0  0  0
   -0.0111   -7.5354   -0.3038 H   0  0  0  0  0  0  0  0  0  0  0  0
   -1.5317   -7.3401   -1.1520 H   0  0  0  0  0  0  0  0  0  0  0  0
   -0.1109   -6.4687   -1.6890 H   0  0  0  0  0  0  0  0  0  0  0  0
   -0.1543   -4.6083    0.1480 N   0  0  0  0  0  0  0  0  0  0  0  0
   -0.3302   -3.4398    0.9696 C   0  0  2  0  0  0  0  0  0  0  0  0
    0.2328   -2.2439    0.2131 C   0  0  0  0  0  0  0  0  0  0  0  0
    1.2097   -2.3192   -0.5294 O   0  0  0  0  0  0  0  0  0  0  0  0
    0.3557   -3.6024    2.3171 C   0  0  0  0  0  0  0  0  0  0  0  0
    0.6584   -4.6506   -0.4643 H   0  0  0  0  0  0  0  0  0  0  0  0
   -1.4091   -3.3101    1.1082 H   0  0  0  0  0  0  0  0  0  0  0  0
    1.4375   -3.7336    2.1985 H   0  0  0  0  0  0  0  0  0  0  0  0
    0.1969   -2.7243    2.9517 H   0  0  0  0  0  0  0  0  0  0  0  0
   -0.0294   -4.4803    2.8470 H   0  0  0  0  0  0  0  0  0  0  0  0
   -0.4616   -1.0893    0.5050 N   0  0  0  0  0  0  0  0  0  0  0  0
   -0.0884    0.2050   -0.0621 C   0  0  2  0  0  0  0  0  0  0  0  0
   -0.8025    1.2861    0.7442 C   0  0  0  0  0  0  0  0  0  0  0  0
   -1.1022    1.1505    1.9288 O   0  0  0  0  0  0  0  0  0  0  0  0
   -0.4823    0.3274   -1.5417 C   0  0  0  0  0  0  0  0  0  0  0  0
    0.3195   -0.5979   -2.4629 C   0  0  0  0  0  0  0  0  0  0  0  0
   -0.0952   -0.4181   -3.9258 C   0  0  0  0  0  0  0  0  0  0  0  0
    0.6871   -1.3585   -4.8411 C   0  0  0  0  0  0  0  0  0  0  0  0
    0.2610   -1.1884   -6.2251 N   0  0  0  0  0  0  0  0  0  0  0  0
   -1.2794   -1.1113    1.0935 H   0  0  0  0  0  0  0  0  0  0  0  0
    0.9952    0.3338    0.0469 H   0  0  0  0  0  0  0  0  0  0  0  0
   -0.3353    1.3654   -1.8679 H   0  0  0  0  0  0  0  0  0  0  0  0
   -1.5552    0.1244   -1.6609 H   0  0  0  0  0  0  0  0  0  0  0  0
    0.1666   -1.6438   -2.1740 H   0  0  0  0  0  0  0  0  0  0  0  0
    1.3896   -0.3831   -2.3567 H   0  0  0  0  0  0  0  0  0  0  0  0
   -1.1709   -0.6104   -4.0258 H   0  0  0  0  0  0  0  0  0  0  0  0
    0.0765    0.6223   -4.2295 H   0  0  0  0  0  0  0  0  0  0  0  0
    0.5301   -2.3996   -4.5385 H   0  0  0  0  0  0  0  0  0  0  0  0
    1.7595   -1.1482   -4.7695 H   0  0  0  0  0  0  0  0  0  0  0  0
   -0.4627   -0.5085   -6.2484 H   0  0  0  0  0  0  0  0  0  0  0  0
    1.0425   -0.8846   -6.7575 H   0  0  0  0  0  0  0  0  0  0  0  0
   -1.0840    2.4089   -0.0219 N   0  0  0  0  0  0  0  0  0  0  0  0
   -1.7746    3.5684    0.4954 C   0  0  2  0  0  0  0  0  0  0  0  0
   -2.5908    4.1744   -0.6387 C   0  0  0  0  0  0  0  0  0  0  0  0
   -2.2211    4.1643   -1.8110 O   0  0  0  0  0  0  0  0  0  0  0  0
   -0.7982    4.5851    1.0660 C   0  0  0  0  0  0  0  0  0  0  0  0
   -0.7888    2.4354   -0.9933 H   0  0  0  0  0  0  0  0  0  0  0  0
   -2.4491    3.2104    1.2808 H   0  0  0  0  0  0  0  0  0  0  0  0
   -0.1141    4.9552    0.2936 H   0  0  0  0  0  0  0  0  0  0  0  0
   -1.3245    5.4499    1.4831 H   0  0  0  0  0  0  0  0  0  0  0  0
   -0.1914    4.1390    1.8613 H   0  0  0  0  0  0  0  0  0  0  0  0
   -3.7602    4.7659   -0.1818 N   0  0  0  0  0  0  0  0  0  0  0  0
   -4.6840    5.4463   -1.0591 C   0  0  0  0  0  0  0  0  0  0  0  0
   -4.0069    4.6916    0.8007 H   0  0  0  0  0  0  0  0  0  0  0  0
   -4.4367    6.5176   -1.0931 H   0  0  0  0  0  0  0  0  0  0  0  0
   -4.6099    5.0207   -2.0707 H   0  0  0  0  0  0  0  0  0  0  0  0
   -5.7094    5.3187   -0.6818 H   0  0  0  0  0  0  0  0  0  0  0  0
  1  3  1  0  0  0  0
  1  7  1  0  0  0  0
  1  2  2  0  0  0  0
 39 40  1  0  0  0  0
 40 48  1  0  0  0  0
 40 41  2  0  0  0  0
  8  9  1  0  0  0  0
  9 17  1  0  0  0  0
  9 10  2  0  0  0  0
 18 19  1  0  0  0  0
 19 38  1  0  0  0  0
 19 20  2  0  0  0  0
 39 42  1  0  0  0  0
  8 11  1  0  0  0  0
 48 49  1  0  0  0  0
 22 23  1  0  0  0  0
 21 22  1  0  0  0  0
 23 24  1  0  0  0  0
 18 21  1  0  0  0  0
 24 25  1  0  0  0  0
 38 39  1  0  0  0  0
  7  8  1  0  0  0  0
 17 18  1  0  0  0  0
  3  4  1  0  0  0  0
  3  5  1  0  0  0  0
  3  6  1  0  0  0  0
 42 45  1  0  0  0  0
 42 46  1  0  0  0  0
 42 47  1  0  0  0  0
 11 14  1  0  0  0  0
 11 15  1  0  0  0  0
 11 16  1  0  0  0  0
 49 51  1  0  0  0  0
 49 52  1  0  0  0  0
 49 53  1  0  0  0  0
 22 30  1  0  0  0  0
 22 31  1  0  0  0  0
 23 32  1  0  0  0  0
 23 33  1  0  0  0  0
 21 28  1  0  0  0  0
 21 29  1  0  0  0  0
 24 34  1  0  0  0  0
 24 35  1  0  0  0  0
 39 44  1  0  0  0  0
  8 13  1  0  0  0  0
 18 27  1  0  0  0  0
 25 36  1  0  0  0  0
 25 37  1  0  0  0  0
 48 50  1  0  0  0  0
  7 12  1  0  0  0  0
 38 43  1  0  0  0  0
 17 26  1  0  0  0  0
M  END
$$$$

  -OEChem-05262214473D

 53 52  0     1  0  0  0  0  0999 V2000
   -1.0338   -5.6785    0.1476 C   0  0  0  0  0  0  0  0  0  0  0  0
   -2.0514   -5.7797    0.8227 O   0  0  0  0  0  0  0  0  0  0  0  0
   -0.6558   -6.7819   -0.7841 C   0  0  0  0  0  0  0  0  0  0  0  0
   -0.0111   -7.5354   -0.3038 H   0  0  0  0  0  0  0  0  0  0  0  0
   -1.5317   -7.3401   -1.1520 H   0  0  0  0  0  0  0  0  0  0  0  0
   -0.1109   -6.4687   -1.6890 H   0  0  0  0  0  0  0  0  0  0  0  0
   -0.1543   -4.6083    0.1480 N   0  0  0  0  0  0  0  0  0  0  0  0
   -0.3302   -3.4398    0.9696 C   0  0  2  0  0  0  0  0  0  0  0  0
    0.2328   -2.2439    0.2131 C   0  0  0  0  0  0  0  0  0  0  0  0
    1.2097   -2.3192   -0.5294 O   0  0  0  0  0  0  0  0  0  0  0  0
    0.3557   -3.6024    2.3171 C   0  0  0  0  0  0  0  0  0  0  0  0
    0.6584   -4.6506   -0.4643 H   0  0  0  0  0  0  0  0  0  0  0  0
   -1.4091   -3.3101    1.1082 H   0  0  0  0  0  0  0  0  0  0  0  0
    1.4375   -3.7336    2.1985 H   0  0  0  0  0  0  0  0  0  0  0  0
    0.1969   -2.7243    2.9517 H   0  0  0  0  0  0  0  0  0  0  0  0
   -0.0294   -4.4803    2.8470 H   0  0  0  0  0  0  0  0  0  0  0  0
   -0.4616   -1.0893    0.5050 N   0  0  0  0  0  0  0  0  0  0  0  0
   -0.0884    0.2050   -0.0621 C   0  0  2  0  0  0  0  0  0  0  0  0
   -0.8025    1.2861    0.7442 C   0  0  0  0  0  0  0  0  0  0  0  0
   -0.8669    1.2738    1.9719 O   0  0  0  0  0  0  0  0  0  0  0  0
   -0.4823    0.3274   -1.5417 C   0  0  0  0  0  0  0  0  0  0  0  0
    0.3195   -0.5979   -2.4629 C   0  0  0  0  0  0  0  0  0  0  0  0
   -0.0952   -0.4181   -3.9258 C   0  0  0  0  0  0  0  0  0  0  0  0
    0.6871   -1.3585   -4.8411 C   0  0  0  0  0  0  0  0  0  0  0  0
    0.2610   -1.1884   -6.2251 N   0  0  0  0  0  0  0  0  0  0  0  0
   -1.2794   -1.1113    1.0935 H   0  0  0  0  0  0  0  0  0  0  0  0
    0.9952    0.3338    0.0469 H   0  0  0  0  0  0  0  0  0  0  0  0
   -0.3353    1.3654   -1.8679 H   0  0  0  0  0  0  0  0  0  0  0  0
   -1.5552    0.1244   -1.6609 H   0  0  0  0  0  0  0  0  0  0  0  0
    0.1666   -1.6438   -2.1740 H   0  0  0  0  0  0  0  0  0  0  0  0
    1.3896   -0.3831   -2.3567 H   0  0  0  0  0  0  0  0  0  0  0  0
   -1.1709   -0.6104   -4.0258 H   0  0  0  0  0  0  0  0  0  0  0  0
    0.0765    0.6223   -4.2295 H   0  0  0  0  0  0  0  0  0  0  0  0
    0.5301   -2.3996   -4.5385 H   0  0  0  0  0  0  0  0  0  0  0  0
    1.7595   -1.1482   -4.7695 H   0  0  0  0  0  0  0  0  0  0  0  0
   -0.4627   -0.5085   -6.2484 H   0  0  0  0  0  0  0  0  0  0  0  0
    1.0425   -0.8846   -6.7575 H   0  0  0  0  0  0  0  0  0  0  0  0
   -1.3768    2.2520   -0.0707 N   0  0  0  0  0  0  0  0  0  0  0  0
   -2.1301    3.3743    0.4406 C   0  0  2  0  0  0  0  0  0  0  0  0
   -3.2127    3.7159   -0.5747 C   0  0  0  0  0  0  0  0  0  0  0  0
   -3.0564    3.5954   -1.7880 O   0  0  0  0  0  0  0  0  0  0  0  0
   -1.2304    4.5727    0.6998 C   0  0  0  0  0  0  0  0  0  0  0  0
   -1.2633    2.1850   -1.0778 H   0  0  0  0  0  0  0  0  0  0  0  0
   -2.5963    3.0430    1.3749 H   0  0  0  0  0  0  0  0  0  0  0  0
   -0.7544    4.9189   -0.2249 H   0  0  0  0  0  0  0  0  0  0  0  0
   -1.7978    5.4127    1.1139 H   0  0  0  0  0  0  0  0  0  0  0  0
   -0.4346    4.3167    1.4075 H   0  0  0  0  0  0  0  0  0  0  0  0
   -4.3586    4.2118    0.0311 N   0  0  0  0  0  0  0  0  0  0  0  0
   -5.5121    4.6473   -0.7212 C   0  0  0  0  0  0  0  0  0  0  0  0
   -4.4159    4.2394    1.0448 H   0  0  0  0  0  0  0  0  0  0  0  0
   -5.4359    5.7269   -0.9179 H   0  0  0  0  0  0  0  0  0  0  0  0
   -5.5539    4.1028   -1.6760 H   0  0  0  0  0  0  0  0  0  0  0  0
   -6.4252    4.4437   -0.1427 H   0  0  0  0  0  0  0  0  0  0  0  0
  1  3  1  0  0  0  0
  1  7  1  0  0  0  0
  1  2  2  0  0  0  0
 39 40  1  0  0  0  0
 40 48  1  0  0  0  0
 40 41  2  0  0  0  0
  8  9  1  0  0  0  0
  9 17  1  0  0  0  0
  9 10  2  0  0  0  0
 18 19  1  0  0  0  0
 19 38  1  0  0  0  0
 19 20  2  0  0  0  0
 39 42  1  0  0  0  0
  8 11  1  0  0  0  0
 48 49  1  0  0  0  0
 22 23  1  0  0  0  0
 21 22  1  0  0  0  0
 23 24  1  0  0  0  0
 18 21  1  0  0  0  0
 24 25  1  0  0  0  0
 38 39  1  0  0  0  0
  7  8  1  0  0  0  0
 17 18  1  0  0  0  0
  3  4  1  0  0  0  0
  3  5  1  0  0  0  0
  3  6  1  0  0  0  0
 42 45  1  0  0  0  0
 42 46  1  0  0  0  0
 42 47  1  0  0  0  0
 11 14  1  0  0  0  0
 11 15  1  0  0  0  0
 11 16  1  0  0  0  0
 49 51  1  0  0  0  0
 49 52  1  0  0  0  0
 49 53  1  0  0  0  0
 22 30  1  0  0  0  0
 22 31  1  0  0  0  0
 23 32  1  0  0  0  0
 23 33  1  0  0  0  0
 21 28  1  0  0  0  0
 21 29  1  0  0  0  0
 24 34  1  0  0  0  0
 24 35  1  0  0  0  0
 39 44  1  0  0  0  0
  8 13  1  0  0  0  0
 18 27  1  0  0  0  0
 25 36  1  0  0  0  0
 25 37  1  0  0  0  0
 48 50  1  0  0  0  0
  7 12  1  0  0  0  0
 38 43  1  0  0  0  0
 17 26  1  0  0  0  0
M  END
$$$$

  -OEChem-05262214473D

 53 52  0     1  0  0  0  0  0999 V2000
   -1.0338   -5.6785    0.1476 C   0  0  0  0  0  0  0  0  0  0  0  0
   -2.0514   -5.7797    0.8227 O   0  0  0  0  0  0  0  0  0  0  0  0
   -0.6558   -6.7819   -0.7841 C   0  0  0  0  0  0  0  0  0  0  0  0
   -0.0111   -7.5354   -0.3038 H   0  0  0  0  0  0  0  0  0  0  0  0
   -1.5317   -7.3401   -1.1520 H   0  0  0  0  0  0  0  0  0  0  0  0
   -0.1109   -6.4687   -1.6890 H   0  0  0  0  0  0  0  0  0  0  0  0
   -0.1543   -4.6083    0.1480 N   0  0  0  0  0  0  0  0  0  0  0  0
   -0.3302   -3.4398    0.9696 C   0  0  2  0  0  0  0  0  0  0  0  0
    0.2328   -2.2439    0.2131 C   0  0  0  0  0  0  0  0  0  0  0  0
    1.2097   -2.3192   -0.5294 O   0  0  0  0  0  0  0  0  0  0  0  0
    0.3557   -3.6024    2.3171 C   0  0  0  0  0  0  0  0  0  0  0  0
    0.6584   -4.6506   -0.4643 H   0  0  0  0  0  0  0  0  0  0  0  0
   -1.4091   -3.3101    1.1082 H   0  0  0  0  0  0  0  0  0  0  0  0
    1.4375   -3.7336    2.1985 H   0  0  0  0  0  0  0  0  0  0  0  0
    0.1969   -2.7243    2.9517 H   0  0  0  0  0  0  0  0  0  0  0  0
   -0.0294   -4.4803    2.8470 H   0  0  0  0  0  0  0  0  0  0  0  0
   -0.4616   -1.0893    0.5050 N   0  0  0  0  0  0  0  0  0  0  0  0
   -0.0884    0.2050   -0.0621 C   0  0  2  0  0  0  0  0  0  0  0  0
   -0.8025    1.2861    0.7442 C   0  0  0  0  0  0  0  0  0  0  0  0
   -0.6486    1.4302    1.9554 O   0  0  0  0  0  0  0  0  0  0  0  0
   -0.4823    0.3274   -1.5417 C   0  0  0  0  0  0  0  0  0  0  0  0
    0.3195   -0.5979   -2.4629 C   0  0  0  0  0  0  0  0  0  0  0  0
   -0.0952   -0.4181   -3.9258 C   0  0  0  0  0  0  0  0  0  0  0  0
    0.6871   -1.3585   -4.8411 C   0  0  0  0  0  0  0  0  0  0  0  0
    0.2610   -1.1884   -6.2251 N   0  0  0  0  0  0  0  0  0  0  0  0
   -1.2794   -1.1113    1.0935 H   0  0  0  0  0  0  0  0  0  0  0  0
    0.9952    0.3338    0.0469 H   0  0  0  0  0  0  0  0  0  0  0  0
   -0.3353    1.3654   -1.8679 H   0  0  0  0  0  0  0  0  0  0  0  0
   -1.5552    0.1244   -1.6609 H   0  0  0  0  0  0  0  0  0  0  0  0
    0.1666   -1.6438   -2.1740 H   0  0  0  0  0  0  0  0  0  0  0  0
    1.3896   -0.3831   -2.3567 H   0  0  0  0  0  0  0  0  0  0  0  0
   -1.1709   -0.6104   -4.0258 H   0  0  0  0  0  0  0  0  0  0  0  0
    0.0765    0.6223   -4.2295 H   0  0  0  0  0  0  0  0  0  0  0  0
    0.5301   -2.3996   -4.5385 H   0  0  0  0  0  0  0  0  0  0  0  0
    1.7595   -1.1482   -4.7695 H   0  0  0  0  0  0  0  0  0  0  0  0
   -0.4627   -0.5085   -6.2484 H   0  0  0  0  0  0  0  0  0  0  0  0
    1.0425   -0.8846   -6.7575 H   0  0  0  0  0  0  0  0  0  0  0  0
   -1.6470    2.0544   -0.0452 N   0  0  0  0  0  0  0  0  0  0  0  0
   -2.4570    3.1317    0.4764 C   0  0  2  0  0  0  0  0  0  0  0  0
   -3.7390    3.1957   -0.3434 C   0  0  0  0  0  0  0  0  0  0  0  0
   -3.7812    2.9345   -1.5438 O   0  0  0  0  0  0  0  0  0  0  0  0
   -1.7134    4.4573    0.4268 C   0  0  0  0  0  0  0  0  0  0  0  0
   -1.7028    1.8680   -1.0421 H   0  0  0  0  0  0  0  0  0  0  0  0
   -2.6984    2.8726    1.5131 H   0  0  0  0  0  0  0  0  0  0  0  0
   -1.4630    4.7336   -0.6040 H   0  0  0  0  0  0  0  0  0  0  0  0
   -2.3176    5.2672    0.8486 H   0  0  0  0  0  0  0  0  0  0  0  0
   -0.7770    4.4003    0.9923 H   0  0  0  0  0  0  0  0  0  0  0  0
   -4.8219    3.6206    0.4136 N   0  0  0  0  0  0  0  0  0  0  0  0
   -6.1407    3.8033   -0.1462 C   0  0  0  0  0  0  0  0  0  0  0  0
   -4.7044    3.7762    1.4104 H   0  0  0  0  0  0  0  0  0  0  0  0
   -6.2608    4.8478   -0.4697 H   0  0  0  0  0  0  0  0  0  0  0  0
   -6.2678    3.1349   -1.0106 H   0  0  0  0  0  0  0  0  0  0  0  0
   -6.8982    3.5660    0.6153 H   0  0  0  0  0  0  0  0  0  0  0  0
  1  3  1  0  0  0  0
  1  7  1  0  0  0  0
  1  2  2  0  0  0  0
 39 40  1  0  0  0  0
 40 48  1  0  0  0  0
 40 41  2  0  0  0  0
  8  9  1  0  0  0  0
  9 17  1  0  0  0  0
  9 10  2  0  0  0  0
 18 19  1  0  0  0  0
 19 38  1  0  0  0  0
 19 20  2  0  0  0  0
 39 42  1  0  0  0  0
  8 11  1  0  0  0  0
 48 49  1  0  0  0  0
 22 23  1  0  0  0  0
 21 22  1  0  0  0  0
 23 24  1  0  0  0  0
 18 21  1  0  0  0  0
 24 25  1  0  0  0  0
 38 39  1  0  0  0  0
  7  8  1  0  0  0  0
 17 18  1  0  0  0  0
  3  4  1  0  0  0  0
  3  5  1  0  0  0  0
  3  6  1  0  0  0  0
 42 45  1  0  0  0  0
 42 46  1  0  0  0  0
 42 47  1  0  0  0  0
 11 14  1  0  0  0  0
 11 15  1  0  0  0  0
 11 16  1  0  0  0  0
 49 51  1  0  0  0  0
 49 52  1  0  0  0  0
 49 53  1  0  0  0  0
 22 30  1  0  0  0  0
 22 31  1  0  0  0  0
 23 32  1  0  0  0  0
 23 33  1  0  0  0  0
 21 28  1  0  0  0  0
 21 29  1  0  0  0  0
 24 34  1  0  0  0  0
 24 35  1  0  0  0  0
 39 44  1  0  0  0  0
  8 13  1  0  0  0  0
 18 27  1  0  0  0  0
 25 36  1  0  0  0  0
 25 37  1  0  0  0  0
 48 50  1  0  0  0  0
  7 12  1  0  0  0  0
 38 43  1  0  0  0  0
 17 26  1  0  0  0  0
M  END
$$$$

  -OEChem-05262214473D

 53 52  0     1  0  0  0  0  0999 V2000
   -1.0338   -5.6785    0.1476 C   0  0  0  0  0  0  0  0  0  0  0  0
   -2.0514   -5.7797    0.8227 O   0  0  0  0  0  0  0  0  0  0  0  0
   -0.6558   -6.7819   -0.7841 C   0  0  0  0  0  0  0  0  0  0  0  0
   -0.0111   -7.5354   -0.3038 H   0  0  0  0  0  0  0  0  0  0  0  0
   -1.5317   -7.3401   -1.1520 H   0  0  0  0  0  0  0  0  0  0  0  0
   -0.1109   -6.4687   -1.6890 H   0  0  0  0  0  0  0  0  0  0  0  0
   -0.1543   -4.6083    0.1480 N   0  0  0  0  0  0  0  0  0  0  0  0
   -0.3302   -3.4398    0.9696 C   0  0  2  0  0  0  0  0  0  0  0  0
    0.2328   -2.2439    0.2131 C   0  0  0  0  0  0  0  0  0  0  0  0
    1.2097   -2.3192   -0.5294 O   0  0  0  0  0  0  0  0  0  0  0  0
    0.3557   -3.6024    2.3171 C   0  0  0  0  0  0  0  0  0  0  0  0
    0.6584   -4.6506   -0.4643 H   0  0  0  0  0  0  0  0  0  0  0  0
   -1.4091   -3.3101    1.1082 H   0  0  0  0  0  0  0  0  0  0  0  0
    1.4375   -3.7336    2.1985 H   0  0  0  0  0  0  0  0  0  0  0  0
    0.1969   -2.7243    2.9517 H   0  0  0  0  0  0  0  0  0  0  0  0
   -0.0294   -4.4803    2.8470 H   0  0  0  0  0  0  0  0  0  0  0  0
   -0.4616   -1.0893    0.5050 N   0  0  0  0  0  0  0  0  0  0  0  0
   -0.0884    0.2050   -0.0621 C   0  0  2  0  0  0  0  0  0  0  0  0
   -0.8025    1.2861    0.7442 C   0  0  0  0  0  0  0  0  0  0  0  0
   -0.4622    1.6092    1.8805 O   0  0  0  0  0  0  0  0  0  0  0  0
   -0.4823    0.3274   -1.5417 C   0  0  0  0  0  0  0  0  0  0  0  0
    0.3195   -0.5979   -2.4629 C   0  0  0  0  0  0  0  0  0  0  0  0
   -0.0952   -0.4181   -3.9258 C   0  0  0  0  0  0  0  0  0  0  0  0
    0.6871   -1.3585   -4.8411 C   0  0  0  0  0  0  0  0  0  0  0  0
    0.2610   -1.1884   -6.2251 N   0  0  0  0  0  0  0  0  0  0  0  0
   -1.2794   -1.1113    1.0935 H   0  0  0  0  0  0  0  0  0  0  0  0
    0.9952    0.3338    0.0469 H   0  0  0  0  0  0  0  0  0  0  0  0
   -0.3353    1.3654   -1.8679 H   0  0  0  0  0  0  0  0  0  0  0  0
   -1.5552    0.1244   -1.6609 H   0  0  0  0  0  0  0  0  0  0  0  0
    0.1666   -1.6438   -2.1740 H   0  0  0  0  0  0  0  0  0  0  0  0
    1.3896   -0.3831   -2.3567 H   0  0  0  0  0  0  0  0  0  0  0  0
   -1.1709   -0.6104   -4.0258 H   0  0  0  0  0  0  0  0  0  0  0  0
    0.0765    0.6223   -4.2295 H   0  0  0  0  0  0  0  0  0  0  0  0
    0.5301   -2.3996   -4.5385 H   0  0  0  0  0  0  0  0  0  0  0  0
    1.7595   -1.1482   -4.7695 H   0  0  0  0  0  0  0  0  0  0  0  0
   -0.4627   -0.5085   -6.2484 H   0  0  0  0  0  0  0  0  0  0  0  0
    1.0425   -0.8846   -6.7575 H   0  0  0  0  0  0  0  0  0  0  0  0
   -1.8764    1.8298    0.0529 N   0  0  0  0  0  0  0  0  0  0  0  0
   -2.7331    2.8570    0.6003 C   0  0  2  0  0  0  0  0  0  0  0  0
   -4.1338    2.6493    0.0396 C   0  0  0  0  0  0  0  0  0  0  0  0
   -4.3462    2.2265   -1.0950 O   0  0  0  0  0  0  0  0  0  0  0  0
   -2.2141    4.2467    0.2657 C   0  0  0  0  0  0  0  0  0  0  0  0
   -2.0775    1.5061   -0.8886 H   0  0  0  0  0  0  0  0  0  0  0  0
   -2.7483    2.7107    1.6859 H   0  0  0  0  0  0  0  0  0  0  0  0
   -2.1917    4.4117   -0.8177 H   0  0  0  0  0  0  0  0  0  0  0  0
   -2.8484    5.0236    0.7052 H   0  0  0  0  0  0  0  0  0  0  0  0
   -1.1953    4.3838    0.6439 H   0  0  0  0  0  0  0  0  0  0  0  0
   -5.1183    3.0324    0.9396 N   0  0  0  0  0  0  0  0  0  0  0  0
   -6.5270    2.9717    0.6266 C   0  0  0  0  0  0  0  0  0  0  0  0
   -4.8526    3.3336    1.8725 H   0  0  0  0  0  0  0  0  0  0  0  0
   -6.8551    3.9400    0.2210 H   0  0  0  0  0  0  0  0  0  0  0  0
   -6.7030    2.1830   -0.1197 H   0  0  0  0  0  0  0  0  0  0  0  0
   -7.0960    2.7453    1.5404 H   0  0  0  0  0  0  0  0  0  0  0  0
  1  3  1  0  0  0  0
  1  7  1  0  0  0  0
  1  2  2  0  0  0  0
 39 40  1  0  0  0  0
 40 48  1  0  0  0  0
 40 41  2  0  0  0  0
  8  9  1  0  0  0  0
  9 17  1  0  0  0  0
  9 10  2  0  0  0  0
 18 19  1  0  0  0  0
 19 38  1  0  0  0  0
 19 20  2  0  0  0  0
 39 42  1  0  0  0  0
  8 11  1  0  0  0  0
 48 49  1  0  0  0  0
 22 23  1  0  0  0  0
 21 22  1  0  0  0  0
 23 24  1  0  0  0  0
 18 21  1  0  0  0  0
 24 25  1  0  0  0  0
 38 39  1  0  0  0  0
  7  8  1  0  0  0  0
 17 18  1  0  0  0  0
  3  4  1  0  0  0  0
  3  5  1  0  0  0  0
  3  6  1  0  0  0  0
 42 45  1  0  0  0  0
 42 46  1  0  0  0  0
 42 47  1  0  0  0  0
 11 14  1  0  0  0  0
 11 15  1  0  0  0  0
 11 16  1  0  0  0  0
 49 51  1  0  0  0  0
 49 52  1  0  0  0  0
 49 53  1  0  0  0  0
 22 30  1  0  0  0  0
 22 31  1  0  0  0  0
 23 32  1  0  0  0  0
 23 33  1  0  0  0  0
 21 28  1  0  0  0  0
 21 29  1  0  0  0  0
 24 34  1  0  0  0  0
 24 35  1  0  0  0  0
 39 44  1  0  0  0  0
  8 13  1  0  0  0  0
 18 27  1  0  0  0  0
 25 36  1  0  0  0  0
 25 37  1  0  0  0  0
 48 50  1  0  0  0  0
  7 12  1  0  0  0  0
 38 43  1  0  0  0  0
 17 26  1  0  0  0  0
M  END
$$$$

  -OEChem-05262214473D

 53 52  0     1  0  0  0  0  0999 V2000
   -1.0338   -5.6785    0.1476 C   0  0  0  0  0  0  0  0  0  0  0  0
   -2.0514   -5.7797    0.8227 O   0  0  0  0  0  0  0  0  0  0  0  0
   -0.6558   -6.7819   -0.7841 C   0  0  0  0  0  0  0  0  0  0  0  0
   -0.0111   -7.5354   -0.3038 H   0  0  0  0  0  0  0  0  0  0  0  0
   -1.5317   -7.3401   -1.1520 H   0  0  0  0  0  0  0  0  0  0  0  0
   -0.1109   -6.4687   -1.6890 H   0  0  0  0  0  0  0  0  0  0  0  0
   -0.1543   -4.6083    0.1480 N   0  0  0  0  0  0  0  0  0  0  0  0
   -0.3302   -3.4398    0.9696 C   0  0  2  0  0  0  0  0  0  0  0  0
    0.2328   -2.2439    0.2131 C   0  0  0  0  0  0  0  0  0  0  0  0
    1.2097   -2.3192   -0.5294 O   0  0  0  0  0  0  0  0  0  0  0  0
    0.3557   -3.6024    2.3171 C   0  0  0  0  0  0  0  0  0  0  0  0
    0.6584   -4.6506   -0.4643 H   0  0  0  0  0  0  0  0  0  0  0  0
   -1.4091   -3.3101    1.1082 H   0  0  0  0  0  0  0  0  0  0  0  0
    1.4375   -3.7336    2.1985 H   0  0  0  0  0  0  0  0  0  0  0  0
    0.1969   -2.7243    2.9517 H   0  0  0  0  0  0  0  0  0  0  0  0
   -0.0294   -4.4803    2.8470 H   0  0  0  0  0  0  0  0  0  0  0  0
   -0.4616   -1.0893    0.5050 N   0  0  0  0  0  0  0  0  0  0  0  0
   -0.0884    0.2050   -0.0621 C   0  0  2  0  0  0  0  0  0  0  0  0
   -0.8025    1.2861    0.7442 C   0  0  0  0  0  0  0  0  0  0  0  0
   -0.3203    1.7986    1.7524 O   0  0  0  0  0  0  0  0  0  0  0  0
   -0.4823    0.3274   -1.5417 C   0  0  0  0  0  0  0  0  0  0  0  0
    0.3195   -0.5979   -2.4629 C   0  0  0  0  0  0  0  0  0  0  0  0
   -0.0952   -0.4181   -3.9258 C   0  0  0  0  0  0  0  0  0  0  0  0
    0.6871   -1.3585   -4.8411 C   0  0  0  0  0  0  0  0  0  0  0  0
    0.2610   -1.1884   -6.2251 N   0  0  0  0  0  0  0  0  0  0  0  0
   -1.2794   -1.1113    1.0935 H   0  0  0  0  0  0  0  0  0  0  0  0
    0.9952    0.3338    0.0469 H   0  0  0  0  0  0  0  0  0  0  0  0
   -0.3353    1.3654   -1.8679 H   0  0  0  0  0  0  0  0  0  0  0  0
   -1.5552    0.1244   -1.6609 H   0  0  0  0  0  0  0  0  0  0  0  0
    0.1666   -1.6438   -2.1740 H   0  0  0  0  0  0  0  0  0  0  0  0
    1.3896   -0.3831   -2.3567 H   0  0  0  0  0  0  0  0  0  0  0  0
   -1.1709   -0.6104   -4.0258 H   0  0  0  0  0  0  0  0  0  0  0  0
    0.0765    0.6223   -4.2295 H   0  0  0  0  0  0  0  0  0  0  0  0
    0.5301   -2.3996   -4.5385 H   0  0  0  0  0  0  0  0  0  0  0  0
    1.7595   -1.1482   -4.7695 H   0  0  0  0  0  0  0  0  0  0  0  0
   -0.4627   -0.5085   -6.2484 H   0  0  0  0  0  0  0  0  0  0  0  0
    1.0425   -0.8846   -6.7575 H   0  0  0  0  0  0  0  0  0  0  0  0
   -2.0492    1.5933    0.2169 N   0  0  0  0  0  0  0  0  0  0  0  0
   -2.9394    2.5688    0.8039 C   0  0  2  0  0  0  0  0  0  0  0  0
   -4.3702    2.1139    0.5480 C   0  0  0  0  0  0  0  0  0  0  0  0
   -4.7129    1.5198   -0.4721 O   0  0  0  0  0  0  0  0  0  0  0  0
   -2.6986    3.9553    0.2273 C   0  0  0  0  0  0  0  0  0  0  0  0
   -2.3617    1.1238   -0.6278 H   0  0  0  0  0  0  0  0  0  0  0  0
   -2.7427    2.5685    1.8815 H   0  0  0  0  0  0  0  0  0  0  0  0
   -2.8907    3.9753   -0.8516 H   0  0  0  0  0  0  0  0  0  0  0  0
   -3.3541    4.6982    0.6935 H   0  0  0  0  0  0  0  0  0  0  0  0
   -1.6610    4.2685    0.3860 H   0  0  0  0  0  0  0  0  0  0  0  0
   -5.2278    2.4875    1.5732 N   0  0  0  0  0  0  0  0  0  0  0  0
   -6.6448    2.2092    1.5447 C   0  0  0  0  0  0  0  0  0  0  0  0
   -4.8506    2.9418    2.3997 H   0  0  0  0  0  0  0  0  0  0  0  0
   -7.1785    3.0656    1.1070 H   0  0  0  0  0  0  0  0  0  0  0  0
   -6.8299    1.3119    0.9359 H   0  0  0  0  0  0  0  0  0  0  0  0
   -7.0053    2.0376    2.5697 H   0  0  0  0  0  0  0  0  0  0  0  0
  1  3  1  0  0  0  0
  1  7  1  0  0  0  0
  1  2  2  0  0  0  0
 39 40  1  0  0  0  0
 40 48  1  0  0  0  0
 40 41  2  0  0  0  0
  8  9  1  0  0  0  0
  9 17  1  0  0  0  0
  9 10  2  0  0  0  0
 18 19  1  0  0  0  0
 19 38  1  0  0  0  0
 19 20  2  0  0  0  0
 39 42  1  0  0  0  0
  8 11  1  0  0  0  0
 48 49  1  0  0  0  0
 22 23  1  0  0  0  0
 21 22  1  0  0  0  0
 23 24  1  0  0  0  0
 18 21  1  0  0  0  0
 24 25  1  0  0  0  0
 38 39  1  0  0  0  0
  7  8  1  0  0  0  0
 17 18  1  0  0  0  0
  3  4  1  0  0  0  0
  3  5  1  0  0  0  0
  3  6  1  0  0  0  0
 42 45  1  0  0  0  0
 42 46  1  0  0  0  0
 42 47  1  0  0  0  0
 11 14  1  0  0  0  0
 11 15  1  0  0  0  0
 11 16  1  0  0  0  0
 49 51  1  0  0  0  0
 49 52  1  0  0  0  0
 49 53  1  0  0  0  0
 22 30  1  0  0  0  0
 22 31  1  0  0  0  0
 23 32  1  0  0  0  0
 23 33  1  0  0  0  0
 21 28  1  0  0  0  0
 21 29  1  0  0  0  0
 24 34  1  0  0  0  0
 24 35  1  0  0  0  0
 39 44  1  0  0  0  0
  8 13  1  0  0  0  0
 18 27  1  0  0  0  0
 25 36  1  0  0  0  0
 25 37  1  0  0  0  0
 48 50  1  0  0  0  0
  7 12  1  0  0  0  0
 38 43  1  0  0  0  0
 17 26  1  0  0  0  0
M  END
$$$$

  -OEChem-05262214473D

 53 52  0     1  0  0  0  0  0999 V2000
   -1.0338   -5.6785    0.1476 C   0  0  0  0  0  0  0  0  0  0  0  0
   -2.0514   -5.7797    0.8227 O   0  0  0  0  0  0  0  0  0  0  0  0
   -0.6558   -6.7819   -0.7841 C   0  0  0  0  0  0  0  0  0  0  0  0
   -0.0111   -7.5354   -0.3038 H   0  0  0  0  0  0  0  0  0  0  0  0
   -1.5317   -7.3401   -1.1520 H   0  0  0  0  0  0  0  0  0  0  0  0
   -0.1109   -6.4687   -1.6890 H   0  0  0  0  0  0  0  0  0  0  0  0
   -0.1543   -4.6083    0.1480 N   0  0  0  0  0  0  0  0  0  0  0  0
   -0.3302   -3.4398    0.9696 C   0  0  2  0  0  0  0  0  0  0  0  0
    0.2328   -2.2439    0.2131 C   0  0  0  0  0  0  0  0  0  0  0  0
    1.2097   -2.3192   -0.5294 O   0  0  0  0  0  0  0  0  0  0  0  0
    0.3557   -3.6024    2.3171 C   0  0  0  0  0  0  0  0  0  0  0  0
    0.6584   -4.6506   -0.4643 H   0  0  0  0  0  0  0  0  0  0  0  0
   -1.4091   -3.3101    1.1082 H   0  0  0  0  0  0  0  0  0  0  0  0
    1.4375   -3.7336    2.1985 H   0  0  0  0  0  0  0  0  0  0  0  0
    0.1969   -2.7243    2.9517 H   0  0  0  0  0  0  0  0  0  0  0  0
   -0.0294   -4.4803    2.8470 H   0  0  0  0  0  0  0  0  0  0  0  0
   -0.4616   -1.0893    0.5050 N   0  0  0  0  0  0  0  0  0  0  0  0
   -0.0884    0.2050   -0.0621 C   0  0  2  0  0  0  0  0  0  0  0  0
   -0.8025    1.2861    0.7442 C   0  0  0  0  0  0  0  0  0  0  0  0
   -0.2326    1.9853    1.5796 O   0  0  0  0  0  0  0  0  0  0  0  0
   -0.4823    0.3274   -1.5417 C   0  0  0  0  0  0  0  0  0  0  0  0
    0.3195   -0.5979   -2.4629 C   0  0  0  0  0  0  0  0  0  0  0  0
   -0.0952   -0.4181   -3.9258 C   0  0  0  0  0  0  0  0  0  0  0  0
    0.6871   -1.3585   -4.8411 C   0  0  0  0  0  0  0  0  0  0  0  0
    0.2610   -1.1884   -6.2251 N   0  0  0  0  0  0  0  0  0  0  0  0
   -1.2794   -1.1113    1.0935 H   0  0  0  0  0  0  0  0  0  0  0  0
    0.9952    0.3338    0.0469 H   0  0  0  0  0  0  0  0  0  0  0  0
   -0.3353    1.3654   -1.8679 H   0  0  0  0  0  0  0  0  0  0  0  0
   -1.5552    0.1244   -1.6609 H   0  0  0  0  0  0  0  0  0  0  0  0
    0.1666   -1.6438   -2.1740 H   0  0  0  0  0  0  0  0  0  0  0  0
    1.3896   -0.3831   -2.3567 H   0  0  0  0  0  0  0  0  0  0  0  0
   -1.1709   -0.6104   -4.0258 H   0  0  0  0  0  0  0  0  0  0  0  0
    0.0765    0.6223   -4.2295 H   0  0  0  0  0  0  0  0  0  0  0  0
    0.5301   -2.3996   -4.5385 H   0  0  0  0  0  0  0  0  0  0  0  0
    1.7595   -1.1482   -4.7695 H   0  0  0  0  0  0  0  0  0  0  0  0
   -0.4627   -0.5085   -6.2484 H   0  0  0  0  0  0  0  0  0  0  0  0
    1.0425   -0.8846   -6.7575 H   0  0  0  0  0  0  0  0  0  0  0  0
   -2.1538    1.3611    0.4357 N   0  0  0  0  0  0  0  0  0  0  0  0
   -3.0620    2.2870    1.0733 C   0  0  2  0  0  0  0  0  0  0  0  0
   -4.4321    1.6260    1.1474 C   0  0  0  0  0  0  0  0  0  0  0  0
   -4.8562    0.8624    0.2824 O   0  0  0  0  0  0  0  0  0  0  0  0
   -3.1337    3.6029    0.3144 C   0  0  0  0  0  0  0  0  0  0  0  0
   -2.5362    0.7473   -0.2775 H   0  0  0  0  0  0  0  0  0  0  0  0
   -2.6819    2.4556    2.0867 H   0  0  0  0  0  0  0  0  0  0  0  0
   -3.5124    3.4540   -0.7034 H   0  0  0  0  0  0  0  0  0  0  0  0
   -3.8002    4.3134    0.8144 H   0  0  0  0  0  0  0  0  0  0  0  0
   -2.1423    4.0622    0.2363 H   0  0  0  0  0  0  0  0  0  0  0  0
   -5.1429    2.0229    2.2714 N   0  0  0  0  0  0  0  0  0  0  0  0
   -6.4859    1.5677    2.5455 C   0  0  0  0  0  0  0  0  0  0  0  0
   -4.6984    2.6274    2.9560 H   0  0  0  0  0  0  0  0  0  0  0  0
   -7.2088    2.2841    2.1280 H   0  0  0  0  0  0  0  0  0  0  0  0
   -6.6397    0.5810    2.0844 H   0  0  0  0  0  0  0  0  0  0  0  0
   -6.6321    1.4910    3.6330 H   0  0  0  0  0  0  0  0  0  0  0  0
  1  3  1  0  0  0  0
  1  7  1  0  0  0  0
  1  2  2  0  0  0  0
 39 40  1  0  0  0  0
 40 48  1  0  0  0  0
 40 41  2  0  0  0  0
  8  9  1  0  0  0  0
  9 17  1  0  0  0  0
  9 10  2  0  0  0  0
 18 19  1  0  0  0  0
 19 38  1  0  0  0  0
 19 20  2  0  0  0  0
 39 42  1  0  0  0  0
  8 11  1  0  0  0  0
 48 49  1  0  0  0  0
 22 23  1  0  0  0  0
 21 22  1  0  0  0  0
 23 24  1  0  0  0  0
 18 21  1  0  0  0  0
 24 25  1  0  0  0  0
 38 39  1  0  0  0  0
  7  8  1  0  0  0  0
 17 18  1  0  0  0  0
  3  4  1  0  0  0  0
  3  5  1  0  0  0  0
  3  6  1  0  0  0  0
 42 45  1  0  0  0  0
 42 46  1  0  0  0  0
 42 47  1  0  0  0  0
 11 14  1  0  0  0  0
 11 15  1  0  0  0  0
 11 16  1  0  0  0  0
 49 51  1  0  0  0  0
 49 52  1  0  0  0  0
 49 53  1  0  0  0  0
 22 30  1  0  0  0  0
 22 31  1  0  0  0  0
 23 32  1  0  0  0  0
 23 33  1  0  0  0  0
 21 28  1  0  0  0  0
 21 29  1  0  0  0  0
 24 34  1  0  0  0  0
 24 35  1  0  0  0  0
 39 44  1  0  0  0  0
  8 13  1  0  0  0  0
 18 27  1  0  0  0  0
 25 36  1  0  0  0  0
 25 37  1  0  0  0  0
 48 50  1  0  0  0  0
  7 12  1  0  0  0  0
 38 43  1  0  0  0  0
 17 26  1  0  0  0  0
M  END
$$$$

  -OEChem-05262214473D

 53 52  0     1  0  0  0  0  0999 V2000
   -1.0338   -5.6785    0.1476 C   0  0  0  0  0  0  0  0  0  0  0  0
   -2.0514   -5.7797    0.8227 O   0  0  0  0  0  0  0  0  0  0  0  0
   -0.6558   -6.7819   -0.7841 C   0  0  0  0  0  0  0  0  0  0  0  0
   -0.0111   -7.5354   -0.3038 H   0  0  0  0  0  0  0  0  0  0  0  0
   -1.5317   -7.3401   -1.1520 H   0  0  0  0  0  0  0  0  0  0  0  0
   -0.1109   -6.4687   -1.6890 H   0  0  0  0  0  0  0  0  0  0  0  0
   -0.1543   -4.6083    0.1480 N   0  0  0  0  0  0  0  0  0  0  0  0
   -0.3302   -3.4398    0.9696 C   0  0  2  0  0  0  0  0  0  0  0  0
    0.2328   -2.2439    0.2131 C   0  0  0  0  0  0  0  0  0  0  0  0
    1.2097   -2.3192   -0.5294 O   0  0  0  0  0  0  0  0  0  0  0  0
    0.3557   -3.6024    2.3171 C   0  0  0  0  0  0  0  0  0  0  0  0
    0.6584   -4.6506   -0.4643 H   0  0  0  0  0  0  0  0  0  0  0  0
   -1.4091   -3.3101    1.1082 H   0  0  0  0  0  0  0  0  0  0  0  0
    1.4375   -3.7336    2.1985 H   0  0  0  0  0  0  0  0  0  0  0  0
    0.1969   -2.7243    2.9517 H   0  0  0  0  0  0  0  0  0  0  0  0
   -0.0294   -4.4803    2.8470 H   0  0  0  0  0  0  0  0  0  0  0  0
   -0.4616   -1.0893    0.5050 N   0  0  0  0  0  0  0  0  0  0  0  0
   -0.0884    0.2050   -0.0621 C   0  0  2  0  0  0  0  0  0  0  0  0
   -0.8025    1.2861    0.7442 C   0  0  0  0  0  0  0  0  0  0  0  0
   -0.2052    2.1568    1.3740 O   0  0  0  0  0  0  0  0  0  0  0  0
   -0.4823    0.3274   -1.5417 C   0  0  0  0  0  0  0  0  0  0  0  0
    0.3195   -0.5979   -2.4629 C   0  0  0  0  0  0  0  0  0  0  0  0
   -0.0952   -0.4181   -3.9258 C   0  0  0  0  0  0  0  0  0  0  0  0
    0.6871   -1.3585   -4.8411 C   0  0  0  0  0  0  0  0  0  0  0  0
    0.2610   -1.1884   -6.2251 N   0  0  0  0  0  0  0  0  0  0  0  0
   -1.2794   -1.1113    1.0935 H   0  0  0  0  0  0  0  0  0  0  0  0
    0.9952    0.3338    0.0469 H   0  0  0  0  0  0  0  0  0  0  0  0
   -0.3353    1.3654   -1.8679 H   0  0  0  0  0  0  0  0  0  0  0  0
   -1.5552    0.1244   -1.6609 H   0  0  0  0  0  0  0  0  0  0  0  0
    0.1666   -1.6438   -2.1740 H   0  0  0  0  0  0  0  0  0  0  0  0
    1.3896   -0.3831   -2.3567 H   0  0  0  0  0  0  0  0  0  0  0  0
   -1.1709   -0.6104   -4.0258 H   0  0  0  0  0  0  0  0  0  0  0  0
    0.0765    0.6223   -4.2295 H   0  0  0  0  0  0  0  0  0  0  0  0
    0.5301   -2.3996   -4.5385 H   0  0  0  0  0  0  0  0  0  0  0  0
    1.7595   -1.1482   -4.7695 H   0  0  0  0  0  0  0  0  0  0  0  0
   -0.4627   -0.5085   -6.2484 H   0  0  0  0  0  0  0  0  0  0  0  0
    1.0425   -0.8846   -6.7575 H   0  0  0  0  0  0  0  0  0  0  0  0
   -2.1829    1.1490    0.6943 N   0  0  0  0  0  0  0  0  0  0  0  0
   -3.0925    2.0306    1.3901 C   0  0  2  0  0  0  0  0  0  0  0  0
   -4.3153    1.2189    1.7967 C   0  0  0  0  0  0  0  0  0  0  0  0
   -4.7663    0.2992    1.1171 O   0  0  0  0  0  0  0  0  0  0  0  0
   -3.4898    3.2136    0.5210 C   0  0  0  0  0  0  0  0  0  0  0  0
   -2.5890    0.4022    0.1385 H   0  0  0  0  0  0  0  0  0  0  0  0
   -2.5702    2.3796    2.2875 H   0  0  0  0  0  0  0  0  0  0  0  0
   -4.0144    2.8835   -0.3830 H   0  0  0  0  0  0  0  0  0  0  0  0
   -4.1563    3.8954    1.0595 H   0  0  0  0  0  0  0  0  0  0  0  0
   -2.6065    3.7790    0.2049 H   0  0  0  0  0  0  0  0  0  0  0  0
   -4.8693    1.6703    2.9864 N   0  0  0  0  0  0  0  0  0  0  0  0
   -6.0612    1.0911    3.5607 C   0  0  0  0  0  0  0  0  0  0  0  0
   -4.4064    2.4120    3.5035 H   0  0  0  0  0  0  0  0  0  0  0  0
   -6.9440    1.6487    3.2145 H   0  0  0  0  0  0  0  0  0  0  0  0
   -6.1456    0.0400    3.2473 H   0  0  0  0  0  0  0  0  0  0  0  0
   -6.0020    1.1429    4.6579 H   0  0  0  0  0  0  0  0  0  0  0  0
  1  3  1  0  0  0  0
  1  7  1  0  0  0  0
  1  2  2  0  0  0  0
 39 40  1  0  0  0  0
 40 48  1  0  0  0  0
 40 41  2  0  0  0  0
  8  9  1  0  0  0  0
  9 17  1  0  0  0  0
  9 10  2  0  0  0  0
 18 19  1  0  0  0  0
 19 38  1  0  0  0  0
 19 20  2  0  0  0  0
 39 42  1  0  0  0  0
  8 11  1  0  0  0  0
 48 49  1  0  0  0  0
 22 23  1  0  0  0  0
 21 22  1  0  0  0  0
 23 24  1  0  0  0  0
 18 21  1  0  0  0  0
 24 25  1  0  0  0  0
 38 39  1  0  0  0  0
  7  8  1  0  0  0  0
 17 18  1  0  0  0  0
  3  4  1  0  0  0  0
  3  5  1  0  0  0  0
  3  6  1  0  0  0  0
 42 45  1  0  0  0  0
 42 46  1  0  0  0  0
 42 47  1  0  0  0  0
 11 14  1  0  0  0  0
 11 15  1  0  0  0  0
 11 16  1  0  0  0  0
 49 51  1  0  0  0  0
 49 52  1  0  0  0  0
 49 53  1  0  0  0  0
 22 30  1  0  0  0  0
 22 31  1  0  0  0  0
 23 32  1  0  0  0  0
 23 33  1  0  0  0  0
 21 28  1  0  0  0  0
 21 29  1  0  0  0  0
 24 34  1  0  0  0  0
 24 35  1  0  0  0  0
 39 44  1  0  0  0  0
  8 13  1  0  0  0  0
 18 27  1  0  0  0  0
 25 36  1  0  0  0  0
 25 37  1  0  0  0  0
 48 50  1  0  0  0  0
  7 12  1  0  0  0  0
 38 43  1  0  0  0  0
 17 26  1  0  0  0  0
M  END
$$$$

  -OEChem-05262214473D

 53 52  0     1  0  0  0  0  0999 V2000
   -1.0338   -5.6785    0.1476 C   0  0  0  0  0  0  0  0  0  0  0  0
   -2.0514   -5.7797    0.8227 O   0  0  0  0  0  0  0  0  0  0  0  0
   -0.6558   -6.7819   -0.7841 C   0  0  0  0  0  0  0  0  0  0  0  0
   -0.0111   -7.5354   -0.3038 H   0  0  0  0  0  0  0  0  0  0  0  0
   -1.5317   -7.3401   -1.1520 H   0  0  0  0  0  0  0  0  0  0  0  0
   -0.1109   -6.4687   -1.6890 H   0  0  0  0  0  0  0  0  0  0  0  0
   -0.1543   -4.6083    0.1480 N   0  0  0  0  0  0  0  0  0  0  0  0
   -0.3302   -3.4398    0.9696 C   0  0  2  0  0  0  0  0  0  0  0  0
    0.2328   -2.2439    0.2131 C   0  0  0  0  0  0  0  0  0  0  0  0
    1.2097   -2.3192   -0.5294 O   0  0  0  0  0  0  0  0  0  0  0  0
    0.3557   -3.6024    2.3171 C   0  0  0  0  0  0  0  0  0  0  0  0
    0.6584   -4.6506   -0.4643 H   0  0  0  0  0  0  0  0  0  0  0  0
   -1.4091   -3.3101    1.1082 H   0  0  0  0  0  0  0  0  0  0  0  0
    1.4375   -3.7336    2.1985 H   0  0  0  0  0  0  0  0  0  0  0  0
    0.1969   -2.7243    2.9517 H   0  0  0  0  0  0  0  0  0  0  0  0
   -0.0294   -4.4803    2.8470 H   0  0  0  0  0  0  0  0  0  0  0  0
   -0.4616   -1.0893    0.5050 N   0  0  0  0  0  0  0  0  0  0  0  0
   -0.0884    0.2050   -0.0621 C   0  0  2  0  0  0  0  0  0  0  0  0
   -0.8025    1.2861    0.7442 C   0  0  0  0  0  0  0  0  0  0  0  0
   -0.2398    2.3012    1.1497 O   0  0  0  0  0  0  0  0  0  0  0  0
   -0.4823    0.3274   -1.5417 C   0  0  0  0  0  0  0  0  0  0  0  0
    0.3195   -0.5979   -2.4629 C   0  0  0  0  0  0  0  0  0  0  0  0
   -0.0952   -0.4181   -3.9258 C   0  0  0  0  0  0  0  0  0  0  0  0
    0.6871   -1.3585   -4.8411 C   0  0  0  0  0  0  0  0  0  0  0  0
    0.2610   -1.1884   -6.2251 N   0  0  0  0  0  0  0  0  0  0  0  0
   -1.2794   -1.1113    1.0935 H   0  0  0  0  0  0  0  0  0  0  0  0
    0.9952    0.3338    0.0469 H   0  0  0  0  0  0  0  0  0  0  0  0
   -0.3353    1.3654   -1.8679 H   0  0  0  0  0  0  0  0  0  0  0  0
   -1.5552    0.1244   -1.6609 H   0  0  0  0  0  0  0  0  0  0  0  0
    0.1666   -1.6438   -2.1740 H   0  0  0  0  0  0  0  0  0  0  0  0
    1.3896   -0.3831   -2.3567 H   0  0  0  0  0  0  0  0  0  0  0  0
   -1.1709   -0.6104   -4.0258 H   0  0  0  0  0  0  0  0  0  0  0  0
    0.0765    0.6223   -4.2295 H   0  0  0  0  0  0  0  0  0  0  0  0
    0.5301   -2.3996   -4.5385 H   0  0  0  0  0  0  0  0  0  0  0  0
    1.7595   -1.1482   -4.7695 H   0  0  0  0  0  0  0  0  0  0  0  0
   -0.4627   -0.5085   -6.2484 H   0  0  0  0  0  0  0  0  0  0  0  0
    1.0425   -0.8846   -6.7575 H   0  0  0  0  0  0  0  0  0  0  0  0
   -2.1345    0.9714    0.9751 N   0  0  0  0  0  0  0  0  0  0  0  0
   -3.0288    1.8171    1.7327 C   0  0  2  0  0  0  0  0  0  0  0  0
   -4.0278    0.9202    2.4518 C   0  0  0  0  0  0  0  0  0  0  0  0
   -4.4495   -0.1314    1.9750 O   0  0  0  0  0  0  0  0  0  0  0  0
   -3.7427    2.8139    0.8330 C   0  0  0  0  0  0  0  0  0  0  0  0
   -2.5165    0.1119    0.5918 H   0  0  0  0  0  0  0  0  0  0  0  0
   -2.4151    2.3459    2.4701 H   0  0  0  0  0  0  0  0  0  0  0  0
   -4.3626    2.3025    0.0876 H   0  0  0  0  0  0  0  0  0  0  0  0
   -4.3982    3.4726    1.4122 H   0  0  0  0  0  0  0  0  0  0  0  0
   -3.0219    3.4382    0.2940 H   0  0  0  0  0  0  0  0  0  0  0  0
   -4.4257    1.4538    3.6697 N   0  0  0  0  0  0  0  0  0  0  0  0
   -5.3997    0.8117    4.5212 C   0  0  0  0  0  0  0  0  0  0  0  0
   -3.9945    2.3101    4.0048 H   0  0  0  0  0  0  0  0  0  0  0  0
   -6.4021    1.2028    4.2923 H   0  0  0  0  0  0  0  0  0  0  0  0
   -5.3810   -0.2741    4.3456 H   0  0  0  0  0  0  0  0  0  0  0  0
   -5.1578    1.0170    5.5744 H   0  0  0  0  0  0  0  0  0  0  0  0
  1  3  1  0  0  0  0
  1  7  1  0  0  0  0
  1  2  2  0  0  0  0
 39 40  1  0  0  0  0
 40 48  1  0  0  0  0
 40 41  2  0  0  0  0
  8  9  1  0  0  0  0
  9 17  1  0  0  0  0
  9 10  2  0  0  0  0
 18 19  1  0  0  0  0
 19 38  1  0  0  0  0
 19 20  2  0  0  0  0
 39 42  1  0  0  0  0
  8 11  1  0  0  0  0
 48 49  1  0  0  0  0
 22 23  1  0  0  0  0
 21 22  1  0  0  0  0
 23 24  1  0  0  0  0
 18 21  1  0  0  0  0
 24 25  1  0  0  0  0
 38 39  1  0  0  0  0
  7  8  1  0  0  0  0
 17 18  1  0  0  0  0
  3  4  1  0  0  0  0
  3  5  1  0  0  0  0
  3  6  1  0  0  0  0
 42 45  1  0  0  0  0
 42 46  1  0  0  0  0
 42 47  1  0  0  0  0
 11 14  1  0  0  0  0
 11 15  1  0  0  0  0
 11 16  1  0  0  0  0
 49 51  1  0  0  0  0
 49 52  1  0  0  0  0
 49 53  1  0  0  0  0
 22 30  1  0  0  0  0
 22 31  1  0  0  0  0
 23 32  1  0  0  0  0
 23 33  1  0  0  0  0
 21 28  1  0  0  0  0
 21 29  1  0  0  0  0
 24 34  1  0  0  0  0
 24 35  1  0  0  0  0
 39 44  1  0  0  0  0
  8 13  1  0  0  0  0
 18 27  1  0  0  0  0
 25 36  1  0  0  0  0
 25 37  1  0  0  0  0
 48 50  1  0  0  0  0
  7 12  1  0  0  0  0
 38 43  1  0  0  0  0
 17 26  1  0  0  0  0
M  END
$$$$

  -OEChem-05262214473D

 53 52  0     1  0  0  0  0  0999 V2000
   -1.0338   -5.6785    0.1476 C   0  0  0  0  0  0  0  0  0  0  0  0
   -2.0514   -5.7797    0.8227 O   0  0  0  0  0  0  0  0  0  0  0  0
   -0.6558   -6.7819   -0.7841 C   0  0  0  0  0  0  0  0  0  0  0  0
   -0.0111   -7.5354   -0.3038 H   0  0  0  0  0  0  0  0  0  0  0  0
   -1.5317   -7.3401   -1.1520 H   0  0  0  0  0  0  0  0  0  0  0  0
   -0.1109   -6.4687   -1.6890 H   0  0  0  0  0  0  0  0  0  0  0  0
   -0.1543   -4.6083    0.1480 N   0  0  0  0  0  0  0  0  0  0  0  0
   -0.3302   -3.4398    0.9696 C   0  0  2  0  0  0  0  0  0  0  0  0
    0.2328   -2.2439    0.2131 C   0  0  0  0  0  0  0  0  0  0  0  0
    1.2097   -2.3192   -0.5294 O   0  0  0  0  0  0  0  0  0  0  0  0
    0.3557   -3.6024    2.3171 C   0  0  0  0  0  0  0  0  0  0  0  0
    0.6584   -4.6506   -0.4643 H   0  0  0  0  0  0  0  0  0  0  0  0
   -1.4091   -3.3101    1.1082 H   0  0  0  0  0  0  0  0  0  0  0  0
    1.4375   -3.7336    2.1985 H   0  0  0  0  0  0  0  0  0  0  0  0
    0.1969   -2.7243    2.9517 H   0  0  0  0  0  0  0  0  0  0  0  0
   -0.0294   -4.4803    2.8470 H   0  0  0  0  0  0  0  0  0  0  0  0
   -0.4616   -1.0893    0.5050 N   0  0  0  0  0  0  0  0  0  0  0  0
   -0.0884    0.2050   -0.0621 C   0  0  2  0  0  0  0  0  0  0  0  0
   -0.8025    1.2861    0.7442 C   0  0  0  0  0  0  0  0  0  0  0  0
   -0.3341    2.4089    0.9218 O   0  0  0  0  0  0  0  0  0  0  0  0
   -0.4823    0.3274   -1.5417 C   0  0  0  0  0  0  0  0  0  0  0  0
    0.3195   -0.5979   -2.4629 C   0  0  0  0  0  0  0  0  0  0  0  0
   -0.0952   -0.4181   -3.9258 C   0  0  0  0  0  0  0  0  0  0  0  0
    0.6871   -1.3585   -4.8411 C   0  0  0  0  0  0  0  0  0  0  0  0
    0.2610   -1.1884   -6.2251 N   0  0  0  0  0  0  0  0  0  0  0  0
   -1.2794   -1.1113    1.0935 H   0  0  0  0  0  0  0  0  0  0  0  0
    0.9952    0.3338    0.0469 H   0  0  0  0  0  0  0  0  0  0  0  0
   -0.3353    1.3654   -1.8679 H   0  0  0  0  0  0  0  0  0  0  0  0
   -1.5552    0.1244   -1.6609 H   0  0  0  0  0  0  0  0  0  0  0  0
    0.1666   -1.6438   -2.1740 H   0  0  0  0  0  0  0  0  0  0  0  0
    1.3896   -0.3831   -2.3567 H   0  0  0  0  0  0  0  0  0  0  0  0
   -1.1709   -0.6104   -4.0258 H   0  0  0  0  0  0  0  0  0  0  0  0
    0.0765    0.6223   -4.2295 H   0  0  0  0  0  0  0  0  0  0  0  0
    0.5301   -2.3996   -4.5385 H   0  0  0  0  0  0  0  0  0  0  0  0
    1.7595   -1.1482   -4.7695 H   0  0  0  0  0  0  0  0  0  0  0  0
   -0.4627   -0.5085   -6.2484 H   0  0  0  0  0  0  0  0  0  0  0  0
    1.0425   -0.8846   -6.7575 H   0  0  0  0  0  0  0  0  0  0  0  0
   -2.0121    0.8406    1.2590 N   0  0  0  0  0  0  0  0  0  0  0  0
   -2.8752    1.6611    2.0778 C   0  0  2  0  0  0  0  0  0  0  0  0
   -3.5890    0.7504    3.0681 C   0  0  0  0  0  0  0  0  0  0  0  0
   -3.9273   -0.4001    2.7978 O   0  0  0  0  0  0  0  0  0  0  0  0
   -3.8751    2.4310    1.2291 C   0  0  0  0  0  0  0  0  0  0  0  0
   -2.3238   -0.1036    1.0515 H   0  0  0  0  0  0  0  0  0  0  0  0
   -2.2271    2.3567    2.6221 H   0  0  0  0  0  0  0  0  0  0  0  0
   -4.5332    1.7507    0.6763 H   0  0  0  0  0  0  0  0  0  0  0  0
   -4.5093    3.0738    1.8485 H   0  0  0  0  0  0  0  0  0  0  0  0
   -3.3602    3.0630    0.4975 H   0  0  0  0  0  0  0  0  0  0  0  0
   -3.8424    1.3880    4.2745 N   0  0  0  0  0  0  0  0  0  0  0  0
   -4.5464    0.7486    5.3615 C   0  0  0  0  0  0  0  0  0  0  0  0
   -3.4907    2.3288    4.4259 H   0  0  0  0  0  0  0  0  0  0  0  0
   -5.6200    0.9767    5.2881 H   0  0  0  0  0  0  0  0  0  0  0  0
   -4.3982   -0.3399    5.3042 H   0  0  0  0  0  0  0  0  0  0  0  0
   -4.1571    1.1217    6.3202 H   0  0  0  0  0  0  0  0  0  0  0  0
  1  3  1  0  0  0  0
  1  7  1  0  0  0  0
  1  2  2  0  0  0  0
 39 40  1  0  0  0  0
 40 48  1  0  0  0  0
 40 41  2  0  0  0  0
  8  9  1  0  0  0  0
  9 17  1  0  0  0  0
  9 10  2  0  0  0  0
 18 19  1  0  0  0  0
 19 38  1  0  0  0  0
 19 20  2  0  0  0  0
 39 42  1  0  0  0  0
  8 11  1  0  0  0  0
 48 49  1  0  0  0  0
 22 23  1  0  0  0  0
 21 22  1  0  0  0  0
 23 24  1  0  0  0  0
 18 21  1  0  0  0  0
 24 25  1  0  0  0  0
 38 39  1  0  0  0  0
  7  8  1  0  0  0  0
 17 18  1  0  0  0  0
  3  4  1  0  0  0  0
  3  5  1  0  0  0  0
  3  6  1  0  0  0  0
 42 45  1  0  0  0  0
 42 46  1  0  0  0  0
 42 47  1  0  0  0  0
 11 14  1  0  0  0  0
 11 15  1  0  0  0  0
 11 16  1  0  0  0  0
 49 51  1  0  0  0  0
 49 52  1  0  0  0  0
 49 53  1  0  0  0  0
 22 30  1  0  0  0  0
 22 31  1  0  0  0  0
 23 32  1  0  0  0  0
 23 33  1  0  0  0  0
 21 28  1  0  0  0  0
 21 29  1  0  0  0  0
 24 34  1  0  0  0  0
 24 35  1  0  0  0  0
 39 44  1  0  0  0  0
  8 13  1  0  0  0  0
 18 27  1  0  0  0  0
 25 36  1  0  0  0  0
 25 37  1  0  0  0  0
 48 50  1  0  0  0  0
  7 12  1  0  0  0  0
 38 43  1  0  0  0  0
 17 26  1  0  0  0  0
M  END
$$$$

  -OEChem-05262214473D

 53 52  0     1  0  0  0  0  0999 V2000
   -1.0338   -5.6785    0.1476 C   0  0  0  0  0  0  0  0  0  0  0  0
   -2.0514   -5.7797    0.8227 O   0  0  0  0  0  0  0  0  0  0  0  0
   -0.6558   -6.7819   -0.7841 C   0  0  0  0  0  0  0  0  0  0  0  0
   -0.0111   -7.5354   -0.3038 H   0  0  0  0  0  0  0  0  0  0  0  0
   -1.5317   -7.3401   -1.1520 H   0  0  0  0  0  0  0  0  0  0  0  0
   -0.1109   -6.4687   -1.6890 H   0  0  0  0  0  0  0  0  0  0  0  0
   -0.1543   -4.6083    0.1480 N   0  0  0  0  0  0  0  0  0  0  0  0
   -0.3302   -3.4398    0.9696 C   0  0  2  0  0  0  0  0  0  0  0  0
    0.2328   -2.2439    0.2131 C   0  0  0  0  0  0  0  0  0  0  0  0
    1.2097   -2.3192   -0.5294 O   0  0  0  0  0  0  0  0  0  0  0  0
    0.3557   -3.6024    2.3171 C   0  0  0  0  0  0  0  0  0  0  0  0
    0.6584   -4.6506   -0.4643 H   0  0  0  0  0  0  0  0  0  0  0  0
   -1.4091   -3.3101    1.1082 H   0  0  0  0  0  0  0  0  0  0  0  0
    1.4375   -3.7336    2.1985 H   0  0  0  0  0  0  0  0  0  0  0  0
    0.1969   -2.7243    2.9517 H   0  0  0  0  0  0  0  0  0  0  0  0
   -0.0294   -4.4803    2.8470 H   0  0  0  0  0  0  0  0  0  0  0  0
   -0.4616   -1.0893    0.5050 N   0  0  0  0  0  0  0  0  0  0  0  0
   -0.0884    0.2050   -0.0621 C   0  0  2  0  0  0  0  0  0  0  0  0
   -0.8025    1.2861    0.7442 C   0  0  0  0  0  0  0  0  0  0  0  0
   -0.4817    2.4724    0.7060 O   0  0  0  0  0  0  0  0  0  0  0  0
   -0.4823    0.3274   -1.5417 C   0  0  0  0  0  0  0  0  0  0  0  0
    0.3195   -0.5979   -2.4629 C   0  0  0  0  0  0  0  0  0  0  0  0
   -0.0952   -0.4181   -3.9258 C   0  0  0  0  0  0  0  0  0  0  0  0
    0.6871   -1.3585   -4.8411 C   0  0  0  0  0  0  0  0  0  0  0  0
    0.2610   -1.1884   -6.2251 N   0  0  0  0  0  0  0  0  0  0  0  0
   -1.2794   -1.1113    1.0935 H   0  0  0  0  0  0  0  0  0  0  0  0
    0.9952    0.3338    0.0469 H   0  0  0  0  0  0  0  0  0  0  0  0
   -0.3353    1.3654   -1.8679 H   0  0  0  0  0  0  0  0  0  0  0  0
   -1.5552    0.1244   -1.6609 H   0  0  0  0  0  0  0  0  0  0  0  0
    0.1666   -1.6438   -2.1740 H   0  0  0  0  0  0  0  0  0  0  0  0
    1.3896   -0.3831   -2.3567 H   0  0  0  0  0  0  0  0  0  0  0  0
   -1.1709   -0.6104   -4.0258 H   0  0  0  0  0  0  0  0  0  0  0  0
    0.0765    0.6223   -4.2295 H   0  0  0  0  0  0  0  0  0  0  0  0
    0.5301   -2.3996   -4.5385 H   0  0  0  0  0  0  0  0  0  0  0  0
    1.7595   -1.1482   -4.7695 H   0  0  0  0  0  0  0  0  0  0  0  0
   -0.4627   -0.5085   -6.2484 H   0  0  0  0  0  0  0  0  0  0  0  0
    1.0425   -0.8846   -6.7575 H   0  0  0  0  0  0  0  0  0  0  0  0
   -1.8239    0.7653    1.5266 N   0  0  0  0  0  0  0  0  0  0  0  0
   -2.6423    1.5732    2.4020 C   0  0  2  0  0  0  0  0  0  0  0  0
   -3.0290    0.7210    3.6035 C   0  0  0  0  0  0  0  0  0  0  0  0
   -3.2352   -0.4886    3.5294 O   0  0  0  0  0  0  0  0  0  0  0  0
   -3.8780    2.0910    1.6824 C   0  0  0  0  0  0  0  0  0  0  0  0
   -2.0238   -0.2297    1.4862 H   0  0  0  0  0  0  0  0  0  0  0  0
   -2.0192    2.4111    2.7332 H   0  0  0  0  0  0  0  0  0  0  0  0
   -4.5146    1.2657    1.3431 H   0  0  0  0  0  0  0  0  0  0  0  0
   -4.4821    2.7262    2.3385 H   0  0  0  0  0  0  0  0  0  0  0  0
   -3.5983    2.6789    0.8016 H   0  0  0  0  0  0  0  0  0  0  0  0
   -3.1590    1.4775    4.7597 N   0  0  0  0  0  0  0  0  0  0  0  0
   -3.5595    0.9061    6.0243 C   0  0  0  0  0  0  0  0  0  0  0  0
   -2.9295    2.4667    4.7381 H   0  0  0  0  0  0  0  0  0  0  0  0
   -4.6511    0.9858    6.1339 H   0  0  0  0  0  0  0  0  0  0  0  0
   -3.2641   -0.1529    6.0580 H   0  0  0  0  0  0  0  0  0  0  0  0
   -3.0681    1.4501    6.8444 H   0  0  0  0  0  0  0  0  0  0  0  0
  1  3  1  0  0  0  0
  1  7  1  0  0  0  0
  1  2  2  0  0  0  0
 39 40  1  0  0  0  0
 40 48  1  0  0  0  0
 40 41  2  0  0  0  0
  8  9  1  0  0  0  0
  9 17  1  0  0  0  0
  9 10  2  0  0  0  0
 18 19  1  0  0  0  0
 19 38  1  0  0  0  0
 19 20  2  0  0  0  0
 39 42  1  0  0  0  0
  8 11  1  0  0  0  0
 48 49  1  0  0  0  0
 22 23  1  0  0  0  0
 21 22  1  0  0  0  0
 23 24  1  0  0  0  0
 18 21  1  0  0  0  0
 24 25  1  0  0  0  0
 38 39  1  0  0  0  0
  7  8  1  0  0  0  0
 17 18  1  0  0  0  0
  3  4  1  0  0  0  0
  3  5  1  0  0  0  0
  3  6  1  0  0  0  0
 42 45  1  0  0  0  0
 42 46  1  0  0  0  0
 42 47  1  0  0  0  0
 11 14  1  0  0  0  0
 11 15  1  0  0  0  0
 11 16  1  0  0  0  0
 49 51  1  0  0  0  0
 49 52  1  0  0  0  0
 49 53  1  0  0  0  0
 22 30  1  0  0  0  0
 22 31  1  0  0  0  0
 23 32  1  0  0  0  0
 23 33  1  0  0  0  0
 21 28  1  0  0  0  0
 21 29  1  0  0  0  0
 24 34  1  0  0  0  0
 24 35  1  0  0  0  0
 39 44  1  0  0  0  0
  8 13  1  0  0  0  0
 18 27  1  0  0  0  0
 25 36  1  0  0  0  0
 25 37  1  0  0  0  0
 48 50  1  0  0  0  0
  7 12  1  0  0  0  0
 38 43  1  0  0  0  0
 17 26  1  0  0  0  0
M  END
$$$$

  -OEChem-05262214473D

 53 52  0     1  0  0  0  0  0999 V2000
   -1.0338   -5.6785    0.1476 C   0  0  0  0  0  0  0  0  0  0  0  0
   -2.0514   -5.7797    0.8227 O   0  0  0  0  0  0  0  0  0  0  0  0
   -0.6558   -6.7819   -0.7841 C   0  0  0  0  0  0  0  0  0  0  0  0
   -0.0111   -7.5354   -0.3038 H   0  0  0  0  0  0  0  0  0  0  0  0
   -1.5317   -7.3401   -1.1520 H   0  0  0  0  0  0  0  0  0  0  0  0
   -0.1109   -6.4687   -1.6890 H   0  0  0  0  0  0  0  0  0  0  0  0
   -0.1543   -4.6083    0.1480 N   0  0  0  0  0  0  0  0  0  0  0  0
   -0.3302   -3.4398    0.9696 C   0  0  2  0  0  0  0  0  0  0  0  0
    0.2328   -2.2439    0.2131 C   0  0  0  0  0  0  0  0  0  0  0  0
    1.2097   -2.3192   -0.5294 O   0  0  0  0  0  0  0  0  0  0  0  0
    0.3557   -3.6024    2.3171 C   0  0  0  0  0  0  0  0  0  0  0  0
    0.6584   -4.6506   -0.4643 H   0  0  0  0  0  0  0  0  0  0  0  0
   -1.4091   -3.3101    1.1082 H   0  0  0  0  0  0  0  0  0  0  0  0
    1.4375   -3.7336    2.1985 H   0  0  0  0  0  0  0  0  0  0  0  0
    0.1969   -2.7243    2.9517 H   0  0  0  0  0  0  0  0  0  0  0  0
   -0.0294   -4.4803    2.8470 H   0  0  0  0  0  0  0  0  0  0  0  0
   -0.4616   -1.0893    0.5050 N   0  0  0  0  0  0  0  0  0  0  0  0
   -0.0884    0.2050   -0.0621 C   0  0  2  0  0  0  0  0  0  0  0  0
   -0.8025    1.2861    0.7442 C   0  0  0  0  0  0  0  0  0  0  0  0
   -0.6726    2.4873    0.5168 O   0  0  0  0  0  0  0  0  0  0  0  0
   -0.4823    0.3274   -1.5417 C   0  0  0  0  0  0  0  0  0  0  0  0
    0.3195   -0.5979   -2.4629 C   0  0  0  0  0  0  0  0  0  0  0  0
   -0.0952   -0.4181   -3.9258 C   0  0  0  0  0  0  0  0  0  0  0  0
    0.6871   -1.3585   -4.8411 C   0  0  0  0  0  0  0  0  0  0  0  0
    0.2610   -1.1884   -6.2251 N   0  0  0  0  0  0  0  0  0  0  0  0
   -1.2794   -1.1113    1.0935 H   0  0  0  0  0  0  0  0  0  0  0  0
    0.9952    0.3338    0.0469 H   0  0  0  0  0  0  0  0  0  0  0  0
   -0.3353    1.3654   -1.8679 H   0  0  0  0  0  0  0  0  0  0  0  0
   -1.5552    0.1244   -1.6609 H   0  0  0  0  0  0  0  0  0  0  0  0
    0.1666   -1.6438   -2.1740 H   0  0  0  0  0  0  0  0  0  0  0  0
    1.3896   -0.3831   -2.3567 H   0  0  0  0  0  0  0  0  0  0  0  0
   -1.1709   -0.6104   -4.0258 H   0  0  0  0  0  0  0  0  0  0  0  0
    0.0765    0.6223   -4.2295 H   0  0  0  0  0  0  0  0  0  0  0  0
    0.5301   -2.3996   -4.5385 H   0  0  0  0  0  0  0  0  0  0  0  0
    1.7595   -1.1482   -4.7695 H   0  0  0  0  0  0  0  0  0  0  0  0
   -0.4627   -0.5085   -6.2484 H   0  0  0  0  0  0  0  0  0  0  0  0
    1.0425   -0.8846   -6.7575 H   0  0  0  0  0  0  0  0  0  0  0  0
   -1.5828    0.7507    1.7597 N   0  0  0  0  0  0  0  0  0  0  0  0
   -2.3458    1.5595    2.6830 C   0  0  2  0  0  0  0  0  0  0  0  0
   -2.3860    0.8340    4.0215 C   0  0  0  0  0  0  0  0  0  0  0  0
   -2.4206   -0.3908    4.1198 O   0  0  0  0  0  0  0  0  0  0  0  0
   -3.7511    1.8171    2.1620 C   0  0  0  0  0  0  0  0  0  0  0  0
   -1.6371   -0.2579    1.8665 H   0  0  0  0  0  0  0  0  0  0  0  0
   -1.8054    2.5057    2.7958 H   0  0  0  0  0  0  0  0  0  0  0  0
   -4.3080    0.8805    2.0425 H   0  0  0  0  0  0  0  0  0  0  0  0
   -4.3185    2.4536    2.8490 H   0  0  0  0  0  0  0  0  0  0  0  0
   -3.7201    2.3122    1.1854 H   0  0  0  0  0  0  0  0  0  0  0  0
   -2.4222    1.7161    5.0923 N   0  0  0  0  0  0  0  0  0  0  0  0
   -2.5062    1.2735    6.4645 C   0  0  0  0  0  0  0  0  0  0  0  0
   -2.3490    2.7145    4.9200 H   0  0  0  0  0  0  0  0  0  0  0  0
   -3.5614    1.2296    6.7722 H   0  0  0  0  0  0  0  0  0  0  0  0
   -2.0560    0.2740    6.5555 H   0  0  0  0  0  0  0  0  0  0  0  0
   -1.9650    1.9797    7.1113 H   0  0  0  0  0  0  0  0  0  0  0  0
  1  3  1  0  0  0  0
  1  7  1  0  0  0  0
  1  2  2  0  0  0  0
 39 40  1  0  0  0  0
 40 48  1  0  0  0  0
 40 41  2  0  0  0  0
  8  9  1  0  0  0  0
  9 17  1  0  0  0  0
  9 10  2  0  0  0  0
 18 19  1  0  0  0  0
 19 38  1  0  0  0  0
 19 20  2  0  0  0  0
 39 42  1  0  0  0  0
  8 11  1  0  0  0  0
 48 49  1  0  0  0  0
 22 23  1  0  0  0  0
 21 22  1  0  0  0  0
 23 24  1  0  0  0  0
 18 21  1  0  0  0  0
 24 25  1  0  0  0  0
 38 39  1  0  0  0  0
  7  8  1  0  0  0  0
 17 18  1  0  0  0  0
  3  4  1  0  0  0  0
  3  5  1  0  0  0  0
  3  6  1  0  0  0  0
 42 45  1  0  0  0  0
 42 46  1  0  0  0  0
 42 47  1  0  0  0  0
 11 14  1  0  0  0  0
 11 15  1  0  0  0  0
 11 16  1  0  0  0  0
 49 51  1  0  0  0  0
 49 52  1  0  0  0  0
 49 53  1  0  0  0  0
 22 30  1  0  0  0  0
 22 31  1  0  0  0  0
 23 32  1  0  0  0  0
 23 33  1  0  0  0  0
 21 28  1  0  0  0  0
 21 29  1  0  0  0  0
 24 34  1  0  0  0  0
 24 35  1  0  0  0  0
 39 44  1  0  0  0  0
  8 13  1  0  0  0  0
 18 27  1  0  0  0  0
 25 36  1  0  0  0  0
 25 37  1  0  0  0  0
 48 50  1  0  0  0  0
  7 12  1  0  0  0  0
 38 43  1  0  0  0  0
 17 26  1  0  0  0  0
M  END
$$$$

  -OEChem-05262214473D

 53 52  0     1  0  0  0  0  0999 V2000
   -1.0338   -5.6785    0.1476 C   0  0  0  0  0  0  0  0  0  0  0  0
   -2.0514   -5.7797    0.8227 O   0  0  0  0  0  0  0  0  0  0  0  0
   -0.6558   -6.7819   -0.7841 C   0  0  0  0  0  0  0  0  0  0  0  0
   -0.0111   -7.5354   -0.3038 H   0  0  0  0  0  0  0  0  0  0  0  0
   -1.5317   -7.3401   -1.1520 H   0  0  0  0  0  0  0  0  0  0  0  0
   -0.1109   -6.4687   -1.6890 H   0  0  0  0  0  0  0  0  0  0  0  0
   -0.1543   -4.6083    0.1480 N   0  0  0  0  0  0  0  0  0  0  0  0
   -0.3302   -3.4398    0.9696 C   0  0  2  0  0  0  0  0  0  0  0  0
    0.2328   -2.2439    0.2131 C   0  0  0  0  0  0  0  0  0  0  0  0
    1.2097   -2.3192   -0.5294 O   0  0  0  0  0  0  0  0  0  0  0  0
    0.3557   -3.6024    2.3171 C   0  0  0  0  0  0  0  0  0  0  0  0
    0.6584   -4.6506   -0.4643 H   0  0  0  0  0  0  0  0  0  0  0  0
   -1.4091   -3.3101    1.1082 H   0  0  0  0  0  0  0  0  0  0  0  0
    1.4375   -3.7336    2.1985 H   0  0  0  0  0  0  0  0  0  0  0  0
    0.1969   -2.7243    2.9517 H   0  0  0  0  0  0  0  0  0  0  0  0
   -0.0294   -4.4803    2.8470 H   0  0  0  0  0  0  0  0  0  0  0  0
   -0.4616   -1.0893    0.5050 N   0  0  0  0  0  0  0  0  0  0  0  0
   -0.0884    0.2050   -0.0621 C   0  0  2  0  0  0  0  0  0  0  0  0
   -0.8025    1.2861    0.7442 C   0  0  0  0  0  0  0  0  0  0  0  0
   -0.8936    2.4528    0.3674 O   0  0  0  0  0  0  0  0  0  0  0  0
   -0.4823    0.3274   -1.5417 C   0  0  0  0  0  0  0  0  0  0  0  0
    0.3195   -0.5979   -2.4629 C   0  0  0  0  0  0  0  0  0  0  0  0
   -0.0952   -0.4181   -3.9258 C   0  0  0  0  0  0  0  0  0  0  0  0
    0.6871   -1.3585   -4.8411 C   0  0  0  0  0  0  0  0  0  0  0  0
    0.2610   -1.1884   -6.2251 N   0  0  0  0  0  0  0  0  0  0  0  0
   -1.2794   -1.1113    1.0935 H   0  0  0  0  0  0  0  0  0  0  0  0
    0.9952    0.3338    0.0469 H   0  0  0  0  0  0  0  0  0  0  0  0
   -0.3353    1.3654   -1.8679 H   0  0  0  0  0  0  0  0  0  0  0  0
   -1.5552    0.1244   -1.6609 H   0  0  0  0  0  0  0  0  0  0  0  0
    0.1666   -1.6438   -2.1740 H   0  0  0  0  0  0  0  0  0  0  0  0
    1.3896   -0.3831   -2.3567 H   0  0  0  0  0  0  0  0  0  0  0  0
   -1.1709   -0.6104   -4.0258 H   0  0  0  0  0  0  0  0  0  0  0  0
    0.0765    0.6223   -4.2295 H   0  0  0  0  0  0  0  0  0  0  0  0
    0.5301   -2.3996   -4.5385 H   0  0  0  0  0  0  0  0  0  0  0  0
    1.7595   -1.1482   -4.7695 H   0  0  0  0  0  0  0  0  0  0  0  0
   -0.4627   -0.5085   -6.2484 H   0  0  0  0  0  0  0  0  0  0  0  0
    1.0425   -0.8846   -6.7575 H   0  0  0  0  0  0  0  0  0  0  0  0
   -1.3051    0.7979    1.9424 N   0  0  0  0  0  0  0  0  0  0  0  0
   -2.0061    1.6207    2.9017 C   0  0  2  0  0  0  0  0  0  0  0  0
   -1.7036    1.0817    4.2936 C   0  0  0  0  0  0  0  0  0  0  0  0
   -1.5387   -0.1135    4.5289 O   0  0  0  0  0  0  0  0  0  0  0  0
   -3.5033    1.6280    2.6351 C   0  0  0  0  0  0  0  0  0  0  0  0
   -1.1899   -0.1861    2.1663 H   0  0  0  0  0  0  0  0  0  0  0  0
   -1.6004    2.6338    2.8056 H   0  0  0  0  0  0  0  0  0  0  0  0
   -3.9275    0.6214    2.7268 H   0  0  0  0  0  0  0  0  0  0  0  0
   -4.0296    2.2744    3.3451 H   0  0  0  0  0  0  0  0  0  0  0  0
   -3.7172    1.9878    1.6229 H   0  0  0  0  0  0  0  0  0  0  0  0
   -1.6821    2.0877    5.2495 N   0  0  0  0  0  0  0  0  0  0  0  0
   -1.4584    1.8257    6.6521 C   0  0  0  0  0  0  0  0  0  0  0  0
   -1.7889    3.0552    4.9592 H   0  0  0  0  0  0  0  0  0  0  0  0
   -2.4252    1.6914    7.1594 H   0  0  0  0  0  0  0  0  0  0  0  0
   -0.8563    0.9119    6.7628 H   0  0  0  0  0  0  0  0  0  0  0  0
   -0.9229    2.6744    7.1027 H   0  0  0  0  0  0  0  0  0  0  0  0
  1  3  1  0  0  0  0
  1  7  1  0  0  0  0
  1  2  2  0  0  0  0
 39 40  1  0  0  0  0
 40 48  1  0  0  0  0
 40 41  2  0  0  0  0
  8  9  1  0  0  0  0
  9 17  1  0  0  0  0
  9 10  2  0  0  0  0
 18 19  1  0  0  0  0
 19 38  1  0  0  0  0
 19 20  2  0  0  0  0
 39 42  1  0  0  0  0
  8 11  1  0  0  0  0
 48 49  1  0  0  0  0
 22 23  1  0  0  0  0
 21 22  1  0  0  0  0
 23 24  1  0  0  0  0
 18 21  1  0  0  0  0
 24 25  1  0  0  0  0
 38 39  1  0  0  0  0
  7  8  1  0  0  0  0
 17 18  1  0  0  0  0
  3  4  1  0  0  0  0
  3  5  1  0  0  0  0
  3  6  1  0  0  0  0
 42 45  1  0  0  0  0
 42 46  1  0  0  0  0
 42 47  1  0  0  0  0
 11 14  1  0  0  0  0
 11 15  1  0  0  0  0
 11 16  1  0  0  0  0
 49 51  1  0  0  0  0
 49 52  1  0  0  0  0
 49 53  1  0  0  0  0
 22 30  1  0  0  0  0
 22 31  1  0  0  0  0
 23 32  1  0  0  0  0
 23 33  1  0  0  0  0
 21 28  1  0  0  0  0
 21 29  1  0  0  0  0
 24 34  1  0  0  0  0
 24 35  1  0  0  0  0
 39 44  1  0  0  0  0
  8 13  1  0  0  0  0
 18 27  1  0  0  0  0
 25 36  1  0  0  0  0
 25 37  1  0  0  0  0
 48 50  1  0  0  0  0
  7 12  1  0  0  0  0
 38 43  1  0  0  0  0
 17 26  1  0  0  0  0
M  END
$$$$

  -OEChem-05262214473D

 53 52  0     1  0  0  0  0  0999 V2000
   -1.0338   -5.6785    0.1476 C   0  0  0  0  0  0  0  0  0  0  0  0
   -2.0514   -5.7797    0.8227 O   0  0  0  0  0  0  0  0  0  0  0  0
   -0.6558   -6.7819   -0.7841 C   0  0  0  0  0  0  0  0  0  0  0  0
   -0.0111   -7.5354   -0.3038 H   0  0  0  0  0  0  0  0  0  0  0  0
   -1.5317   -7.3401   -1.1520 H   0  0  0  0  0  0  0  0  0  0  0  0
   -0.1109   -6.4687   -1.6890 H   0  0  0  0  0  0  0  0  0  0  0  0
   -0.1543   -4.6083    0.1480 N   0  0  0  0  0  0  0  0  0  0  0  0
   -0.3302   -3.4398    0.9696 C   0  0  2  0  0  0  0  0  0  0  0  0
    0.2328   -2.2439    0.2131 C   0  0  0  0  0  0  0  0  0  0  0  0
    1.2097   -2.3192   -0.5294 O   0  0  0  0  0  0  0  0  0  0  0  0
    0.3557   -3.6024    2.3171 C   0  0  0  0  0  0  0  0  0  0  0  0
    0.6584   -4.6506   -0.4643 H   0  0  0  0  0  0  0  0  0  0  0  0
   -1.4091   -3.3101    1.1082 H   0  0  0  0  0  0  0  0  0  0  0  0
    1.4375   -3.7336    2.1985 H   0  0  0  0  0  0  0  0  0  0  0  0
    0.1969   -2.7243    2.9517 H   0  0  0  0  0  0  0  0  0  0  0  0
   -0.0294   -4.4803    2.8470 H   0  0  0  0  0  0  0  0  0  0  0  0
   -0.4616   -1.0893    0.5050 N   0  0  0  0  0  0  0  0  0  0  0  0
   -0.0884    0.2050   -0.0621 C   0  0  2  0  0  0  0  0  0  0  0  0
   -0.8025    1.2861    0.7442 C   0  0  0  0  0  0  0  0  0  0  0  0
   -1.1298    2.3711    0.2677 O   0  0  0  0  0  0  0  0  0  0  0  0
   -0.4823    0.3274   -1.5417 C   0  0  0  0  0  0  0  0  0  0  0  0
    0.3195   -0.5979   -2.4629 C   0  0  0  0  0  0  0  0  0  0  0  0
   -0.0952   -0.4181   -3.9258 C   0  0  0  0  0  0  0  0  0  0  0  0
    0.6871   -1.3585   -4.8411 C   0  0  0  0  0  0  0  0  0  0  0  0
    0.2610   -1.1884   -6.2251 N   0  0  0  0  0  0  0  0  0  0  0  0
   -1.2794   -1.1113    1.0935 H   0  0  0  0  0  0  0  0  0  0  0  0
    0.9952    0.3338    0.0469 H   0  0  0  0  0  0  0  0  0  0  0  0
   -0.3353    1.3654   -1.8679 H   0  0  0  0  0  0  0  0  0  0  0  0
   -1.5552    0.1244   -1.6609 H   0  0  0  0  0  0  0  0  0  0  0  0
    0.1666   -1.6438   -2.1740 H   0  0  0  0  0  0  0  0  0  0  0  0
    1.3896   -0.3831   -2.3567 H   0  0  0  0  0  0  0  0  0  0  0  0
   -1.1709   -0.6104   -4.0258 H   0  0  0  0  0  0  0  0  0  0  0  0
    0.0765    0.6223   -4.2295 H   0  0  0  0  0  0  0  0  0  0  0  0
    0.5301   -2.3996   -4.5385 H   0  0  0  0  0  0  0  0  0  0  0  0
    1.7595   -1.1482   -4.7695 H   0  0  0  0  0  0  0  0  0  0  0  0
   -0.4627   -0.5085   -6.2484 H   0  0  0  0  0  0  0  0  0  0  0  0
    1.0425   -0.8846   -6.7575 H   0  0  0  0  0  0  0  0  0  0  0  0
   -1.0098    0.9035    2.0623 N   0  0  0  0  0  0  0  0  0  0  0  0
   -1.6462    1.7529    3.0433 C   0  0  2  0  0  0  0  0  0  0  0  0
   -1.0285    1.4473    4.4014 C   0  0  0  0  0  0  0  0  0  0  0  0
   -0.6499    0.3246    4.7288 O   0  0  0  0  0  0  0  0  0  0  0  0
   -3.1512    1.5365    3.0696 C   0  0  0  0  0  0  0  0  0  0  0  0
   -0.7129   -0.0194    2.3652 H   0  0  0  0  0  0  0  0  0  0  0  0
   -1.4181    2.7868    2.7620 H   0  0  0  0  0  0  0  0  0  0  0  0
   -3.3991    0.5061    3.3495 H   0  0  0  0  0  0  0  0  0  0  0  0
   -3.6350    2.2010    3.7930 H   0  0  0  0  0  0  0  0  0  0  0  0
   -3.5898    1.7279    2.0843 H   0  0  0  0  0  0  0  0  0  0  0  0
   -0.9893    2.5669    5.2207 N   0  0  0  0  0  0  0  0  0  0  0  0
   -0.4873    2.5252    6.5744 C   0  0  0  0  0  0  0  0  0  0  0  0
   -1.2872    3.4657    4.8532 H   0  0  0  0  0  0  0  0  0  0  0  0
   -1.3198    2.3397    7.2691 H   0  0  0  0  0  0  0  0  0  0  0  0
    0.2534    1.7172    6.6659 H   0  0  0  0  0  0  0  0  0  0  0  0
   -0.0130    3.4870    6.8192 H   0  0  0  0  0  0  0  0  0  0  0  0
  1  3  1  0  0  0  0
  1  7  1  0  0  0  0
  1  2  2  0  0  0  0
 39 40  1  0  0  0  0
 40 48  1  0  0  0  0
 40 41  2  0  0  0  0
  8  9  1  0  0  0  0
  9 17  1  0  0  0  0
  9 10  2  0  0  0  0
 18 19  1  0  0  0  0
 19 38  1  0  0  0  0
 19 20  2  0  0  0  0
 39 42  1  0  0  0  0
  8 11  1  0  0  0  0
 48 49  1  0  0  0  0
 22 23  1  0  0  0  0
 21 22  1  0  0  0  0
 23 24  1  0  0  0  0
 18 21  1  0  0  0  0
 24 25  1  0  0  0  0
 38 39  1  0  0  0  0
  7  8  1  0  0  0  0
 17 18  1  0  0  0  0
  3  4  1  0  0  0  0
  3  5  1  0  0  0  0
  3  6  1  0  0  0  0
 42 45  1  0  0  0  0
 42 46  1  0  0  0  0
 42 47  1  0  0  0  0
 11 14  1  0  0  0  0
 11 15  1  0  0  0  0
 11 16  1  0  0  0  0
 49 51  1  0  0  0  0
 49 52  1  0  0  0  0
 49 53  1  0  0  0  0
 22 30  1  0  0  0  0
 22 31  1  0  0  0  0
 23 32  1  0  0  0  0
 23 33  1  0  0  0  0
 21 28  1  0  0  0  0
 21 29  1  0  0  0  0
 24 34  1  0  0  0  0
 24 35  1  0  0  0  0
 39 44  1  0  0  0  0
  8 13  1  0  0  0  0
 18 27  1  0  0  0  0
 25 36  1  0  0  0  0
 25 37  1  0  0  0  0
 48 50  1  0  0  0  0
  7 12  1  0  0  0  0
 38 43  1  0  0  0  0
 17 26  1  0  0  0  0
M  END
$$$$

  -OEChem-05262214473D

 53 52  0     1  0  0  0  0  0999 V2000
   -1.0338   -5.6785    0.1476 C   0  0  0  0  0  0  0  0  0  0  0  0
   -2.0514   -5.7797    0.8227 O   0  0  0  0  0  0  0  0  0  0  0  0
   -0.6558   -6.7819   -0.7841 C   0  0  0  0  0  0  0  0  0  0  0  0
   -0.0111   -7.5354   -0.3038 H   0  0  0  0  0  0  0  0  0  0  0  0
   -1.5317   -7.3401   -1.1520 H   0  0  0  0  0  0  0  0  0  0  0  0
   -0.1109   -6.4687   -1.6890 H   0  0  0  0  0  0  0  0  0  0  0  0
   -0.1543   -4.6083    0.1480 N   0  0  0  0  0  0  0  0  0  0  0  0
   -0.3302   -3.4398    0.9696 C   0  0  2  0  0  0  0  0  0  0  0  0
    0.2328   -2.2439    0.2131 C   0  0  0  0  0  0  0  0  0  0  0  0
    1.2097   -2.3192   -0.5294 O   0  0  0  0  0  0  0  0  0  0  0  0
    0.3557   -3.6024    2.3171 C   0  0  0  0  0  0  0  0  0  0  0  0
    0.6584   -4.6506   -0.4643 H   0  0  0  0  0  0  0  0  0  0  0  0
   -1.4091   -3.3101    1.1082 H   0  0  0  0  0  0  0  0  0  0  0  0
    1.4375   -3.7336    2.1985 H   0  0  0  0  0  0  0  0  0  0  0  0
    0.1969   -2.7243    2.9517 H   0  0  0  0  0  0  0  0  0  0  0  0
   -0.0294   -4.4803    2.8470 H   0  0  0  0  0  0  0  0  0  0  0  0
   -0.4616   -1.0893    0.5050 N   0  0  0  0  0  0  0  0  0  0  0  0
   -0.0884    0.2050   -0.0621 C   0  0  2  0  0  0  0  0  0  0  0  0
   -0.8025    1.2861    0.7442 C   0  0  0  0  0  0  0  0  0  0  0  0
   -1.3651    2.2479    0.2246 O   0  0  0  0  0  0  0  0  0  0  0  0
   -0.4823    0.3274   -1.5417 C   0  0  0  0  0  0  0  0  0  0  0  0
    0.3195   -0.5979   -2.4629 C   0  0  0  0  0  0  0  0  0  0  0  0
   -0.0952   -0.4181   -3.9258 C   0  0  0  0  0  0  0  0  0  0  0  0
    0.6871   -1.3585   -4.8411 C   0  0  0  0  0  0  0  0  0  0  0  0
    0.2610   -1.1884   -6.2251 N   0  0  0  0  0  0  0  0  0  0  0  0
   -1.2794   -1.1113    1.0935 H   0  0  0  0  0  0  0  0  0  0  0  0
    0.9952    0.3338    0.0469 H   0  0  0  0  0  0  0  0  0  0  0  0
   -0.3353    1.3654   -1.8679 H   0  0  0  0  0  0  0  0  0  0  0  0
   -1.5552    0.1244   -1.6609 H   0  0  0  0  0  0  0  0  0  0  0  0
    0.1666   -1.6438   -2.1740 H   0  0  0  0  0  0  0  0  0  0  0  0
    1.3896   -0.3831   -2.3567 H   0  0  0  0  0  0  0  0  0  0  0  0
   -1.1709   -0.6104   -4.0258 H   0  0  0  0  0  0  0  0  0  0  0  0
    0.0765    0.6223   -4.2295 H   0  0  0  0  0  0  0  0  0  0  0  0
    0.5301   -2.3996   -4.5385 H   0  0  0  0  0  0  0  0  0  0  0  0
    1.7595   -1.1482   -4.7695 H   0  0  0  0  0  0  0  0  0  0  0  0
   -0.4627   -0.5085   -6.2484 H   0  0  0  0  0  0  0  0  0  0  0  0
    1.0425   -0.8846   -6.7575 H   0  0  0  0  0  0  0  0  0  0  0  0
   -0.7171    1.0604    2.1111 N   0  0  0  0  0  0  0  0  0  0  0  0
   -1.2906    1.9469    3.0980 C   0  0  2  0  0  0  0  0  0  0  0  0
   -0.4065    1.9058    4.3375 C   0  0  0  0  0  0  0  0  0  0  0  0
    0.1854    0.8934    4.7059 O   0  0  0  0  0  0  0  0  0  0  0  0
   -2.7190    1.5488    3.4358 C   0  0  0  0  0  0  0  0  0  0  0  0
   -0.2385    0.2310    2.4497 H   0  0  0  0  0  0  0  0  0  0  0  0
   -1.2709    2.9542    2.6679 H   0  0  0  0  0  0  0  0  0  0  0  0
   -2.7588    0.5423    3.8680 H   0  0  0  0  0  0  0  0  0  0  0  0
   -3.1618    2.2382    4.1622 H   0  0  0  0  0  0  0  0  0  0  0  0
   -3.3466    1.5501    2.5380 H   0  0  0  0  0  0  0  0  0  0  0  0
   -0.3908    3.1209    5.0078 N   0  0  0  0  0  0  0  0  0  0  0  0
    0.3407    3.3241    6.2365 C   0  0  0  0  0  0  0  0  0  0  0  0
   -0.8782    3.9179    4.6091 H   0  0  0  0  0  0  0  0  0  0  0  0
   -0.3206    3.1304    7.0939 H   0  0  0  0  0  0  0  0  0  0  0  0
    1.1974    2.6350    6.2712 H   0  0  0  0  0  0  0  0  0  0  0  0
    0.7029    4.3619    6.2801 H   0  0  0  0  0  0  0  0  0  0  0  0
  1  3  1  0  0  0  0
  1  7  1  0  0  0  0
  1  2  2  0  0  0  0
 39 40  1  0  0  0  0
 40 48  1  0  0  0  0
 40 41  2  0  0  0  0
  8  9  1  0  0  0  0
  9 17  1  0  0  0  0
  9 10  2  0  0  0  0
 18 19  1  0  0  0  0
 19 38  1  0  0  0  0
 19 20  2  0  0  0  0
 39 42  1  0  0  0  0
  8 11  1  0  0  0  0
 48 49  1  0  0  0  0
 22 23  1  0  0  0  0
 21 22  1  0  0  0  0
 23 24  1  0  0  0  0
 18 21  1  0  0  0  0
 24 25  1  0  0  0  0
 38 39  1  0  0  0  0
  7  8  1  0  0  0  0
 17 18  1  0  0  0  0
  3  4  1  0  0  0  0
  3  5  1  0  0  0  0
  3  6  1  0  0  0  0
 42 45  1  0  0  0  0
 42 46  1  0  0  0  0
 42 47  1  0  0  0  0
 11 14  1  0  0  0  0
 11 15  1  0  0  0  0
 11 16  1  0  0  0  0
 49 51  1  0  0  0  0
 49 52  1  0  0  0  0
 49 53  1  0  0  0  0
 22 30  1  0  0  0  0
 22 31  1  0  0  0  0
 23 32  1  0  0  0  0
 23 33  1  0  0  0  0
 21 28  1  0  0  0  0
 21 29  1  0  0  0  0
 24 34  1  0  0  0  0
 24 35  1  0  0  0  0
 39 44  1  0  0  0  0
  8 13  1  0  0  0  0
 18 27  1  0  0  0  0
 25 36  1  0  0  0  0
 25 37  1  0  0  0  0
 48 50  1  0  0  0  0
  7 12  1  0  0  0  0
 38 43  1  0  0  0  0
 17 26  1  0  0  0  0
M  END
$$$$

  -OEChem-05262214473D

 53 52  0     1  0  0  0  0  0999 V2000
   -1.0338   -5.6785    0.1476 C   0  0  0  0  0  0  0  0  0  0  0  0
   -2.0514   -5.7797    0.8227 O   0  0  0  0  0  0  0  0  0  0  0  0
   -0.6558   -6.7819   -0.7841 C   0  0  0  0  0  0  0  0  0  0  0  0
   -0.0111   -7.5354   -0.3038 H   0  0  0  0  0  0  0  0  0  0  0  0
   -1.5317   -7.3401   -1.1520 H   0  0  0  0  0  0  0  0  0  0  0  0
   -0.1109   -6.4687   -1.6890 H   0  0  0  0  0  0  0  0  0  0  0  0
   -0.1543   -4.6083    0.1480 N   0  0  0  0  0  0  0  0  0  0  0  0
   -0.3302   -3.4398    0.9696 C   0  0  2  0  0  0  0  0  0  0  0  0
    0.2328   -2.2439    0.2131 C   0  0  0  0  0  0  0  0  0  0  0  0
    1.2097   -2.3192   -0.5294 O   0  0  0  0  0  0  0  0  0  0  0  0
    0.3557   -3.6024    2.3171 C   0  0  0  0  0  0  0  0  0  0  0  0
    0.6584   -4.6506   -0.4643 H   0  0  0  0  0  0  0  0  0  0  0  0
   -1.4091   -3.3101    1.1082 H   0  0  0  0  0  0  0  0  0  0  0  0
    1.4375   -3.7336    2.1985 H   0  0  0  0  0  0  0  0  0  0  0  0
    0.1969   -2.7243    2.9517 H   0  0  0  0  0  0  0  0  0  0  0  0
   -0.0294   -4.4803    2.8470 H   0  0  0  0  0  0  0  0  0  0  0  0
   -0.4616   -1.0893    0.5050 N   0  0  0  0  0  0  0  0  0  0  0  0
   -0.0884    0.2050   -0.0621 C   0  0  2  0  0  0  0  0  0  0  0  0
   -0.8025    1.2861    0.7442 C   0  0  0  0  0  0  0  0  0  0  0  0
   -1.5834    2.0914    0.2410 O   0  0  0  0  0  0  0  0  0  0  0  0
   -0.4823    0.3274   -1.5417 C   0  0  0  0  0  0  0  0  0  0  0  0
    0.3195   -0.5979   -2.4629 C   0  0  0  0  0  0  0  0  0  0  0  0
   -0.0952   -0.4181   -3.9258 C   0  0  0  0  0  0  0  0  0  0  0  0
    0.6871   -1.3585   -4.8411 C   0  0  0  0  0  0  0  0  0  0  0  0
    0.2610   -1.1884   -6.2251 N   0  0  0  0  0  0  0  0  0  0  0  0
   -1.2794   -1.1113    1.0935 H   0  0  0  0  0  0  0  0  0  0  0  0
    0.9952    0.3338    0.0469 H   0  0  0  0  0  0  0  0  0  0  0  0
   -0.3353    1.3654   -1.8679 H   0  0  0  0  0  0  0  0  0  0  0  0
   -1.5552    0.1244   -1.6609 H   0  0  0  0  0  0  0  0  0  0  0  0
    0.1666   -1.6438   -2.1740 H   0  0  0  0  0  0  0  0  0  0  0  0
    1.3896   -0.3831   -2.3567 H   0  0  0  0  0  0  0  0  0  0  0  0
   -1.1709   -0.6104   -4.0258 H   0  0  0  0  0  0  0  0  0  0  0  0
    0.0765    0.6223   -4.2295 H   0  0  0  0  0  0  0  0  0  0  0  0
    0.5301   -2.3996   -4.5385 H   0  0  0  0  0  0  0  0  0  0  0  0
    1.7595   -1.1482   -4.7695 H   0  0  0  0  0  0  0  0  0  0  0  0
   -0.4627   -0.5085   -6.2484 H   0  0  0  0  0  0  0  0  0  0  0  0
    1.0425   -0.8846   -6.7575 H   0  0  0  0  0  0  0  0  0  0  0  0
   -0.4468    1.2580    2.0857 N   0  0  0  0  0  0  0  0  0  0  0  0
   -0.9637    2.1895    3.0622 C   0  0  2  0  0  0  0  0  0  0  0  0
    0.1197    2.4260    4.1061 C   0  0  0  0  0  0  0  0  0  0  0  0
    0.9103    1.5544    4.4617 O   0  0  0  0  0  0  0  0  0  0  0  0
   -2.2360    1.6643    3.7088 C   0  0  0  0  0  0  0  0  0  0  0  0
    0.2011    0.5480    2.4139 H   0  0  0  0  0  0  0  0  0  0  0  0
   -1.1689    3.1246    2.5297 H   0  0  0  0  0  0  0  0  0  0  0  0
   -2.0502    0.7277    4.2471 H   0  0  0  0  0  0  0  0  0  0  0  0
   -2.6420    2.3836    4.4276 H   0  0  0  0  0  0  0  0  0  0  0  0
   -3.0041    1.4666    2.9533 H   0  0  0  0  0  0  0  0  0  0  0  0
    0.0724    3.7122    4.6253 N   0  0  0  0  0  0  0  0  0  0  0  0
    0.9693    4.1682    5.6615 C   0  0  0  0  0  0  0  0  0  0  0  0
   -0.5897    4.3811    4.2435 H   0  0  0  0  0  0  0  0  0  0  0  0
    0.5043    4.0095    6.6457 H   0  0  0  0  0  0  0  0  0  0  0  0
    1.9113    3.6029    5.6058 H   0  0  0  0  0  0  0  0  0  0  0  0
    1.1759    5.2396    5.5221 H   0  0  0  0  0  0  0  0  0  0  0  0
  1  3  1  0  0  0  0
  1  7  1  0  0  0  0
  1  2  2  0  0  0  0
 39 40  1  0  0  0  0
 40 48  1  0  0  0  0
 40 41  2  0  0  0  0
  8  9  1  0  0  0  0
  9 17  1  0  0  0  0
  9 10  2  0  0  0  0
 18 19  1  0  0  0  0
 19 38  1  0  0  0  0
 19 20  2  0  0  0  0
 39 42  1  0  0  0  0
  8 11  1  0  0  0  0
 48 49  1  0  0  0  0
 22 23  1  0  0  0  0
 21 22  1  0  0  0  0
 23 24  1  0  0  0  0
 18 21  1  0  0  0  0
 24 25  1  0  0  0  0
 38 39  1  0  0  0  0
  7  8  1  0  0  0  0
 17 18  1  0  0  0  0
  3  4  1  0  0  0  0
  3  5  1  0  0  0  0
  3  6  1  0  0  0  0
 42 45  1  0  0  0  0
 42 46  1  0  0  0  0
 42 47  1  0  0  0  0
 11 14  1  0  0  0  0
 11 15  1  0  0  0  0
 11 16  1  0  0  0  0
 49 51  1  0  0  0  0
 49 52  1  0  0  0  0
 49 53  1  0  0  0  0
 22 30  1  0  0  0  0
 22 31  1  0  0  0  0
 23 32  1  0  0  0  0
 23 33  1  0  0  0  0
 21 28  1  0  0  0  0
 21 29  1  0  0  0  0
 24 34  1  0  0  0  0
 24 35  1  0  0  0  0
 39 44  1  0  0  0  0
  8 13  1  0  0  0  0
 18 27  1  0  0  0  0
 25 36  1  0  0  0  0
 25 37  1  0  0  0  0
 48 50  1  0  0  0  0
  7 12  1  0  0  0  0
 38 43  1  0  0  0  0
 17 26  1  0  0  0  0
M  END
$$$$

  -OEChem-05262214473D

 53 52  0     1  0  0  0  0  0999 V2000
   -1.0338   -5.6785    0.1476 C   0  0  0  0  0  0  0  0  0  0  0  0
   -2.0514   -5.7797    0.8227 O   0  0  0  0  0  0  0  0  0  0  0  0
   -0.6558   -6.7819   -0.7841 C   0  0  0  0  0  0  0  0  0  0  0  0
   -0.0111   -7.5354   -0.3038 H   0  0  0  0  0  0  0  0  0  0  0  0
   -1.5317   -7.3401   -1.1520 H   0  0  0  0  0  0  0  0  0  0  0  0
   -0.1109   -6.4687   -1.6890 H   0  0  0  0  0  0  0  0  0  0  0  0
   -0.1543   -4.6083    0.1480 N   0  0  0  0  0  0  0  0  0  0  0  0
   -0.3302   -3.4398    0.9696 C   0  0  2  0  0  0  0  0  0  0  0  0
    0.2328   -2.2439    0.2131 C   0  0  0  0  0  0  0  0  0  0  0  0
    1.2097   -2.3192   -0.5294 O   0  0  0  0  0  0  0  0  0  0  0  0
    0.3557   -3.6024    2.3171 C   0  0  0  0  0  0  0  0  0  0  0  0
    0.6584   -4.6506   -0.4643 H   0  0  0  0  0  0  0  0  0  0  0  0
   -1.4091   -3.3101    1.1082 H   0  0  0  0  0  0  0  0  0  0  0  0
    1.4375   -3.7336    2.1985 H   0  0  0  0  0  0  0  0  0  0  0  0
    0.1969   -2.7243    2.9517 H   0  0  0  0  0  0  0  0  0  0  0  0
   -0.0294   -4.4803    2.8470 H   0  0  0  0  0  0  0  0  0  0  0  0
   -0.4616   -1.0893    0.5050 N   0  0  0  0  0  0  0  0  0  0  0  0
   -0.0884    0.2050   -0.0621 C   0  0  2  0  0  0  0  0  0  0  0  0
   -0.8025    1.2861    0.7442 C   0  0  0  0  0  0  0  0  0  0  0  0
   -1.7699    1.9124    0.3159 O   0  0  0  0  0  0  0  0  0  0  0  0
   -0.4823    0.3274   -1.5417 C   0  0  0  0  0  0  0  0  0  0  0  0
    0.3195   -0.5979   -2.4629 C   0  0  0  0  0  0  0  0  0  0  0  0
   -0.0952   -0.4181   -3.9258 C   0  0  0  0  0  0  0  0  0  0  0  0
    0.6871   -1.3585   -4.8411 C   0  0  0  0  0  0  0  0  0  0  0  0
    0.2610   -1.1884   -6.2251 N   0  0  0  0  0  0  0  0  0  0  0  0
   -1.2794   -1.1113    1.0935 H   0  0  0  0  0  0  0  0  0  0  0  0
    0.9952    0.3338    0.0469 H   0  0  0  0  0  0  0  0  0  0  0  0
   -0.3353    1.3654   -1.8679 H   0  0  0  0  0  0  0  0  0  0  0  0
   -1.5552    0.1244   -1.6609 H   0  0  0  0  0  0  0  0  0  0  0  0
    0.1666   -1.6438   -2.1740 H   0  0  0  0  0  0  0  0  0  0  0  0
    1.3896   -0.3831   -2.3567 H   0  0  0  0  0  0  0  0  0  0  0  0
   -1.1709   -0.6104   -4.0258 H   0  0  0  0  0  0  0  0  0  0  0  0
    0.0765    0.6223   -4.2295 H   0  0  0  0  0  0  0  0  0  0  0  0
    0.5301   -2.3996   -4.5385 H   0  0  0  0  0  0  0  0  0  0  0  0
    1.7595   -1.1482   -4.7695 H   0  0  0  0  0  0  0  0  0  0  0  0
   -0.4627   -0.5085   -6.2484 H   0  0  0  0  0  0  0  0  0  0  0  0
    1.0425   -0.8846   -6.7575 H   0  0  0  0  0  0  0  0  0  0  0  0
   -0.2174    1.4826    1.9876 N   0  0  0  0  0  0  0  0  0  0  0  0
   -0.6877    2.4643    2.9383 C   0  0  2  0  0  0  0  0  0  0  0  0
    0.5146    2.9724    3.7232 C   0  0  0  0  0  0  0  0  0  0  0  0
    1.4753    2.2624    4.0128 O   0  0  0  0  0  0  0  0  0  0  0  0
   -1.7353    1.8749    3.8699 C   0  0  0  0  0  0  0  0  0  0  0  0
    0.5757    0.9100    2.2605 H   0  0  0  0  0  0  0  0  0  0  0  0
   -1.1190    3.2865    2.3569 H   0  0  0  0  0  0  0  0  0  0  0  0
   -1.3216    1.0496    4.4608 H   0  0  0  0  0  0  0  0  0  0  0  0
   -2.1112    2.6273    4.5710 H   0  0  0  0  0  0  0  0  0  0  0  0
   -2.5858    1.4830    3.3017 H   0  0  0  0  0  0  0  0  0  0  0  0
    0.3689    4.3003    4.0993 N   0  0  0  0  0  0  0  0  0  0  0  0
    1.3557    4.9998    4.8886 C   0  0  0  0  0  0  0  0  0  0  0  0
   -0.4415    4.8237    3.7813 H   0  0  0  0  0  0  0  0  0  0  0  0
    1.0987    4.9173    5.9550 H   0  0  0  0  0  0  0  0  0  0  0  0
    2.3465    4.5548    4.7149 H   0  0  0  0  0  0  0  0  0  0  0  0
    1.3737    6.0603    4.5970 H   0  0  0  0  0  0  0  0  0  0  0  0
  1  3  1  0  0  0  0
  1  7  1  0  0  0  0
  1  2  2  0  0  0  0
 39 40  1  0  0  0  0
 40 48  1  0  0  0  0
 40 41  2  0  0  0  0
  8  9  1  0  0  0  0
  9 17  1  0  0  0  0
  9 10  2  0  0  0  0
 18 19  1  0  0  0  0
 19 38  1  0  0  0  0
 19 20  2  0  0  0  0
 39 42  1  0  0  0  0
  8 11  1  0  0  0  0
 48 49  1  0  0  0  0
 22 23  1  0  0  0  0
 21 22  1  0  0  0  0
 23 24  1  0  0  0  0
 18 21  1  0  0  0  0
 24 25  1  0  0  0  0
 38 39  1  0  0  0  0
  7  8  1  0  0  0  0
 17 18  1  0  0  0  0
  3  4  1  0  0  0  0
  3  5  1  0  0  0  0
  3  6  1  0  0  0  0
 42 45  1  0  0  0  0
 42 46  1  0  0  0  0
 42 47  1  0  0  0  0
 11 14  1  0  0  0  0
 11 15  1  0  0  0  0
 11 16  1  0  0  0  0
 49 51  1  0  0  0  0
 49 52  1  0  0  0  0
 49 53  1  0  0  0  0
 22 30  1  0  0  0  0
 22 31  1  0  0  0  0
 23 32  1  0  0  0  0
 23 33  1  0  0  0  0
 21 28  1  0  0  0  0
 21 29  1  0  0  0  0
 24 34  1  0  0  0  0
 24 35  1  0  0  0  0
 39 44  1  0  0  0  0
  8 13  1  0  0  0  0
 18 27  1  0  0  0  0
 25 36  1  0  0  0  0
 25 37  1  0  0  0  0
 48 50  1  0  0  0  0
  7 12  1  0  0  0  0
 38 43  1  0  0  0  0
 17 26  1  0  0  0  0
M  END
$$$$

  -OEChem-05262214473D

 53 52  0     1  0  0  0  0  0999 V2000
   -1.0338   -5.6785    0.1476 C   0  0  0  0  0  0  0  0  0  0  0  0
   -2.0514   -5.7797    0.8227 O   0  0  0  0  0  0  0  0  0  0  0  0
   -0.6558   -6.7819   -0.7841 C   0  0  0  0  0  0  0  0  0  0  0  0
   -0.0111   -7.5354   -0.3038 H   0  0  0  0  0  0  0  0  0  0  0  0
   -1.5317   -7.3401   -1.1520 H   0  0  0  0  0  0  0  0  0  0  0  0
   -0.1109   -6.4687   -1.6890 H   0  0  0  0  0  0  0  0  0  0  0  0
   -0.1543   -4.6083    0.1480 N   0  0  0  0  0  0  0  0  0  0  0  0
   -0.3302   -3.4398    0.9696 C   0  0  2  0  0  0  0  0  0  0  0  0
    0.2328   -2.2439    0.2131 C   0  0  0  0  0  0  0  0  0  0  0  0
    1.2097   -2.3192   -0.5294 O   0  0  0  0  0  0  0  0  0  0  0  0
    0.3557   -3.6024    2.3171 C   0  0  0  0  0  0  0  0  0  0  0  0
    0.6584   -4.6506   -0.4643 H   0  0  0  0  0  0  0  0  0  0  0  0
   -1.4091   -3.3101    1.1082 H   0  0  0  0  0  0  0  0  0  0  0  0
    1.4375   -3.7336    2.1985 H   0  0  0  0  0  0  0  0  0  0  0  0
    0.1969   -2.7243    2.9517 H   0  0  0  0  0  0  0  0  0  0  0  0
   -0.0294   -4.4803    2.8470 H   0  0  0  0  0  0  0  0  0  0  0  0
   -0.4616   -1.0893    0.5050 N   0  0  0  0  0  0  0  0  0  0  0  0
   -0.0884    0.2050   -0.0621 C   0  0  2  0  0  0  0  0  0  0  0  0
   -0.8025    1.2861    0.7442 C   0  0  0  0  0  0  0  0  0  0  0  0
   -1.9118    1.7231    0.4441 O   0  0  0  0  0  0  0  0  0  0  0  0
   -0.4823    0.3274   -1.5417 C   0  0  0  0  0  0  0  0  0  0  0  0
    0.3195   -0.5979   -2.4629 C   0  0  0  0  0  0  0  0  0  0  0  0
   -0.0952   -0.4181   -3.9258 C   0  0  0  0  0  0  0  0  0  0  0  0
    0.6871   -1.3585   -4.8411 C   0  0  0  0  0  0  0  0  0  0  0  0
    0.2610   -1.1884   -6.2251 N   0  0  0  0  0  0  0  0  0  0  0  0
   -1.2794   -1.1113    1.0935 H   0  0  0  0  0  0  0  0  0  0  0  0
    0.9952    0.3338    0.0469 H   0  0  0  0  0  0  0  0  0  0  0  0
   -0.3353    1.3654   -1.8679 H   0  0  0  0  0  0  0  0  0  0  0  0
   -1.5552    0.1244   -1.6609 H   0  0  0  0  0  0  0  0  0  0  0  0
    0.1666   -1.6438   -2.1740 H   0  0  0  0  0  0  0  0  0  0  0  0
    1.3896   -0.3831   -2.3567 H   0  0  0  0  0  0  0  0  0  0  0  0
   -1.1709   -0.6104   -4.0258 H   0  0  0  0  0  0  0  0  0  0  0  0
    0.0765    0.6223   -4.2295 H   0  0  0  0  0  0  0  0  0  0  0  0
    0.5301   -2.3996   -4.5385 H   0  0  0  0  0  0  0  0  0  0  0  0
    1.7595   -1.1482   -4.7695 H   0  0  0  0  0  0  0  0  0  0  0  0
   -0.4627   -0.5085   -6.2484 H   0  0  0  0  0  0  0  0  0  0  0  0
    1.0425   -0.8846   -6.7575 H   0  0  0  0  0  0  0  0  0  0  0  0
   -0.0446    1.7191    1.8235 N   0  0  0  0  0  0  0  0  0  0  0  0
   -0.4813    2.7524    2.7348 C   0  0  2  0  0  0  0  0  0  0  0  0
    0.7510    3.5078    3.2147 C   0  0  0  0  0  0  0  0  0  0  0  0
    1.8419    2.9691    3.3899 O   0  0  0  0  0  0  0  0  0  0  0  0
   -1.2508    2.1663    3.9082 C   0  0  0  0  0  0  0  0  0  0  0  0
    0.8600    1.2922    1.9997 H   0  0  0  0  0  0  0  0  0  0  0  0
   -1.1246    3.4287    2.1613 H   0  0  0  0  0  0  0  0  0  0  0  0
   -0.6226    1.4860    4.4947 H   0  0  0  0  0  0  0  0  0  0  0  0
   -1.6055    2.9526    4.5826 H   0  0  0  0  0  0  0  0  0  0  0  0
   -2.1201    1.5983    3.5596 H   0  0  0  0  0  0  0  0  0  0  0  0
    0.4784    4.8453    3.4657 N   0  0  0  0  0  0  0  0  0  0  0  0
    1.4734    5.7623    3.9705 C   0  0  0  0  0  0  0  0  0  0  0  0
   -0.4435    5.2156    3.2542 H   0  0  0  0  0  0  0  0  0  0  0  0
    1.4220    5.7917    5.0689 H   0  0  0  0  0  0  0  0  0  0  0  0
    2.4734    5.4260    3.6593 H   0  0  0  0  0  0  0  0  0  0  0  0
    1.2830    6.7680    3.5677 H   0  0  0  0  0  0  0  0  0  0  0  0
  1  3  1  0  0  0  0
  1  7  1  0  0  0  0
  1  2  2  0  0  0  0
 39 40  1  0  0  0  0
 40 48  1  0  0  0  0
 40 41  2  0  0  0  0
  8  9  1  0  0  0  0
  9 17  1  0  0  0  0
  9 10  2  0  0  0  0
 18 19  1  0  0  0  0
 19 38  1  0  0  0  0
 19 20  2  0  0  0  0
 39 42  1  0  0  0  0
  8 11  1  0  0  0  0
 48 49  1  0  0  0  0
 22 23  1  0  0  0  0
 21 22  1  0  0  0  0
 23 24  1  0  0  0  0
 18 21  1  0  0  0  0
 24 25  1  0  0  0  0
 38 39  1  0  0  0  0
  7  8  1  0  0  0  0
 17 18  1  0  0  0  0
  3  4  1  0  0  0  0
  3  5  1  0  0  0  0
  3  6  1  0  0  0  0
 42 45  1  0  0  0  0
 42 46  1  0  0  0  0
 42 47  1  0  0  0  0
 11 14  1  0  0  0  0
 11 15  1  0  0  0  0
 11 16  1  0  0  0  0
 49 51  1  0  0  0  0
 49 52  1  0  0  0  0
 49 53  1  0  0  0  0
 22 30  1  0  0  0  0
 22 31  1  0  0  0  0
 23 32  1  0  0  0  0
 23 33  1  0  0  0  0
 21 28  1  0  0  0  0
 21 29  1  0  0  0  0
 24 34  1  0  0  0  0
 24 35  1  0  0  0  0
 39 44  1  0  0  0  0
  8 13  1  0  0  0  0
 18 27  1  0  0  0  0
 25 36  1  0  0  0  0
 25 37  1  0  0  0  0
 48 50  1  0  0  0  0
  7 12  1  0  0  0  0
 38 43  1  0  0  0  0
 17 26  1  0  0  0  0
M  END
$$$$

  -OEChem-05262214473D

 53 52  0     1  0  0  0  0  0999 V2000
   -1.0338   -5.6785    0.1476 C   0  0  0  0  0  0  0  0  0  0  0  0
   -2.0514   -5.7797    0.8227 O   0  0  0  0  0  0  0  0  0  0  0  0
   -0.6558   -6.7819   -0.7841 C   0  0  0  0  0  0  0  0  0  0  0  0
   -0.0111   -7.5354   -0.3038 H   0  0  0  0  0  0  0  0  0  0  0  0
   -1.5317   -7.3401   -1.1520 H   0  0  0  0  0  0  0  0  0  0  0  0
   -0.1109   -6.4687   -1.6890 H   0  0  0  0  0  0  0  0  0  0  0  0
   -0.1543   -4.6083    0.1480 N   0  0  0  0  0  0  0  0  0  0  0  0
   -0.3302   -3.4398    0.9696 C   0  0  2  0  0  0  0  0  0  0  0  0
    0.2328   -2.2439    0.2131 C   0  0  0  0  0  0  0  0  0  0  0  0
    1.2097   -2.3192   -0.5294 O   0  0  0  0  0  0  0  0  0  0  0  0
    0.3557   -3.6024    2.3171 C   0  0  0  0  0  0  0  0  0  0  0  0
    0.6584   -4.6506   -0.4643 H   0  0  0  0  0  0  0  0  0  0  0  0
   -1.4091   -3.3101    1.1082 H   0  0  0  0  0  0  0  0  0  0  0  0
    1.4375   -3.7336    2.1985 H   0  0  0  0  0  0  0  0  0  0  0  0
    0.1969   -2.7243    2.9517 H   0  0  0  0  0  0  0  0  0  0  0  0
   -0.0294   -4.4803    2.8470 H   0  0  0  0  0  0  0  0  0  0  0  0
   -0.4616   -1.0893    0.5050 N   0  0  0  0  0  0  0  0  0  0  0  0
   -0.0884    0.2050   -0.0621 C   0  0  2  0  0  0  0  0  0  0  0  0
   -0.8025    1.2861    0.7442 C   0  0  0  0  0  0  0  0  0  0  0  0
   -1.9994    1.5363    0.6169 O   0  0  0  0  0  0  0  0  0  0  0  0
   -0.4823    0.3274   -1.5417 C   0  0  0  0  0  0  0  0  0  0  0  0
    0.3195   -0.5979   -2.4629 C   0  0  0  0  0  0  0  0  0  0  0  0
   -0.0952   -0.4181   -3.9258 C   0  0  0  0  0  0  0  0  0  0  0  0
    0.6871   -1.3585   -4.8411 C   0  0  0  0  0  0  0  0  0  0  0  0
    0.2610   -1.1884   -6.2251 N   0  0  0  0  0  0  0  0  0  0  0  0
   -1.2794   -1.1113    1.0935 H   0  0  0  0  0  0  0  0  0  0  0  0
    0.9952    0.3338    0.0469 H   0  0  0  0  0  0  0  0  0  0  0  0
   -0.3353    1.3654   -1.8679 H   0  0  0  0  0  0  0  0  0  0  0  0
   -1.5552    0.1244   -1.6609 H   0  0  0  0  0  0  0  0  0  0  0  0
    0.1666   -1.6438   -2.1740 H   0  0  0  0  0  0  0  0  0  0  0  0
    1.3896   -0.3831   -2.3567 H   0  0  0  0  0  0  0  0  0  0  0  0
   -1.1709   -0.6104   -4.0258 H   0  0  0  0  0  0  0  0  0  0  0  0
    0.0765    0.6223   -4.2295 H   0  0  0  0  0  0  0  0  0  0  0  0
    0.5301   -2.3996   -4.5385 H   0  0  0  0  0  0  0  0  0  0  0  0
    1.7595   -1.1482   -4.7695 H   0  0  0  0  0  0  0  0  0  0  0  0
   -0.4627   -0.5085   -6.2484 H   0  0  0  0  0  0  0  0  0  0  0  0
    1.0425   -0.8846   -6.7575 H   0  0  0  0  0  0  0  0  0  0  0  0
    0.0599    1.9513    1.6048 N   0  0  0  0  0  0  0  0  0  0  0  0
   -0.3587    3.0343    2.4654 C   0  0  2  0  0  0  0  0  0  0  0  0
    0.8129    3.9957    2.6154 C   0  0  0  0  0  0  0  0  0  0  0  0
    1.9852    3.6265    2.6354 O   0  0  0  0  0  0  0  0  0  0  0  0
   -0.8157    2.5186    3.8211 C   0  0  0  0  0  0  0  0  0  0  0  0
    1.0345    1.6687    1.6494 H   0  0  0  0  0  0  0  0  0  0  0  0
   -1.1853    3.5416    1.9561 H   0  0  0  0  0  0  0  0  0  0  0  0
   -0.0009    2.0072    4.3464 H   0  0  0  0  0  0  0  0  0  0  0  0
   -1.1594    3.3374    4.4618 H   0  0  0  0  0  0  0  0  0  0  0  0
   -1.6388    1.8046    3.7093 H   0  0  0  0  0  0  0  0  0  0  0  0
    0.3934    5.3099    2.7675 N   0  0  0  0  0  0  0  0  0  0  0  0
    1.3145    6.4038    2.9698 C   0  0  0  0  0  0  0  0  0  0  0  0
   -0.5957    5.5299    2.6979 H   0  0  0  0  0  0  0  0  0  0  0  0
    1.4523    6.5732    4.0479 H   0  0  0  0  0  0  0  0  0  0  0  0
    2.2833    6.1569    2.5108 H   0  0  0  0  0  0  0  0  0  0  0  0
    0.9098    7.3146    2.5044 H   0  0  0  0  0  0  0  0  0  0  0  0
  1  3  1  0  0  0  0
  1  7  1  0  0  0  0
  1  2  2  0  0  0  0
 39 40  1  0  0  0  0
 40 48  1  0  0  0  0
 40 41  2  0  0  0  0
  8  9  1  0  0  0  0
  9 17  1  0  0  0  0
  9 10  2  0  0  0  0
 18 19  1  0  0  0  0
 19 38  1  0  0  0  0
 19 20  2  0  0  0  0
 39 42  1  0  0  0  0
  8 11  1  0  0  0  0
 48 49  1  0  0  0  0
 22 23  1  0  0  0  0
 21 22  1  0  0  0  0
 23 24  1  0  0  0  0
 18 21  1  0  0  0  0
 24 25  1  0  0  0  0
 38 39  1  0  0  0  0
  7  8  1  0  0  0  0
 17 18  1  0  0  0  0
  3  4  1  0  0  0  0
  3  5  1  0  0  0  0
  3  6  1  0  0  0  0
 42 45  1  0  0  0  0
 42 46  1  0  0  0  0
 42 47  1  0  0  0  0
 11 14  1  0  0  0  0
 11 15  1  0  0  0  0
 11 16  1  0  0  0  0
 49 51  1  0  0  0  0
 49 52  1  0  0  0  0
 49 53  1  0  0  0  0
 22 30  1  0  0  0  0
 22 31  1  0  0  0  0
 23 32  1  0  0  0  0
 23 33  1  0  0  0  0
 21 28  1  0  0  0  0
 21 29  1  0  0  0  0
 24 34  1  0  0  0  0
 24 35  1  0  0  0  0
 39 44  1  0  0  0  0
  8 13  1  0  0  0  0
 18 27  1  0  0  0  0
 25 36  1  0  0  0  0
 25 37  1  0  0  0  0
 48 50  1  0  0  0  0
  7 12  1  0  0  0  0
 38 43  1  0  0  0  0
 17 26  1  0  0  0  0
M  END
$$$$

  -OEChem-05262214473D

 53 52  0     1  0  0  0  0  0999 V2000
   -1.0338   -5.6785    0.1476 C   0  0  0  0  0  0  0  0  0  0  0  0
   -2.0514   -5.7797    0.8227 O   0  0  0  0  0  0  0  0  0  0  0  0
   -0.6558   -6.7819   -0.7841 C   0  0  0  0  0  0  0  0  0  0  0  0
   -0.0111   -7.5354   -0.3038 H   0  0  0  0  0  0  0  0  0  0  0  0
   -1.5317   -7.3401   -1.1520 H   0  0  0  0  0  0  0  0  0  0  0  0
   -0.1109   -6.4687   -1.6890 H   0  0  0  0  0  0  0  0  0  0  0  0
   -0.1543   -4.6083    0.1480 N   0  0  0  0  0  0  0  0  0  0  0  0
   -0.3302   -3.4398    0.9696 C   0  0  2  0  0  0  0  0  0  0  0  0
    0.2328   -2.2439    0.2131 C   0  0  0  0  0  0  0  0  0  0  0  0
    1.2097   -2.3192   -0.5294 O   0  0  0  0  0  0  0  0  0  0  0  0
    0.3557   -3.6024    2.3171 C   0  0  0  0  0  0  0  0  0  0  0  0
    0.6584   -4.6506   -0.4643 H   0  0  0  0  0  0  0  0  0  0  0  0
   -1.4091   -3.3101    1.1082 H   0  0  0  0  0  0  0  0  0  0  0  0
    1.4375   -3.7336    2.1985 H   0  0  0  0  0  0  0  0  0  0  0  0
    0.1969   -2.7243    2.9517 H   0  0  0  0  0  0  0  0  0  0  0  0
   -0.0294   -4.4803    2.8470 H   0  0  0  0  0  0  0  0  0  0  0  0
   -0.4616   -1.0893    0.5050 N   0  0  0  0  0  0  0  0  0  0  0  0
   -0.0884    0.2050   -0.0621 C   0  0  2  0  0  0  0  0  0  0  0  0
   -0.8025    1.2861    0.7442 C   0  0  0  0  0  0  0  0  0  0  0  0
   -2.0269    1.3649    0.8224 O   0  0  0  0  0  0  0  0  0  0  0  0
   -0.4823    0.3274   -1.5417 C   0  0  0  0  0  0  0  0  0  0  0  0
    0.3195   -0.5979   -2.4629 C   0  0  0  0  0  0  0  0  0  0  0  0
   -0.0952   -0.4181   -3.9258 C   0  0  0  0  0  0  0  0  0  0  0  0
    0.6871   -1.3585   -4.8411 C   0  0  0  0  0  0  0  0  0  0  0  0
    0.2610   -1.1884   -6.2251 N   0  0  0  0  0  0  0  0  0  0  0  0
   -1.2794   -1.1113    1.0935 H   0  0  0  0  0  0  0  0  0  0  0  0
    0.9952    0.3338    0.0469 H   0  0  0  0  0  0  0  0  0  0  0  0
   -0.3353    1.3654   -1.8679 H   0  0  0  0  0  0  0  0  0  0  0  0
   -1.5552    0.1244   -1.6609 H   0  0  0  0  0  0  0  0  0  0  0  0
    0.1666   -1.6438   -2.1740 H   0  0  0  0  0  0  0  0  0  0  0  0
    1.3896   -0.3831   -2.3567 H   0  0  0  0  0  0  0  0  0  0  0  0
   -1.1709   -0.6104   -4.0258 H   0  0  0  0  0  0  0  0  0  0  0  0
    0.0765    0.6223   -4.2295 H   0  0  0  0  0  0  0  0  0  0  0  0
    0.5301   -2.3996   -4.5385 H   0  0  0  0  0  0  0  0  0  0  0  0
    1.7595   -1.1482   -4.7695 H   0  0  0  0  0  0  0  0  0  0  0  0
   -0.4627   -0.5085   -6.2484 H   0  0  0  0  0  0  0  0  0  0  0  0
    1.0425   -0.8846   -6.7575 H   0  0  0  0  0  0  0  0  0  0  0  0
    0.0890    2.1634    1.3461 N   0  0  0  0  0  0  0  0  0  0  0  0
   -0.3283    3.2907    2.1486 C   0  0  2  0  0  0  0  0  0  0  0  0
    0.6961    4.4028    1.9660 C   0  0  0  0  0  0  0  0  0  0  0  0
    1.8954    4.1896    1.8008 O   0  0  0  0  0  0  0  0  0  0  0  0
   -0.4596    2.9079    3.6145 C   0  0  0  0  0  0  0  0  0  0  0  0
    1.0873    2.0139    1.2334 H   0  0  0  0  0  0  0  0  0  0  0  0
   -1.2970    3.6175    1.7553 H   0  0  0  0  0  0  0  0  0  0  0  0
    0.5012    2.5778    4.0261 H   0  0  0  0  0  0  0  0  0  0  0  0
   -0.8033    3.7555    4.2167 H   0  0  0  0  0  0  0  0  0  0  0  0
   -1.1746    2.0878    3.7407 H   0  0  0  0  0  0  0  0  0  0  0  0
    0.1199    5.6624    2.0525 N   0  0  0  0  0  0  0  0  0  0  0  0
    0.8899    6.8804    1.9546 C   0  0  0  0  0  0  0  0  0  0  0  0
   -0.8877    5.7453    2.1504 H   0  0  0  0  0  0  0  0  0  0  0  0
    1.1875    7.2086    2.9614 H   0  0  0  0  0  0  0  0  0  0  0  0
    1.7891    6.6978    1.3479 H   0  0  0  0  0  0  0  0  0  0  0  0
    0.2797    7.6627    1.4795 H   0  0  0  0  0  0  0  0  0  0  0  0
  1  3  1  0  0  0  0
  1  7  1  0  0  0  0
  1  2  2  0  0  0  0
 39 40  1  0  0  0  0
 40 48  1  0  0  0  0
 40 41  2  0  0  0  0
  8  9  1  0  0  0  0
  9 17  1  0  0  0  0
  9 10  2  0  0  0  0
 18 19  1  0  0  0  0
 19 38  1  0  0  0  0
 19 20  2  0  0  0  0
 39 42  1  0  0  0  0
  8 11  1  0  0  0  0
 48 49  1  0  0  0  0
 22 23  1  0  0  0  0
 21 22  1  0  0  0  0
 23 24  1  0  0  0  0
 18 21  1  0  0  0  0
 24 25  1  0  0  0  0
 38 39  1  0  0  0  0
  7  8  1  0  0  0  0
 17 18  1  0  0  0  0
  3  4  1  0  0  0  0
  3  5  1  0  0  0  0
  3  6  1  0  0  0  0
 42 45  1  0  0  0  0
 42 46  1  0  0  0  0
 42 47  1  0  0  0  0
 11 14  1  0  0  0  0
 11 15  1  0  0  0  0
 11 16  1  0  0  0  0
 49 51  1  0  0  0  0
 49 52  1  0  0  0  0
 49 53  1  0  0  0  0
 22 30  1  0  0  0  0
 22 31  1  0  0  0  0
 23 32  1  0  0  0  0
 23 33  1  0  0  0  0
 21 28  1  0  0  0  0
 21 29  1  0  0  0  0
 24 34  1  0  0  0  0
 24 35  1  0  0  0  0
 39 44  1  0  0  0  0
  8 13  1  0  0  0  0
 18 27  1  0  0  0  0
 25 36  1  0  0  0  0
 25 37  1  0  0  0  0
 48 50  1  0  0  0  0
  7 12  1  0  0  0  0
 38 43  1  0  0  0  0
 17 26  1  0  0  0  0
M  END
$$$$

  -OEChem-05262214473D

 53 52  0     1  0  0  0  0  0999 V2000
   -1.0338   -5.6785    0.1476 C   0  0  0  0  0  0  0  0  0  0  0  0
   -2.0514   -5.7797    0.8227 O   0  0  0  0  0  0  0  0  0  0  0  0
   -0.6558   -6.7819   -0.7841 C   0  0  0  0  0  0  0  0  0  0  0  0
   -0.0111   -7.5354   -0.3038 H   0  0  0  0  0  0  0  0  0  0  0  0
   -1.5317   -7.3401   -1.1520 H   0  0  0  0  0  0  0  0  0  0  0  0
   -0.1109   -6.4687   -1.6890 H   0  0  0  0  0  0  0  0  0  0  0  0
   -0.1543   -4.6083    0.1480 N   0  0  0  0  0  0  0  0  0  0  0  0
   -0.3302   -3.4398    0.9696 C   0  0  2  0  0  0  0  0  0  0  0  0
    0.2328   -2.2439    0.2131 C   0  0  0  0  0  0  0  0  0  0  0  0
    1.2097   -2.3192   -0.5294 O   0  0  0  0  0  0  0  0  0  0  0  0
    0.3557   -3.6024    2.3171 C   0  0  0  0  0  0  0  0  0  0  0  0
    0.6584   -4.6506   -0.4643 H   0  0  0  0  0  0  0  0  0  0  0  0
   -1.4091   -3.3101    1.1082 H   0  0  0  0  0  0  0  0  0  0  0  0
    1.4375   -3.7336    2.1985 H   0  0  0  0  0  0  0  0  0  0  0  0
    0.1969   -2.7243    2.9517 H   0  0  0  0  0  0  0  0  0  0  0  0
   -0.0294   -4.4803    2.8470 H   0  0  0  0  0  0  0  0  0  0  0  0
   -0.4616   -1.0893    0.5050 N   0  0  0  0  0  0  0  0  0  0  0  0
   -0.0884    0.2050   -0.0621 C   0  0  2  0  0  0  0  0  0  0  0  0
   -0.8025    1.2861    0.7442 C   0  0  0  0  0  0  0  0  0  0  0  0
   -1.9923    1.2204    1.0468 O   0  0  0  0  0  0  0  0  0  0  0  0
   -0.4823    0.3274   -1.5417 C   0  0  0  0  0  0  0  0  0  0  0  0
    0.3195   -0.5979   -2.4629 C   0  0  0  0  0  0  0  0  0  0  0  0
   -0.0952   -0.4181   -3.9258 C   0  0  0  0  0  0  0  0  0  0  0  0
    0.6871   -1.3585   -4.8411 C   0  0  0  0  0  0  0  0  0  0  0  0
    0.2610   -1.1884   -6.2251 N   0  0  0  0  0  0  0  0  0  0  0  0
   -1.2794   -1.1113    1.0935 H   0  0  0  0  0  0  0  0  0  0  0  0
    0.9952    0.3338    0.0469 H   0  0  0  0  0  0  0  0  0  0  0  0
   -0.3353    1.3654   -1.8679 H   0  0  0  0  0  0  0  0  0  0  0  0
   -1.5552    0.1244   -1.6609 H   0  0  0  0  0  0  0  0  0  0  0  0
    0.1666   -1.6438   -2.1740 H   0  0  0  0  0  0  0  0  0  0  0  0
    1.3896   -0.3831   -2.3567 H   0  0  0  0  0  0  0  0  0  0  0  0
   -1.1709   -0.6104   -4.0258 H   0  0  0  0  0  0  0  0  0  0  0  0
    0.0765    0.6223   -4.2295 H   0  0  0  0  0  0  0  0  0  0  0  0
    0.5301   -2.3996   -4.5385 H   0  0  0  0  0  0  0  0  0  0  0  0
    1.7595   -1.1482   -4.7695 H   0  0  0  0  0  0  0  0  0  0  0  0
   -0.4627   -0.5085   -6.2484 H   0  0  0  0  0  0  0  0  0  0  0  0
    1.0425   -0.8846   -6.7575 H   0  0  0  0  0  0  0  0  0  0  0  0
    0.0407    2.3410    1.0653 N   0  0  0  0  0  0  0  0  0  0  0  0
   -0.3920    3.5042    1.8060 C   0  0  2  0  0  0  0  0  0  0  0  0
    0.4085    4.7015    1.3109 C   0  0  0  0  0  0  0  0  0  0  0  0
    1.5786    4.6203    0.9428 O   0  0  0  0  0  0  0  0  0  0  0  0
   -0.2067    3.3077    3.3025 C   0  0  0  0  0  0  0  0  0  0  0  0
    1.0148    2.3041    0.7801 H   0  0  0  0  0  0  0  0  0  0  0  0
   -1.4522    3.6513    1.5727 H   0  0  0  0  0  0  0  0  0  0  0  0
    0.8494    3.1587    3.5555 H   0  0  0  0  0  0  0  0  0  0  0  0
   -0.5614    4.1783    3.8639 H   0  0  0  0  0  0  0  0  0  0  0  0
   -0.7592    2.4286    3.6516 H   0  0  0  0  0  0  0  0  0  0  0  0
   -0.3237    5.8790    1.3692 N   0  0  0  0  0  0  0  0  0  0  0  0
    0.2284    7.1598    0.9941 C   0  0  0  0  0  0  0  0  0  0  0  0
   -1.2997    5.8472    1.6491 H   0  0  0  0  0  0  0  0  0  0  0  0
    0.6456    7.6545    1.8836 H   0  0  0  0  0  0  0  0  0  0  0  0
    1.0245    7.0119    0.2497 H   0  0  0  0  0  0  0  0  0  0  0  0
   -0.5645    7.7887    0.5630 H   0  0  0  0  0  0  0  0  0  0  0  0
  1  3  1  0  0  0  0
  1  7  1  0  0  0  0
  1  2  2  0  0  0  0
 39 40  1  0  0  0  0
 40 48  1  0  0  0  0
 40 41  2  0  0  0  0
  8  9  1  0  0  0  0
  9 17  1  0  0  0  0
  9 10  2  0  0  0  0
 18 19  1  0  0  0  0
 19 38  1  0  0  0  0
 19 20  2  0  0  0  0
 39 42  1  0  0  0  0
  8 11  1  0  0  0  0
 48 49  1  0  0  0  0
 22 23  1  0  0  0  0
 21 22  1  0  0  0  0
 23 24  1  0  0  0  0
 18 21  1  0  0  0  0
 24 25  1  0  0  0  0
 38 39  1  0  0  0  0
  7  8  1  0  0  0  0
 17 18  1  0  0  0  0
  3  4  1  0  0  0  0
  3  5  1  0  0  0  0
  3  6  1  0  0  0  0
 42 45  1  0  0  0  0
 42 46  1  0  0  0  0
 42 47  1  0  0  0  0
 11 14  1  0  0  0  0
 11 15  1  0  0  0  0
 11 16  1  0  0  0  0
 49 51  1  0  0  0  0
 49 52  1  0  0  0  0
 49 53  1  0  0  0  0
 22 30  1  0  0  0  0
 22 31  1  0  0  0  0
 23 32  1  0  0  0  0
 23 33  1  0  0  0  0
 21 28  1  0  0  0  0
 21 29  1  0  0  0  0
 24 34  1  0  0  0  0
 24 35  1  0  0  0  0
 39 44  1  0  0  0  0
  8 13  1  0  0  0  0
 18 27  1  0  0  0  0
 25 36  1  0  0  0  0
 25 37  1  0  0  0  0
 48 50  1  0  0  0  0
  7 12  1  0  0  0  0
 38 43  1  0  0  0  0
 17 26  1  0  0  0  0
M  END
$$$$

  -OEChem-05262214473D

 53 52  0     1  0  0  0  0  0999 V2000
   -1.0338   -5.6785    0.1476 C   0  0  0  0  0  0  0  0  0  0  0  0
   -2.0514   -5.7797    0.8227 O   0  0  0  0  0  0  0  0  0  0  0  0
   -0.6558   -6.7819   -0.7841 C   0  0  0  0  0  0  0  0  0  0  0  0
   -0.0111   -7.5354   -0.3038 H   0  0  0  0  0  0  0  0  0  0  0  0
   -1.5317   -7.3401   -1.1520 H   0  0  0  0  0  0  0  0  0  0  0  0
   -0.1109   -6.4687   -1.6890 H   0  0  0  0  0  0  0  0  0  0  0  0
   -0.1543   -4.6083    0.1480 N   0  0  0  0  0  0  0  0  0  0  0  0
   -0.3302   -3.4398    0.9696 C   0  0  2  0  0  0  0  0  0  0  0  0
    0.2328   -2.2439    0.2131 C   0  0  0  0  0  0  0  0  0  0  0  0
    1.2097   -2.3192   -0.5294 O   0  0  0  0  0  0  0  0  0  0  0  0
    0.3557   -3.6024    2.3171 C   0  0  0  0  0  0  0  0  0  0  0  0
    0.6584   -4.6506   -0.4643 H   0  0  0  0  0  0  0  0  0  0  0  0
   -1.4091   -3.3101    1.1082 H   0  0  0  0  0  0  0  0  0  0  0  0
    1.4375   -3.7336    2.1985 H   0  0  0  0  0  0  0  0  0  0  0  0
    0.1969   -2.7243    2.9517 H   0  0  0  0  0  0  0  0  0  0  0  0
   -0.0294   -4.4803    2.8470 H   0  0  0  0  0  0  0  0  0  0  0  0
   -0.4616   -1.0893    0.5050 N   0  0  0  0  0  0  0  0  0  0  0  0
   -0.0884    0.2050   -0.0621 C   0  0  2  0  0  0  0  0  0  0  0  0
   -0.8025    1.2861    0.7442 C   0  0  0  0  0  0  0  0  0  0  0  0
   -1.8979    1.1127    1.2747 O   0  0  0  0  0  0  0  0  0  0  0  0
   -0.4823    0.3274   -1.5417 C   0  0  0  0  0  0  0  0  0  0  0  0
    0.3195   -0.5979   -2.4629 C   0  0  0  0  0  0  0  0  0  0  0  0
   -0.0952   -0.4181   -3.9258 C   0  0  0  0  0  0  0  0  0  0  0  0
    0.6871   -1.3585   -4.8411 C   0  0  0  0  0  0  0  0  0  0  0  0
    0.2610   -1.1884   -6.2251 N   0  0  0  0  0  0  0  0  0  0  0  0
   -1.2794   -1.1113    1.0935 H   0  0  0  0  0  0  0  0  0  0  0  0
    0.9952    0.3338    0.0469 H   0  0  0  0  0  0  0  0  0  0  0  0
   -0.3353    1.3654   -1.8679 H   0  0  0  0  0  0  0  0  0  0  0  0
   -1.5552    0.1244   -1.6609 H   0  0  0  0  0  0  0  0  0  0  0  0
    0.1666   -1.6438   -2.1740 H   0  0  0  0  0  0  0  0  0  0  0  0
    1.3896   -0.3831   -2.3567 H   0  0  0  0  0  0  0  0  0  0  0  0
   -1.1709   -0.6104   -4.0258 H   0  0  0  0  0  0  0  0  0  0  0  0
    0.0765    0.6223   -4.2295 H   0  0  0  0  0  0  0  0  0  0  0  0
    0.5301   -2.3996   -4.5385 H   0  0  0  0  0  0  0  0  0  0  0  0
    1.7595   -1.1482   -4.7695 H   0  0  0  0  0  0  0  0  0  0  0  0
   -0.4627   -0.5085   -6.2484 H   0  0  0  0  0  0  0  0  0  0  0  0
    1.0425   -0.8846   -6.7575 H   0  0  0  0  0  0  0  0  0  0  0  0
   -0.0817    2.4718    0.7814 N   0  0  0  0  0  0  0  0  0  0  0  0
   -0.5455    3.6601    1.4608 C   0  0  2  0  0  0  0  0  0  0  0  0
   -0.0302    4.8713    0.6947 C   0  0  0  0  0  0  0  0  0  0  0  0
    1.0563    4.8890    0.1200 O   0  0  0  0  0  0  0  0  0  0  0  0
   -0.0743    3.6906    2.9064 C   0  0  0  0  0  0  0  0  0  0  0  0
    0.8220    2.5196    0.3204 H   0  0  0  0  0  0  0  0  0  0  0  0
   -1.6401    3.6405    1.4207 H   0  0  0  0  0  0  0  0  0  0  0  0
    1.0199    3.7105    2.9668 H   0  0  0  0  0  0  0  0  0  0  0  0
   -0.4503    4.5771    3.4277 H   0  0  0  0  0  0  0  0  0  0  0  0
   -0.4210    2.8039    3.4481 H   0  0  0  0  0  0  0  0  0  0  0  0
   -0.9071    5.9448    0.7644 N   0  0  0  0  0  0  0  0  0  0  0  0
   -0.6249    7.2229    0.1538 C   0  0  0  0  0  0  0  0  0  0  0  0
   -1.8034    5.8285    1.2279 H   0  0  0  0  0  0  0  0  0  0  0  0
   -0.1365    7.8806    0.8878 H   0  0  0  0  0  0  0  0  0  0  0  0
    0.0417    7.0777   -0.7090 H   0  0  0  0  0  0  0  0  0  0  0  0
   -1.5652    7.6839   -0.1828 H   0  0  0  0  0  0  0  0  0  0  0  0
  1  3  1  0  0  0  0
  1  7  1  0  0  0  0
  1  2  2  0  0  0  0
 39 40  1  0  0  0  0
 40 48  1  0  0  0  0
 40 41  2  0  0  0  0
  8  9  1  0  0  0  0
  9 17  1  0  0  0  0
  9 10  2  0  0  0  0
 18 19  1  0  0  0  0
 19 38  1  0  0  0  0
 19 20  2  0  0  0  0
 39 42  1  0  0  0  0
  8 11  1  0  0  0  0
 48 49  1  0  0  0  0
 22 23  1  0  0  0  0
 21 22  1  0  0  0  0
 23 24  1  0  0  0  0
 18 21  1  0  0  0  0
 24 25  1  0  0  0  0
 38 39  1  0  0  0  0
  7  8  1  0  0  0  0
 17 18  1  0  0  0  0
  3  4  1  0  0  0  0
  3  5  1  0  0  0  0
  3  6  1  0  0  0  0
 42 45  1  0  0  0  0
 42 46  1  0  0  0  0
 42 47  1  0  0  0  0
 11 14  1  0  0  0  0
 11 15  1  0  0  0  0
 11 16  1  0  0  0  0
 49 51  1  0  0  0  0
 49 52  1  0  0  0  0
 49 53  1  0  0  0  0
 22 30  1  0  0  0  0
 22 31  1  0  0  0  0
 23 32  1  0  0  0  0
 23 33  1  0  0  0  0
 21 28  1  0  0  0  0
 21 29  1  0  0  0  0
 24 34  1  0  0  0  0
 24 35  1  0  0  0  0
 39 44  1  0  0  0  0
  8 13  1  0  0  0  0
 18 27  1  0  0  0  0
 25 36  1  0  0  0  0
 25 37  1  0  0  0  0
 48 50  1  0  0  0  0
  7 12  1  0  0  0  0
 38 43  1  0  0  0  0
 17 26  1  0  0  0  0
M  END
$$$$

  -OEChem-05262214473D

 53 52  0     1  0  0  0  0  0999 V2000
   -1.0338   -5.6785    0.1476 C   0  0  0  0  0  0  0  0  0  0  0  0
   -2.0514   -5.7797    0.8227 O   0  0  0  0  0  0  0  0  0  0  0  0
   -0.6558   -6.7819   -0.7841 C   0  0  0  0  0  0  0  0  0  0  0  0
   -0.0111   -7.5354   -0.3038 H   0  0  0  0  0  0  0  0  0  0  0  0
   -1.5317   -7.3401   -1.1520 H   0  0  0  0  0  0  0  0  0  0  0  0
   -0.1109   -6.4687   -1.6890 H   0  0  0  0  0  0  0  0  0  0  0  0
   -0.1543   -4.6083    0.1480 N   0  0  0  0  0  0  0  0  0  0  0  0
   -0.3302   -3.4398    0.9696 C   0  0  2  0  0  0  0  0  0  0  0  0
    0.2328   -2.2439    0.2131 C   0  0  0  0  0  0  0  0  0  0  0  0
    1.2097   -2.3192   -0.5294 O   0  0  0  0  0  0  0  0  0  0  0  0
    0.3557   -3.6024    2.3171 C   0  0  0  0  0  0  0  0  0  0  0  0
    0.6584   -4.6506   -0.4643 H   0  0  0  0  0  0  0  0  0  0  0  0
   -1.4091   -3.3101    1.1082 H   0  0  0  0  0  0  0  0  0  0  0  0
    1.4375   -3.7336    2.1985 H   0  0  0  0  0  0  0  0  0  0  0  0
    0.1969   -2.7243    2.9517 H   0  0  0  0  0  0  0  0  0  0  0  0
   -0.0294   -4.4803    2.8470 H   0  0  0  0  0  0  0  0  0  0  0  0
   -0.4616   -1.0893    0.5050 N   0  0  0  0  0  0  0  0  0  0  0  0
   -0.0884    0.2050   -0.0621 C   0  0  2  0  0  0  0  0  0  0  0  0
   -0.8025    1.2861    0.7442 C   0  0  0  0  0  0  0  0  0  0  0  0
   -1.7503    1.0493    1.4905 O   0  0  0  0  0  0  0  0  0  0  0  0
   -0.4823    0.3274   -1.5417 C   0  0  0  0  0  0  0  0  0  0  0  0
    0.3195   -0.5979   -2.4629 C   0  0  0  0  0  0  0  0  0  0  0  0
   -0.0952   -0.4181   -3.9258 C   0  0  0  0  0  0  0  0  0  0  0  0
    0.6871   -1.3585   -4.8411 C   0  0  0  0  0  0  0  0  0  0  0  0
    0.2610   -1.1884   -6.2251 N   0  0  0  0  0  0  0  0  0  0  0  0
   -1.2794   -1.1113    1.0935 H   0  0  0  0  0  0  0  0  0  0  0  0
    0.9952    0.3338    0.0469 H   0  0  0  0  0  0  0  0  0  0  0  0
   -0.3353    1.3654   -1.8679 H   0  0  0  0  0  0  0  0  0  0  0  0
   -1.5552    0.1244   -1.6609 H   0  0  0  0  0  0  0  0  0  0  0  0
    0.1666   -1.6438   -2.1740 H   0  0  0  0  0  0  0  0  0  0  0  0
    1.3896   -0.3831   -2.3567 H   0  0  0  0  0  0  0  0  0  0  0  0
   -1.1709   -0.6104   -4.0258 H   0  0  0  0  0  0  0  0  0  0  0  0
    0.0765    0.6223   -4.2295 H   0  0  0  0  0  0  0  0  0  0  0  0
    0.5301   -2.3996   -4.5385 H   0  0  0  0  0  0  0  0  0  0  0  0
    1.7595   -1.1482   -4.7695 H   0  0  0  0  0  0  0  0  0  0  0  0
   -0.4627   -0.5085   -6.2484 H   0  0  0  0  0  0  0  0  0  0  0  0
    1.0425   -0.8846   -6.7575 H   0  0  0  0  0  0  0  0  0  0  0  0
   -0.2699    2.5471    0.5138 N   0  0  0  0  0  0  0  0  0  0  0  0
   -0.7785    3.7480    1.1367 C   0  0  2  0  0  0  0  0  0  0  0  0
   -0.5902    4.9007    0.1593 C   0  0  0  0  0  0  0  0  0  0  0  0
    0.3643    4.9775   -0.6115 O   0  0  0  0  0  0  0  0  0  0  0  0
   -0.0714    4.0306    2.4531 C   0  0  0  0  0  0  0  0  0  0  0  0
    0.5220    2.6457   -0.1144 H   0  0  0  0  0  0  0  0  0  0  0  0
   -1.8480    3.5860    1.3096 H   0  0  0  0  0  0  0  0  0  0  0  0
    1.0013    4.1955    2.3000 H   0  0  0  0  0  0  0  0  0  0  0  0
   -0.4774    4.9247    2.9376 H   0  0  0  0  0  0  0  0  0  0  0  0
   -0.1828    3.1879    3.1440 H   0  0  0  0  0  0  0  0  0  0  0  0
   -1.5905    5.8553    0.2792 N   0  0  0  0  0  0  0  0  0  0  0  0
   -1.6118    7.0654   -0.5090 C   0  0  0  0  0  0  0  0  0  0  0  0
   -2.3646    5.6906    0.9158 H   0  0  0  0  0  0  0  0  0  0  0  0
   -1.1053    7.8715    0.0420 H   0  0  0  0  0  0  0  0  0  0  0  0
   -1.0924    6.8908   -1.4628 H   0  0  0  0  0  0  0  0  0  0  0  0
   -2.6542    7.3555   -0.7070 H   0  0  0  0  0  0  0  0  0  0  0  0
  1  3  1  0  0  0  0
  1  7  1  0  0  0  0
  1  2  2  0  0  0  0
 39 40  1  0  0  0  0
 40 48  1  0  0  0  0
 40 41  2  0  0  0  0
  8  9  1  0  0  0  0
  9 17  1  0  0  0  0
  9 10  2  0  0  0  0
 18 19  1  0  0  0  0
 19 38  1  0  0  0  0
 19 20  2  0  0  0  0
 39 42  1  0  0  0  0
  8 11  1  0  0  0  0
 48 49  1  0  0  0  0
 22 23  1  0  0  0  0
 21 22  1  0  0  0  0
 23 24  1  0  0  0  0
 18 21  1  0  0  0  0
 24 25  1  0  0  0  0
 38 39  1  0  0  0  0
  7  8  1  0  0  0  0
 17 18  1  0  0  0  0
  3  4  1  0  0  0  0
  3  5  1  0  0  0  0
  3  6  1  0  0  0  0
 42 45  1  0  0  0  0
 42 46  1  0  0  0  0
 42 47  1  0  0  0  0
 11 14  1  0  0  0  0
 11 15  1  0  0  0  0
 11 16  1  0  0  0  0
 49 51  1  0  0  0  0
 49 52  1  0  0  0  0
 49 53  1  0  0  0  0
 22 30  1  0  0  0  0
 22 31  1  0  0  0  0
 23 32  1  0  0  0  0
 23 33  1  0  0  0  0
 21 28  1  0  0  0  0
 21 29  1  0  0  0  0
 24 34  1  0  0  0  0
 24 35  1  0  0  0  0
 39 44  1  0  0  0  0
  8 13  1  0  0  0  0
 18 27  1  0  0  0  0
 25 36  1  0  0  0  0
 25 37  1  0  0  0  0
 48 50  1  0  0  0  0
  7 12  1  0  0  0  0
 38 43  1  0  0  0  0
 17 26  1  0  0  0  0
M  END
$$$$

  -OEChem-05262214473D

 53 52  0     1  0  0  0  0  0999 V2000
   -1.0338   -5.6785    0.1476 C   0  0  0  0  0  0  0  0  0  0  0  0
   -2.0514   -5.7797    0.8227 O   0  0  0  0  0  0  0  0  0  0  0  0
   -0.6558   -6.7819   -0.7841 C   0  0  0  0  0  0  0  0  0  0  0  0
   -0.0111   -7.5354   -0.3038 H   0  0  0  0  0  0  0  0  0  0  0  0
   -1.5317   -7.3401   -1.1520 H   0  0  0  0  0  0  0  0  0  0  0  0
   -0.1109   -6.4687   -1.6890 H   0  0  0  0  0  0  0  0  0  0  0  0
   -0.1543   -4.6083    0.1480 N   0  0  0  0  0  0  0  0  0  0  0  0
   -0.3302   -3.4398    0.9696 C   0  0  2  0  0  0  0  0  0  0  0  0
    0.2328   -2.2439    0.2131 C   0  0  0  0  0  0  0  0  0  0  0  0
    1.2097   -2.3192   -0.5294 O   0  0  0  0  0  0  0  0  0  0  0  0
    0.3557   -3.6024    2.3171 C   0  0  0  0  0  0  0  0  0  0  0  0
    0.6584   -4.6506   -0.4643 H   0  0  0  0  0  0  0  0  0  0  0  0
   -1.4091   -3.3101    1.1082 H   0  0  0  0  0  0  0  0  0  0  0  0
    1.4375   -3.7336    2.1985 H   0  0  0  0  0  0  0  0  0  0  0  0
    0.1969   -2.7243    2.9517 H   0  0  0  0  0  0  0  0  0  0  0  0
   -0.0294   -4.4803    2.8470 H   0  0  0  0  0  0  0  0  0  0  0  0
   -0.4616   -1.0893    0.5050 N   0  0  0  0  0  0  0  0  0  0  0  0
   -0.0884    0.2050   -0.0621 C   0  0  2  0  0  0  0  0  0  0  0  0
   -0.4807    1.2817    0.9457 C   0  0  0  0  0  0  0  0  0  0  0  0
   -1.0296    1.0291    2.0165 O   0  0  0  0  0  0  0  0  0  0  0  0
   -0.7907    0.4781   -1.4006 C   0  0  0  0  0  0  0  0  0  0  0  0
   -0.3225   -0.4430   -2.5319 C   0  0  0  0  0  0  0  0  0  0  0  0
   -1.0349   -0.1123   -3.8463 C   0  0  0  0  0  0  0  0  0  0  0  0
   -0.5859   -1.0471   -4.9682 C   0  0  0  0  0  0  0  0  0  0  0  0
   -1.2926   -0.7310   -6.2037 N   0  0  0  0  0  0  0  0  0  0  0  0
   -1.2794   -1.1113    1.0935 H   0  0  0  0  0  0  0  0  0  0  0  0
    0.9992    0.2239   -0.2013 H   0  0  0  0  0  0  0  0  0  0  0  0
   -0.6098    1.5203   -1.6951 H   0  0  0  0  0  0  0  0  0  0  0  0
   -1.8783    0.3854   -1.2778 H   0  0  0  0  0  0  0  0  0  0  0  0
   -0.5183   -1.4896   -2.2727 H   0  0  0  0  0  0  0  0  0  0  0  0
    0.7607   -0.3373   -2.6660 H   0  0  0  0  0  0  0  0  0  0  0  0
   -2.1197   -0.1957   -3.7036 H   0  0  0  0  0  0  0  0  0  0  0  0
   -0.8247    0.9282   -4.1245 H   0  0  0  0  0  0  0  0  0  0  0  0
   -0.7821   -2.0895   -4.6944 H   0  0  0  0  0  0  0  0  0  0  0  0
    0.4912   -0.9434   -5.1366 H   0  0  0  0  0  0  0  0  0  0  0  0
   -1.9250    0.0128   -6.0211 H   0  0  0  0  0  0  0  0  0  0  0  0
   -0.6233   -0.4605   -6.8860 H   0  0  0  0  0  0  0  0  0  0  0  0
   -0.1654    2.5569    0.4973 N   0  0  0  0  0  0  0  0  0  0  0  0
   -0.4517    3.7557    1.2520 C   0  0  2  0  0  0  0  0  0  0  0  0
   -0.7457    4.8754    0.2625 C   0  0  0  0  0  0  0  0  0  0  0  0
   -0.1908    4.9676   -0.8305 O   0  0  0  0  0  0  0  0  0  0  0  0
    0.7082    4.1261    2.1631 C   0  0  0  0  0  0  0  0  0  0  0  0
    0.2975    2.6686   -0.3999 H   0  0  0  0  0  0  0  0  0  0  0  0
   -1.3480    3.5485    1.8468 H   0  0  0  0  0  0  0  0  0  0  0  0
    1.6152    4.3373    1.5850 H   0  0  0  0  0  0  0  0  0  0  0  0
    0.4785    5.0182    2.7552 H   0  0  0  0  0  0  0  0  0  0  0  0
    0.9376    3.3079    2.8543 H   0  0  0  0  0  0  0  0  0  0  0  0
   -1.6689    5.7837    0.7614 N   0  0  0  0  0  0  0  0  0  0  0  0
   -2.0813    6.9582    0.0288 C   0  0  0  0  0  0  0  0  0  0  0  0
   -2.1080    5.6073    1.6602 H   0  0  0  0  0  0  0  0  0  0  0  0
   -1.4460    7.8100    0.3129 H   0  0  0  0  0  0  0  0  0  0  0  0
   -1.9819    6.7706   -1.0505 H   0  0  0  0  0  0  0  0  0  0  0  0
   -3.1305    7.1883    0.2659 H   0  0  0  0  0  0  0  0  0  0  0  0
  1  3  1  0  0  0  0
  1  7  1  0  0  0  0
  1  2  2  0  0  0  0
 39 40  1  0  0  0  0
 40 48  1  0  0  0  0
 40 41  2  0  0  0  0
  8  9  1  0  0  0  0
  9 17  1  0  0  0  0
  9 10  2  0  0  0  0
 18 19  1  0  0  0  0
 19 38  1  0  0  0  0
 19 20  2  0  0  0  0
 39 42  1  0  0  0  0
  8 11  1  0  0  0  0
 48 49  1  0  0  0  0
 22 23  1  0  0  0  0
 21 22  1  0  0  0  0
 23 24  1  0  0  0  0
 18 21  1  0  0  0  0
 24 25  1  0  0  0  0
 38 39  1  0  0  0  0
  7  8  1  0  0  0  0
 17 18  1  0  0  0  0
  3  4  1  0  0  0  0
  3  5  1  0  0  0  0
  3  6  1  0  0  0  0
 42 45  1  0  0  0  0
 42 46  1  0  0  0  0
 42 47  1  0  0  0  0
 11 14  1  0  0  0  0
 11 15  1  0  0  0  0
 11 16  1  0  0  0  0
 49 51  1  0  0  0  0
 49 52  1  0  0  0  0
 49 53  1  0  0  0  0
 22 30  1  0  0  0  0
 22 31  1  0  0  0  0
 23 32  1  0  0  0  0
 23 33  1  0  0  0  0
 21 28  1  0  0  0  0
 21 29  1  0  0  0  0
 24 34  1  0  0  0  0
 24 35  1  0  0  0  0
 39 44  1  0  0  0  0
  8 13  1  0  0  0  0
 18 27  1  0  0  0  0
 25 36  1  0  0  0  0
 25 37  1  0  0  0  0
 48 50  1  0  0  0  0
  7 12  1  0  0  0  0
 38 43  1  0  0  0  0
 17 26  1  0  0  0  0
M  END
$$$$

  -OEChem-05262214473D

 53 52  0     1  0  0  0  0  0999 V2000
   -1.0338   -5.6785    0.1476 C   0  0  0  0  0  0  0  0  0  0  0  0
   -2.0514   -5.7797    0.8227 O   0  0  0  0  0  0  0  0  0  0  0  0
   -0.6558   -6.7819   -0.7841 C   0  0  0  0  0  0  0  0  0  0  0  0
   -0.0111   -7.5354   -0.3038 H   0  0  0  0  0  0  0  0  0  0  0  0
   -1.5317   -7.3401   -1.1520 H   0  0  0  0  0  0  0  0  0  0  0  0
   -0.1109   -6.4687   -1.6890 H   0  0  0  0  0  0  0  0  0  0  0  0
   -0.1543   -4.6083    0.1480 N   0  0  0  0  0  0  0  0  0  0  0  0
   -0.3302   -3.4398    0.9696 C   0  0  2  0  0  0  0  0  0  0  0  0
    0.2328   -2.2439    0.2131 C   0  0  0  0  0  0  0  0  0  0  0  0
    1.2097   -2.3192   -0.5294 O   0  0  0  0  0  0  0  0  0  0  0  0
    0.3557   -3.6024    2.3171 C   0  0  0  0  0  0  0  0  0  0  0  0
    0.6584   -4.6506   -0.4643 H   0  0  0  0  0  0  0  0  0  0  0  0
   -1.4091   -3.3101    1.1082 H   0  0  0  0  0  0  0  0  0  0  0  0
    1.4375   -3.7336    2.1985 H   0  0  0  0  0  0  0  0  0  0  0  0
    0.1969   -2.7243    2.9517 H   0  0  0  0  0  0  0  0  0  0  0  0
   -0.0294   -4.4803    2.8470 H   0  0  0  0  0  0  0  0  0  0  0  0
   -0.4616   -1.0893    0.5050 N   0  0  0  0  0  0  0  0  0  0  0  0
   -0.0884    0.2050   -0.0621 C   0  0  2  0  0  0  0  0  0  0  0  0
   -0.4807    1.2817    0.9457 C   0  0  0  0  0  0  0  0  0  0  0  0
   -0.7781    1.0312    2.1121 O   0  0  0  0  0  0  0  0  0  0  0  0
   -0.7907    0.4781   -1.4006 C   0  0  0  0  0  0  0  0  0  0  0  0
   -0.3225   -0.4430   -2.5319 C   0  0  0  0  0  0  0  0  0  0  0  0
   -1.0349   -0.1123   -3.8463 C   0  0  0  0  0  0  0  0  0  0  0  0
   -0.5859   -1.0471   -4.9682 C   0  0  0  0  0  0  0  0  0  0  0  0
   -1.2926   -0.7310   -6.2037 N   0  0  0  0  0  0  0  0  0  0  0  0
   -1.2794   -1.1113    1.0935 H   0  0  0  0  0  0  0  0  0  0  0  0
    0.9992    0.2239   -0.2013 H   0  0  0  0  0  0  0  0  0  0  0  0
   -0.6098    1.5203   -1.6951 H   0  0  0  0  0  0  0  0  0  0  0  0
   -1.8783    0.3854   -1.2778 H   0  0  0  0  0  0  0  0  0  0  0  0
   -0.5183   -1.4896   -2.2727 H   0  0  0  0  0  0  0  0  0  0  0  0
    0.7607   -0.3373   -2.6660 H   0  0  0  0  0  0  0  0  0  0  0  0
   -2.1197   -0.1957   -3.7036 H   0  0  0  0  0  0  0  0  0  0  0  0
   -0.8247    0.9282   -4.1245 H   0  0  0  0  0  0  0  0  0  0  0  0
   -0.7821   -2.0895   -4.6944 H   0  0  0  0  0  0  0  0  0  0  0  0
    0.4912   -0.9434   -5.1366 H   0  0  0  0  0  0  0  0  0  0  0  0
   -1.9250    0.0128   -6.0211 H   0  0  0  0  0  0  0  0  0  0  0  0
   -0.6233   -0.4605   -6.8860 H   0  0  0  0  0  0  0  0  0  0  0  0
   -0.4806    2.5500    0.3819 N   0  0  0  0  0  0  0  0  0  0  0  0
   -0.8366    3.7434    1.1153 C   0  0  2  0  0  0  0  0  0  0  0  0
   -1.4946    4.7140    0.1434 C   0  0  0  0  0  0  0  0  0  0  0  0
   -1.1669    4.8058   -1.0378 O   0  0  0  0  0  0  0  0  0  0  0  0
    0.3818    4.3737    1.7716 C   0  0  0  0  0  0  0  0  0  0  0  0
   -0.2109    2.6622   -0.5909 H   0  0  0  0  0  0  0  0  0  0  0  0
   -1.5625    3.4411    1.8780 H   0  0  0  0  0  0  0  0  0  0  0  0
    1.1204    4.6830    1.0231 H   0  0  0  0  0  0  0  0  0  0  0  0
    0.1061    5.2614    2.3504 H   0  0  0  0  0  0  0  0  0  0  0  0
    0.8710    3.6642    2.4478 H   0  0  0  0  0  0  0  0  0  0  0  0
   -2.4610    5.4958    0.7606 N   0  0  0  0  0  0  0  0  0  0  0  0
   -3.1979    6.5217    0.0603 C   0  0  0  0  0  0  0  0  0  0  0  0
   -2.6960    5.3240    1.7338 H   0  0  0  0  0  0  0  0  0  0  0  0
   -2.6834    7.4871    0.1761 H   0  0  0  0  0  0  0  0  0  0  0  0
   -3.2593    6.2648   -1.0075 H   0  0  0  0  0  0  0  0  0  0  0  0
   -4.2125    6.5947    0.4788 H   0  0  0  0  0  0  0  0  0  0  0  0
  1  3  1  0  0  0  0
  1  7  1  0  0  0  0
  1  2  2  0  0  0  0
 39 40  1  0  0  0  0
 40 48  1  0  0  0  0
 40 41  2  0  0  0  0
  8  9  1  0  0  0  0
  9 17  1  0  0  0  0
  9 10  2  0  0  0  0
 18 19  1  0  0  0  0
 19 38  1  0  0  0  0
 19 20  2  0  0  0  0
 39 42  1  0  0  0  0
  8 11  1  0  0  0  0
 48 49  1  0  0  0  0
 22 23  1  0  0  0  0
 21 22  1  0  0  0  0
 23 24  1  0  0  0  0
 18 21  1  0  0  0  0
 24 25  1  0  0  0  0
 38 39  1  0  0  0  0
  7  8  1  0  0  0  0
 17 18  1  0  0  0  0
  3  4  1  0  0  0  0
  3  5  1  0  0  0  0
  3  6  1  0  0  0  0
 42 45  1  0  0  0  0
 42 46  1  0  0  0  0
 42 47  1  0  0  0  0
 11 14  1  0  0  0  0
 11 15  1  0  0  0  0
 11 16  1  0  0  0  0
 49 51  1  0  0  0  0
 49 52  1  0  0  0  0
 49 53  1  0  0  0  0
 22 30  1  0  0  0  0
 22 31  1  0  0  0  0
 23 32  1  0  0  0  0
 23 33  1  0  0  0  0
 21 28  1  0  0  0  0
 21 29  1  0  0  0  0
 24 34  1  0  0  0  0
 24 35  1  0  0  0  0
 39 44  1  0  0  0  0
  8 13  1  0  0  0  0
 18 27  1  0  0  0  0
 25 36  1  0  0  0  0
 25 37  1  0  0  0  0
 48 50  1  0  0  0  0
  7 12  1  0  0  0  0
 38 43  1  0  0  0  0
 17 26  1  0  0  0  0
M  END
$$$$

  -OEChem-05262214473D

 53 52  0     1  0  0  0  0  0999 V2000
   -1.0338   -5.6785    0.1476 C   0  0  0  0  0  0  0  0  0  0  0  0
   -2.0514   -5.7797    0.8227 O   0  0  0  0  0  0  0  0  0  0  0  0
   -0.6558   -6.7819   -0.7841 C   0  0  0  0  0  0  0  0  0  0  0  0
   -0.0111   -7.5354   -0.3038 H   0  0  0  0  0  0  0  0  0  0  0  0
   -1.5317   -7.3401   -1.1520 H   0  0  0  0  0  0  0  0  0  0  0  0
   -0.1109   -6.4687   -1.6890 H   0  0  0  0  0  0  0  0  0  0  0  0
   -0.1543   -4.6083    0.1480 N   0  0  0  0  0  0  0  0  0  0  0  0
   -0.3302   -3.4398    0.9696 C   0  0  2  0  0  0  0  0  0  0  0  0
    0.2328   -2.2439    0.2131 C   0  0  0  0  0  0  0  0  0  0  0  0
    1.2097   -2.3192   -0.5294 O   0  0  0  0  0  0  0  0  0  0  0  0
    0.3557   -3.6024    2.3171 C   0  0  0  0  0  0  0  0  0  0  0  0
    0.6584   -4.6506   -0.4643 H   0  0  0  0  0  0  0  0  0  0  0  0
   -1.4091   -3.3101    1.1082 H   0  0  0  0  0  0  0  0  0  0  0  0
    1.4375   -3.7336    2.1985 H   0  0  0  0  0  0  0  0  0  0  0  0
    0.1969   -2.7243    2.9517 H   0  0  0  0  0  0  0  0  0  0  0  0
   -0.0294   -4.4803    2.8470 H   0  0  0  0  0  0  0  0  0  0  0  0
   -0.4616   -1.0893    0.5050 N   0  0  0  0  0  0  0  0  0  0  0  0
   -0.0884    0.2050   -0.0621 C   0  0  2  0  0  0  0  0  0  0  0  0
   -0.4807    1.2817    0.9457 C   0  0  0  0  0  0  0  0  0  0  0  0
   -0.5181    1.0826    2.1584 O   0  0  0  0  0  0  0  0  0  0  0  0
   -0.7907    0.4781   -1.4006 C   0  0  0  0  0  0  0  0  0  0  0  0
   -0.3225   -0.4430   -2.5319 C   0  0  0  0  0  0  0  0  0  0  0  0
   -1.0349   -0.1123   -3.8463 C   0  0  0  0  0  0  0  0  0  0  0  0
   -0.5859   -1.0471   -4.9682 C   0  0  0  0  0  0  0  0  0  0  0  0
   -1.2926   -0.7310   -6.2037 N   0  0  0  0  0  0  0  0  0  0  0  0
   -1.2794   -1.1113    1.0935 H   0  0  0  0  0  0  0  0  0  0  0  0
    0.9992    0.2239   -0.2013 H   0  0  0  0  0  0  0  0  0  0  0  0
   -0.6098    1.5203   -1.6951 H   0  0  0  0  0  0  0  0  0  0  0  0
   -1.8783    0.3854   -1.2778 H   0  0  0  0  0  0  0  0  0  0  0  0
   -0.5183   -1.4896   -2.2727 H   0  0  0  0  0  0  0  0  0  0  0  0
    0.7607   -0.3373   -2.6660 H   0  0  0  0  0  0  0  0  0  0  0  0
   -2.1197   -0.1957   -3.7036 H   0  0  0  0  0  0  0  0  0  0  0  0
   -0.8247    0.9282   -4.1245 H   0  0  0  0  0  0  0  0  0  0  0  0
   -0.7821   -2.0895   -4.6944 H   0  0  0  0  0  0  0  0  0  0  0  0
    0.4912   -0.9434   -5.1366 H   0  0  0  0  0  0  0  0  0  0  0  0
   -1.9250    0.0128   -6.0211 H   0  0  0  0  0  0  0  0  0  0  0  0
   -0.6233   -0.4605   -6.8860 H   0  0  0  0  0  0  0  0  0  0  0  0
   -0.8049    2.4819    0.3284 N   0  0  0  0  0  0  0  0  0  0  0  0
   -1.2313    3.6566    1.0543 C   0  0  2  0  0  0  0  0  0  0  0  0
   -2.2121    4.4221    0.1759 C   0  0  0  0  0  0  0  0  0  0  0  0
   -2.1200    4.4690   -1.0490 O   0  0  0  0  0  0  0  0  0  0  0  0
   -0.0472    4.5309    1.4366 C   0  0  0  0  0  0  0  0  0  0  0  0
   -0.7357    2.5564   -0.6822 H   0  0  0  0  0  0  0  0  0  0  0  0
   -1.7457    3.3027    1.9544 H   0  0  0  0  0  0  0  0  0  0  0  0
    0.4807    4.8949    0.5476 H   0  0  0  0  0  0  0  0  0  0  0  0
   -0.3691    5.4058    2.0112 H   0  0  0  0  0  0  0  0  0  0  0  0
    0.6716    3.9699    2.0435 H   0  0  0  0  0  0  0  0  0  0  0  0
   -3.1771    5.0821    0.9237 N   0  0  0  0  0  0  0  0  0  0  0  0
   -4.1961    5.9114    0.3237 C   0  0  0  0  0  0  0  0  0  0  0  0
   -3.2021    4.9548    1.9311 H   0  0  0  0  0  0  0  0  0  0  0  0
   -3.8485    6.9546    0.2914 H   0  0  0  0  0  0  0  0  0  0  0  0
   -4.3988    5.5608   -0.6990 H   0  0  0  0  0  0  0  0  0  0  0  0
   -5.1173    5.8504    0.9216 H   0  0  0  0  0  0  0  0  0  0  0  0
  1  3  1  0  0  0  0
  1  7  1  0  0  0  0
  1  2  2  0  0  0  0
 39 40  1  0  0  0  0
 40 48  1  0  0  0  0
 40 41  2  0  0  0  0
  8  9  1  0  0  0  0
  9 17  1  0  0  0  0
  9 10  2  0  0  0  0
 18 19  1  0  0  0  0
 19 38  1  0  0  0  0
 19 20  2  0  0  0  0
 39 42  1  0  0  0  0
  8 11  1  0  0  0  0
 48 49  1  0  0  0  0
 22 23  1  0  0  0  0
 21 22  1  0  0  0  0
 23 24  1  0  0  0  0
 18 21  1  0  0  0  0
 24 25  1  0  0  0  0
 38 39  1  0  0  0  0
  7  8  1  0  0  0  0
 17 18  1  0  0  0  0
  3  4  1  0  0  0  0
  3  5  1  0  0  0  0
  3  6  1  0  0  0  0
 42 45  1  0  0  0  0
 42 46  1  0  0  0  0
 42 47  1  0  0  0  0
 11 14  1  0  0  0  0
 11 15  1  0  0  0  0
 11 16  1  0  0  0  0
 49 51  1  0  0  0  0
 49 52  1  0  0  0  0
 49 53  1  0  0  0  0
 22 30  1  0  0  0  0
 22 31  1  0  0  0  0
 23 32  1  0  0  0  0
 23 33  1  0  0  0  0
 21 28  1  0  0  0  0
 21 29  1  0  0  0  0
 24 34  1  0  0  0  0
 24 35  1  0  0  0  0
 39 44  1  0  0  0  0
  8 13  1  0  0  0  0
 18 27  1  0  0  0  0
 25 36  1  0  0  0  0
 25 37  1  0  0  0  0
 48 50  1  0  0  0  0
  7 12  1  0  0  0  0
 38 43  1  0  0  0  0
 17 26  1  0  0  0  0
M  END
$$$$

  -OEChem-05262214473D

 53 52  0     1  0  0  0  0  0999 V2000
   -1.0338   -5.6785    0.1476 C   0  0  0  0  0  0  0  0  0  0  0  0
   -2.0514   -5.7797    0.8227 O   0  0  0  0  0  0  0  0  0  0  0  0
   -0.6558   -6.7819   -0.7841 C   0  0  0  0  0  0  0  0  0  0  0  0
   -0.0111   -7.5354   -0.3038 H   0  0  0  0  0  0  0  0  0  0  0  0
   -1.5317   -7.3401   -1.1520 H   0  0  0  0  0  0  0  0  0  0  0  0
   -0.1109   -6.4687   -1.6890 H   0  0  0  0  0  0  0  0  0  0  0  0
   -0.1543   -4.6083    0.1480 N   0  0  0  0  0  0  0  0  0  0  0  0
   -0.3302   -3.4398    0.9696 C   0  0  2  0  0  0  0  0  0  0  0  0
    0.2328   -2.2439    0.2131 C   0  0  0  0  0  0  0  0  0  0  0  0
    1.2097   -2.3192   -0.5294 O   0  0  0  0  0  0  0  0  0  0  0  0
    0.3557   -3.6024    2.3171 C   0  0  0  0  0  0  0  0  0  0  0  0
    0.6584   -4.6506   -0.4643 H   0  0  0  0  0  0  0  0  0  0  0  0
   -1.4091   -3.3101    1.1082 H   0  0  0  0  0  0  0  0  0  0  0  0
    1.4375   -3.7336    2.1985 H   0  0  0  0  0  0  0  0  0  0  0  0
    0.1969   -2.7243    2.9517 H   0  0  0  0  0  0  0  0  0  0  0  0
   -0.0294   -4.4803    2.8470 H   0  0  0  0  0  0  0  0  0  0  0  0
   -0.4616   -1.0893    0.5050 N   0  0  0  0  0  0  0  0  0  0  0  0
   -0.0884    0.2050   -0.0621 C   0  0  2  0  0  0  0  0  0  0  0  0
   -0.4807    1.2817    0.9457 C   0  0  0  0  0  0  0  0  0  0  0  0
   -0.2672    1.1799    2.1522 O   0  0  0  0  0  0  0  0  0  0  0  0
   -0.7907    0.4781   -1.4006 C   0  0  0  0  0  0  0  0  0  0  0  0
   -0.3225   -0.4430   -2.5319 C   0  0  0  0  0  0  0  0  0  0  0  0
   -1.0349   -0.1123   -3.8463 C   0  0  0  0  0  0  0  0  0  0  0  0
   -0.5859   -1.0471   -4.9682 C   0  0  0  0  0  0  0  0  0  0  0  0
   -1.2926   -0.7310   -6.2037 N   0  0  0  0  0  0  0  0  0  0  0  0
   -1.2794   -1.1113    1.0935 H   0  0  0  0  0  0  0  0  0  0  0  0
    0.9992    0.2239   -0.2013 H   0  0  0  0  0  0  0  0  0  0  0  0
   -0.6098    1.5203   -1.6951 H   0  0  0  0  0  0  0  0  0  0  0  0
   -1.8783    0.3854   -1.2778 H   0  0  0  0  0  0  0  0  0  0  0  0
   -0.5183   -1.4896   -2.2727 H   0  0  0  0  0  0  0  0  0  0  0  0
    0.7607   -0.3373   -2.6660 H   0  0  0  0  0  0  0  0  0  0  0  0
   -2.1197   -0.1957   -3.7036 H   0  0  0  0  0  0  0  0  0  0  0  0
   -0.8247    0.9282   -4.1245 H   0  0  0  0  0  0  0  0  0  0  0  0
   -0.7821   -2.0895   -4.6944 H   0  0  0  0  0  0  0  0  0  0  0  0
    0.4912   -0.9434   -5.1366 H   0  0  0  0  0  0  0  0  0  0  0  0
   -1.9250    0.0128   -6.0211 H   0  0  0  0  0  0  0  0  0  0  0  0
   -0.6233   -0.4605   -6.8860 H   0  0  0  0  0  0  0  0  0  0  0  0
   -1.1163    2.3571    0.3405 N   0  0  0  0  0  0  0  0  0  0  0  0
   -1.6089    3.5012    1.0733 C   0  0  2  0  0  0  0  0  0  0  0  0
   -2.8493    4.0196    0.3577 C   0  0  0  0  0  0  0  0  0  0  0  0
   -2.9850    3.9800   -0.8634 O   0  0  0  0  0  0  0  0  0  0  0  0
   -0.5497    4.5872    1.1809 C   0  0  0  0  0  0  0  0  0  0  0  0
   -1.2411    2.3584   -0.6675 H   0  0  0  0  0  0  0  0  0  0  0  0
   -1.8851    3.1429    2.0710 H   0  0  0  0  0  0  0  0  0  0  0  0
   -0.2603    4.9587    0.1911 H   0  0  0  0  0  0  0  0  0  0  0  0
   -0.9147    5.4414    1.7607 H   0  0  0  0  0  0  0  0  0  0  0  0
    0.3529    4.2043    1.6691 H   0  0  0  0  0  0  0  0  0  0  0  0
   -3.7683    4.5710    1.2395 N   0  0  0  0  0  0  0  0  0  0  0  0
   -5.0078    5.1688    0.8009 C   0  0  0  0  0  0  0  0  0  0  0  0
   -3.5919    4.5248    2.2387 H   0  0  0  0  0  0  0  0  0  0  0  0
   -4.8618    6.2487    0.6509 H   0  0  0  0  0  0  0  0  0  0  0  0
   -5.3228    4.7065   -0.1462 H   0  0  0  0  0  0  0  0  0  0  0  0
   -5.7833    5.0064    1.5640 H   0  0  0  0  0  0  0  0  0  0  0  0
  1  3  1  0  0  0  0
  1  7  1  0  0  0  0
  1  2  2  0  0  0  0
 39 40  1  0  0  0  0
 40 48  1  0  0  0  0
 40 41  2  0  0  0  0
  8  9  1  0  0  0  0
  9 17  1  0  0  0  0
  9 10  2  0  0  0  0
 18 19  1  0  0  0  0
 19 38  1  0  0  0  0
 19 20  2  0  0  0  0
 39 42  1  0  0  0  0
  8 11  1  0  0  0  0
 48 49  1  0  0  0  0
 22 23  1  0  0  0  0
 21 22  1  0  0  0  0
 23 24  1  0  0  0  0
 18 21  1  0  0  0  0
 24 25  1  0  0  0  0
 38 39  1  0  0  0  0
  7  8  1  0  0  0  0
 17 18  1  0  0  0  0
  3  4  1  0  0  0  0
  3  5  1  0  0  0  0
  3  6  1  0  0  0  0
 42 45  1  0  0  0  0
 42 46  1  0  0  0  0
 42 47  1  0  0  0  0
 11 14  1  0  0  0  0
 11 15  1  0  0  0  0
 11 16  1  0  0  0  0
 49 51  1  0  0  0  0
 49 52  1  0  0  0  0
 49 53  1  0  0  0  0
 22 30  1  0  0  0  0
 22 31  1  0  0  0  0
 23 32  1  0  0  0  0
 23 33  1  0  0  0  0
 21 28  1  0  0  0  0
 21 29  1  0  0  0  0
 24 34  1  0  0  0  0
 24 35  1  0  0  0  0
 39 44  1  0  0  0  0
  8 13  1  0  0  0  0
 18 27  1  0  0  0  0
 25 36  1  0  0  0  0
 25 37  1  0  0  0  0
 48 50  1  0  0  0  0
  7 12  1  0  0  0  0
 38 43  1  0  0  0  0
 17 26  1  0  0  0  0
M  END
$$$$

  -OEChem-05262214473D

 53 52  0     1  0  0  0  0  0999 V2000
   -1.0338   -5.6785    0.1476 C   0  0  0  0  0  0  0  0  0  0  0  0
   -2.0514   -5.7797    0.8227 O   0  0  0  0  0  0  0  0  0  0  0  0
   -0.6558   -6.7819   -0.7841 C   0  0  0  0  0  0  0  0  0  0  0  0
   -0.0111   -7.5354   -0.3038 H   0  0  0  0  0  0  0  0  0  0  0  0
   -1.5317   -7.3401   -1.1520 H   0  0  0  0  0  0  0  0  0  0  0  0
   -0.1109   -6.4687   -1.6890 H   0  0  0  0  0  0  0  0  0  0  0  0
   -0.1543   -4.6083    0.1480 N   0  0  0  0  0  0  0  0  0  0  0  0
   -0.3302   -3.4398    0.9696 C   0  0  2  0  0  0  0  0  0  0  0  0
    0.2328   -2.2439    0.2131 C   0  0  0  0  0  0  0  0  0  0  0  0
    1.2097   -2.3192   -0.5294 O   0  0  0  0  0  0  0  0  0  0  0  0
    0.3557   -3.6024    2.3171 C   0  0  0  0  0  0  0  0  0  0  0  0
    0.6584   -4.6506   -0.4643 H   0  0  0  0  0  0  0  0  0  0  0  0
   -1.4091   -3.3101    1.1082 H   0  0  0  0  0  0  0  0  0  0  0  0
    1.4375   -3.7336    2.1985 H   0  0  0  0  0  0  0  0  0  0  0  0
    0.1969   -2.7243    2.9517 H   0  0  0  0  0  0  0  0  0  0  0  0
   -0.0294   -4.4803    2.8470 H   0  0  0  0  0  0  0  0  0  0  0  0
   -0.4616   -1.0893    0.5050 N   0  0  0  0  0  0  0  0  0  0  0  0
   -0.0884    0.2050   -0.0621 C   0  0  2  0  0  0  0  0  0  0  0  0
   -0.4807    1.2817    0.9457 C   0  0  0  0  0  0  0  0  0  0  0  0
   -0.0427    1.3162    2.0940 O   0  0  0  0  0  0  0  0  0  0  0  0
   -0.7907    0.4781   -1.4006 C   0  0  0  0  0  0  0  0  0  0  0  0
   -0.3225   -0.4430   -2.5319 C   0  0  0  0  0  0  0  0  0  0  0  0
   -1.0349   -0.1123   -3.8463 C   0  0  0  0  0  0  0  0  0  0  0  0
   -0.5859   -1.0471   -4.9682 C   0  0  0  0  0  0  0  0  0  0  0  0
   -1.2926   -0.7310   -6.2037 N   0  0  0  0  0  0  0  0  0  0  0  0
   -1.2794   -1.1113    1.0935 H   0  0  0  0  0  0  0  0  0  0  0  0
    0.9992    0.2239   -0.2013 H   0  0  0  0  0  0  0  0  0  0  0  0
   -0.6098    1.5203   -1.6951 H   0  0  0  0  0  0  0  0  0  0  0  0
   -1.8783    0.3854   -1.2778 H   0  0  0  0  0  0  0  0  0  0  0  0
   -0.5183   -1.4896   -2.2727 H   0  0  0  0  0  0  0  0  0  0  0  0
    0.7607   -0.3373   -2.6660 H   0  0  0  0  0  0  0  0  0  0  0  0
   -2.1197   -0.1957   -3.7036 H   0  0  0  0  0  0  0  0  0  0  0  0
   -0.8247    0.9282   -4.1245 H   0  0  0  0  0  0  0  0  0  0  0  0
   -0.7821   -2.0895   -4.6944 H   0  0  0  0  0  0  0  0  0  0  0  0
    0.4912   -0.9434   -5.1366 H   0  0  0  0  0  0  0  0  0  0  0  0
   -1.9250    0.0128   -6.0211 H   0  0  0  0  0  0  0  0  0  0  0  0
   -0.6233   -0.4605   -6.8860 H   0  0  0  0  0  0  0  0  0  0  0  0
   -1.3936    2.1840    0.4174 N   0  0  0  0  0  0  0  0  0  0  0  0
   -1.9435    3.2879    1.1709 C   0  0  2  0  0  0  0  0  0  0  0  0
   -3.3628    3.5341    0.6765 C   0  0  0  0  0  0  0  0  0  0  0  0
   -3.7031    3.3721   -0.4936 O   0  0  0  0  0  0  0  0  0  0  0  0
   -1.0914    4.5386    1.0218 C   0  0  0  0  0  0  0  0  0  0  0  0
   -1.6929    2.0817   -0.5478 H   0  0  0  0  0  0  0  0  0  0  0  0
   -1.9711    2.9724    2.2196 H   0  0  0  0  0  0  0  0  0  0  0  0
   -1.0520    4.8699   -0.0223 H   0  0  0  0  0  0  0  0  0  0  0  0
   -1.4936    5.3659    1.6160 H   0  0  0  0  0  0  0  0  0  0  0  0
   -0.0633    4.3512    1.3501 H   0  0  0  0  0  0  0  0  0  0  0  0
   -4.1944    3.9973    1.6865 N   0  0  0  0  0  0  0  0  0  0  0  0
   -5.5778    4.3445    1.4596 C   0  0  0  0  0  0  0  0  0  0  0  0
   -3.8387    4.0633    2.6356 H   0  0  0  0  0  0  0  0  0  0  0  0
   -5.6542    5.4176    1.2302 H   0  0  0  0  0  0  0  0  0  0  0  0
   -5.9684    3.7601    0.6134 H   0  0  0  0  0  0  0  0  0  0  0  0
   -6.1649    4.1200    2.3623 H   0  0  0  0  0  0  0  0  0  0  0  0
  1  3  1  0  0  0  0
  1  7  1  0  0  0  0
  1  2  2  0  0  0  0
 39 40  1  0  0  0  0
 40 48  1  0  0  0  0
 40 41  2  0  0  0  0
  8  9  1  0  0  0  0
  9 17  1  0  0  0  0
  9 10  2  0  0  0  0
 18 19  1  0  0  0  0
 19 38  1  0  0  0  0
 19 20  2  0  0  0  0
 39 42  1  0  0  0  0
  8 11  1  0  0  0  0
 48 49  1  0  0  0  0
 22 23  1  0  0  0  0
 21 22  1  0  0  0  0
 23 24  1  0  0  0  0
 18 21  1  0  0  0  0
 24 25  1  0  0  0  0
 38 39  1  0  0  0  0
  7  8  1  0  0  0  0
 17 18  1  0  0  0  0
  3  4  1  0  0  0  0
  3  5  1  0  0  0  0
  3  6  1  0  0  0  0
 42 45  1  0  0  0  0
 42 46  1  0  0  0  0
 42 47  1  0  0  0  0
 11 14  1  0  0  0  0
 11 15  1  0  0  0  0
 11 16  1  0  0  0  0
 49 51  1  0  0  0  0
 49 52  1  0  0  0  0
 49 53  1  0  0  0  0
 22 30  1  0  0  0  0
 22 31  1  0  0  0  0
 23 32  1  0  0  0  0
 23 33  1  0  0  0  0
 21 28  1  0  0  0  0
 21 29  1  0  0  0  0
 24 34  1  0  0  0  0
 24 35  1  0  0  0  0
 39 44  1  0  0  0  0
  8 13  1  0  0  0  0
 18 27  1  0  0  0  0
 25 36  1  0  0  0  0
 25 37  1  0  0  0  0
 48 50  1  0  0  0  0
  7 12  1  0  0  0  0
 38 43  1  0  0  0  0
 17 26  1  0  0  0  0
M  END
$$$$

  -OEChem-05262214473D

 53 52  0     1  0  0  0  0  0999 V2000
   -1.0338   -5.6785    0.1476 C   0  0  0  0  0  0  0  0  0  0  0  0
   -2.0514   -5.7797    0.8227 O   0  0  0  0  0  0  0  0  0  0  0  0
   -0.6558   -6.7819   -0.7841 C   0  0  0  0  0  0  0  0  0  0  0  0
   -0.0111   -7.5354   -0.3038 H   0  0  0  0  0  0  0  0  0  0  0  0
   -1.5317   -7.3401   -1.1520 H   0  0  0  0  0  0  0  0  0  0  0  0
   -0.1109   -6.4687   -1.6890 H   0  0  0  0  0  0  0  0  0  0  0  0
   -0.1543   -4.6083    0.1480 N   0  0  0  0  0  0  0  0  0  0  0  0
   -0.3302   -3.4398    0.9696 C   0  0  2  0  0  0  0  0  0  0  0  0
    0.2328   -2.2439    0.2131 C   0  0  0  0  0  0  0  0  0  0  0  0
    1.2097   -2.3192   -0.5294 O   0  0  0  0  0  0  0  0  0  0  0  0
    0.3557   -3.6024    2.3171 C   0  0  0  0  0  0  0  0  0  0  0  0
    0.6584   -4.6506   -0.4643 H   0  0  0  0  0  0  0  0  0  0  0  0
   -1.4091   -3.3101    1.1082 H   0  0  0  0  0  0  0  0  0  0  0  0
    1.4375   -3.7336    2.1985 H   0  0  0  0  0  0  0  0  0  0  0  0
    0.1969   -2.7243    2.9517 H   0  0  0  0  0  0  0  0  0  0  0  0
   -0.0294   -4.4803    2.8470 H   0  0  0  0  0  0  0  0  0  0  0  0
   -0.4616   -1.0893    0.5050 N   0  0  0  0  0  0  0  0  0  0  0  0
   -0.0884    0.2050   -0.0621 C   0  0  2  0  0  0  0  0  0  0  0  0
   -0.4807    1.2817    0.9457 C   0  0  0  0  0  0  0  0  0  0  0  0
    0.1403    1.4824    1.9876 O   0  0  0  0  0  0  0  0  0  0  0  0
   -0.7907    0.4781   -1.4006 C   0  0  0  0  0  0  0  0  0  0  0  0
   -0.3225   -0.4430   -2.5319 C   0  0  0  0  0  0  0  0  0  0  0  0
   -1.0349   -0.1123   -3.8463 C   0  0  0  0  0  0  0  0  0  0  0  0
   -0.5859   -1.0471   -4.9682 C   0  0  0  0  0  0  0  0  0  0  0  0
   -1.2926   -0.7310   -6.2037 N   0  0  0  0  0  0  0  0  0  0  0  0
   -1.2794   -1.1113    1.0935 H   0  0  0  0  0  0  0  0  0  0  0  0
    0.9992    0.2239   -0.2013 H   0  0  0  0  0  0  0  0  0  0  0  0
   -0.6098    1.5203   -1.6951 H   0  0  0  0  0  0  0  0  0  0  0  0
   -1.8783    0.3854   -1.2778 H   0  0  0  0  0  0  0  0  0  0  0  0
   -0.5183   -1.4896   -2.2727 H   0  0  0  0  0  0  0  0  0  0  0  0
    0.7607   -0.3373   -2.6660 H   0  0  0  0  0  0  0  0  0  0  0  0
   -2.1197   -0.1957   -3.7036 H   0  0  0  0  0  0  0  0  0  0  0  0
   -0.8247    0.9282   -4.1245 H   0  0  0  0  0  0  0  0  0  0  0  0
   -0.7821   -2.0895   -4.6944 H   0  0  0  0  0  0  0  0  0  0  0  0
    0.4912   -0.9434   -5.1366 H   0  0  0  0  0  0  0  0  0  0  0  0
   -1.9250    0.0128   -6.0211 H   0  0  0  0  0  0  0  0  0  0  0  0
   -0.6233   -0.4605   -6.8860 H   0  0  0  0  0  0  0  0  0  0  0  0
   -1.6178    1.9747    0.5538 N   0  0  0  0  0  0  0  0  0  0  0  0
   -2.2125    3.0311    1.3405 C   0  0  2  0  0  0  0  0  0  0  0  0
   -3.7177    2.9985    1.1104 C   0  0  0  0  0  0  0  0  0  0  0  0
   -4.2253    2.6868    0.0352 O   0  0  0  0  0  0  0  0  0  0  0  0
   -1.6354    4.3886    0.9704 C   0  0  0  0  0  0  0  0  0  0  0  0
   -2.0601    1.7452   -0.3313 H   0  0  0  0  0  0  0  0  0  0  0  0
   -1.9979    2.8029    2.3902 H   0  0  0  0  0  0  0  0  0  0  0  0
   -1.8405    4.6346   -0.0779 H   0  0  0  0  0  0  0  0  0  0  0  0
   -2.0662    5.1843    1.5870 H   0  0  0  0  0  0  0  0  0  0  0  0
   -0.5488    4.4008    1.1082 H   0  0  0  0  0  0  0  0  0  0  0  0
   -4.4262    3.4001    2.2342 N   0  0  0  0  0  0  0  0  0  0  0  0
   -5.8672    3.4947    2.2547 C   0  0  0  0  0  0  0  0  0  0  0  0
   -3.9257    3.6018    3.0948 H   0  0  0  0  0  0  0  0  0  0  0  0
   -6.1718    4.5179    1.9897 H   0  0  0  0  0  0  0  0  0  0  0  0
   -6.2915    2.7862    1.5280 H   0  0  0  0  0  0  0  0  0  0  0  0
   -6.2363    3.2517    3.2620 H   0  0  0  0  0  0  0  0  0  0  0  0
  1  3  1  0  0  0  0
  1  7  1  0  0  0  0
  1  2  2  0  0  0  0
 39 40  1  0  0  0  0
 40 48  1  0  0  0  0
 40 41  2  0  0  0  0
  8  9  1  0  0  0  0
  9 17  1  0  0  0  0
  9 10  2  0  0  0  0
 18 19  1  0  0  0  0
 19 38  1  0  0  0  0
 19 20  2  0  0  0  0
 39 42  1  0  0  0  0
  8 11  1  0  0  0  0
 48 49  1  0  0  0  0
 22 23  1  0  0  0  0
 21 22  1  0  0  0  0
 23 24  1  0  0  0  0
 18 21  1  0  0  0  0
 24 25  1  0  0  0  0
 38 39  1  0  0  0  0
  7  8  1  0  0  0  0
 17 18  1  0  0  0  0
  3  4  1  0  0  0  0
  3  5  1  0  0  0  0
  3  6  1  0  0  0  0
 42 45  1  0  0  0  0
 42 46  1  0  0  0  0
 42 47  1  0  0  0  0
 11 14  1  0  0  0  0
 11 15  1  0  0  0  0
 11 16  1  0  0  0  0
 49 51  1  0  0  0  0
 49 52  1  0  0  0  0
 49 53  1  0  0  0  0
 22 30  1  0  0  0  0
 22 31  1  0  0  0  0
 23 32  1  0  0  0  0
 23 33  1  0  0  0  0
 21 28  1  0  0  0  0
 21 29  1  0  0  0  0
 24 34  1  0  0  0  0
 24 35  1  0  0  0  0
 39 44  1  0  0  0  0
  8 13  1  0  0  0  0
 18 27  1  0  0  0  0
 25 36  1  0  0  0  0
 25 37  1  0  0  0  0
 48 50  1  0  0  0  0
  7 12  1  0  0  0  0
 38 43  1  0  0  0  0
 17 26  1  0  0  0  0
M  END
$$$$

  -OEChem-05262214473D

 53 52  0     1  0  0  0  0  0999 V2000
   -1.0338   -5.6785    0.1476 C   0  0  0  0  0  0  0  0  0  0  0  0
   -2.0514   -5.7797    0.8227 O   0  0  0  0  0  0  0  0  0  0  0  0
   -0.6558   -6.7819   -0.7841 C   0  0  0  0  0  0  0  0  0  0  0  0
   -0.0111   -7.5354   -0.3038 H   0  0  0  0  0  0  0  0  0  0  0  0
   -1.5317   -7.3401   -1.1520 H   0  0  0  0  0  0  0  0  0  0  0  0
   -0.1109   -6.4687   -1.6890 H   0  0  0  0  0  0  0  0  0  0  0  0
   -0.1543   -4.6083    0.1480 N   0  0  0  0  0  0  0  0  0  0  0  0
   -0.3302   -3.4398    0.9696 C   0  0  2  0  0  0  0  0  0  0  0  0
    0.2328   -2.2439    0.2131 C   0  0  0  0  0  0  0  0  0  0  0  0
    1.2097   -2.3192   -0.5294 O   0  0  0  0  0  0  0  0  0  0  0  0
    0.3557   -3.6024    2.3171 C   0  0  0  0  0  0  0  0  0  0  0  0
    0.6584   -4.6506   -0.4643 H   0  0  0  0  0  0  0  0  0  0  0  0
   -1.4091   -3.3101    1.1082 H   0  0  0  0  0  0  0  0  0  0  0  0
    1.4375   -3.7336    2.1985 H   0  0  0  0  0  0  0  0  0  0  0  0
    0.1969   -2.7243    2.9517 H   0  0  0  0  0  0  0  0  0  0  0  0
   -0.0294   -4.4803    2.8470 H   0  0  0  0  0  0  0  0  0  0  0  0
   -0.4616   -1.0893    0.5050 N   0  0  0  0  0  0  0  0  0  0  0  0
   -0.0884    0.2050   -0.0621 C   0  0  2  0  0  0  0  0  0  0  0  0
   -0.4807    1.2817    0.9457 C   0  0  0  0  0  0  0  0  0  0  0  0
    0.2692    1.6672    1.8404 O   0  0  0  0  0  0  0  0  0  0  0  0
   -0.7907    0.4781   -1.4006 C   0  0  0  0  0  0  0  0  0  0  0  0
   -0.3225   -0.4430   -2.5319 C   0  0  0  0  0  0  0  0  0  0  0  0
   -1.0349   -0.1123   -3.8463 C   0  0  0  0  0  0  0  0  0  0  0  0
   -0.5859   -1.0471   -4.9682 C   0  0  0  0  0  0  0  0  0  0  0  0
   -1.2926   -0.7310   -6.2037 N   0  0  0  0  0  0  0  0  0  0  0  0
   -1.2794   -1.1113    1.0935 H   0  0  0  0  0  0  0  0  0  0  0  0
    0.9992    0.2239   -0.2013 H   0  0  0  0  0  0  0  0  0  0  0  0
   -0.6098    1.5203   -1.6951 H   0  0  0  0  0  0  0  0  0  0  0  0
   -1.8783    0.3854   -1.2778 H   0  0  0  0  0  0  0  0  0  0  0  0
   -0.5183   -1.4896   -2.2727 H   0  0  0  0  0  0  0  0  0  0  0  0
    0.7607   -0.3373   -2.6660 H   0  0  0  0  0  0  0  0  0  0  0  0
   -2.1197   -0.1957   -3.7036 H   0  0  0  0  0  0  0  0  0  0  0  0
   -0.8247    0.9282   -4.1245 H   0  0  0  0  0  0  0  0  0  0  0  0
   -0.7821   -2.0895   -4.6944 H   0  0  0  0  0  0  0  0  0  0  0  0
    0.4912   -0.9434   -5.1366 H   0  0  0  0  0  0  0  0  0  0  0  0
   -1.9250    0.0128   -6.0211 H   0  0  0  0  0  0  0  0  0  0  0  0
   -0.6233   -0.4605   -6.8860 H   0  0  0  0  0  0  0  0  0  0  0  0
   -1.7737    1.7432    0.7404 N   0  0  0  0  0  0  0  0  0  0  0  0
   -2.3975    2.7484    1.5705 C   0  0  2  0  0  0  0  0  0  0  0  0
   -3.8896    2.4494    1.6301 C   0  0  0  0  0  0  0  0  0  0  0  0
   -4.5160    1.9708    0.6869 O   0  0  0  0  0  0  0  0  0  0  0  0
   -2.1446    4.1472    1.0300 C   0  0  0  0  0  0  0  0  0  0  0  0
   -2.3177    1.3718   -0.0327 H   0  0  0  0  0  0  0  0  0  0  0  0
   -1.9636    2.6460    2.5712 H   0  0  0  0  0  0  0  0  0  0  0  0
   -2.5720    4.2688    0.0280 H   0  0  0  0  0  0  0  0  0  0  0  0
   -2.5936    4.9092    1.6756 H   0  0  0  0  0  0  0  0  0  0  0  0
   -1.0703    4.3496    0.9598 H   0  0  0  0  0  0  0  0  0  0  0  0
   -4.4480    2.8200    2.8454 N   0  0  0  0  0  0  0  0  0  0  0  0
   -5.8564    2.6773    3.1321 C   0  0  0  0  0  0  0  0  0  0  0  0
   -3.8470    3.1717    3.5849 H   0  0  0  0  0  0  0  0  0  0  0  0
   -6.3793    3.6110    2.8778 H   0  0  0  0  0  0  0  0  0  0  0  0
   -6.2701    1.8511    2.5352 H   0  0  0  0  0  0  0  0  0  0  0  0
   -5.9925    2.4607    4.2019 H   0  0  0  0  0  0  0  0  0  0  0  0
  1  3  1  0  0  0  0
  1  7  1  0  0  0  0
  1  2  2  0  0  0  0
 39 40  1  0  0  0  0
 40 48  1  0  0  0  0
 40 41  2  0  0  0  0
  8  9  1  0  0  0  0
  9 17  1  0  0  0  0
  9 10  2  0  0  0  0
 18 19  1  0  0  0  0
 19 38  1  0  0  0  0
 19 20  2  0  0  0  0
 39 42  1  0  0  0  0
  8 11  1  0  0  0  0
 48 49  1  0  0  0  0
 22 23  1  0  0  0  0
 21 22  1  0  0  0  0
 23 24  1  0  0  0  0
 18 21  1  0  0  0  0
 24 25  1  0  0  0  0
 38 39  1  0  0  0  0
  7  8  1  0  0  0  0
 17 18  1  0  0  0  0
  3  4  1  0  0  0  0
  3  5  1  0  0  0  0
  3  6  1  0  0  0  0
 42 45  1  0  0  0  0
 42 46  1  0  0  0  0
 42 47  1  0  0  0  0
 11 14  1  0  0  0  0
 11 15  1  0  0  0  0
 11 16  1  0  0  0  0
 49 51  1  0  0  0  0
 49 52  1  0  0  0  0
 49 53  1  0  0  0  0
 22 30  1  0  0  0  0
 22 31  1  0  0  0  0
 23 32  1  0  0  0  0
 23 33  1  0  0  0  0
 21 28  1  0  0  0  0
 21 29  1  0  0  0  0
 24 34  1  0  0  0  0
 24 35  1  0  0  0  0
 39 44  1  0  0  0  0
  8 13  1  0  0  0  0
 18 27  1  0  0  0  0
 25 36  1  0  0  0  0
 25 37  1  0  0  0  0
 48 50  1  0  0  0  0
  7 12  1  0  0  0  0
 38 43  1  0  0  0  0
 17 26  1  0  0  0  0
M  END
$$$$

  -OEChem-05262214473D

 53 52  0     1  0  0  0  0  0999 V2000
   -1.0338   -5.6785    0.1476 C   0  0  0  0  0  0  0  0  0  0  0  0
   -2.0514   -5.7797    0.8227 O   0  0  0  0  0  0  0  0  0  0  0  0
   -0.6558   -6.7819   -0.7841 C   0  0  0  0  0  0  0  0  0  0  0  0
   -0.0111   -7.5354   -0.3038 H   0  0  0  0  0  0  0  0  0  0  0  0
   -1.5317   -7.3401   -1.1520 H   0  0  0  0  0  0  0  0  0  0  0  0
   -0.1109   -6.4687   -1.6890 H   0  0  0  0  0  0  0  0  0  0  0  0
   -0.1543   -4.6083    0.1480 N   0  0  0  0  0  0  0  0  0  0  0  0
   -0.3302   -3.4398    0.9696 C   0  0  2  0  0  0  0  0  0  0  0  0
    0.2328   -2.2439    0.2131 C   0  0  0  0  0  0  0  0  0  0  0  0
    1.2097   -2.3192   -0.5294 O   0  0  0  0  0  0  0  0  0  0  0  0
    0.3557   -3.6024    2.3171 C   0  0  0  0  0  0  0  0  0  0  0  0
    0.6584   -4.6506   -0.4643 H   0  0  0  0  0  0  0  0  0  0  0  0
   -1.4091   -3.3101    1.1082 H   0  0  0  0  0  0  0  0  0  0  0  0
    1.4375   -3.7336    2.1985 H   0  0  0  0  0  0  0  0  0  0  0  0
    0.1969   -2.7243    2.9517 H   0  0  0  0  0  0  0  0  0  0  0  0
   -0.0294   -4.4803    2.8470 H   0  0  0  0  0  0  0  0  0  0  0  0
   -0.4616   -1.0893    0.5050 N   0  0  0  0  0  0  0  0  0  0  0  0
   -0.0884    0.2050   -0.0621 C   0  0  2  0  0  0  0  0  0  0  0  0
   -0.4807    1.2817    0.9457 C   0  0  0  0  0  0  0  0  0  0  0  0
    0.3352    1.8579    1.6624 O   0  0  0  0  0  0  0  0  0  0  0  0
   -0.7907    0.4781   -1.4006 C   0  0  0  0  0  0  0  0  0  0  0  0
   -0.3225   -0.4430   -2.5319 C   0  0  0  0  0  0  0  0  0  0  0  0
   -1.0349   -0.1123   -3.8463 C   0  0  0  0  0  0  0  0  0  0  0  0
   -0.5859   -1.0471   -4.9682 C   0  0  0  0  0  0  0  0  0  0  0  0
   -1.2926   -0.7310   -6.2037 N   0  0  0  0  0  0  0  0  0  0  0  0
   -1.2794   -1.1113    1.0935 H   0  0  0  0  0  0  0  0  0  0  0  0
    0.9992    0.2239   -0.2013 H   0  0  0  0  0  0  0  0  0  0  0  0
   -0.6098    1.5203   -1.6951 H   0  0  0  0  0  0  0  0  0  0  0  0
   -1.8783    0.3854   -1.2778 H   0  0  0  0  0  0  0  0  0  0  0  0
   -0.5183   -1.4896   -2.2727 H   0  0  0  0  0  0  0  0  0  0  0  0
    0.7607   -0.3373   -2.6660 H   0  0  0  0  0  0  0  0  0  0  0  0
   -2.1197   -0.1957   -3.7036 H   0  0  0  0  0  0  0  0  0  0  0  0
   -0.8247    0.9282   -4.1245 H   0  0  0  0  0  0  0  0  0  0  0  0
   -0.7821   -2.0895   -4.6944 H   0  0  0  0  0  0  0  0  0  0  0  0
    0.4912   -0.9434   -5.1366 H   0  0  0  0  0  0  0  0  0  0  0  0
   -1.9250    0.0128   -6.0211 H   0  0  0  0  0  0  0  0  0  0  0  0
   -0.6233   -0.4605   -6.8860 H   0  0  0  0  0  0  0  0  0  0  0  0
   -1.8506    1.5053    0.9645 N   0  0  0  0  0  0  0  0  0  0  0  0
   -2.4858    2.4590    1.8452 C   0  0  2  0  0  0  0  0  0  0  0  0
   -3.8670    1.9242    2.1999 C   0  0  0  0  0  0  0  0  0  0  0  0
   -4.5554    1.2728    1.4171 O   0  0  0  0  0  0  0  0  0  0  0  0
   -2.5842    3.8310    1.1966 C   0  0  0  0  0  0  0  0  0  0  0  0
   -2.4482    0.9870    0.3275 H   0  0  0  0  0  0  0  0  0  0  0  0
   -1.8707    2.5123    2.7501 H   0  0  0  0  0  0  0  0  0  0  0  0
   -3.1968    3.7975    0.2882 H   0  0  0  0  0  0  0  0  0  0  0  0
   -3.0398    4.5592    1.8757 H   0  0  0  0  0  0  0  0  0  0  0  0
   -1.5925    4.2011    0.9152 H   0  0  0  0  0  0  0  0  0  0  0  0
   -4.2584    2.2966    3.4783 N   0  0  0  0  0  0  0  0  0  0  0  0
   -5.5459    1.9480    4.0321 C   0  0  0  0  0  0  0  0  0  0  0  0
   -3.6080    2.8022    4.0726 H   0  0  0  0  0  0  0  0  0  0  0  0
   -6.2626    2.7586    3.8338 H   0  0  0  0  0  0  0  0  0  0  0  0
   -5.9057    1.0186    3.5664 H   0  0  0  0  0  0  0  0  0  0  0  0
   -5.4502    1.8008    5.1180 H   0  0  0  0  0  0  0  0  0  0  0  0
  1  3  1  0  0  0  0
  1  7  1  0  0  0  0
  1  2  2  0  0  0  0
 39 40  1  0  0  0  0
 40 48  1  0  0  0  0
 40 41  2  0  0  0  0
  8  9  1  0  0  0  0
  9 17  1  0  0  0  0
  9 10  2  0  0  0  0
 18 19  1  0  0  0  0
 19 38  1  0  0  0  0
 19 20  2  0  0  0  0
 39 42  1  0  0  0  0
  8 11  1  0  0  0  0
 48 49  1  0  0  0  0
 22 23  1  0  0  0  0
 21 22  1  0  0  0  0
 23 24  1  0  0  0  0
 18 21  1  0  0  0  0
 24 25  1  0  0  0  0
 38 39  1  0  0  0  0
  7  8  1  0  0  0  0
 17 18  1  0  0  0  0
  3  4  1  0  0  0  0
  3  5  1  0  0  0  0
  3  6  1  0  0  0  0
 42 45  1  0  0  0  0
 42 46  1  0  0  0  0
 42 47  1  0  0  0  0
 11 14  1  0  0  0  0
 11 15  1  0  0  0  0
 11 16  1  0  0  0  0
 49 51  1  0  0  0  0
 49 52  1  0  0  0  0
 49 53  1  0  0  0  0
 22 30  1  0  0  0  0
 22 31  1  0  0  0  0
 23 32  1  0  0  0  0
 23 33  1  0  0  0  0
 21 28  1  0  0  0  0
 21 29  1  0  0  0  0
 24 34  1  0  0  0  0
 24 35  1  0  0  0  0
 39 44  1  0  0  0  0
  8 13  1  0  0  0  0
 18 27  1  0  0  0  0
 25 36  1  0  0  0  0
 25 37  1  0  0  0  0
 48 50  1  0  0  0  0
  7 12  1  0  0  0  0
 38 43  1  0  0  0  0
 17 26  1  0  0  0  0
M  END
$$$$

  -OEChem-05262214473D

 53 52  0     1  0  0  0  0  0999 V2000
   -1.0338   -5.6785    0.1476 C   0  0  0  0  0  0  0  0  0  0  0  0
   -2.0514   -5.7797    0.8227 O   0  0  0  0  0  0  0  0  0  0  0  0
   -0.6558   -6.7819   -0.7841 C   0  0  0  0  0  0  0  0  0  0  0  0
   -0.0111   -7.5354   -0.3038 H   0  0  0  0  0  0  0  0  0  0  0  0
   -1.5317   -7.3401   -1.1520 H   0  0  0  0  0  0  0  0  0  0  0  0
   -0.1109   -6.4687   -1.6890 H   0  0  0  0  0  0  0  0  0  0  0  0
   -0.1543   -4.6083    0.1480 N   0  0  0  0  0  0  0  0  0  0  0  0
   -0.3302   -3.4398    0.9696 C   0  0  2  0  0  0  0  0  0  0  0  0
    0.2328   -2.2439    0.2131 C   0  0  0  0  0  0  0  0  0  0  0  0
    1.2097   -2.3192   -0.5294 O   0  0  0  0  0  0  0  0  0  0  0  0
    0.3557   -3.6024    2.3171 C   0  0  0  0  0  0  0  0  0  0  0  0
    0.6584   -4.6506   -0.4643 H   0  0  0  0  0  0  0  0  0  0  0  0
   -1.4091   -3.3101    1.1082 H   0  0  0  0  0  0  0  0  0  0  0  0
    1.4375   -3.7336    2.1985 H   0  0  0  0  0  0  0  0  0  0  0  0
    0.1969   -2.7243    2.9517 H   0  0  0  0  0  0  0  0  0  0  0  0
   -0.0294   -4.4803    2.8470 H   0  0  0  0  0  0  0  0  0  0  0  0
   -0.4616   -1.0893    0.5050 N   0  0  0  0  0  0  0  0  0  0  0  0
   -0.0884    0.2050   -0.0621 C   0  0  2  0  0  0  0  0  0  0  0  0
   -0.4807    1.2817    0.9457 C   0  0  0  0  0  0  0  0  0  0  0  0
    0.3339    2.0415    1.4658 O   0  0  0  0  0  0  0  0  0  0  0  0
   -0.7907    0.4781   -1.4006 C   0  0  0  0  0  0  0  0  0  0  0  0
   -0.3225   -0.4430   -2.5319 C   0  0  0  0  0  0  0  0  0  0  0  0
   -1.0349   -0.1123   -3.8463 C   0  0  0  0  0  0  0  0  0  0  0  0
   -0.5859   -1.0471   -4.9682 C   0  0  0  0  0  0  0  0  0  0  0  0
   -1.2926   -0.7310   -6.2037 N   0  0  0  0  0  0  0  0  0  0  0  0
   -1.2794   -1.1113    1.0935 H   0  0  0  0  0  0  0  0  0  0  0  0
    0.9992    0.2239   -0.2013 H   0  0  0  0  0  0  0  0  0  0  0  0
   -0.6098    1.5203   -1.6951 H   0  0  0  0  0  0  0  0  0  0  0  0
   -1.8783    0.3854   -1.2778 H   0  0  0  0  0  0  0  0  0  0  0  0
   -0.5183   -1.4896   -2.2727 H   0  0  0  0  0  0  0  0  0  0  0  0
    0.7607   -0.3373   -2.6660 H   0  0  0  0  0  0  0  0  0  0  0  0
   -2.1197   -0.1957   -3.7036 H   0  0  0  0  0  0  0  0  0  0  0  0
   -0.8247    0.9282   -4.1245 H   0  0  0  0  0  0  0  0  0  0  0  0
   -0.7821   -2.0895   -4.6944 H   0  0  0  0  0  0  0  0  0  0  0  0
    0.4912   -0.9434   -5.1366 H   0  0  0  0  0  0  0  0  0  0  0  0
   -1.9250    0.0128   -6.0211 H   0  0  0  0  0  0  0  0  0  0  0  0
   -0.6233   -0.4605   -6.8860 H   0  0  0  0  0  0  0  0  0  0  0  0
   -1.8433    1.2774    1.2108 N   0  0  0  0  0  0  0  0  0  0  0  0
   -2.4715    2.1827    2.1460 C   0  0  2  0  0  0  0  0  0  0  0  0
   -3.6513    1.4587    2.7812 C   0  0  0  0  0  0  0  0  0  0  0  0
   -4.3409    0.6405    2.1761 O   0  0  0  0  0  0  0  0  0  0  0  0
   -2.9245    3.4615    1.4589 C   0  0  0  0  0  0  0  0  0  0  0  0
   -2.4427    0.6169    0.7250 H   0  0  0  0  0  0  0  0  0  0  0  0
   -1.7254    2.4110    2.9150 H   0  0  0  0  0  0  0  0  0  0  0  0
   -3.6722    3.2528    0.6851 H   0  0  0  0  0  0  0  0  0  0  0  0
   -3.3744    4.1581    2.1739 H   0  0  0  0  0  0  0  0  0  0  0  0
   -2.0796    3.9655    0.9772 H   0  0  0  0  0  0  0  0  0  0  0  0
   -3.8701    1.8656    4.0898 N   0  0  0  0  0  0  0  0  0  0  0  0
   -4.9571    1.3565    4.8932 C   0  0  0  0  0  0  0  0  0  0  0  0
   -3.2250    2.5187    4.5246 H   0  0  0  0  0  0  0  0  0  0  0  0
   -5.8295    2.0188    4.7927 H   0  0  0  0  0  0  0  0  0  0  0  0
   -5.2231    0.3453    4.5513 H   0  0  0  0  0  0  0  0  0  0  0  0
   -4.6463    1.3171    5.9476 H   0  0  0  0  0  0  0  0  0  0  0  0
  1  3  1  0  0  0  0
  1  7  1  0  0  0  0
  1  2  2  0  0  0  0
 39 40  1  0  0  0  0
 40 48  1  0  0  0  0
 40 41  2  0  0  0  0
  8  9  1  0  0  0  0
  9 17  1  0  0  0  0
  9 10  2  0  0  0  0
 18 19  1  0  0  0  0
 19 38  1  0  0  0  0
 19 20  2  0  0  0  0
 39 42  1  0  0  0  0
  8 11  1  0  0  0  0
 48 49  1  0  0  0  0
 22 23  1  0  0  0  0
 21 22  1  0  0  0  0
 23 24  1  0  0  0  0
 18 21  1  0  0  0  0
 24 25  1  0  0  0  0
 38 39  1  0  0  0  0
  7  8  1  0  0  0  0
 17 18  1  0  0  0  0
  3  4  1  0  0  0  0
  3  5  1  0  0  0  0
  3  6  1  0  0  0  0
 42 45  1  0  0  0  0
 42 46  1  0  0  0  0
 42 47  1  0  0  0  0
 11 14  1  0  0  0  0
 11 15  1  0  0  0  0
 11 16  1  0  0  0  0
 49 51  1  0  0  0  0
 49 52  1  0  0  0  0
 49 53  1  0  0  0  0
 22 30  1  0  0  0  0
 22 31  1  0  0  0  0
 23 32  1  0  0  0  0
 23 33  1  0  0  0  0
 21 28  1  0  0  0  0
 21 29  1  0  0  0  0
 24 34  1  0  0  0  0
 24 35  1  0  0  0  0
 39 44  1  0  0  0  0
  8 13  1  0  0  0  0
 18 27  1  0  0  0  0
 25 36  1  0  0  0  0
 25 37  1  0  0  0  0
 48 50  1  0  0  0  0
  7 12  1  0  0  0  0
 38 43  1  0  0  0  0
 17 26  1  0  0  0  0
M  END
$$$$

  -OEChem-05262214473D

 53 52  0     1  0  0  0  0  0999 V2000
   -1.0338   -5.6785    0.1476 C   0  0  0  0  0  0  0  0  0  0  0  0
   -2.0514   -5.7797    0.8227 O   0  0  0  0  0  0  0  0  0  0  0  0
   -0.6558   -6.7819   -0.7841 C   0  0  0  0  0  0  0  0  0  0  0  0
   -0.0111   -7.5354   -0.3038 H   0  0  0  0  0  0  0  0  0  0  0  0
   -1.5317   -7.3401   -1.1520 H   0  0  0  0  0  0  0  0  0  0  0  0
   -0.1109   -6.4687   -1.6890 H   0  0  0  0  0  0  0  0  0  0  0  0
   -0.1543   -4.6083    0.1480 N   0  0  0  0  0  0  0  0  0  0  0  0
   -0.3302   -3.4398    0.9696 C   0  0  2  0  0  0  0  0  0  0  0  0
    0.2328   -2.2439    0.2131 C   0  0  0  0  0  0  0  0  0  0  0  0
    1.2097   -2.3192   -0.5294 O   0  0  0  0  0  0  0  0  0  0  0  0
    0.3557   -3.6024    2.3171 C   0  0  0  0  0  0  0  0  0  0  0  0
    0.6584   -4.6506   -0.4643 H   0  0  0  0  0  0  0  0  0  0  0  0
   -1.4091   -3.3101    1.1082 H   0  0  0  0  0  0  0  0  0  0  0  0
    1.4375   -3.7336    2.1985 H   0  0  0  0  0  0  0  0  0  0  0  0
    0.1969   -2.7243    2.9517 H   0  0  0  0  0  0  0  0  0  0  0  0
   -0.0294   -4.4803    2.8470 H   0  0  0  0  0  0  0  0  0  0  0  0
   -0.4616   -1.0893    0.5050 N   0  0  0  0  0  0  0  0  0  0  0  0
   -0.0884    0.2050   -0.0621 C   0  0  2  0  0  0  0  0  0  0  0  0
   -0.4807    1.2817    0.9457 C   0  0  0  0  0  0  0  0  0  0  0  0
    0.2654    2.2056    1.2638 O   0  0  0  0  0  0  0  0  0  0  0  0
   -0.7907    0.4781   -1.4006 C   0  0  0  0  0  0  0  0  0  0  0  0
   -0.3225   -0.4430   -2.5319 C   0  0  0  0  0  0  0  0  0  0  0  0
   -1.0349   -0.1123   -3.8463 C   0  0  0  0  0  0  0  0  0  0  0  0
   -0.5859   -1.0471   -4.9682 C   0  0  0  0  0  0  0  0  0  0  0  0
   -1.2926   -0.7310   -6.2037 N   0  0  0  0  0  0  0  0  0  0  0  0
   -1.2794   -1.1113    1.0935 H   0  0  0  0  0  0  0  0  0  0  0  0
    0.9992    0.2239   -0.2013 H   0  0  0  0  0  0  0  0  0  0  0  0
   -0.6098    1.5203   -1.6951 H   0  0  0  0  0  0  0  0  0  0  0  0
   -1.8783    0.3854   -1.2778 H   0  0  0  0  0  0  0  0  0  0  0  0
   -0.5183   -1.4896   -2.2727 H   0  0  0  0  0  0  0  0  0  0  0  0
    0.7607   -0.3373   -2.6660 H   0  0  0  0  0  0  0  0  0  0  0  0
   -2.1197   -0.1957   -3.7036 H   0  0  0  0  0  0  0  0  0  0  0  0
   -0.8247    0.9282   -4.1245 H   0  0  0  0  0  0  0  0  0  0  0  0
   -0.7821   -2.0895   -4.6944 H   0  0  0  0  0  0  0  0  0  0  0  0
    0.4912   -0.9434   -5.1366 H   0  0  0  0  0  0  0  0  0  0  0  0
   -1.9250    0.0128   -6.0211 H   0  0  0  0  0  0  0  0  0  0  0  0
   -0.6233   -0.4605   -6.8860 H   0  0  0  0  0  0  0  0  0  0  0  0
   -1.7523    1.0748    1.4626 N   0  0  0  0  0  0  0  0  0  0  0  0
   -2.3555    1.9382    2.4523 C   0  0  2  0  0  0  0  0  0  0  0  0
   -3.2572    1.0846    3.3342 C   0  0  0  0  0  0  0  0  0  0  0  0
   -3.8869    0.1169    2.9121 O   0  0  0  0  0  0  0  0  0  0  0  0
   -3.1421    3.0639    1.7989 C   0  0  0  0  0  0  0  0  0  0  0  0
   -2.3016    0.2869    1.1325 H   0  0  0  0  0  0  0  0  0  0  0  0
   -1.5376    2.3489    3.0544 H   0  0  0  0  0  0  0  0  0  0  0  0
   -3.9659    2.6717    1.1914 H   0  0  0  0  0  0  0  0  0  0  0  0
   -3.5746    3.7334    2.5496 H   0  0  0  0  0  0  0  0  0  0  0  0
   -2.4985    3.6587    1.1418 H   0  0  0  0  0  0  0  0  0  0  0  0
   -3.3098    1.5564    4.6383 N   0  0  0  0  0  0  0  0  0  0  0  0
   -4.1299    0.9431    5.6568 C   0  0  0  0  0  0  0  0  0  0  0  0
   -2.7240    2.3404    4.9101 H   0  0  0  0  0  0  0  0  0  0  0  0
   -5.1097    1.4420    5.6890 H   0  0  0  0  0  0  0  0  0  0  0  0
   -4.2689   -0.1228    5.4229 H   0  0  0  0  0  0  0  0  0  0  0  0
   -3.6357    1.0425    6.6345 H   0  0  0  0  0  0  0  0  0  0  0  0
  1  3  1  0  0  0  0
  1  7  1  0  0  0  0
  1  2  2  0  0  0  0
 39 40  1  0  0  0  0
 40 48  1  0  0  0  0
 40 41  2  0  0  0  0
  8  9  1  0  0  0  0
  9 17  1  0  0  0  0
  9 10  2  0  0  0  0
 18 19  1  0  0  0  0
 19 38  1  0  0  0  0
 19 20  2  0  0  0  0
 39 42  1  0  0  0  0
  8 11  1  0  0  0  0
 48 49  1  0  0  0  0
 22 23  1  0  0  0  0
 21 22  1  0  0  0  0
 23 24  1  0  0  0  0
 18 21  1  0  0  0  0
 24 25  1  0  0  0  0
 38 39  1  0  0  0  0
  7  8  1  0  0  0  0
 17 18  1  0  0  0  0
  3  4  1  0  0  0  0
  3  5  1  0  0  0  0
  3  6  1  0  0  0  0
 42 45  1  0  0  0  0
 42 46  1  0  0  0  0
 42 47  1  0  0  0  0
 11 14  1  0  0  0  0
 11 15  1  0  0  0  0
 11 16  1  0  0  0  0
 49 51  1  0  0  0  0
 49 52  1  0  0  0  0
 49 53  1  0  0  0  0
 22 30  1  0  0  0  0
 22 31  1  0  0  0  0
 23 32  1  0  0  0  0
 23 33  1  0  0  0  0
 21 28  1  0  0  0  0
 21 29  1  0  0  0  0
 24 34  1  0  0  0  0
 24 35  1  0  0  0  0
 39 44  1  0  0  0  0
  8 13  1  0  0  0  0
 18 27  1  0  0  0  0
 25 36  1  0  0  0  0
 25 37  1  0  0  0  0
 48 50  1  0  0  0  0
  7 12  1  0  0  0  0
 38 43  1  0  0  0  0
 17 26  1  0  0  0  0
M  END
$$$$

  -OEChem-05262214473D

 53 52  0     1  0  0  0  0  0999 V2000
   -1.0338   -5.6785    0.1476 C   0  0  0  0  0  0  0  0  0  0  0  0
   -2.0514   -5.7797    0.8227 O   0  0  0  0  0  0  0  0  0  0  0  0
   -0.6558   -6.7819   -0.7841 C   0  0  0  0  0  0  0  0  0  0  0  0
   -0.0111   -7.5354   -0.3038 H   0  0  0  0  0  0  0  0  0  0  0  0
   -1.5317   -7.3401   -1.1520 H   0  0  0  0  0  0  0  0  0  0  0  0
   -0.1109   -6.4687   -1.6890 H   0  0  0  0  0  0  0  0  0  0  0  0
   -0.1543   -4.6083    0.1480 N   0  0  0  0  0  0  0  0  0  0  0  0
   -0.3302   -3.4398    0.9696 C   0  0  2  0  0  0  0  0  0  0  0  0
    0.2328   -2.2439    0.2131 C   0  0  0  0  0  0  0  0  0  0  0  0
    1.2097   -2.3192   -0.5294 O   0  0  0  0  0  0  0  0  0  0  0  0
    0.3557   -3.6024    2.3171 C   0  0  0  0  0  0  0  0  0  0  0  0
    0.6584   -4.6506   -0.4643 H   0  0  0  0  0  0  0  0  0  0  0  0
   -1.4091   -3.3101    1.1082 H   0  0  0  0  0  0  0  0  0  0  0  0
    1.4375   -3.7336    2.1985 H   0  0  0  0  0  0  0  0  0  0  0  0
    0.1969   -2.7243    2.9517 H   0  0  0  0  0  0  0  0  0  0  0  0
   -0.0294   -4.4803    2.8470 H   0  0  0  0  0  0  0  0  0  0  0  0
   -0.4616   -1.0893    0.5050 N   0  0  0  0  0  0  0  0  0  0  0  0
   -0.0884    0.2050   -0.0621 C   0  0  2  0  0  0  0  0  0  0  0  0
   -0.4807    1.2817    0.9457 C   0  0  0  0  0  0  0  0  0  0  0  0
    0.1342    2.3389    1.0703 O   0  0  0  0  0  0  0  0  0  0  0  0
   -0.7907    0.4781   -1.4006 C   0  0  0  0  0  0  0  0  0  0  0  0
   -0.3225   -0.4430   -2.5319 C   0  0  0  0  0  0  0  0  0  0  0  0
   -1.0349   -0.1123   -3.8463 C   0  0  0  0  0  0  0  0  0  0  0  0
   -0.5859   -1.0471   -4.9682 C   0  0  0  0  0  0  0  0  0  0  0  0
   -1.2926   -0.7310   -6.2037 N   0  0  0  0  0  0  0  0  0  0  0  0
   -1.2794   -1.1113    1.0935 H   0  0  0  0  0  0  0  0  0  0  0  0
    0.9992    0.2239   -0.2013 H   0  0  0  0  0  0  0  0  0  0  0  0
   -0.6098    1.5203   -1.6951 H   0  0  0  0  0  0  0  0  0  0  0  0
   -1.8783    0.3854   -1.2778 H   0  0  0  0  0  0  0  0  0  0  0  0
   -0.5183   -1.4896   -2.2727 H   0  0  0  0  0  0  0  0  0  0  0  0
    0.7607   -0.3373   -2.6660 H   0  0  0  0  0  0  0  0  0  0  0  0
   -2.1197   -0.1957   -3.7036 H   0  0  0  0  0  0  0  0  0  0  0  0
   -0.8247    0.9282   -4.1245 H   0  0  0  0  0  0  0  0  0  0  0  0
   -0.7821   -2.0895   -4.6944 H   0  0  0  0  0  0  0  0  0  0  0  0
    0.4912   -0.9434   -5.1366 H   0  0  0  0  0  0  0  0  0  0  0  0
   -1.9250    0.0128   -6.0211 H   0  0  0  0  0  0  0  0  0  0  0  0
   -0.6233   -0.4605   -6.8860 H   0  0  0  0  0  0  0  0  0  0  0  0
   -1.5838    0.9115    1.7027 N   0  0  0  0  0  0  0  0  0  0  0  0
   -2.1457    1.7423    2.7433 C   0  0  2  0  0  0  0  0  0  0  0  0
   -2.7117    0.8274    3.8213 C   0  0  0  0  0  0  0  0  0  0  0  0
   -3.2246   -0.2622    3.5750 O   0  0  0  0  0  0  0  0  0  0  0  0
   -3.2222    2.6652    2.1935 C   0  0  0  0  0  0  0  0  0  0  0  0
   -2.0344    0.0193    1.5224 H   0  0  0  0  0  0  0  0  0  0  0  0
   -1.3202    2.3303    3.1589 H   0  0  0  0  0  0  0  0  0  0  0  0
   -4.0577    2.0940    1.7728 H   0  0  0  0  0  0  0  0  0  0  0  0
   -3.6268    3.3139    2.9774 H   0  0  0  0  0  0  0  0  0  0  0  0
   -2.8206    3.3018    1.3977 H   0  0  0  0  0  0  0  0  0  0  0  0
   -2.6156    1.3899    5.0864 N   0  0  0  0  0  0  0  0  0  0  0  0
   -3.1209    0.7360    6.2709 C   0  0  0  0  0  0  0  0  0  0  0  0
   -2.1392    2.2795    5.2029 H   0  0  0  0  0  0  0  0  0  0  0  0
   -4.1522    1.0676    6.4618 H   0  0  0  0  0  0  0  0  0  0  0  0
   -3.1080   -0.3538    6.1216 H   0  0  0  0  0  0  0  0  0  0  0  0
   -2.4871    0.9957    7.1316 H   0  0  0  0  0  0  0  0  0  0  0  0
  1  3  1  0  0  0  0
  1  7  1  0  0  0  0
  1  2  2  0  0  0  0
 39 40  1  0  0  0  0
 40 48  1  0  0  0  0
 40 41  2  0  0  0  0
  8  9  1  0  0  0  0
  9 17  1  0  0  0  0
  9 10  2  0  0  0  0
 18 19  1  0  0  0  0
 19 38  1  0  0  0  0
 19 20  2  0  0  0  0
 39 42  1  0  0  0  0
  8 11  1  0  0  0  0
 48 49  1  0  0  0  0
 22 23  1  0  0  0  0
 21 22  1  0  0  0  0
 23 24  1  0  0  0  0
 18 21  1  0  0  0  0
 24 25  1  0  0  0  0
 38 39  1  0  0  0  0
  7  8  1  0  0  0  0
 17 18  1  0  0  0  0
  3  4  1  0  0  0  0
  3  5  1  0  0  0  0
  3  6  1  0  0  0  0
 42 45  1  0  0  0  0
 42 46  1  0  0  0  0
 42 47  1  0  0  0  0
 11 14  1  0  0  0  0
 11 15  1  0  0  0  0
 11 16  1  0  0  0  0
 49 51  1  0  0  0  0
 49 52  1  0  0  0  0
 49 53  1  0  0  0  0
 22 30  1  0  0  0  0
 22 31  1  0  0  0  0
 23 32  1  0  0  0  0
 23 33  1  0  0  0  0
 21 28  1  0  0  0  0
 21 29  1  0  0  0  0
 24 34  1  0  0  0  0
 24 35  1  0  0  0  0
 39 44  1  0  0  0  0
  8 13  1  0  0  0  0
 18 27  1  0  0  0  0
 25 36  1  0  0  0  0
 25 37  1  0  0  0  0
 48 50  1  0  0  0  0
  7 12  1  0  0  0  0
 38 43  1  0  0  0  0
 17 26  1  0  0  0  0
M  END
$$$$

  -OEChem-05262214473D

 53 52  0     1  0  0  0  0  0999 V2000
   -1.0338   -5.6785    0.1476 C   0  0  0  0  0  0  0  0  0  0  0  0
   -2.0514   -5.7797    0.8227 O   0  0  0  0  0  0  0  0  0  0  0  0
   -0.6558   -6.7819   -0.7841 C   0  0  0  0  0  0  0  0  0  0  0  0
   -0.0111   -7.5354   -0.3038 H   0  0  0  0  0  0  0  0  0  0  0  0
   -1.5317   -7.3401   -1.1520 H   0  0  0  0  0  0  0  0  0  0  0  0
   -0.1109   -6.4687   -1.6890 H   0  0  0  0  0  0  0  0  0  0  0  0
   -0.1543   -4.6083    0.1480 N   0  0  0  0  0  0  0  0  0  0  0  0
   -0.3302   -3.4398    0.9696 C   0  0  2  0  0  0  0  0  0  0  0  0
    0.2328   -2.2439    0.2131 C   0  0  0  0  0  0  0  0  0  0  0  0
    1.2097   -2.3192   -0.5294 O   0  0  0  0  0  0  0  0  0  0  0  0
    0.3557   -3.6024    2.3171 C   0  0  0  0  0  0  0  0  0  0  0  0
    0.6584   -4.6506   -0.4643 H   0  0  0  0  0  0  0  0  0  0  0  0
   -1.4091   -3.3101    1.1082 H   0  0  0  0  0  0  0  0  0  0  0  0
    1.4375   -3.7336    2.1985 H   0  0  0  0  0  0  0  0  0  0  0  0
    0.1969   -2.7243    2.9517 H   0  0  0  0  0  0  0  0  0  0  0  0
   -0.0294   -4.4803    2.8470 H   0  0  0  0  0  0  0  0  0  0  0  0
   -0.4616   -1.0893    0.5050 N   0  0  0  0  0  0  0  0  0  0  0  0
   -0.0884    0.2050   -0.0621 C   0  0  2  0  0  0  0  0  0  0  0  0
   -0.4807    1.2817    0.9457 C   0  0  0  0  0  0  0  0  0  0  0  0
   -0.0506    2.4324    0.8985 O   0  0  0  0  0  0  0  0  0  0  0  0
   -0.7907    0.4781   -1.4006 C   0  0  0  0  0  0  0  0  0  0  0  0
   -0.3225   -0.4430   -2.5319 C   0  0  0  0  0  0  0  0  0  0  0  0
   -1.0349   -0.1123   -3.8463 C   0  0  0  0  0  0  0  0  0  0  0  0
   -0.5859   -1.0471   -4.9682 C   0  0  0  0  0  0  0  0  0  0  0  0
   -1.2926   -0.7310   -6.2037 N   0  0  0  0  0  0  0  0  0  0  0  0
   -1.2794   -1.1113    1.0935 H   0  0  0  0  0  0  0  0  0  0  0  0
    0.9992    0.2239   -0.2013 H   0  0  0  0  0  0  0  0  0  0  0  0
   -0.6098    1.5203   -1.6951 H   0  0  0  0  0  0  0  0  0  0  0  0
   -1.8783    0.3854   -1.2778 H   0  0  0  0  0  0  0  0  0  0  0  0
   -0.5183   -1.4896   -2.2727 H   0  0  0  0  0  0  0  0  0  0  0  0
    0.7607   -0.3373   -2.6660 H   0  0  0  0  0  0  0  0  0  0  0  0
   -2.1197   -0.1957   -3.7036 H   0  0  0  0  0  0  0  0  0  0  0  0
   -0.8247    0.9282   -4.1245 H   0  0  0  0  0  0  0  0  0  0  0  0
   -0.7821   -2.0895   -4.6944 H   0  0  0  0  0  0  0  0  0  0  0  0
    0.4912   -0.9434   -5.1366 H   0  0  0  0  0  0  0  0  0  0  0  0
   -1.9250    0.0128   -6.0211 H   0  0  0  0  0  0  0  0  0  0  0  0
   -0.6233   -0.4605   -6.8860 H   0  0  0  0  0  0  0  0  0  0  0  0
   -1.3493    0.7985    1.9147 N   0  0  0  0  0  0  0  0  0  0  0  0
   -1.8565    1.6082    2.9990 C   0  0  2  0  0  0  0  0  0  0  0  0
   -2.0518    0.7047    4.2094 C   0  0  0  0  0  0  0  0  0  0  0  0
   -2.3990   -0.4711    4.1196 O   0  0  0  0  0  0  0  0  0  0  0  0
   -3.1594    2.2927    2.6159 C   0  0  0  0  0  0  0  0  0  0  0  0
   -1.6595   -0.1675    1.8679 H   0  0  0  0  0  0  0  0  0  0  0  0
   -1.0879    2.3565    3.2214 H   0  0  0  0  0  0  0  0  0  0  0  0
   -3.9416    1.5590    2.3896 H   0  0  0  0  0  0  0  0  0  0  0  0
   -3.5275    2.9283    3.4281 H   0  0  0  0  0  0  0  0  0  0  0  0
   -3.0240    2.9190    1.7275 H   0  0  0  0  0  0  0  0  0  0  0  0
   -1.8347    1.3777    5.4035 N   0  0  0  0  0  0  0  0  0  0  0  0
   -1.9987    0.7493    6.6936 C   0  0  0  0  0  0  0  0  0  0  0  0
   -1.5105    2.3401    5.3829 H   0  0  0  0  0  0  0  0  0  0  0  0
   -3.0221    0.9211    7.0583 H   0  0  0  0  0  0  0  0  0  0  0  0
   -1.8196   -0.3320    6.6000 H   0  0  0  0  0  0  0  0  0  0  0  0
   -1.2789    1.1799    7.4052 H   0  0  0  0  0  0  0  0  0  0  0  0
  1  3  1  0  0  0  0
  1  7  1  0  0  0  0
  1  2  2  0  0  0  0
 39 40  1  0  0  0  0
 40 48  1  0  0  0  0
 40 41  2  0  0  0  0
  8  9  1  0  0  0  0
  9 17  1  0  0  0  0
  9 10  2  0  0  0  0
 18 19  1  0  0  0  0
 19 38  1  0  0  0  0
 19 20  2  0  0  0  0
 39 42  1  0  0  0  0
  8 11  1  0  0  0  0
 48 49  1  0  0  0  0
 22 23  1  0  0  0  0
 21 22  1  0  0  0  0
 23 24  1  0  0  0  0
 18 21  1  0  0  0  0
 24 25  1  0  0  0  0
 38 39  1  0  0  0  0
  7  8  1  0  0  0  0
 17 18  1  0  0  0  0
  3  4  1  0  0  0  0
  3  5  1  0  0  0  0
  3  6  1  0  0  0  0
 42 45  1  0  0  0  0
 42 46  1  0  0  0  0
 42 47  1  0  0  0  0
 11 14  1  0  0  0  0
 11 15  1  0  0  0  0
 11 16  1  0  0  0  0
 49 51  1  0  0  0  0
 49 52  1  0  0  0  0
 49 53  1  0  0  0  0
 22 30  1  0  0  0  0
 22 31  1  0  0  0  0
 23 32  1  0  0  0  0
 23 33  1  0  0  0  0
 21 28  1  0  0  0  0
 21 29  1  0  0  0  0
 24 34  1  0  0  0  0
 24 35  1  0  0  0  0
 39 44  1  0  0  0  0
  8 13  1  0  0  0  0
 18 27  1  0  0  0  0
 25 36  1  0  0  0  0
 25 37  1  0  0  0  0
 48 50  1  0  0  0  0
  7 12  1  0  0  0  0
 38 43  1  0  0  0  0
 17 26  1  0  0  0  0
M  END
$$$$

  -OEChem-05262214473D

 53 52  0     1  0  0  0  0  0999 V2000
   -1.0338   -5.6785    0.1476 C   0  0  0  0  0  0  0  0  0  0  0  0
   -2.0514   -5.7797    0.8227 O   0  0  0  0  0  0  0  0  0  0  0  0
   -0.6558   -6.7819   -0.7841 C   0  0  0  0  0  0  0  0  0  0  0  0
   -0.0111   -7.5354   -0.3038 H   0  0  0  0  0  0  0  0  0  0  0  0
   -1.5317   -7.3401   -1.1520 H   0  0  0  0  0  0  0  0  0  0  0  0
   -0.1109   -6.4687   -1.6890 H   0  0  0  0  0  0  0  0  0  0  0  0
   -0.1543   -4.6083    0.1480 N   0  0  0  0  0  0  0  0  0  0  0  0
   -0.3302   -3.4398    0.9696 C   0  0  2  0  0  0  0  0  0  0  0  0
    0.2328   -2.2439    0.2131 C   0  0  0  0  0  0  0  0  0  0  0  0
    1.2097   -2.3192   -0.5294 O   0  0  0  0  0  0  0  0  0  0  0  0
    0.3557   -3.6024    2.3171 C   0  0  0  0  0  0  0  0  0  0  0  0
    0.6584   -4.6506   -0.4643 H   0  0  0  0  0  0  0  0  0  0  0  0
   -1.4091   -3.3101    1.1082 H   0  0  0  0  0  0  0  0  0  0  0  0
    1.4375   -3.7336    2.1985 H   0  0  0  0  0  0  0  0  0  0  0  0
    0.1969   -2.7243    2.9517 H   0  0  0  0  0  0  0  0  0  0  0  0
   -0.0294   -4.4803    2.8470 H   0  0  0  0  0  0  0  0  0  0  0  0
   -0.4616   -1.0893    0.5050 N   0  0  0  0  0  0  0  0  0  0  0  0
   -0.0884    0.2050   -0.0621 C   0  0  2  0  0  0  0  0  0  0  0  0
   -0.4807    1.2817    0.9457 C   0  0  0  0  0  0  0  0  0  0  0  0
   -0.2764    2.4797    0.7601 O   0  0  0  0  0  0  0  0  0  0  0  0
   -0.7907    0.4781   -1.4006 C   0  0  0  0  0  0  0  0  0  0  0  0
   -0.3225   -0.4430   -2.5319 C   0  0  0  0  0  0  0  0  0  0  0  0
   -1.0349   -0.1123   -3.8463 C   0  0  0  0  0  0  0  0  0  0  0  0
   -0.5859   -1.0471   -4.9682 C   0  0  0  0  0  0  0  0  0  0  0  0
   -1.2926   -0.7310   -6.2037 N   0  0  0  0  0  0  0  0  0  0  0  0
   -1.2794   -1.1113    1.0935 H   0  0  0  0  0  0  0  0  0  0  0  0
    0.9992    0.2239   -0.2013 H   0  0  0  0  0  0  0  0  0  0  0  0
   -0.6098    1.5203   -1.6951 H   0  0  0  0  0  0  0  0  0  0  0  0
   -1.8783    0.3854   -1.2778 H   0  0  0  0  0  0  0  0  0  0  0  0
   -0.5183   -1.4896   -2.2727 H   0  0  0  0  0  0  0  0  0  0  0  0
    0.7607   -0.3373   -2.6660 H   0  0  0  0  0  0  0  0  0  0  0  0
   -2.1197   -0.1957   -3.7036 H   0  0  0  0  0  0  0  0  0  0  0  0
   -0.8247    0.9282   -4.1245 H   0  0  0  0  0  0  0  0  0  0  0  0
   -0.7821   -2.0895   -4.6944 H   0  0  0  0  0  0  0  0  0  0  0  0
    0.4912   -0.9434   -5.1366 H   0  0  0  0  0  0  0  0  0  0  0  0
   -1.9250    0.0128   -6.0211 H   0  0  0  0  0  0  0  0  0  0  0  0
   -0.6233   -0.4605   -6.8860 H   0  0  0  0  0  0  0  0  0  0  0  0
   -1.0647    0.7435    2.0842 N   0  0  0  0  0  0  0  0  0  0  0  0
   -1.5076    1.5452    3.2022 C   0  0  2  0  0  0  0  0  0  0  0  0
   -1.3226    0.7247    4.4719 C   0  0  0  0  0  0  0  0  0  0  0  0
   -1.4663   -0.4956    4.5088 O   0  0  0  0  0  0  0  0  0  0  0  0
   -2.9579    1.9718    3.0372 C   0  0  0  0  0  0  0  0  0  0  0  0
   -1.2023   -0.2609    2.1457 H   0  0  0  0  0  0  0  0  0  0  0  0
   -0.8566    2.4256    3.2376 H   0  0  0  0  0  0  0  0  0  0  0  0
   -3.6253    1.1031    2.9997 H   0  0  0  0  0  0  0  0  0  0  0  0
   -3.2832    2.6028    3.8709 H   0  0  0  0  0  0  0  0  0  0  0  0
   -3.0948    2.5364    2.1086 H   0  0  0  0  0  0  0  0  0  0  0  0
   -1.0204    1.5204    5.5681 N   0  0  0  0  0  0  0  0  0  0  0  0
   -0.8398    0.9820    6.8961 C   0  0  0  0  0  0  0  0  0  0  0  0
   -0.8806    2.5180    5.4380 H   0  0  0  0  0  0  0  0  0  0  0  0
   -1.7967    1.0123    7.4379 H   0  0  0  0  0  0  0  0  0  0  0  0
   -0.4914   -0.0589    6.8254 H   0  0  0  0  0  0  0  0  0  0  0  0
   -0.0934    1.5826    7.4366 H   0  0  0  0  0  0  0  0  0  0  0  0
  1  3  1  0  0  0  0
  1  7  1  0  0  0  0
  1  2  2  0  0  0  0
 39 40  1  0  0  0  0
 40 48  1  0  0  0  0
 40 41  2  0  0  0  0
  8  9  1  0  0  0  0
  9 17  1  0  0  0  0
  9 10  2  0  0  0  0
 18 19  1  0  0  0  0
 19 38  1  0  0  0  0
 19 20  2  0  0  0  0
 39 42  1  0  0  0  0
  8 11  1  0  0  0  0
 48 49  1  0  0  0  0
 22 23  1  0  0  0  0
 21 22  1  0  0  0  0
 23 24  1  0  0  0  0
 18 21  1  0  0  0  0
 24 25  1  0  0  0  0
 38 39  1  0  0  0  0
  7  8  1  0  0  0  0
 17 18  1  0  0  0  0
  3  4  1  0  0  0  0
  3  5  1  0  0  0  0
  3  6  1  0  0  0  0
 42 45  1  0  0  0  0
 42 46  1  0  0  0  0
 42 47  1  0  0  0  0
 11 14  1  0  0  0  0
 11 15  1  0  0  0  0
 11 16  1  0  0  0  0
 49 51  1  0  0  0  0
 49 52  1  0  0  0  0
 49 53  1  0  0  0  0
 22 30  1  0  0  0  0
 22 31  1  0  0  0  0
 23 32  1  0  0  0  0
 23 33  1  0  0  0  0
 21 28  1  0  0  0  0
 21 29  1  0  0  0  0
 24 34  1  0  0  0  0
 24 35  1  0  0  0  0
 39 44  1  0  0  0  0
  8 13  1  0  0  0  0
 18 27  1  0  0  0  0
 25 36  1  0  0  0  0
 25 37  1  0  0  0  0
 48 50  1  0  0  0  0
  7 12  1  0  0  0  0
 38 43  1  0  0  0  0
 17 26  1  0  0  0  0
M  END
$$$$

  -OEChem-05262214473D

 53 52  0     1  0  0  0  0  0999 V2000
   -1.0338   -5.6785    0.1476 C   0  0  0  0  0  0  0  0  0  0  0  0
   -2.0514   -5.7797    0.8227 O   0  0  0  0  0  0  0  0  0  0  0  0
   -0.6558   -6.7819   -0.7841 C   0  0  0  0  0  0  0  0  0  0  0  0
   -0.0111   -7.5354   -0.3038 H   0  0  0  0  0  0  0  0  0  0  0  0
   -1.5317   -7.3401   -1.1520 H   0  0  0  0  0  0  0  0  0  0  0  0
   -0.1109   -6.4687   -1.6890 H   0  0  0  0  0  0  0  0  0  0  0  0
   -0.1543   -4.6083    0.1480 N   0  0  0  0  0  0  0  0  0  0  0  0
   -0.3302   -3.4398    0.9696 C   0  0  2  0  0  0  0  0  0  0  0  0
    0.2328   -2.2439    0.2131 C   0  0  0  0  0  0  0  0  0  0  0  0
    1.2097   -2.3192   -0.5294 O   0  0  0  0  0  0  0  0  0  0  0  0
    0.3557   -3.6024    2.3171 C   0  0  0  0  0  0  0  0  0  0  0  0
    0.6584   -4.6506   -0.4643 H   0  0  0  0  0  0  0  0  0  0  0  0
   -1.4091   -3.3101    1.1082 H   0  0  0  0  0  0  0  0  0  0  0  0
    1.4375   -3.7336    2.1985 H   0  0  0  0  0  0  0  0  0  0  0  0
    0.1969   -2.7243    2.9517 H   0  0  0  0  0  0  0  0  0  0  0  0
   -0.0294   -4.4803    2.8470 H   0  0  0  0  0  0  0  0  0  0  0  0
   -0.4616   -1.0893    0.5050 N   0  0  0  0  0  0  0  0  0  0  0  0
   -0.0884    0.2050   -0.0621 C   0  0  2  0  0  0  0  0  0  0  0  0
   -0.4807    1.2817    0.9457 C   0  0  0  0  0  0  0  0  0  0  0  0
   -0.5280    2.4775    0.6645 O   0  0  0  0  0  0  0  0  0  0  0  0
   -0.7907    0.4781   -1.4006 C   0  0  0  0  0  0  0  0  0  0  0  0
   -0.3225   -0.4430   -2.5319 C   0  0  0  0  0  0  0  0  0  0  0  0
   -1.0349   -0.1123   -3.8463 C   0  0  0  0  0  0  0  0  0  0  0  0
   -0.5859   -1.0471   -4.9682 C   0  0  0  0  0  0  0  0  0  0  0  0
   -1.2926   -0.7310   -6.2037 N   0  0  0  0  0  0  0  0  0  0  0  0
   -1.2794   -1.1113    1.0935 H   0  0  0  0  0  0  0  0  0  0  0  0
    0.9992    0.2239   -0.2013 H   0  0  0  0  0  0  0  0  0  0  0  0
   -0.6098    1.5203   -1.6951 H   0  0  0  0  0  0  0  0  0  0  0  0
   -1.8783    0.3854   -1.2778 H   0  0  0  0  0  0  0  0  0  0  0  0
   -0.5183   -1.4896   -2.2727 H   0  0  0  0  0  0  0  0  0  0  0  0
    0.7607   -0.3373   -2.6660 H   0  0  0  0  0  0  0  0  0  0  0  0
   -2.1197   -0.1957   -3.7036 H   0  0  0  0  0  0  0  0  0  0  0  0
   -0.8247    0.9282   -4.1245 H   0  0  0  0  0  0  0  0  0  0  0  0
   -0.7821   -2.0895   -4.6944 H   0  0  0  0  0  0  0  0  0  0  0  0
    0.4912   -0.9434   -5.1366 H   0  0  0  0  0  0  0  0  0  0  0  0
   -1.9250    0.0128   -6.0211 H   0  0  0  0  0  0  0  0  0  0  0  0
   -0.6233   -0.4605   -6.8860 H   0  0  0  0  0  0  0  0  0  0  0  0
   -0.7495    0.7503    2.1996 N   0  0  0  0  0  0  0  0  0  0  0  0
   -1.1226    1.5575    3.3389 C   0  0  2  0  0  0  0  0  0  0  0  0
   -0.5737    0.8862    4.5909 C   0  0  0  0  0  0  0  0  0  0  0  0
   -0.4902   -0.3338    4.7161 O   0  0  0  0  0  0  0  0  0  0  0  0
   -2.6315    1.7243    3.4287 C   0  0  0  0  0  0  0  0  0  0  0  0
   -0.6939   -0.2545    2.3367 H   0  0  0  0  0  0  0  0  0  0  0  0
   -0.6420    2.5330    3.2064 H   0  0  0  0  0  0  0  0  0  0  0  0
   -3.1304    0.7573    3.5617 H   0  0  0  0  0  0  0  0  0  0  0  0
   -2.9108    2.3595    4.2757 H   0  0  0  0  0  0  0  0  0  0  0  0
   -3.0283    2.1801    2.5151 H   0  0  0  0  0  0  0  0  0  0  0  0
   -0.2283    1.8084    5.5689 N   0  0  0  0  0  0  0  0  0  0  0  0
    0.2768    1.4185    6.8646 C   0  0  0  0  0  0  0  0  0  0  0  0
   -0.2926    2.8013    5.3644 H   0  0  0  0  0  0  0  0  0  0  0  0
   -0.5592    1.3353    7.5747 H   0  0  0  0  0  0  0  0  0  0  0  0
    0.7859    0.4469    6.7823 H   0  0  0  0  0  0  0  0  0  0  0  0
    0.9887    2.1762    7.2237 H   0  0  0  0  0  0  0  0  0  0  0  0
  1  3  1  0  0  0  0
  1  7  1  0  0  0  0
  1  2  2  0  0  0  0
 39 40  1  0  0  0  0
 40 48  1  0  0  0  0
 40 41  2  0  0  0  0
  8  9  1  0  0  0  0
  9 17  1  0  0  0  0
  9 10  2  0  0  0  0
 18 19  1  0  0  0  0
 19 38  1  0  0  0  0
 19 20  2  0  0  0  0
 39 42  1  0  0  0  0
  8 11  1  0  0  0  0
 48 49  1  0  0  0  0
 22 23  1  0  0  0  0
 21 22  1  0  0  0  0
 23 24  1  0  0  0  0
 18 21  1  0  0  0  0
 24 25  1  0  0  0  0
 38 39  1  0  0  0  0
  7  8  1  0  0  0  0
 17 18  1  0  0  0  0
  3  4  1  0  0  0  0
  3  5  1  0  0  0  0
  3  6  1  0  0  0  0
 42 45  1  0  0  0  0
 42 46  1  0  0  0  0
 42 47  1  0  0  0  0
 11 14  1  0  0  0  0
 11 15  1  0  0  0  0
 11 16  1  0  0  0  0
 49 51  1  0  0  0  0
 49 52  1  0  0  0  0
 49 53  1  0  0  0  0
 22 30  1  0  0  0  0
 22 31  1  0  0  0  0
 23 32  1  0  0  0  0
 23 33  1  0  0  0  0
 21 28  1  0  0  0  0
 21 29  1  0  0  0  0
 24 34  1  0  0  0  0
 24 35  1  0  0  0  0
 39 44  1  0  0  0  0
  8 13  1  0  0  0  0
 18 27  1  0  0  0  0
 25 36  1  0  0  0  0
 25 37  1  0  0  0  0
 48 50  1  0  0  0  0
  7 12  1  0  0  0  0
 38 43  1  0  0  0  0
 17 26  1  0  0  0  0
M  END
$$$$

  -OEChem-05262214473D

 53 52  0     1  0  0  0  0  0999 V2000
   -1.0338   -5.6785    0.1476 C   0  0  0  0  0  0  0  0  0  0  0  0
   -2.0514   -5.7797    0.8227 O   0  0  0  0  0  0  0  0  0  0  0  0
   -0.6558   -6.7819   -0.7841 C   0  0  0  0  0  0  0  0  0  0  0  0
   -0.0111   -7.5354   -0.3038 H   0  0  0  0  0  0  0  0  0  0  0  0
   -1.5317   -7.3401   -1.1520 H   0  0  0  0  0  0  0  0  0  0  0  0
   -0.1109   -6.4687   -1.6890 H   0  0  0  0  0  0  0  0  0  0  0  0
   -0.1543   -4.6083    0.1480 N   0  0  0  0  0  0  0  0  0  0  0  0
   -0.3302   -3.4398    0.9696 C   0  0  2  0  0  0  0  0  0  0  0  0
    0.2328   -2.2439    0.2131 C   0  0  0  0  0  0  0  0  0  0  0  0
    1.2097   -2.3192   -0.5294 O   0  0  0  0  0  0  0  0  0  0  0  0
    0.3557   -3.6024    2.3171 C   0  0  0  0  0  0  0  0  0  0  0  0
    0.6584   -4.6506   -0.4643 H   0  0  0  0  0  0  0  0  0  0  0  0
   -1.4091   -3.3101    1.1082 H   0  0  0  0  0  0  0  0  0  0  0  0
    1.4375   -3.7336    2.1985 H   0  0  0  0  0  0  0  0  0  0  0  0
    0.1969   -2.7243    2.9517 H   0  0  0  0  0  0  0  0  0  0  0  0
   -0.0294   -4.4803    2.8470 H   0  0  0  0  0  0  0  0  0  0  0  0
   -0.4616   -1.0893    0.5050 N   0  0  0  0  0  0  0  0  0  0  0  0
   -0.0884    0.2050   -0.0621 C   0  0  2  0  0  0  0  0  0  0  0  0
   -0.4807    1.2817    0.9457 C   0  0  0  0  0  0  0  0  0  0  0  0
   -0.7880    2.4261    0.6182 O   0  0  0  0  0  0  0  0  0  0  0  0
   -0.7907    0.4781   -1.4006 C   0  0  0  0  0  0  0  0  0  0  0  0
   -0.3225   -0.4430   -2.5319 C   0  0  0  0  0  0  0  0  0  0  0  0
   -1.0349   -0.1123   -3.8463 C   0  0  0  0  0  0  0  0  0  0  0  0
   -0.5859   -1.0471   -4.9682 C   0  0  0  0  0  0  0  0  0  0  0  0
   -1.2926   -0.7310   -6.2037 N   0  0  0  0  0  0  0  0  0  0  0  0
   -1.2794   -1.1113    1.0935 H   0  0  0  0  0  0  0  0  0  0  0  0
    0.9992    0.2239   -0.2013 H   0  0  0  0  0  0  0  0  0  0  0  0
   -0.6098    1.5203   -1.6951 H   0  0  0  0  0  0  0  0  0  0  0  0
   -1.8783    0.3854   -1.2778 H   0  0  0  0  0  0  0  0  0  0  0  0
   -0.5183   -1.4896   -2.2727 H   0  0  0  0  0  0  0  0  0  0  0  0
    0.7607   -0.3373   -2.6660 H   0  0  0  0  0  0  0  0  0  0  0  0
   -2.1197   -0.1957   -3.7036 H   0  0  0  0  0  0  0  0  0  0  0  0
   -0.8247    0.9282   -4.1245 H   0  0  0  0  0  0  0  0  0  0  0  0
   -0.7821   -2.0895   -4.6944 H   0  0  0  0  0  0  0  0  0  0  0  0
    0.4912   -0.9434   -5.1366 H   0  0  0  0  0  0  0  0  0  0  0  0
   -1.9250    0.0128   -6.0211 H   0  0  0  0  0  0  0  0  0  0  0  0
   -0.6233   -0.4605   -6.8860 H   0  0  0  0  0  0  0  0  0  0  0  0
   -0.4252    0.8185    2.2531 N   0  0  0  0  0  0  0  0  0  0  0  0
   -0.7279    1.6443    3.3999 C   0  0  2  0  0  0  0  0  0  0  0  0
    0.1438    1.1781    4.5584 C   0  0  0  0  0  0  0  0  0  0  0  0
    0.4629    0.0030    4.7273 O   0  0  0  0  0  0  0  0  0  0  0  0
   -2.2025    1.5670    3.7637 C   0  0  0  0  0  0  0  0  0  0  0  0
   -0.1691   -0.1487    2.4280 H   0  0  0  0  0  0  0  0  0  0  0  0
   -0.4588    2.6713    3.1299 H   0  0  0  0  0  0  0  0  0  0  0  0
   -2.4907    0.5454    4.0371 H   0  0  0  0  0  0  0  0  0  0  0  0
   -2.4357    2.2152    4.6149 H   0  0  0  0  0  0  0  0  0  0  0  0
   -2.8289    1.8743    2.9193 H   0  0  0  0  0  0  0  0  0  0  0  0
    0.4878    2.2220    5.4058 N   0  0  0  0  0  0  0  0  0  0  0  0
    1.2749    2.0288    6.6012 C   0  0  0  0  0  0  0  0  0  0  0  0
    0.2136    3.1705    5.1671 H   0  0  0  0  0  0  0  0  0  0  0  0
    0.6058    1.8678    7.4594 H   0  0  0  0  0  0  0  0  0  0  0  0
    1.9254    1.1509    6.4739 H   0  0  0  0  0  0  0  0  0  0  0  0
    1.8935    2.9205    6.7810 H   0  0  0  0  0  0  0  0  0  0  0  0
  1  3  1  0  0  0  0
  1  7  1  0  0  0  0
  1  2  2  0  0  0  0
 39 40  1  0  0  0  0
 40 48  1  0  0  0  0
 40 41  2  0  0  0  0
  8  9  1  0  0  0  0
  9 17  1  0  0  0  0
  9 10  2  0  0  0  0
 18 19  1  0  0  0  0
 19 38  1  0  0  0  0
 19 20  2  0  0  0  0
 39 42  1  0  0  0  0
  8 11  1  0  0  0  0
 48 49  1  0  0  0  0
 22 23  1  0  0  0  0
 21 22  1  0  0  0  0
 23 24  1  0  0  0  0
 18 21  1  0  0  0  0
 24 25  1  0  0  0  0
 38 39  1  0  0  0  0
  7  8  1  0  0  0  0
 17 18  1  0  0  0  0
  3  4  1  0  0  0  0
  3  5  1  0  0  0  0
  3  6  1  0  0  0  0
 42 45  1  0  0  0  0
 42 46  1  0  0  0  0
 42 47  1  0  0  0  0
 11 14  1  0  0  0  0
 11 15  1  0  0  0  0
 11 16  1  0  0  0  0
 49 51  1  0  0  0  0
 49 52  1  0  0  0  0
 49 53  1  0  0  0  0
 22 30  1  0  0  0  0
 22 31  1  0  0  0  0
 23 32  1  0  0  0  0
 23 33  1  0  0  0  0
 21 28  1  0  0  0  0
 21 29  1  0  0  0  0
 24 34  1  0  0  0  0
 24 35  1  0  0  0  0
 39 44  1  0  0  0  0
  8 13  1  0  0  0  0
 18 27  1  0  0  0  0
 25 36  1  0  0  0  0
 25 37  1  0  0  0  0
 48 50  1  0  0  0  0
  7 12  1  0  0  0  0
 38 43  1  0  0  0  0
 17 26  1  0  0  0  0
M  END
$$$$

  -OEChem-05262214473D

 53 52  0     1  0  0  0  0  0999 V2000
   -1.0338   -5.6785    0.1476 C   0  0  0  0  0  0  0  0  0  0  0  0
   -2.0514   -5.7797    0.8227 O   0  0  0  0  0  0  0  0  0  0  0  0
   -0.6558   -6.7819   -0.7841 C   0  0  0  0  0  0  0  0  0  0  0  0
   -0.0111   -7.5354   -0.3038 H   0  0  0  0  0  0  0  0  0  0  0  0
   -1.5317   -7.3401   -1.1520 H   0  0  0  0  0  0  0  0  0  0  0  0
   -0.1109   -6.4687   -1.6890 H   0  0  0  0  0  0  0  0  0  0  0  0
   -0.1543   -4.6083    0.1480 N   0  0  0  0  0  0  0  0  0  0  0  0
   -0.3302   -3.4398    0.9696 C   0  0  2  0  0  0  0  0  0  0  0  0
    0.2328   -2.2439    0.2131 C   0  0  0  0  0  0  0  0  0  0  0  0
    1.2097   -2.3192   -0.5294 O   0  0  0  0  0  0  0  0  0  0  0  0
    0.3557   -3.6024    2.3171 C   0  0  0  0  0  0  0  0  0  0  0  0
    0.6584   -4.6506   -0.4643 H   0  0  0  0  0  0  0  0  0  0  0  0
   -1.4091   -3.3101    1.1082 H   0  0  0  0  0  0  0  0  0  0  0  0
    1.4375   -3.7336    2.1985 H   0  0  0  0  0  0  0  0  0  0  0  0
    0.1969   -2.7243    2.9517 H   0  0  0  0  0  0  0  0  0  0  0  0
   -0.0294   -4.4803    2.8470 H   0  0  0  0  0  0  0  0  0  0  0  0
   -0.4616   -1.0893    0.5050 N   0  0  0  0  0  0  0  0  0  0  0  0
   -0.0884    0.2050   -0.0621 C   0  0  2  0  0  0  0  0  0  0  0  0
   -0.4807    1.2817    0.9457 C   0  0  0  0  0  0  0  0  0  0  0  0
   -1.0388    2.3289    0.6243 O   0  0  0  0  0  0  0  0  0  0  0  0
   -0.7907    0.4781   -1.4006 C   0  0  0  0  0  0  0  0  0  0  0  0
   -0.3225   -0.4430   -2.5319 C   0  0  0  0  0  0  0  0  0  0  0  0
   -1.0349   -0.1123   -3.8463 C   0  0  0  0  0  0  0  0  0  0  0  0
   -0.5859   -1.0471   -4.9682 C   0  0  0  0  0  0  0  0  0  0  0  0
   -1.2926   -0.7310   -6.2037 N   0  0  0  0  0  0  0  0  0  0  0  0
   -1.2794   -1.1113    1.0935 H   0  0  0  0  0  0  0  0  0  0  0  0
    0.9992    0.2239   -0.2013 H   0  0  0  0  0  0  0  0  0  0  0  0
   -0.6098    1.5203   -1.6951 H   0  0  0  0  0  0  0  0  0  0  0  0
   -1.8783    0.3854   -1.2778 H   0  0  0  0  0  0  0  0  0  0  0  0
   -0.5183   -1.4896   -2.2727 H   0  0  0  0  0  0  0  0  0  0  0  0
    0.7607   -0.3373   -2.6660 H   0  0  0  0  0  0  0  0  0  0  0  0
   -2.1197   -0.1957   -3.7036 H   0  0  0  0  0  0  0  0  0  0  0  0
   -0.8247    0.9282   -4.1245 H   0  0  0  0  0  0  0  0  0  0  0  0
   -0.7821   -2.0895   -4.6944 H   0  0  0  0  0  0  0  0  0  0  0  0
    0.4912   -0.9434   -5.1366 H   0  0  0  0  0  0  0  0  0  0  0  0
   -1.9250    0.0128   -6.0211 H   0  0  0  0  0  0  0  0  0  0  0  0
   -0.6233   -0.4605   -6.8860 H   0  0  0  0  0  0  0  0  0  0  0  0
   -0.1138    0.9433    2.2410 N   0  0  0  0  0  0  0  0  0  0  0  0
   -0.3503    1.7997    3.3809 C   0  0  2  0  0  0  0  0  0  0  0  0
    0.7810    1.5805    4.3766 C   0  0  0  0  0  0  0  0  0  0  0  0
    1.3279    0.4920    4.5416 O   0  0  0  0  0  0  0  0  0  0  0  0
   -1.7000    1.5107    4.0195 C   0  0  0  0  0  0  0  0  0  0  0  0
    0.3364    0.0493    2.4133 H   0  0  0  0  0  0  0  0  0  0  0  0
   -0.3195    2.8312    3.0134 H   0  0  0  0  0  0  0  0  0  0  0  0
   -1.7498    0.4817    4.3937 H   0  0  0  0  0  0  0  0  0  0  0  0
   -1.8901    2.1796    4.8654 H   0  0  0  0  0  0  0  0  0  0  0  0
   -2.5102    1.6400    3.2937 H   0  0  0  0  0  0  0  0  0  0  0  0
    1.0790    2.7331    5.0900 N   0  0  0  0  0  0  0  0  0  0  0  0
    2.0867    2.7714    6.1240 C   0  0  0  0  0  0  0  0  0  0  0  0
    0.6033    3.6005    4.8595 H   0  0  0  0  0  0  0  0  0  0  0  0
    1.6191    2.5737    7.0999 H   0  0  0  0  0  0  0  0  0  0  0  0
    2.8494    2.0052    5.9210 H   0  0  0  0  0  0  0  0  0  0  0  0
    2.5594    3.7645    6.1385 H   0  0  0  0  0  0  0  0  0  0  0  0
  1  3  1  0  0  0  0
  1  7  1  0  0  0  0
  1  2  2  0  0  0  0
 39 40  1  0  0  0  0
 40 48  1  0  0  0  0
 40 41  2  0  0  0  0
  8  9  1  0  0  0  0
  9 17  1  0  0  0  0
  9 10  2  0  0  0  0
 18 19  1  0  0  0  0
 19 38  1  0  0  0  0
 19 20  2  0  0  0  0
 39 42  1  0  0  0  0
  8 11  1  0  0  0  0
 48 49  1  0  0  0  0
 22 23  1  0  0  0  0
 21 22  1  0  0  0  0
 23 24  1  0  0  0  0
 18 21  1  0  0  0  0
 24 25  1  0  0  0  0
 38 39  1  0  0  0  0
  7  8  1  0  0  0  0
 17 18  1  0  0  0  0
  3  4  1  0  0  0  0
  3  5  1  0  0  0  0
  3  6  1  0  0  0  0
 42 45  1  0  0  0  0
 42 46  1  0  0  0  0
 42 47  1  0  0  0  0
 11 14  1  0  0  0  0
 11 15  1  0  0  0  0
 11 16  1  0  0  0  0
 49 51  1  0  0  0  0
 49 52  1  0  0  0  0
 49 53  1  0  0  0  0
 22 30  1  0  0  0  0
 22 31  1  0  0  0  0
 23 32  1  0  0  0  0
 23 33  1  0  0  0  0
 21 28  1  0  0  0  0
 21 29  1  0  0  0  0
 24 34  1  0  0  0  0
 24 35  1  0  0  0  0
 39 44  1  0  0  0  0
  8 13  1  0  0  0  0
 18 27  1  0  0  0  0
 25 36  1  0  0  0  0
 25 37  1  0  0  0  0
 48 50  1  0  0  0  0
  7 12  1  0  0  0  0
 38 43  1  0  0  0  0
 17 26  1  0  0  0  0
M  END
$$$$

  -OEChem-05262214473D

 53 52  0     1  0  0  0  0  0999 V2000
   -1.0338   -5.6785    0.1476 C   0  0  0  0  0  0  0  0  0  0  0  0
   -2.0514   -5.7797    0.8227 O   0  0  0  0  0  0  0  0  0  0  0  0
   -0.6558   -6.7819   -0.7841 C   0  0  0  0  0  0  0  0  0  0  0  0
   -0.0111   -7.5354   -0.3038 H   0  0  0  0  0  0  0  0  0  0  0  0
   -1.5317   -7.3401   -1.1520 H   0  0  0  0  0  0  0  0  0  0  0  0
   -0.1109   -6.4687   -1.6890 H   0  0  0  0  0  0  0  0  0  0  0  0
   -0.1543   -4.6083    0.1480 N   0  0  0  0  0  0  0  0  0  0  0  0
   -0.3302   -3.4398    0.9696 C   0  0  2  0  0  0  0  0  0  0  0  0
    0.2328   -2.2439    0.2131 C   0  0  0  0  0  0  0  0  0  0  0  0
    1.2097   -2.3192   -0.5294 O   0  0  0  0  0  0  0  0  0  0  0  0
    0.3557   -3.6024    2.3171 C   0  0  0  0  0  0  0  0  0  0  0  0
    0.6584   -4.6506   -0.4643 H   0  0  0  0  0  0  0  0  0  0  0  0
   -1.4091   -3.3101    1.1082 H   0  0  0  0  0  0  0  0  0  0  0  0
    1.4375   -3.7336    2.1985 H   0  0  0  0  0  0  0  0  0  0  0  0
    0.1969   -2.7243    2.9517 H   0  0  0  0  0  0  0  0  0  0  0  0
   -0.0294   -4.4803    2.8470 H   0  0  0  0  0  0  0  0  0  0  0  0
   -0.4616   -1.0893    0.5050 N   0  0  0  0  0  0  0  0  0  0  0  0
   -0.0884    0.2050   -0.0621 C   0  0  2  0  0  0  0  0  0  0  0  0
   -0.4807    1.2817    0.9457 C   0  0  0  0  0  0  0  0  0  0  0  0
   -1.2634    2.1925    0.6826 O   0  0  0  0  0  0  0  0  0  0  0  0
   -0.7907    0.4781   -1.4006 C   0  0  0  0  0  0  0  0  0  0  0  0
   -0.3225   -0.4430   -2.5319 C   0  0  0  0  0  0  0  0  0  0  0  0
   -1.0349   -0.1123   -3.8463 C   0  0  0  0  0  0  0  0  0  0  0  0
   -0.5859   -1.0471   -4.9682 C   0  0  0  0  0  0  0  0  0  0  0  0
   -1.2926   -0.7310   -6.2037 N   0  0  0  0  0  0  0  0  0  0  0  0
   -1.2794   -1.1113    1.0935 H   0  0  0  0  0  0  0  0  0  0  0  0
    0.9992    0.2239   -0.2013 H   0  0  0  0  0  0  0  0  0  0  0  0
   -0.6098    1.5203   -1.6951 H   0  0  0  0  0  0  0  0  0  0  0  0
   -1.8783    0.3854   -1.2778 H   0  0  0  0  0  0  0  0  0  0  0  0
   -0.5183   -1.4896   -2.2727 H   0  0  0  0  0  0  0  0  0  0  0  0
    0.7607   -0.3373   -2.6660 H   0  0  0  0  0  0  0  0  0  0  0  0
   -2.1197   -0.1957   -3.7036 H   0  0  0  0  0  0  0  0  0  0  0  0
   -0.8247    0.9282   -4.1245 H   0  0  0  0  0  0  0  0  0  0  0  0
   -0.7821   -2.0895   -4.6944 H   0  0  0  0  0  0  0  0  0  0  0  0
    0.4912   -0.9434   -5.1366 H   0  0  0  0  0  0  0  0  0  0  0  0
   -1.9250    0.0128   -6.0211 H   0  0  0  0  0  0  0  0  0  0  0  0
   -0.6233   -0.4605   -6.8860 H   0  0  0  0  0  0  0  0  0  0  0  0
    0.1635    1.1163    2.1641 N   0  0  0  0  0  0  0  0  0  0  0  0
   -0.0157    2.0130    3.2833 C   0  0  2  0  0  0  0  0  0  0  0  0
    1.2946    2.0661    4.0579 C   0  0  0  0  0  0  0  0  0  0  0  0
    2.0460    1.0999    4.1719 O   0  0  0  0  0  0  0  0  0  0  0  0
   -1.1583    1.5593    4.1785 C   0  0  0  0  0  0  0  0  0  0  0  0
    0.7881    0.3260    2.2936 H   0  0  0  0  0  0  0  0  0  0  0  0
   -0.2335    3.0017    2.8648 H   0  0  0  0  0  0  0  0  0  0  0  0
   -0.9581    0.5705    4.6070 H   0  0  0  0  0  0  0  0  0  0  0  0
   -1.3112    2.2551    5.0100 H   0  0  0  0  0  0  0  0  0  0  0  0
   -2.0939    1.4930    3.6128 H   0  0  0  0  0  0  0  0  0  0  0  0
    1.5051    3.3068    4.6430 N   0  0  0  0  0  0  0  0  0  0  0  0
    2.6567    3.5957    5.4654 C   0  0  0  0  0  0  0  0  0  0  0  0
    0.8501    4.0620    4.4626 H   0  0  0  0  0  0  0  0  0  0  0  0
    2.4116    3.4048    6.5206 H   0  0  0  0  0  0  0  0  0  0  0  0
    3.4950    2.9516    5.1614 H   0  0  0  0  0  0  0  0  0  0  0  0
    2.9410    4.6509    5.3403 H   0  0  0  0  0  0  0  0  0  0  0  0
  1  3  1  0  0  0  0
  1  7  1  0  0  0  0
  1  2  2  0  0  0  0
 39 40  1  0  0  0  0
 40 48  1  0  0  0  0
 40 41  2  0  0  0  0
  8  9  1  0  0  0  0
  9 17  1  0  0  0  0
  9 10  2  0  0  0  0
 18 19  1  0  0  0  0
 19 38  1  0  0  0  0
 19 20  2  0  0  0  0
 39 42  1  0  0  0  0
  8 11  1  0  0  0  0
 48 49  1  0  0  0  0
 22 23  1  0  0  0  0
 21 22  1  0  0  0  0
 23 24  1  0  0  0  0
 18 21  1  0  0  0  0
 24 25  1  0  0  0  0
 38 39  1  0  0  0  0
  7  8  1  0  0  0  0
 17 18  1  0  0  0  0
  3  4  1  0  0  0  0
  3  5  1  0  0  0  0
  3  6  1  0  0  0  0
 42 45  1  0  0  0  0
 42 46  1  0  0  0  0
 42 47  1  0  0  0  0
 11 14  1  0  0  0  0
 11 15  1  0  0  0  0
 11 16  1  0  0  0  0
 49 51  1  0  0  0  0
 49 52  1  0  0  0  0
 49 53  1  0  0  0  0
 22 30  1  0  0  0  0
 22 31  1  0  0  0  0
 23 32  1  0  0  0  0
 23 33  1  0  0  0  0
 21 28  1  0  0  0  0
 21 29  1  0  0  0  0
 24 34  1  0  0  0  0
 24 35  1  0  0  0  0
 39 44  1  0  0  0  0
  8 13  1  0  0  0  0
 18 27  1  0  0  0  0
 25 36  1  0  0  0  0
 25 37  1  0  0  0  0
 48 50  1  0  0  0  0
  7 12  1  0  0  0  0
 38 43  1  0  0  0  0
 17 26  1  0  0  0  0
M  END
$$$$

  -OEChem-05262214473D

 53 52  0     1  0  0  0  0  0999 V2000
   -1.0338   -5.6785    0.1476 C   0  0  0  0  0  0  0  0  0  0  0  0
   -2.0514   -5.7797    0.8227 O   0  0  0  0  0  0  0  0  0  0  0  0
   -0.6558   -6.7819   -0.7841 C   0  0  0  0  0  0  0  0  0  0  0  0
   -0.0111   -7.5354   -0.3038 H   0  0  0  0  0  0  0  0  0  0  0  0
   -1.5317   -7.3401   -1.1520 H   0  0  0  0  0  0  0  0  0  0  0  0
   -0.1109   -6.4687   -1.6890 H   0  0  0  0  0  0  0  0  0  0  0  0
   -0.1543   -4.6083    0.1480 N   0  0  0  0  0  0  0  0  0  0  0  0
   -0.3302   -3.4398    0.9696 C   0  0  2  0  0  0  0  0  0  0  0  0
    0.2328   -2.2439    0.2131 C   0  0  0  0  0  0  0  0  0  0  0  0
    1.2097   -2.3192   -0.5294 O   0  0  0  0  0  0  0  0  0  0  0  0
    0.3557   -3.6024    2.3171 C   0  0  0  0  0  0  0  0  0  0  0  0
    0.6584   -4.6506   -0.4643 H   0  0  0  0  0  0  0  0  0  0  0  0
   -1.4091   -3.3101    1.1082 H   0  0  0  0  0  0  0  0  0  0  0  0
    1.4375   -3.7336    2.1985 H   0  0  0  0  0  0  0  0  0  0  0  0
    0.1969   -2.7243    2.9517 H   0  0  0  0  0  0  0  0  0  0  0  0
   -0.0294   -4.4803    2.8470 H   0  0  0  0  0  0  0  0  0  0  0  0
   -0.4616   -1.0893    0.5050 N   0  0  0  0  0  0  0  0  0  0  0  0
   -0.0884    0.2050   -0.0621 C   0  0  2  0  0  0  0  0  0  0  0  0
   -0.4807    1.2817    0.9457 C   0  0  0  0  0  0  0  0  0  0  0  0
   -1.4463    2.0263    0.7889 O   0  0  0  0  0  0  0  0  0  0  0  0
   -0.7907    0.4781   -1.4006 C   0  0  0  0  0  0  0  0  0  0  0  0
   -0.3225   -0.4430   -2.5319 C   0  0  0  0  0  0  0  0  0  0  0  0
   -1.0349   -0.1123   -3.8463 C   0  0  0  0  0  0  0  0  0  0  0  0
   -0.5859   -1.0471   -4.9682 C   0  0  0  0  0  0  0  0  0  0  0  0
   -1.2926   -0.7310   -6.2037 N   0  0  0  0  0  0  0  0  0  0  0  0
   -1.2794   -1.1113    1.0935 H   0  0  0  0  0  0  0  0  0  0  0  0
    0.9992    0.2239   -0.2013 H   0  0  0  0  0  0  0  0  0  0  0  0
   -0.6098    1.5203   -1.6951 H   0  0  0  0  0  0  0  0  0  0  0  0
   -1.8783    0.3854   -1.2778 H   0  0  0  0  0  0  0  0  0  0  0  0
   -0.5183   -1.4896   -2.2727 H   0  0  0  0  0  0  0  0  0  0  0  0
    0.7607   -0.3373   -2.6660 H   0  0  0  0  0  0  0  0  0  0  0  0
   -2.1197   -0.1957   -3.7036 H   0  0  0  0  0  0  0  0  0  0  0  0
   -0.8247    0.9282   -4.1245 H   0  0  0  0  0  0  0  0  0  0  0  0
   -0.7821   -2.0895   -4.6944 H   0  0  0  0  0  0  0  0  0  0  0  0
    0.4912   -0.9434   -5.1366 H   0  0  0  0  0  0  0  0  0  0  0  0
   -1.9250    0.0128   -6.0211 H   0  0  0  0  0  0  0  0  0  0  0  0
   -0.6233   -0.4605   -6.8860 H   0  0  0  0  0  0  0  0  0  0  0  0
    0.3877    1.3257    2.0277 N   0  0  0  0  0  0  0  0  0  0  0  0
    0.2533    2.2698    3.1137 C   0  0  2  0  0  0  0  0  0  0  0  0
    1.6494    2.6016    3.6239 C   0  0  0  0  0  0  0  0  0  0  0  0
    2.5682    1.7852    3.6431 O   0  0  0  0  0  0  0  0  0  0  0  0
   -0.6143    1.7094    4.2299 C   0  0  0  0  0  0  0  0  0  0  0  0
    1.1553    0.6625    2.0771 H   0  0  0  0  0  0  0  0  0  0  0  0
   -0.2067    3.1712    2.6942 H   0  0  0  0  0  0  0  0  0  0  0  0
   -0.1696    0.8058    4.6626 H   0  0  0  0  0  0  0  0  0  0  0  0
   -0.7386    2.4366    5.0391 H   0  0  0  0  0  0  0  0  0  0  0  0
   -1.6085    1.4435    3.8547 H   0  0  0  0  0  0  0  0  0  0  0  0
    1.7369    3.9041    4.0953 N   0  0  0  0  0  0  0  0  0  0  0  0
    2.9461    4.4455    4.6702 C   0  0  0  0  0  0  0  0  0  0  0  0
    0.9371    4.5235    4.0034 H   0  0  0  0  0  0  0  0  0  0  0  0
    2.9292    4.3044    5.7610 H   0  0  0  0  0  0  0  0  0  0  0  0
    3.8181    3.9255    4.2469 H   0  0  0  0  0  0  0  0  0  0  0  0
    3.0124    5.5192    4.4405 H   0  0  0  0  0  0  0  0  0  0  0  0
  1  3  1  0  0  0  0
  1  7  1  0  0  0  0
  1  2  2  0  0  0  0
 39 40  1  0  0  0  0
 40 48  1  0  0  0  0
 40 41  2  0  0  0  0
  8  9  1  0  0  0  0
  9 17  1  0  0  0  0
  9 10  2  0  0  0  0
 18 19  1  0  0  0  0
 19 38  1  0  0  0  0
 19 20  2  0  0  0  0
 39 42  1  0  0  0  0
  8 11  1  0  0  0  0
 48 49  1  0  0  0  0
 22 23  1  0  0  0  0
 21 22  1  0  0  0  0
 23 24  1  0  0  0  0
 18 21  1  0  0  0  0
 24 25  1  0  0  0  0
 38 39  1  0  0  0  0
  7  8  1  0  0  0  0
 17 18  1  0  0  0  0
  3  4  1  0  0  0  0
  3  5  1  0  0  0  0
  3  6  1  0  0  0  0
 42 45  1  0  0  0  0
 42 46  1  0  0  0  0
 42 47  1  0  0  0  0
 11 14  1  0  0  0  0
 11 15  1  0  0  0  0
 11 16  1  0  0  0  0
 49 51  1  0  0  0  0
 49 52  1  0  0  0  0
 49 53  1  0  0  0  0
 22 30  1  0  0  0  0
 22 31  1  0  0  0  0
 23 32  1  0  0  0  0
 23 33  1  0  0  0  0
 21 28  1  0  0  0  0
 21 29  1  0  0  0  0
 24 34  1  0  0  0  0
 24 35  1  0  0  0  0
 39 44  1  0  0  0  0
  8 13  1  0  0  0  0
 18 27  1  0  0  0  0
 25 36  1  0  0  0  0
 25 37  1  0  0  0  0
 48 50  1  0  0  0  0
  7 12  1  0  0  0  0
 38 43  1  0  0  0  0
 17 26  1  0  0  0  0
M  END
$$$$

  -OEChem-05262214473D

 53 52  0     1  0  0  0  0  0999 V2000
   -1.0338   -5.6785    0.1476 C   0  0  0  0  0  0  0  0  0  0  0  0
   -2.0514   -5.7797    0.8227 O   0  0  0  0  0  0  0  0  0  0  0  0
   -0.6558   -6.7819   -0.7841 C   0  0  0  0  0  0  0  0  0  0  0  0
   -0.0111   -7.5354   -0.3038 H   0  0  0  0  0  0  0  0  0  0  0  0
   -1.5317   -7.3401   -1.1520 H   0  0  0  0  0  0  0  0  0  0  0  0
   -0.1109   -6.4687   -1.6890 H   0  0  0  0  0  0  0  0  0  0  0  0
   -0.1543   -4.6083    0.1480 N   0  0  0  0  0  0  0  0  0  0  0  0
   -0.3302   -3.4398    0.9696 C   0  0  2  0  0  0  0  0  0  0  0  0
    0.2328   -2.2439    0.2131 C   0  0  0  0  0  0  0  0  0  0  0  0
    1.2097   -2.3192   -0.5294 O   0  0  0  0  0  0  0  0  0  0  0  0
    0.3557   -3.6024    2.3171 C   0  0  0  0  0  0  0  0  0  0  0  0
    0.6584   -4.6506   -0.4643 H   0  0  0  0  0  0  0  0  0  0  0  0
   -1.4091   -3.3101    1.1082 H   0  0  0  0  0  0  0  0  0  0  0  0
    1.4375   -3.7336    2.1985 H   0  0  0  0  0  0  0  0  0  0  0  0
    0.1969   -2.7243    2.9517 H   0  0  0  0  0  0  0  0  0  0  0  0
   -0.0294   -4.4803    2.8470 H   0  0  0  0  0  0  0  0  0  0  0  0
   -0.4616   -1.0893    0.5050 N   0  0  0  0  0  0  0  0  0  0  0  0
   -0.0884    0.2050   -0.0621 C   0  0  2  0  0  0  0  0  0  0  0  0
   -0.4807    1.2817    0.9457 C   0  0  0  0  0  0  0  0  0  0  0  0
   -1.5752    1.8416    0.9361 O   0  0  0  0  0  0  0  0  0  0  0  0
   -0.7907    0.4781   -1.4006 C   0  0  0  0  0  0  0  0  0  0  0  0
   -0.3225   -0.4430   -2.5319 C   0  0  0  0  0  0  0  0  0  0  0  0
   -1.0349   -0.1123   -3.8463 C   0  0  0  0  0  0  0  0  0  0  0  0
   -0.5859   -1.0471   -4.9682 C   0  0  0  0  0  0  0  0  0  0  0  0
   -1.2926   -0.7310   -6.2037 N   0  0  0  0  0  0  0  0  0  0  0  0
   -1.2794   -1.1113    1.0935 H   0  0  0  0  0  0  0  0  0  0  0  0
    0.9992    0.2239   -0.2013 H   0  0  0  0  0  0  0  0  0  0  0  0
   -0.6098    1.5203   -1.6951 H   0  0  0  0  0  0  0  0  0  0  0  0
   -1.8783    0.3854   -1.2778 H   0  0  0  0  0  0  0  0  0  0  0  0
   -0.5183   -1.4896   -2.2727 H   0  0  0  0  0  0  0  0  0  0  0  0
    0.7607   -0.3373   -2.6660 H   0  0  0  0  0  0  0  0  0  0  0  0
   -2.1197   -0.1957   -3.7036 H   0  0  0  0  0  0  0  0  0  0  0  0
   -0.8247    0.9282   -4.1245 H   0  0  0  0  0  0  0  0  0  0  0  0
   -0.7821   -2.0895   -4.6944 H   0  0  0  0  0  0  0  0  0  0  0  0
    0.4912   -0.9434   -5.1366 H   0  0  0  0  0  0  0  0  0  0  0  0
   -1.9250    0.0128   -6.0211 H   0  0  0  0  0  0  0  0  0  0  0  0
   -0.6233   -0.4605   -6.8860 H   0  0  0  0  0  0  0  0  0  0  0  0
    0.5435    1.5572    1.8411 N   0  0  0  0  0  0  0  0  0  0  0  0
    0.4382    2.5525    2.8837 C   0  0  2  0  0  0  0  0  0  0  0  0
    1.8213    3.1507    3.1043 C   0  0  0  0  0  0  0  0  0  0  0  0
    2.8589    2.5012    2.9914 O   0  0  0  0  0  0  0  0  0  0  0  0
   -0.1051    1.9507    4.1703 C   0  0  0  0  0  0  0  0  0  0  0  0
    1.4129    1.0359    1.7786 H   0  0  0  0  0  0  0  0  0  0  0  0
   -0.2409    3.3281    2.5132 H   0  0  0  0  0  0  0  0  0  0  0  0
    0.5620    1.1716    4.5567 H   0  0  0  0  0  0  0  0  0  0  0  0
   -0.2112    2.7117    4.9505 H   0  0  0  0  0  0  0  0  0  0  0  0
   -1.0869    1.4947    4.0031 H   0  0  0  0  0  0  0  0  0  0  0  0
    1.7587    4.4841    3.4841 N   0  0  0  0  0  0  0  0  0  0  0  0
    2.9352    5.2629    3.7928 C   0  0  0  0  0  0  0  0  0  0  0  0
    0.8585    4.9536    3.5133 H   0  0  0  0  0  0  0  0  0  0  0  0
    3.1367    5.2114    4.8730 H   0  0  0  0  0  0  0  0  0  0  0  0
    3.7967    4.8605    3.2397 H   0  0  0  0  0  0  0  0  0  0  0  0
    2.7686    6.3102    3.5006 H   0  0  0  0  0  0  0  0  0  0  0  0
  1  3  1  0  0  0  0
  1  7  1  0  0  0  0
  1  2  2  0  0  0  0
 39 40  1  0  0  0  0
 40 48  1  0  0  0  0
 40 41  2  0  0  0  0
  8  9  1  0  0  0  0
  9 17  1  0  0  0  0
  9 10  2  0  0  0  0
 18 19  1  0  0  0  0
 19 38  1  0  0  0  0
 19 20  2  0  0  0  0
 39 42  1  0  0  0  0
  8 11  1  0  0  0  0
 48 49  1  0  0  0  0
 22 23  1  0  0  0  0
 21 22  1  0  0  0  0
 23 24  1  0  0  0  0
 18 21  1  0  0  0  0
 24 25  1  0  0  0  0
 38 39  1  0  0  0  0
  7  8  1  0  0  0  0
 17 18  1  0  0  0  0
  3  4  1  0  0  0  0
  3  5  1  0  0  0  0
  3  6  1  0  0  0  0
 42 45  1  0  0  0  0
 42 46  1  0  0  0  0
 42 47  1  0  0  0  0
 11 14  1  0  0  0  0
 11 15  1  0  0  0  0
 11 16  1  0  0  0  0
 49 51  1  0  0  0  0
 49 52  1  0  0  0  0
 49 53  1  0  0  0  0
 22 30  1  0  0  0  0
 22 31  1  0  0  0  0
 23 32  1  0  0  0  0
 23 33  1  0  0  0  0
 21 28  1  0  0  0  0
 21 29  1  0  0  0  0
 24 34  1  0  0  0  0
 24 35  1  0  0  0  0
 39 44  1  0  0  0  0
  8 13  1  0  0  0  0
 18 27  1  0  0  0  0
 25 36  1  0  0  0  0
 25 37  1  0  0  0  0
 48 50  1  0  0  0  0
  7 12  1  0  0  0  0
 38 43  1  0  0  0  0
 17 26  1  0  0  0  0
M  END
$$$$

  -OEChem-05262214473D

 53 52  0     1  0  0  0  0  0999 V2000
   -1.0338   -5.6785    0.1476 C   0  0  0  0  0  0  0  0  0  0  0  0
   -2.0514   -5.7797    0.8227 O   0  0  0  0  0  0  0  0  0  0  0  0
   -0.6558   -6.7819   -0.7841 C   0  0  0  0  0  0  0  0  0  0  0  0
   -0.0111   -7.5354   -0.3038 H   0  0  0  0  0  0  0  0  0  0  0  0
   -1.5317   -7.3401   -1.1520 H   0  0  0  0  0  0  0  0  0  0  0  0
   -0.1109   -6.4687   -1.6890 H   0  0  0  0  0  0  0  0  0  0  0  0
   -0.1543   -4.6083    0.1480 N   0  0  0  0  0  0  0  0  0  0  0  0
   -0.3302   -3.4398    0.9696 C   0  0  2  0  0  0  0  0  0  0  0  0
    0.2328   -2.2439    0.2131 C   0  0  0  0  0  0  0  0  0  0  0  0
    1.2097   -2.3192   -0.5294 O   0  0  0  0  0  0  0  0  0  0  0  0
    0.3557   -3.6024    2.3171 C   0  0  0  0  0  0  0  0  0  0  0  0
    0.6584   -4.6506   -0.4643 H   0  0  0  0  0  0  0  0  0  0  0  0
   -1.4091   -3.3101    1.1082 H   0  0  0  0  0  0  0  0  0  0  0  0
    1.4375   -3.7336    2.1985 H   0  0  0  0  0  0  0  0  0  0  0  0
    0.1969   -2.7243    2.9517 H   0  0  0  0  0  0  0  0  0  0  0  0
   -0.0294   -4.4803    2.8470 H   0  0  0  0  0  0  0  0  0  0  0  0
   -0.4616   -1.0893    0.5050 N   0  0  0  0  0  0  0  0  0  0  0  0
   -0.0884    0.2050   -0.0621 C   0  0  2  0  0  0  0  0  0  0  0  0
   -0.4807    1.2817    0.9457 C   0  0  0  0  0  0  0  0  0  0  0  0
   -1.6413    1.6509    1.1141 O   0  0  0  0  0  0  0  0  0  0  0  0
   -0.7907    0.4781   -1.4006 C   0  0  0  0  0  0  0  0  0  0  0  0
   -0.3225   -0.4430   -2.5319 C   0  0  0  0  0  0  0  0  0  0  0  0
   -1.0349   -0.1123   -3.8463 C   0  0  0  0  0  0  0  0  0  0  0  0
   -0.5859   -1.0471   -4.9682 C   0  0  0  0  0  0  0  0  0  0  0  0
   -1.2926   -0.7310   -6.2037 N   0  0  0  0  0  0  0  0  0  0  0  0
   -1.2794   -1.1113    1.0935 H   0  0  0  0  0  0  0  0  0  0  0  0
    0.9992    0.2239   -0.2013 H   0  0  0  0  0  0  0  0  0  0  0  0
   -0.6098    1.5203   -1.6951 H   0  0  0  0  0  0  0  0  0  0  0  0
   -1.8783    0.3854   -1.2778 H   0  0  0  0  0  0  0  0  0  0  0  0
   -0.5183   -1.4896   -2.2727 H   0  0  0  0  0  0  0  0  0  0  0  0
    0.7607   -0.3373   -2.6660 H   0  0  0  0  0  0  0  0  0  0  0  0
   -2.1197   -0.1957   -3.7036 H   0  0  0  0  0  0  0  0  0  0  0  0
   -0.8247    0.9282   -4.1245 H   0  0  0  0  0  0  0  0  0  0  0  0
   -0.7821   -2.0895   -4.6944 H   0  0  0  0  0  0  0  0  0  0  0  0
    0.4912   -0.9434   -5.1366 H   0  0  0  0  0  0  0  0  0  0  0  0
   -1.9250    0.0128   -6.0211 H   0  0  0  0  0  0  0  0  0  0  0  0
   -0.6233   -0.4605   -6.8860 H   0  0  0  0  0  0  0  0  0  0  0  0
    0.6204    1.7951    1.6170 N   0  0  0  0  0  0  0  0  0  0  0  0
    0.5266    2.8419    2.6090 C   0  0  2  0  0  0  0  0  0  0  0  0
    1.7987    3.6759    2.5344 C   0  0  0  0  0  0  0  0  0  0  0  0
    2.8983    3.1992    2.2612 O   0  0  0  0  0  0  0  0  0  0  0  0
    0.3345    2.2669    4.0037 C   0  0  0  0  0  0  0  0  0  0  0  0
    1.5434    1.4207    1.4183 H   0  0  0  0  0  0  0  0  0  0  0  0
   -0.3338    3.4618    2.3342 H   0  0  0  0  0  0  0  0  0  0  0  0
    1.1868    1.6429    4.2965 H   0  0  0  0  0  0  0  0  0  0  0  0
    0.2350    3.0618    4.7503 H   0  0  0  0  0  0  0  0  0  0  0  0
   -0.5648    1.6432    4.0477 H   0  0  0  0  0  0  0  0  0  0  0  0
    1.5691    5.0075    2.8512 N   0  0  0  0  0  0  0  0  0  0  0  0
    2.6248    5.9922    2.8929 C   0  0  0  0  0  0  0  0  0  0  0  0
    0.6195    5.3231    3.0256 H   0  0  0  0  0  0  0  0  0  0  0  0
    3.0199    6.0638    3.9169 H   0  0  0  0  0  0  0  0  0  0  0  0
    3.4323    5.6931    2.2085 H   0  0  0  0  0  0  0  0  0  0  0  0
    2.2263    6.9701    2.5846 H   0  0  0  0  0  0  0  0  0  0  0  0
  1  3  1  0  0  0  0
  1  7  1  0  0  0  0
  1  2  2  0  0  0  0
 39 40  1  0  0  0  0
 40 48  1  0  0  0  0
 40 41  2  0  0  0  0
  8  9  1  0  0  0  0
  9 17  1  0  0  0  0
  9 10  2  0  0  0  0
 18 19  1  0  0  0  0
 19 38  1  0  0  0  0
 19 20  2  0  0  0  0
 39 42  1  0  0  0  0
  8 11  1  0  0  0  0
 48 49  1  0  0  0  0
 22 23  1  0  0  0  0
 21 22  1  0  0  0  0
 23 24  1  0  0  0  0
 18 21  1  0  0  0  0
 24 25  1  0  0  0  0
 38 39  1  0  0  0  0
  7  8  1  0  0  0  0
 17 18  1  0  0  0  0
  3  4  1  0  0  0  0
  3  5  1  0  0  0  0
  3  6  1  0  0  0  0
 42 45  1  0  0  0  0
 42 46  1  0  0  0  0
 42 47  1  0  0  0  0
 11 14  1  0  0  0  0
 11 15  1  0  0  0  0
 11 16  1  0  0  0  0
 49 51  1  0  0  0  0
 49 52  1  0  0  0  0
 49 53  1  0  0  0  0
 22 30  1  0  0  0  0
 22 31  1  0  0  0  0
 23 32  1  0  0  0  0
 23 33  1  0  0  0  0
 21 28  1  0  0  0  0
 21 29  1  0  0  0  0
 24 34  1  0  0  0  0
 24 35  1  0  0  0  0
 39 44  1  0  0  0  0
  8 13  1  0  0  0  0
 18 27  1  0  0  0  0
 25 36  1  0  0  0  0
 25 37  1  0  0  0  0
 48 50  1  0  0  0  0
  7 12  1  0  0  0  0
 38 43  1  0  0  0  0
 17 26  1  0  0  0  0
M  END
$$$$

  -OEChem-05262214473D

 53 52  0     1  0  0  0  0  0999 V2000
   -1.0338   -5.6785    0.1476 C   0  0  0  0  0  0  0  0  0  0  0  0
   -2.0514   -5.7797    0.8227 O   0  0  0  0  0  0  0  0  0  0  0  0
   -0.6558   -6.7819   -0.7841 C   0  0  0  0  0  0  0  0  0  0  0  0
   -0.0111   -7.5354   -0.3038 H   0  0  0  0  0  0  0  0  0  0  0  0
   -1.5317   -7.3401   -1.1520 H   0  0  0  0  0  0  0  0  0  0  0  0
   -0.1109   -6.4687   -1.6890 H   0  0  0  0  0  0  0  0  0  0  0  0
   -0.1543   -4.6083    0.1480 N   0  0  0  0  0  0  0  0  0  0  0  0
   -0.3302   -3.4398    0.9696 C   0  0  2  0  0  0  0  0  0  0  0  0
    0.2328   -2.2439    0.2131 C   0  0  0  0  0  0  0  0  0  0  0  0
    1.2097   -2.3192   -0.5294 O   0  0  0  0  0  0  0  0  0  0  0  0
    0.3557   -3.6024    2.3171 C   0  0  0  0  0  0  0  0  0  0  0  0
    0.6584   -4.6506   -0.4643 H   0  0  0  0  0  0  0  0  0  0  0  0
   -1.4091   -3.3101    1.1082 H   0  0  0  0  0  0  0  0  0  0  0  0
    1.4375   -3.7336    2.1985 H   0  0  0  0  0  0  0  0  0  0  0  0
    0.1969   -2.7243    2.9517 H   0  0  0  0  0  0  0  0  0  0  0  0
   -0.0294   -4.4803    2.8470 H   0  0  0  0  0  0  0  0  0  0  0  0
   -0.4616   -1.0893    0.5050 N   0  0  0  0  0  0  0  0  0  0  0  0
   -0.0884    0.2050   -0.0621 C   0  0  2  0  0  0  0  0  0  0  0  0
   -0.4807    1.2817    0.9457 C   0  0  0  0  0  0  0  0  0  0  0  0
   -1.6400    1.4672    1.3108 O   0  0  0  0  0  0  0  0  0  0  0  0
   -0.7907    0.4781   -1.4006 C   0  0  0  0  0  0  0  0  0  0  0  0
   -0.3225   -0.4430   -2.5319 C   0  0  0  0  0  0  0  0  0  0  0  0
   -1.0349   -0.1123   -3.8463 C   0  0  0  0  0  0  0  0  0  0  0  0
   -0.5859   -1.0471   -4.9682 C   0  0  0  0  0  0  0  0  0  0  0  0
   -1.2926   -0.7310   -6.2037 N   0  0  0  0  0  0  0  0  0  0  0  0
   -1.2794   -1.1113    1.0935 H   0  0  0  0  0  0  0  0  0  0  0  0
    0.9992    0.2239   -0.2013 H   0  0  0  0  0  0  0  0  0  0  0  0
   -0.6098    1.5203   -1.6951 H   0  0  0  0  0  0  0  0  0  0  0  0
   -1.8783    0.3854   -1.2778 H   0  0  0  0  0  0  0  0  0  0  0  0
   -0.5183   -1.4896   -2.2727 H   0  0  0  0  0  0  0  0  0  0  0  0
    0.7607   -0.3373   -2.6660 H   0  0  0  0  0  0  0  0  0  0  0  0
   -2.1197   -0.1957   -3.7036 H   0  0  0  0  0  0  0  0  0  0  0  0
   -0.8247    0.9282   -4.1245 H   0  0  0  0  0  0  0  0  0  0  0  0
   -0.7821   -2.0895   -4.6944 H   0  0  0  0  0  0  0  0  0  0  0  0
    0.4912   -0.9434   -5.1366 H   0  0  0  0  0  0  0  0  0  0  0  0
   -1.9250    0.0128   -6.0211 H   0  0  0  0  0  0  0  0  0  0  0  0
   -0.6233   -0.4605   -6.8860 H   0  0  0  0  0  0  0  0  0  0  0  0
    0.6132    2.0230    1.3706 N   0  0  0  0  0  0  0  0  0  0  0  0
    0.5123    3.1183    2.3082 C   0  0  2  0  0  0  0  0  0  0  0  0
    1.5830    4.1414    1.9532 C   0  0  0  0  0  0  0  0  0  0  0  0
    2.6837    3.8315    1.5022 O   0  0  0  0  0  0  0  0  0  0  0  0
    0.6748    2.6364    3.7415 C   0  0  0  0  0  0  0  0  0  0  0  0
    1.5380    1.7908    1.0208 H   0  0  0  0  0  0  0  0  0  0  0  0
   -0.4791    3.5631    2.1694 H   0  0  0  0  0  0  0  0  0  0  0  0
    1.6622    2.1876    3.8997 H   0  0  0  0  0  0  0  0  0  0  0  0
    0.5696    3.4628    4.4522 H   0  0  0  0  0  0  0  0  0  0  0  0
   -0.0777    1.8788    3.9856 H   0  0  0  0  0  0  0  0  0  0  0  0
    1.1808    5.4385    2.2396 N   0  0  0  0  0  0  0  0  0  0  0  0
    2.0359    6.5838    2.0317 C   0  0  0  0  0  0  0  0  0  0  0  0
    0.2364    5.6066    2.5736 H   0  0  0  0  0  0  0  0  0  0  0  0
    2.5869    6.8036    2.9581 H   0  0  0  0  0  0  0  0  0  0  0  0
    2.7497    6.3663    1.2235 H   0  0  0  0  0  0  0  0  0  0  0  0
    1.4224    7.4538    1.7549 H   0  0  0  0  0  0  0  0  0  0  0  0
  1  3  1  0  0  0  0
  1  7  1  0  0  0  0
  1  2  2  0  0  0  0
 39 40  1  0  0  0  0
 40 48  1  0  0  0  0
 40 41  2  0  0  0  0
  8  9  1  0  0  0  0
  9 17  1  0  0  0  0
  9 10  2  0  0  0  0
 18 19  1  0  0  0  0
 19 38  1  0  0  0  0
 19 20  2  0  0  0  0
 39 42  1  0  0  0  0
  8 11  1  0  0  0  0
 48 49  1  0  0  0  0
 22 23  1  0  0  0  0
 21 22  1  0  0  0  0
 23 24  1  0  0  0  0
 18 21  1  0  0  0  0
 24 25  1  0  0  0  0
 38 39  1  0  0  0  0
  7  8  1  0  0  0  0
 17 18  1  0  0  0  0
  3  4  1  0  0  0  0
  3  5  1  0  0  0  0
  3  6  1  0  0  0  0
 42 45  1  0  0  0  0
 42 46  1  0  0  0  0
 42 47  1  0  0  0  0
 11 14  1  0  0  0  0
 11 15  1  0  0  0  0
 11 16  1  0  0  0  0
 49 51  1  0  0  0  0
 49 52  1  0  0  0  0
 49 53  1  0  0  0  0
 22 30  1  0  0  0  0
 22 31  1  0  0  0  0
 23 32  1  0  0  0  0
 23 33  1  0  0  0  0
 21 28  1  0  0  0  0
 21 29  1  0  0  0  0
 24 34  1  0  0  0  0
 24 35  1  0  0  0  0
 39 44  1  0  0  0  0
  8 13  1  0  0  0  0
 18 27  1  0  0  0  0
 25 36  1  0  0  0  0
 25 37  1  0  0  0  0
 48 50  1  0  0  0  0
  7 12  1  0  0  0  0
 38 43  1  0  0  0  0
 17 26  1  0  0  0  0
M  END
$$$$

  -OEChem-05262214473D

 53 52  0     1  0  0  0  0  0999 V2000
   -1.0338   -5.6785    0.1476 C   0  0  0  0  0  0  0  0  0  0  0  0
   -2.0514   -5.7797    0.8227 O   0  0  0  0  0  0  0  0  0  0  0  0
   -0.6558   -6.7819   -0.7841 C   0  0  0  0  0  0  0  0  0  0  0  0
   -0.0111   -7.5354   -0.3038 H   0  0  0  0  0  0  0  0  0  0  0  0
   -1.5317   -7.3401   -1.1520 H   0  0  0  0  0  0  0  0  0  0  0  0
   -0.1109   -6.4687   -1.6890 H   0  0  0  0  0  0  0  0  0  0  0  0
   -0.1543   -4.6083    0.1480 N   0  0  0  0  0  0  0  0  0  0  0  0
   -0.3302   -3.4398    0.9696 C   0  0  2  0  0  0  0  0  0  0  0  0
    0.2328   -2.2439    0.2131 C   0  0  0  0  0  0  0  0  0  0  0  0
    1.2097   -2.3192   -0.5294 O   0  0  0  0  0  0  0  0  0  0  0  0
    0.3557   -3.6024    2.3171 C   0  0  0  0  0  0  0  0  0  0  0  0
    0.6584   -4.6506   -0.4643 H   0  0  0  0  0  0  0  0  0  0  0  0
   -1.4091   -3.3101    1.1082 H   0  0  0  0  0  0  0  0  0  0  0  0
    1.4375   -3.7336    2.1985 H   0  0  0  0  0  0  0  0  0  0  0  0
    0.1969   -2.7243    2.9517 H   0  0  0  0  0  0  0  0  0  0  0  0
   -0.0294   -4.4803    2.8470 H   0  0  0  0  0  0  0  0  0  0  0  0
   -0.4616   -1.0893    0.5050 N   0  0  0  0  0  0  0  0  0  0  0  0
   -0.0884    0.2050   -0.0621 C   0  0  2  0  0  0  0  0  0  0  0  0
   -0.4807    1.2817    0.9457 C   0  0  0  0  0  0  0  0  0  0  0  0
   -1.5714    1.3032    1.5127 O   0  0  0  0  0  0  0  0  0  0  0  0
   -0.7907    0.4781   -1.4006 C   0  0  0  0  0  0  0  0  0  0  0  0
   -0.3225   -0.4430   -2.5319 C   0  0  0  0  0  0  0  0  0  0  0  0
   -1.0349   -0.1123   -3.8463 C   0  0  0  0  0  0  0  0  0  0  0  0
   -0.5859   -1.0471   -4.9682 C   0  0  0  0  0  0  0  0  0  0  0  0
   -1.2926   -0.7310   -6.2037 N   0  0  0  0  0  0  0  0  0  0  0  0
   -1.2794   -1.1113    1.0935 H   0  0  0  0  0  0  0  0  0  0  0  0
    0.9992    0.2239   -0.2013 H   0  0  0  0  0  0  0  0  0  0  0  0
   -0.6098    1.5203   -1.6951 H   0  0  0  0  0  0  0  0  0  0  0  0
   -1.8783    0.3854   -1.2778 H   0  0  0  0  0  0  0  0  0  0  0  0
   -0.5183   -1.4896   -2.2727 H   0  0  0  0  0  0  0  0  0  0  0  0
    0.7607   -0.3373   -2.6660 H   0  0  0  0  0  0  0  0  0  0  0  0
   -2.1197   -0.1957   -3.7036 H   0  0  0  0  0  0  0  0  0  0  0  0
   -0.8247    0.9282   -4.1245 H   0  0  0  0  0  0  0  0  0  0  0  0
   -0.7821   -2.0895   -4.6944 H   0  0  0  0  0  0  0  0  0  0  0  0
    0.4912   -0.9434   -5.1366 H   0  0  0  0  0  0  0  0  0  0  0  0
   -1.9250    0.0128   -6.0211 H   0  0  0  0  0  0  0  0  0  0  0  0
   -0.6233   -0.4605   -6.8860 H   0  0  0  0  0  0  0  0  0  0  0  0
    0.5222    2.2256    1.1188 N   0  0  0  0  0  0  0  0  0  0  0  0
    0.3963    3.3627    2.0019 C   0  0  2  0  0  0  0  0  0  0  0  0
    1.1890    4.5155    1.4001 C   0  0  0  0  0  0  0  0  0  0  0  0
    2.2298    4.3551    0.7662 O   0  0  0  0  0  0  0  0  0  0  0  0
    0.8924    3.0341    3.4014 C   0  0  0  0  0  0  0  0  0  0  0  0
    1.3968    2.1208    0.6133 H   0  0  0  0  0  0  0  0  0  0  0  0
   -0.6669    3.6252    2.0300 H   0  0  0  0  0  0  0  0  0  0  0  0
    1.9558    2.7686    3.3933 H   0  0  0  0  0  0  0  0  0  0  0  0
    0.7699    3.8875    4.0764 H   0  0  0  0  0  0  0  0  0  0  0  0
    0.3412    2.1856    3.8210 H   0  0  0  0  0  0  0  0  0  0  0  0
    0.6205    5.7478    1.6911 N   0  0  0  0  0  0  0  0  0  0  0  0
    1.2088    6.9971    1.2681 C   0  0  0  0  0  0  0  0  0  0  0  0
   -0.2646    5.7849    2.1881 H   0  0  0  0  0  0  0  0  0  0  0  0
    1.8671    7.3804    2.0617 H   0  0  0  0  0  0  0  0  0  0  0  0
    1.7955    6.8344    0.3520 H   0  0  0  0  0  0  0  0  0  0  0  0
    0.4118    7.7284    1.0681 H   0  0  0  0  0  0  0  0  0  0  0  0
  1  3  1  0  0  0  0
  1  7  1  0  0  0  0
  1  2  2  0  0  0  0
 39 40  1  0  0  0  0
 40 48  1  0  0  0  0
 40 41  2  0  0  0  0
  8  9  1  0  0  0  0
  9 17  1  0  0  0  0
  9 10  2  0  0  0  0
 18 19  1  0  0  0  0
 19 38  1  0  0  0  0
 19 20  2  0  0  0  0
 39 42  1  0  0  0  0
  8 11  1  0  0  0  0
 48 49  1  0  0  0  0
 22 23  1  0  0  0  0
 21 22  1  0  0  0  0
 23 24  1  0  0  0  0
 18 21  1  0  0  0  0
 24 25  1  0  0  0  0
 38 39  1  0  0  0  0
  7  8  1  0  0  0  0
 17 18  1  0  0  0  0
  3  4  1  0  0  0  0
  3  5  1  0  0  0  0
  3  6  1  0  0  0  0
 42 45  1  0  0  0  0
 42 46  1  0  0  0  0
 42 47  1  0  0  0  0
 11 14  1  0  0  0  0
 11 15  1  0  0  0  0
 11 16  1  0  0  0  0
 49 51  1  0  0  0  0
 49 52  1  0  0  0  0
 49 53  1  0  0  0  0
 22 30  1  0  0  0  0
 22 31  1  0  0  0  0
 23 32  1  0  0  0  0
 23 33  1  0  0  0  0
 21 28  1  0  0  0  0
 21 29  1  0  0  0  0
 24 34  1  0  0  0  0
 24 35  1  0  0  0  0
 39 44  1  0  0  0  0
  8 13  1  0  0  0  0
 18 27  1  0  0  0  0
 25 36  1  0  0  0  0
 25 37  1  0  0  0  0
 48 50  1  0  0  0  0
  7 12  1  0  0  0  0
 38 43  1  0  0  0  0
 17 26  1  0  0  0  0
M  END
$$$$

  -OEChem-05262214473D

 53 52  0     1  0  0  0  0  0999 V2000
   -1.0338   -5.6785    0.1476 C   0  0  0  0  0  0  0  0  0  0  0  0
   -2.0514   -5.7797    0.8227 O   0  0  0  0  0  0  0  0  0  0  0  0
   -0.6558   -6.7819   -0.7841 C   0  0  0  0  0  0  0  0  0  0  0  0
   -0.0111   -7.5354   -0.3038 H   0  0  0  0  0  0  0  0  0  0  0  0
   -1.5317   -7.3401   -1.1520 H   0  0  0  0  0  0  0  0  0  0  0  0
   -0.1109   -6.4687   -1.6890 H   0  0  0  0  0  0  0  0  0  0  0  0
   -0.1543   -4.6083    0.1480 N   0  0  0  0  0  0  0  0  0  0  0  0
   -0.3302   -3.4398    0.9696 C   0  0  2  0  0  0  0  0  0  0  0  0
    0.2328   -2.2439    0.2131 C   0  0  0  0  0  0  0  0  0  0  0  0
    1.2097   -2.3192   -0.5294 O   0  0  0  0  0  0  0  0  0  0  0  0
    0.3557   -3.6024    2.3171 C   0  0  0  0  0  0  0  0  0  0  0  0
    0.6584   -4.6506   -0.4643 H   0  0  0  0  0  0  0  0  0  0  0  0
   -1.4091   -3.3101    1.1082 H   0  0  0  0  0  0  0  0  0  0  0  0
    1.4375   -3.7336    2.1985 H   0  0  0  0  0  0  0  0  0  0  0  0
    0.1969   -2.7243    2.9517 H   0  0  0  0  0  0  0  0  0  0  0  0
   -0.0294   -4.4803    2.8470 H   0  0  0  0  0  0  0  0  0  0  0  0
   -0.4616   -1.0893    0.5050 N   0  0  0  0  0  0  0  0  0  0  0  0
   -0.0884    0.2050   -0.0621 C   0  0  2  0  0  0  0  0  0  0  0  0
   -0.4807    1.2817    0.9457 C   0  0  0  0  0  0  0  0  0  0  0  0
   -1.4403    1.1698    1.7062 O   0  0  0  0  0  0  0  0  0  0  0  0
   -0.7907    0.4781   -1.4006 C   0  0  0  0  0  0  0  0  0  0  0  0
   -0.3225   -0.4430   -2.5319 C   0  0  0  0  0  0  0  0  0  0  0  0
   -1.0349   -0.1123   -3.8463 C   0  0  0  0  0  0  0  0  0  0  0  0
   -0.5859   -1.0471   -4.9682 C   0  0  0  0  0  0  0  0  0  0  0  0
   -1.2926   -0.7310   -6.2037 N   0  0  0  0  0  0  0  0  0  0  0  0
   -1.2794   -1.1113    1.0935 H   0  0  0  0  0  0  0  0  0  0  0  0
    0.9992    0.2239   -0.2013 H   0  0  0  0  0  0  0  0  0  0  0  0
   -0.6098    1.5203   -1.6951 H   0  0  0  0  0  0  0  0  0  0  0  0
   -1.8783    0.3854   -1.2778 H   0  0  0  0  0  0  0  0  0  0  0  0
   -0.5183   -1.4896   -2.2727 H   0  0  0  0  0  0  0  0  0  0  0  0
    0.7607   -0.3373   -2.6660 H   0  0  0  0  0  0  0  0  0  0  0  0
   -2.1197   -0.1957   -3.7036 H   0  0  0  0  0  0  0  0  0  0  0  0
   -0.8247    0.9282   -4.1245 H   0  0  0  0  0  0  0  0  0  0  0  0
   -0.7821   -2.0895   -4.6944 H   0  0  0  0  0  0  0  0  0  0  0  0
    0.4912   -0.9434   -5.1366 H   0  0  0  0  0  0  0  0  0  0  0  0
   -1.9250    0.0128   -6.0211 H   0  0  0  0  0  0  0  0  0  0  0  0
   -0.6233   -0.4605   -6.8860 H   0  0  0  0  0  0  0  0  0  0  0  0
    0.3537    2.3889    0.8788 N   0  0  0  0  0  0  0  0  0  0  0  0
    0.1865    3.5586    1.7110 C   0  0  2  0  0  0  0  0  0  0  0  0
    0.6434    4.7727    0.9130 C   0  0  0  0  0  0  0  0  0  0  0  0
    1.5675    4.7342    0.1033 O   0  0  0  0  0  0  0  0  0  0  0  0
    0.9725    3.4327    3.0068 C   0  0  0  0  0  0  0  0  0  0  0  0
    1.1297    2.3884    0.2235 H   0  0  0  0  0  0  0  0  0  0  0  0
   -0.8844    3.6438    1.9255 H   0  0  0  0  0  0  0  0  0  0  0  0
    2.0477    3.3463    2.8120 H   0  0  0  0  0  0  0  0  0  0  0  0
    0.8221    4.3070    3.6486 H   0  0  0  0  0  0  0  0  0  0  0  0
    0.6633    2.5425    3.5652 H   0  0  0  0  0  0  0  0  0  0  0  0
   -0.0737    5.9142    1.2431 N   0  0  0  0  0  0  0  0  0  0  0  0
    0.1997    7.2043    0.6540 C   0  0  0  0  0  0  0  0  0  0  0  0
   -0.8494    5.8458    1.8953 H   0  0  0  0  0  0  0  0  0  0  0  0
    0.9095    7.7548    1.2890 H   0  0  0  0  0  0  0  0  0  0  0  0
    0.6346    7.0655   -0.3468 H   0  0  0  0  0  0  0  0  0  0  0  0
   -0.7368    7.7752    0.5709 H   0  0  0  0  0  0  0  0  0  0  0  0
  1  3  1  0  0  0  0
  1  7  1  0  0  0  0
  1  2  2  0  0  0  0
 39 40  1  0  0  0  0
 40 48  1  0  0  0  0
 40 41  2  0  0  0  0
  8  9  1  0  0  0  0
  9 17  1  0  0  0  0
  9 10  2  0  0  0  0
 18 19  1  0  0  0  0
 19 38  1  0  0  0  0
 19 20  2  0  0  0  0
 39 42  1  0  0  0  0
  8 11  1  0  0  0  0
 48 49  1  0  0  0  0
 22 23  1  0  0  0  0
 21 22  1  0  0  0  0
 23 24  1  0  0  0  0
 18 21  1  0  0  0  0
 24 25  1  0  0  0  0
 38 39  1  0  0  0  0
  7  8  1  0  0  0  0
 17 18  1  0  0  0  0
  3  4  1  0  0  0  0
  3  5  1  0  0  0  0
  3  6  1  0  0  0  0
 42 45  1  0  0  0  0
 42 46  1  0  0  0  0
 42 47  1  0  0  0  0
 11 14  1  0  0  0  0
 11 15  1  0  0  0  0
 11 16  1  0  0  0  0
 49 51  1  0  0  0  0
 49 52  1  0  0  0  0
 49 53  1  0  0  0  0
 22 30  1  0  0  0  0
 22 31  1  0  0  0  0
 23 32  1  0  0  0  0
 23 33  1  0  0  0  0
 21 28  1  0  0  0  0
 21 29  1  0  0  0  0
 24 34  1  0  0  0  0
 24 35  1  0  0  0  0
 39 44  1  0  0  0  0
  8 13  1  0  0  0  0
 18 27  1  0  0  0  0
 25 36  1  0  0  0  0
 25 37  1  0  0  0  0
 48 50  1  0  0  0  0
  7 12  1  0  0  0  0
 38 43  1  0  0  0  0
 17 26  1  0  0  0  0
M  END
$$$$

  -OEChem-05262214473D

 53 52  0     1  0  0  0  0  0999 V2000
   -1.0338   -5.6785    0.1476 C   0  0  0  0  0  0  0  0  0  0  0  0
   -2.0514   -5.7797    0.8227 O   0  0  0  0  0  0  0  0  0  0  0  0
   -0.6558   -6.7819   -0.7841 C   0  0  0  0  0  0  0  0  0  0  0  0
   -0.0111   -7.5354   -0.3038 H   0  0  0  0  0  0  0  0  0  0  0  0
   -1.5317   -7.3401   -1.1520 H   0  0  0  0  0  0  0  0  0  0  0  0
   -0.1109   -6.4687   -1.6890 H   0  0  0  0  0  0  0  0  0  0  0  0
   -0.1543   -4.6083    0.1480 N   0  0  0  0  0  0  0  0  0  0  0  0
   -0.3302   -3.4398    0.9696 C   0  0  2  0  0  0  0  0  0  0  0  0
    0.2328   -2.2439    0.2131 C   0  0  0  0  0  0  0  0  0  0  0  0
    1.2097   -2.3192   -0.5294 O   0  0  0  0  0  0  0  0  0  0  0  0
    0.3557   -3.6024    2.3171 C   0  0  0  0  0  0  0  0  0  0  0  0
    0.6584   -4.6506   -0.4643 H   0  0  0  0  0  0  0  0  0  0  0  0
   -1.4091   -3.3101    1.1082 H   0  0  0  0  0  0  0  0  0  0  0  0
    1.4375   -3.7336    2.1985 H   0  0  0  0  0  0  0  0  0  0  0  0
    0.1969   -2.7243    2.9517 H   0  0  0  0  0  0  0  0  0  0  0  0
   -0.0294   -4.4803    2.8470 H   0  0  0  0  0  0  0  0  0  0  0  0
   -0.4616   -1.0893    0.5050 N   0  0  0  0  0  0  0  0  0  0  0  0
   -0.0884    0.2050   -0.0621 C   0  0  2  0  0  0  0  0  0  0  0  0
   -0.4807    1.2817    0.9457 C   0  0  0  0  0  0  0  0  0  0  0  0
   -1.2555    1.0764    1.8780 O   0  0  0  0  0  0  0  0  0  0  0  0
   -0.7907    0.4781   -1.4006 C   0  0  0  0  0  0  0  0  0  0  0  0
   -0.3225   -0.4430   -2.5319 C   0  0  0  0  0  0  0  0  0  0  0  0
   -1.0349   -0.1123   -3.8463 C   0  0  0  0  0  0  0  0  0  0  0  0
   -0.5859   -1.0471   -4.9682 C   0  0  0  0  0  0  0  0  0  0  0  0
   -1.2926   -0.7310   -6.2037 N   0  0  0  0  0  0  0  0  0  0  0  0
   -1.2794   -1.1113    1.0935 H   0  0  0  0  0  0  0  0  0  0  0  0
    0.9992    0.2239   -0.2013 H   0  0  0  0  0  0  0  0  0  0  0  0
   -0.6098    1.5203   -1.6951 H   0  0  0  0  0  0  0  0  0  0  0  0
   -1.8783    0.3854   -1.2778 H   0  0  0  0  0  0  0  0  0  0  0  0
   -0.5183   -1.4896   -2.2727 H   0  0  0  0  0  0  0  0  0  0  0  0
    0.7607   -0.3373   -2.6660 H   0  0  0  0  0  0  0  0  0  0  0  0
   -2.1197   -0.1957   -3.7036 H   0  0  0  0  0  0  0  0  0  0  0  0
   -0.8247    0.9282   -4.1245 H   0  0  0  0  0  0  0  0  0  0  0  0
   -0.7821   -2.0895   -4.6944 H   0  0  0  0  0  0  0  0  0  0  0  0
    0.4912   -0.9434   -5.1366 H   0  0  0  0  0  0  0  0  0  0  0  0
   -1.9250    0.0128   -6.0211 H   0  0  0  0  0  0  0  0  0  0  0  0
   -0.6233   -0.4605   -6.8860 H   0  0  0  0  0  0  0  0  0  0  0  0
    0.1192    2.5019    0.6667 N   0  0  0  0  0  0  0  0  0  0  0  0
   -0.1027    3.6927    1.4552 C   0  0  2  0  0  0  0  0  0  0  0  0
   -0.0165    4.8955    0.5250 C   0  0  0  0  0  0  0  0  0  0  0  0
    0.7418    4.9431   -0.4413 O   0  0  0  0  0  0  0  0  0  0  0  0
    0.9097    3.8052    2.5844 C   0  0  0  0  0  0  0  0  0  0  0  0
    0.7547    2.5752   -0.1221 H   0  0  0  0  0  0  0  0  0  0  0  0
   -1.1166    3.6176    1.8630 H   0  0  0  0  0  0  0  0  0  0  0  0
    1.9315    3.8814    2.1952 H   0  0  0  0  0  0  0  0  0  0  0  0
    0.7227    4.6927    3.1980 H   0  0  0  0  0  0  0  0  0  0  0  0
    0.8668    2.9253    3.2354 H   0  0  0  0  0  0  0  0  0  0  0  0
   -0.8546    5.9265    0.9259 N   0  0  0  0  0  0  0  0  0  0  0  0
   -0.9225    7.1910    0.2313 C   0  0  0  0  0  0  0  0  0  0  0  0
   -1.4781    5.7852    1.7152 H   0  0  0  0  0  0  0  0  0  0  0  0
   -0.2205    7.9013    0.6925 H   0  0  0  0  0  0  0  0  0  0  0  0
   -0.6538    7.0437   -0.8251 H   0  0  0  0  0  0  0  0  0  0  0  0
   -1.9450    7.5910    0.2973 H   0  0  0  0  0  0  0  0  0  0  0  0
  1  3  1  0  0  0  0
  1  7  1  0  0  0  0
  1  2  2  0  0  0  0
 39 40  1  0  0  0  0
 40 48  1  0  0  0  0
 40 41  2  0  0  0  0
  8  9  1  0  0  0  0
  9 17  1  0  0  0  0
  9 10  2  0  0  0  0
 18 19  1  0  0  0  0
 19 38  1  0  0  0  0
 19 20  2  0  0  0  0
 39 42  1  0  0  0  0
  8 11  1  0  0  0  0
 48 49  1  0  0  0  0
 22 23  1  0  0  0  0
 21 22  1  0  0  0  0
 23 24  1  0  0  0  0
 18 21  1  0  0  0  0
 24 25  1  0  0  0  0
 38 39  1  0  0  0  0
  7  8  1  0  0  0  0
 17 18  1  0  0  0  0
  3  4  1  0  0  0  0
  3  5  1  0  0  0  0
  3  6  1  0  0  0  0
 42 45  1  0  0  0  0
 42 46  1  0  0  0  0
 42 47  1  0  0  0  0
 11 14  1  0  0  0  0
 11 15  1  0  0  0  0
 11 16  1  0  0  0  0
 49 51  1  0  0  0  0
 49 52  1  0  0  0  0
 49 53  1  0  0  0  0
 22 30  1  0  0  0  0
 22 31  1  0  0  0  0
 23 32  1  0  0  0  0
 23 33  1  0  0  0  0
 21 28  1  0  0  0  0
 21 29  1  0  0  0  0
 24 34  1  0  0  0  0
 24 35  1  0  0  0  0
 39 44  1  0  0  0  0
  8 13  1  0  0  0  0
 18 27  1  0  0  0  0
 25 36  1  0  0  0  0
 25 37  1  0  0  0  0
 48 50  1  0  0  0  0
  7 12  1  0  0  0  0
 38 43  1  0  0  0  0
 17 26  1  0  0  0  0
M  END
$$$$

  -OEChem-05262214473D

 53 52  0     1  0  0  0  0  0999 V2000
   -1.0338   -5.6785    0.1476 C   0  0  0  0  0  0  0  0  0  0  0  0
   -2.0514   -5.7797    0.8227 O   0  0  0  0  0  0  0  0  0  0  0  0
   -0.6558   -6.7819   -0.7841 C   0  0  0  0  0  0  0  0  0  0  0  0
   -0.0111   -7.5354   -0.3038 H   0  0  0  0  0  0  0  0  0  0  0  0
   -1.5317   -7.3401   -1.1520 H   0  0  0  0  0  0  0  0  0  0  0  0
   -0.1109   -6.4687   -1.6890 H   0  0  0  0  0  0  0  0  0  0  0  0
   -0.1543   -4.6083    0.1480 N   0  0  0  0  0  0  0  0  0  0  0  0
   -0.3302   -3.4398    0.9696 C   0  0  2  0  0  0  0  0  0  0  0  0
    0.2328   -2.2439    0.2131 C   0  0  0  0  0  0  0  0  0  0  0  0
    1.2097   -2.3192   -0.5294 O   0  0  0  0  0  0  0  0  0  0  0  0
    0.3557   -3.6024    2.3171 C   0  0  0  0  0  0  0  0  0  0  0  0
    0.6584   -4.6506   -0.4643 H   0  0  0  0  0  0  0  0  0  0  0  0
   -1.4091   -3.3101    1.1082 H   0  0  0  0  0  0  0  0  0  0  0  0
    1.4375   -3.7336    2.1985 H   0  0  0  0  0  0  0  0  0  0  0  0
    0.1969   -2.7243    2.9517 H   0  0  0  0  0  0  0  0  0  0  0  0
   -0.0294   -4.4803    2.8470 H   0  0  0  0  0  0  0  0  0  0  0  0
   -0.4616   -1.0893    0.5050 N   0  0  0  0  0  0  0  0  0  0  0  0
   -0.0884    0.2050   -0.0621 C   0  0  2  0  0  0  0  0  0  0  0  0
   -0.1242    1.2317    1.0664 C   0  0  0  0  0  0  0  0  0  0  0  0
   -0.4411    0.9486    2.2200 O   0  0  0  0  0  0  0  0  0  0  0  0
   -1.0410    0.6454   -1.1836 C   0  0  0  0  0  0  0  0  0  0  0  0
   -0.9429   -0.2244   -2.4412 C   0  0  0  0  0  0  0  0  0  0  0  0
   -1.8936    0.2722   -3.5338 C   0  0  0  0  0  0  0  0  0  0  0  0
   -1.8134   -0.6100   -4.7786 C   0  0  0  0  0  0  0  0  0  0  0  0
   -2.7424   -0.1347   -5.7968 N   0  0  0  0  0  0  0  0  0  0  0  0
   -1.2794   -1.1113    1.0935 H   0  0  0  0  0  0  0  0  0  0  0  0
    0.9352    0.1337   -0.4492 H   0  0  0  0  0  0  0  0  0  0  0  0
   -0.8197    1.6860   -1.4551 H   0  0  0  0  0  0  0  0  0  0  0  0
   -2.0763    0.6446   -0.8165 H   0  0  0  0  0  0  0  0  0  0  0  0
   -1.1871   -1.2653   -2.2009 H   0  0  0  0  0  0  0  0  0  0  0  0
    0.0870   -0.2094   -2.8176 H   0  0  0  0  0  0  0  0  0  0  0  0
   -2.9207    0.2789   -3.1476 H   0  0  0  0  0  0  0  0  0  0  0  0
   -1.6405    1.3072   -3.7963 H   0  0  0  0  0  0  0  0  0  0  0  0
   -2.0543   -1.6479   -4.5238 H   0  0  0  0  0  0  0  0  0  0  0  0
   -0.7974   -0.5939   -5.1870 H   0  0  0  0  0  0  0  0  0  0  0  0
   -3.2330    0.6481   -5.4319 H   0  0  0  0  0  0  0  0  0  0  0  0
   -2.2193    0.1249   -6.6002 H   0  0  0  0  0  0  0  0  0  0  0  0
    0.2177    2.5032    0.6269 N   0  0  0  0  0  0  0  0  0  0  0  0
    0.2406    3.6610    1.4916 C   0  0  2  0  0  0  0  0  0  0  0  0
   -0.1465    4.8768    0.6600 C   0  0  0  0  0  0  0  0  0  0  0  0
    0.1539    5.0018   -0.5255 O   0  0  0  0  0  0  0  0  0  0  0  0
    1.6093    3.8503    2.1267 C   0  0  0  0  0  0  0  0  0  0  0  0
    0.4753    2.6410   -0.3458 H   0  0  0  0  0  0  0  0  0  0  0  0
   -0.5152    3.4921    2.2663 H   0  0  0  0  0  0  0  0  0  0  0  0
    2.3797    4.0208    1.3659 H   0  0  0  0  0  0  0  0  0  0  0  0
    1.6171    4.7111    2.8035 H   0  0  0  0  0  0  0  0  0  0  0  0
    1.8990    2.9631    2.7000 H   0  0  0  0  0  0  0  0  0  0  0  0
   -0.8294    5.8252    1.4085 N   0  0  0  0  0  0  0  0  0  0  0  0
   -1.2671    7.0862    0.8570 C   0  0  0  0  0  0  0  0  0  0  0  0
   -1.0706    5.6208    2.3738 H   0  0  0  0  0  0  0  0  0  0  0  0
   -0.4958    7.8508    1.0314 H   0  0  0  0  0  0  0  0  0  0  0  0
   -1.4349    6.9748   -0.2244 H   0  0  0  0  0  0  0  0  0  0  0  0
   -2.2045    7.3935    1.3438 H   0  0  0  0  0  0  0  0  0  0  0  0
  1  3  1  0  0  0  0
  1  7  1  0  0  0  0
  1  2  2  0  0  0  0
 39 40  1  0  0  0  0
 40 48  1  0  0  0  0
 40 41  2  0  0  0  0
  8  9  1  0  0  0  0
  9 17  1  0  0  0  0
  9 10  2  0  0  0  0
 18 19  1  0  0  0  0
 19 38  1  0  0  0  0
 19 20  2  0  0  0  0
 39 42  1  0  0  0  0
  8 11  1  0  0  0  0
 48 49  1  0  0  0  0
 22 23  1  0  0  0  0
 21 22  1  0  0  0  0
 23 24  1  0  0  0  0
 18 21  1  0  0  0  0
 24 25  1  0  0  0  0
 38 39  1  0  0  0  0
  7  8  1  0  0  0  0
 17 18  1  0  0  0  0
  3  4  1  0  0  0  0
  3  5  1  0  0  0  0
  3  6  1  0  0  0  0
 42 45  1  0  0  0  0
 42 46  1  0  0  0  0
 42 47  1  0  0  0  0
 11 14  1  0  0  0  0
 11 15  1  0  0  0  0
 11 16  1  0  0  0  0
 49 51  1  0  0  0  0
 49 52  1  0  0  0  0
 49 53  1  0  0  0  0
 22 30  1  0  0  0  0
 22 31  1  0  0  0  0
 23 32  1  0  0  0  0
 23 33  1  0  0  0  0
 21 28  1  0  0  0  0
 21 29  1  0  0  0  0
 24 34  1  0  0  0  0
 24 35  1  0  0  0  0
 39 44  1  0  0  0  0
  8 13  1  0  0  0  0
 18 27  1  0  0  0  0
 25 36  1  0  0  0  0
 25 37  1  0  0  0  0
 48 50  1  0  0  0  0
  7 12  1  0  0  0  0
 38 43  1  0  0  0  0
 17 26  1  0  0  0  0
M  END
$$$$

  -OEChem-05262214473D

 53 52  0     1  0  0  0  0  0999 V2000
   -1.0338   -5.6785    0.1476 C   0  0  0  0  0  0  0  0  0  0  0  0
   -2.0514   -5.7797    0.8227 O   0  0  0  0  0  0  0  0  0  0  0  0
   -0.6558   -6.7819   -0.7841 C   0  0  0  0  0  0  0  0  0  0  0  0
   -0.0111   -7.5354   -0.3038 H   0  0  0  0  0  0  0  0  0  0  0  0
   -1.5317   -7.3401   -1.1520 H   0  0  0  0  0  0  0  0  0  0  0  0
   -0.1109   -6.4687   -1.6890 H   0  0  0  0  0  0  0  0  0  0  0  0
   -0.1543   -4.6083    0.1480 N   0  0  0  0  0  0  0  0  0  0  0  0
   -0.3302   -3.4398    0.9696 C   0  0  2  0  0  0  0  0  0  0  0  0
    0.2328   -2.2439    0.2131 C   0  0  0  0  0  0  0  0  0  0  0  0
    1.2097   -2.3192   -0.5294 O   0  0  0  0  0  0  0  0  0  0  0  0
    0.3557   -3.6024    2.3171 C   0  0  0  0  0  0  0  0  0  0  0  0
    0.6584   -4.6506   -0.4643 H   0  0  0  0  0  0  0  0  0  0  0  0
   -1.4091   -3.3101    1.1082 H   0  0  0  0  0  0  0  0  0  0  0  0
    1.4375   -3.7336    2.1985 H   0  0  0  0  0  0  0  0  0  0  0  0
    0.1969   -2.7243    2.9517 H   0  0  0  0  0  0  0  0  0  0  0  0
   -0.0294   -4.4803    2.8470 H   0  0  0  0  0  0  0  0  0  0  0  0
   -0.4616   -1.0893    0.5050 N   0  0  0  0  0  0  0  0  0  0  0  0
   -0.0884    0.2050   -0.0621 C   0  0  2  0  0  0  0  0  0  0  0  0
   -0.1242    1.2317    1.0664 C   0  0  0  0  0  0  0  0  0  0  0  0
   -0.1758    0.9199    2.2545 O   0  0  0  0  0  0  0  0  0  0  0  0
   -1.0410    0.6454   -1.1836 C   0  0  0  0  0  0  0  0  0  0  0  0
   -0.9429   -0.2244   -2.4412 C   0  0  0  0  0  0  0  0  0  0  0  0
   -1.8936    0.2722   -3.5338 C   0  0  0  0  0  0  0  0  0  0  0  0
   -1.8134   -0.6100   -4.7786 C   0  0  0  0  0  0  0  0  0  0  0  0
   -2.7424   -0.1347   -5.7968 N   0  0  0  0  0  0  0  0  0  0  0  0
   -1.2794   -1.1113    1.0935 H   0  0  0  0  0  0  0  0  0  0  0  0
    0.9352    0.1337   -0.4492 H   0  0  0  0  0  0  0  0  0  0  0  0
   -0.8197    1.6860   -1.4551 H   0  0  0  0  0  0  0  0  0  0  0  0
   -2.0763    0.6446   -0.8165 H   0  0  0  0  0  0  0  0  0  0  0  0
   -1.1871   -1.2653   -2.2009 H   0  0  0  0  0  0  0  0  0  0  0  0
    0.0870   -0.2094   -2.8176 H   0  0  0  0  0  0  0  0  0  0  0  0
   -2.9207    0.2789   -3.1476 H   0  0  0  0  0  0  0  0  0  0  0  0
   -1.6405    1.3072   -3.7963 H   0  0  0  0  0  0  0  0  0  0  0  0
   -2.0543   -1.6479   -4.5238 H   0  0  0  0  0  0  0  0  0  0  0  0
   -0.7974   -0.5939   -5.1870 H   0  0  0  0  0  0  0  0  0  0  0  0
   -3.2330    0.6481   -5.4319 H   0  0  0  0  0  0  0  0  0  0  0  0
   -2.2193    0.1249   -6.6002 H   0  0  0  0  0  0  0  0  0  0  0  0
   -0.1143    2.5346    0.5878 N   0  0  0  0  0  0  0  0  0  0  0  0
   -0.1643    3.6951    1.4477 C   0  0  2  0  0  0  0  0  0  0  0  0
   -0.9158    4.7952    0.7097 C   0  0  0  0  0  0  0  0  0  0  0  0
   -0.8555    4.9479   -0.5085 O   0  0  0  0  0  0  0  0  0  0  0  0
    1.2317    4.1568    1.8359 C   0  0  0  0  0  0  0  0  0  0  0  0
   -0.0607    2.6966   -0.4135 H   0  0  0  0  0  0  0  0  0  0  0  0
   -0.7275    3.4030    2.3407 H   0  0  0  0  0  0  0  0  0  0  0  0
    1.8111    4.4536    0.9541 H   0  0  0  0  0  0  0  0  0  0  0  0
    1.1914    5.0185    2.5103 H   0  0  0  0  0  0  0  0  0  0  0  0
    1.7813    3.3546    2.3401 H   0  0  0  0  0  0  0  0  0  0  0  0
   -1.6276    5.6128    1.5764 N   0  0  0  0  0  0  0  0  0  0  0  0
   -2.3882    6.7541    1.1235 C   0  0  0  0  0  0  0  0  0  0  0  0
   -1.6539    5.3885    2.5667 H   0  0  0  0  0  0  0  0  0  0  0  0
   -1.7596    7.6556    1.1688 H   0  0  0  0  0  0  0  0  0  0  0  0
   -2.7166    6.5878    0.0869 H   0  0  0  0  0  0  0  0  0  0  0  0
   -3.2681    6.8880    1.7699 H   0  0  0  0  0  0  0  0  0  0  0  0
  1  3  1  0  0  0  0
  1  7  1  0  0  0  0
  1  2  2  0  0  0  0
 39 40  1  0  0  0  0
 40 48  1  0  0  0  0
 40 41  2  0  0  0  0
  8  9  1  0  0  0  0
  9 17  1  0  0  0  0
  9 10  2  0  0  0  0
 18 19  1  0  0  0  0
 19 38  1  0  0  0  0
 19 20  2  0  0  0  0
 39 42  1  0  0  0  0
  8 11  1  0  0  0  0
 48 49  1  0  0  0  0
 22 23  1  0  0  0  0
 21 22  1  0  0  0  0
 23 24  1  0  0  0  0
 18 21  1  0  0  0  0
 24 25  1  0  0  0  0
 38 39  1  0  0  0  0
  7  8  1  0  0  0  0
 17 18  1  0  0  0  0
  3  4  1  0  0  0  0
  3  5  1  0  0  0  0
  3  6  1  0  0  0  0
 42 45  1  0  0  0  0
 42 46  1  0  0  0  0
 42 47  1  0  0  0  0
 11 14  1  0  0  0  0
 11 15  1  0  0  0  0
 11 16  1  0  0  0  0
 49 51  1  0  0  0  0
 49 52  1  0  0  0  0
 49 53  1  0  0  0  0
 22 30  1  0  0  0  0
 22 31  1  0  0  0  0
 23 32  1  0  0  0  0
 23 33  1  0  0  0  0
 21 28  1  0  0  0  0
 21 29  1  0  0  0  0
 24 34  1  0  0  0  0
 24 35  1  0  0  0  0
 39 44  1  0  0  0  0
  8 13  1  0  0  0  0
 18 27  1  0  0  0  0
 25 36  1  0  0  0  0
 25 37  1  0  0  0  0
 48 50  1  0  0  0  0
  7 12  1  0  0  0  0
 38 43  1  0  0  0  0
 17 26  1  0  0  0  0
M  END
$$$$

  -OEChem-05262214473D

 53 52  0     1  0  0  0  0  0999 V2000
   -1.0338   -5.6785    0.1476 C   0  0  0  0  0  0  0  0  0  0  0  0
   -2.0514   -5.7797    0.8227 O   0  0  0  0  0  0  0  0  0  0  0  0
   -0.6558   -6.7819   -0.7841 C   0  0  0  0  0  0  0  0  0  0  0  0
   -0.0111   -7.5354   -0.3038 H   0  0  0  0  0  0  0  0  0  0  0  0
   -1.5317   -7.3401   -1.1520 H   0  0  0  0  0  0  0  0  0  0  0  0
   -0.1109   -6.4687   -1.6890 H   0  0  0  0  0  0  0  0  0  0  0  0
   -0.1543   -4.6083    0.1480 N   0  0  0  0  0  0  0  0  0  0  0  0
   -0.3302   -3.4398    0.9696 C   0  0  2  0  0  0  0  0  0  0  0  0
    0.2328   -2.2439    0.2131 C   0  0  0  0  0  0  0  0  0  0  0  0
    1.2097   -2.3192   -0.5294 O   0  0  0  0  0  0  0  0  0  0  0  0
    0.3557   -3.6024    2.3171 C   0  0  0  0  0  0  0  0  0  0  0  0
    0.6584   -4.6506   -0.4643 H   0  0  0  0  0  0  0  0  0  0  0  0
   -1.4091   -3.3101    1.1082 H   0  0  0  0  0  0  0  0  0  0  0  0
    1.4375   -3.7336    2.1985 H   0  0  0  0  0  0  0  0  0  0  0  0
    0.1969   -2.7243    2.9517 H   0  0  0  0  0  0  0  0  0  0  0  0
   -0.0294   -4.4803    2.8470 H   0  0  0  0  0  0  0  0  0  0  0  0
   -0.4616   -1.0893    0.5050 N   0  0  0  0  0  0  0  0  0  0  0  0
   -0.0884    0.2050   -0.0621 C   0  0  2  0  0  0  0  0  0  0  0  0
   -0.1242    1.2317    1.0664 C   0  0  0  0  0  0  0  0  0  0  0  0
    0.0920    0.9433    2.2418 O   0  0  0  0  0  0  0  0  0  0  0  0
   -1.0410    0.6454   -1.1836 C   0  0  0  0  0  0  0  0  0  0  0  0
   -0.9429   -0.2244   -2.4412 C   0  0  0  0  0  0  0  0  0  0  0  0
   -1.8936    0.2722   -3.5338 C   0  0  0  0  0  0  0  0  0  0  0  0
   -1.8134   -0.6100   -4.7786 C   0  0  0  0  0  0  0  0  0  0  0  0
   -2.7424   -0.1347   -5.7968 N   0  0  0  0  0  0  0  0  0  0  0  0
   -1.2794   -1.1113    1.0935 H   0  0  0  0  0  0  0  0  0  0  0  0
    0.9352    0.1337   -0.4492 H   0  0  0  0  0  0  0  0  0  0  0  0
   -0.8197    1.6860   -1.4551 H   0  0  0  0  0  0  0  0  0  0  0  0
   -2.0763    0.6446   -0.8165 H   0  0  0  0  0  0  0  0  0  0  0  0
   -1.1871   -1.2653   -2.2009 H   0  0  0  0  0  0  0  0  0  0  0  0
    0.0870   -0.2094   -2.8176 H   0  0  0  0  0  0  0  0  0  0  0  0
   -2.9207    0.2789   -3.1476 H   0  0  0  0  0  0  0  0  0  0  0  0
   -1.6405    1.3072   -3.7963 H   0  0  0  0  0  0  0  0  0  0  0  0
   -2.0543   -1.6479   -4.5238 H   0  0  0  0  0  0  0  0  0  0  0  0
   -0.7974   -0.5939   -5.1870 H   0  0  0  0  0  0  0  0  0  0  0  0
   -3.2330    0.6481   -5.4319 H   0  0  0  0  0  0  0  0  0  0  0  0
   -2.2193    0.1249   -6.6002 H   0  0  0  0  0  0  0  0  0  0  0  0
   -0.4477    2.5012    0.6076 N   0  0  0  0  0  0  0  0  0  0  0  0
   -0.5696    3.6503    1.4756 C   0  0  2  0  0  0  0  0  0  0  0  0
   -1.6347    4.5694    0.8923 C   0  0  0  0  0  0  0  0  0  0  0  0
   -1.8171    4.7028   -0.3160 O   0  0  0  0  0  0  0  0  0  0  0  0
    0.7576    4.3787    1.6189 C   0  0  0  0  0  0  0  0  0  0  0  0
   -0.6008    2.6473   -0.3858 H   0  0  0  0  0  0  0  0  0  0  0  0
   -0.9026    3.2767    2.4500 H   0  0  0  0  0  0  0  0  0  0  0  0
    1.1073    4.7603    0.6527 H   0  0  0  0  0  0  0  0  0  0  0  0
    0.6704    5.2322    2.2993 H   0  0  0  0  0  0  0  0  0  0  0  0
    1.5300    3.7080    2.0106 H   0  0  0  0  0  0  0  0  0  0  0  0
   -2.3288    5.2559    1.8788 N   0  0  0  0  0  0  0  0  0  0  0  0
   -3.3611    6.2203    1.5782 C   0  0  0  0  0  0  0  0  0  0  0  0
   -2.1393    5.0535    2.8559 H   0  0  0  0  0  0  0  0  0  0  0  0
   -2.9191    7.2261    1.5227 H   0  0  0  0  0  0  0  0  0  0  0  0
   -3.8262    5.9706    0.6132 H   0  0  0  0  0  0  0  0  0  0  0  0
   -4.1246    6.1986    2.3698 H   0  0  0  0  0  0  0  0  0  0  0  0
  1  3  1  0  0  0  0
  1  7  1  0  0  0  0
  1  2  2  0  0  0  0
 39 40  1  0  0  0  0
 40 48  1  0  0  0  0
 40 41  2  0  0  0  0
  8  9  1  0  0  0  0
  9 17  1  0  0  0  0
  9 10  2  0  0  0  0
 18 19  1  0  0  0  0
 19 38  1  0  0  0  0
 19 20  2  0  0  0  0
 39 42  1  0  0  0  0
  8 11  1  0  0  0  0
 48 49  1  0  0  0  0
 22 23  1  0  0  0  0
 21 22  1  0  0  0  0
 23 24  1  0  0  0  0
 18 21  1  0  0  0  0
 24 25  1  0  0  0  0
 38 39  1  0  0  0  0
  7  8  1  0  0  0  0
 17 18  1  0  0  0  0
  3  4  1  0  0  0  0
  3  5  1  0  0  0  0
  3  6  1  0  0  0  0
 42 45  1  0  0  0  0
 42 46  1  0  0  0  0
 42 47  1  0  0  0  0
 11 14  1  0  0  0  0
 11 15  1  0  0  0  0
 11 16  1  0  0  0  0
 49 51  1  0  0  0  0
 49 52  1  0  0  0  0
 49 53  1  0  0  0  0
 22 30  1  0  0  0  0
 22 31  1  0  0  0  0
 23 32  1  0  0  0  0
 23 33  1  0  0  0  0
 21 28  1  0  0  0  0
 21 29  1  0  0  0  0
 24 34  1  0  0  0  0
 24 35  1  0  0  0  0
 39 44  1  0  0  0  0
  8 13  1  0  0  0  0
 18 27  1  0  0  0  0
 25 36  1  0  0  0  0
 25 37  1  0  0  0  0
 48 50  1  0  0  0  0
  7 12  1  0  0  0  0
 38 43  1  0  0  0  0
 17 26  1  0  0  0  0
M  END
$$$$

  -OEChem-05262214473D

 53 52  0     1  0  0  0  0  0999 V2000
   -1.0338   -5.6785    0.1476 C   0  0  0  0  0  0  0  0  0  0  0  0
   -2.0514   -5.7797    0.8227 O   0  0  0  0  0  0  0  0  0  0  0  0
   -0.6558   -6.7819   -0.7841 C   0  0  0  0  0  0  0  0  0  0  0  0
   -0.0111   -7.5354   -0.3038 H   0  0  0  0  0  0  0  0  0  0  0  0
   -1.5317   -7.3401   -1.1520 H   0  0  0  0  0  0  0  0  0  0  0  0
   -0.1109   -6.4687   -1.6890 H   0  0  0  0  0  0  0  0  0  0  0  0
   -0.1543   -4.6083    0.1480 N   0  0  0  0  0  0  0  0  0  0  0  0
   -0.3302   -3.4398    0.9696 C   0  0  2  0  0  0  0  0  0  0  0  0
    0.2328   -2.2439    0.2131 C   0  0  0  0  0  0  0  0  0  0  0  0
    1.2097   -2.3192   -0.5294 O   0  0  0  0  0  0  0  0  0  0  0  0
    0.3557   -3.6024    2.3171 C   0  0  0  0  0  0  0  0  0  0  0  0
    0.6584   -4.6506   -0.4643 H   0  0  0  0  0  0  0  0  0  0  0  0
   -1.4091   -3.3101    1.1082 H   0  0  0  0  0  0  0  0  0  0  0  0
    1.4375   -3.7336    2.1985 H   0  0  0  0  0  0  0  0  0  0  0  0
    0.1969   -2.7243    2.9517 H   0  0  0  0  0  0  0  0  0  0  0  0
   -0.0294   -4.4803    2.8470 H   0  0  0  0  0  0  0  0  0  0  0  0
   -0.4616   -1.0893    0.5050 N   0  0  0  0  0  0  0  0  0  0  0  0
   -0.0884    0.2050   -0.0621 C   0  0  2  0  0  0  0  0  0  0  0  0
   -0.1242    1.2317    1.0664 C   0  0  0  0  0  0  0  0  0  0  0  0
    0.3439    1.0170    2.1827 O   0  0  0  0  0  0  0  0  0  0  0  0
   -1.0410    0.6454   -1.1836 C   0  0  0  0  0  0  0  0  0  0  0  0
   -0.9429   -0.2244   -2.4412 C   0  0  0  0  0  0  0  0  0  0  0  0
   -1.8936    0.2722   -3.5338 C   0  0  0  0  0  0  0  0  0  0  0  0
   -1.8134   -0.6100   -4.7786 C   0  0  0  0  0  0  0  0  0  0  0  0
   -2.7424   -0.1347   -5.7968 N   0  0  0  0  0  0  0  0  0  0  0  0
   -1.2794   -1.1113    1.0935 H   0  0  0  0  0  0  0  0  0  0  0  0
    0.9352    0.1337   -0.4492 H   0  0  0  0  0  0  0  0  0  0  0  0
   -0.8197    1.6860   -1.4551 H   0  0  0  0  0  0  0  0  0  0  0  0
   -2.0763    0.6446   -0.8165 H   0  0  0  0  0  0  0  0  0  0  0  0
   -1.1871   -1.2653   -2.2009 H   0  0  0  0  0  0  0  0  0  0  0  0
    0.0870   -0.2094   -2.8176 H   0  0  0  0  0  0  0  0  0  0  0  0
   -2.9207    0.2789   -3.1476 H   0  0  0  0  0  0  0  0  0  0  0  0
   -1.6405    1.3072   -3.7963 H   0  0  0  0  0  0  0  0  0  0  0  0
   -2.0543   -1.6479   -4.5238 H   0  0  0  0  0  0  0  0  0  0  0  0
   -0.7974   -0.5939   -5.1870 H   0  0  0  0  0  0  0  0  0  0  0  0
   -3.2330    0.6481   -5.4319 H   0  0  0  0  0  0  0  0  0  0  0  0
   -2.2193    0.1249   -6.6002 H   0  0  0  0  0  0  0  0  0  0  0  0
   -0.7600    2.4052    0.6850 N   0  0  0  0  0  0  0  0  0  0  0  0
   -0.9476    3.5296    1.5733 C   0  0  2  0  0  0  0  0  0  0  0  0
   -2.2541    4.2149    1.1952 C   0  0  0  0  0  0  0  0  0  0  0  0
   -2.6655    4.2831    0.0388 O   0  0  0  0  0  0  0  0  0  0  0  0
    0.2195    4.5011    1.4905 C   0  0  0  0  0  0  0  0  0  0  0  0
   -1.1083    2.4965   -0.2647 H   0  0  0  0  0  0  0  0  0  0  0  0
   -1.0285    3.1219    2.5869 H   0  0  0  0  0  0  0  0  0  0  0  0
    0.3164    4.9200    0.4822 H   0  0  0  0  0  0  0  0  0  0  0  0
    0.0894    5.3377    2.1849 H   0  0  0  0  0  0  0  0  0  0  0  0
    1.1622    3.9993    1.7339 H   0  0  0  0  0  0  0  0  0  0  0  0
   -2.8851    4.7788    2.2951 N   0  0  0  0  0  0  0  0  0  0  0  0
   -4.1195    5.5213    2.1901 C   0  0  0  0  0  0  0  0  0  0  0  0
   -2.4936    4.6389    3.2219 H   0  0  0  0  0  0  0  0  0  0  0  0
   -3.8952    6.5914    2.0691 H   0  0  0  0  0  0  0  0  0  0  0  0
   -4.6883    5.1652    1.3185 H   0  0  0  0  0  0  0  0  0  0  0  0
   -4.7155    5.3725    3.1026 H   0  0  0  0  0  0  0  0  0  0  0  0
  1  3  1  0  0  0  0
  1  7  1  0  0  0  0
  1  2  2  0  0  0  0
 39 40  1  0  0  0  0
 40 48  1  0  0  0  0
 40 41  2  0  0  0  0
  8  9  1  0  0  0  0
  9 17  1  0  0  0  0
  9 10  2  0  0  0  0
 18 19  1  0  0  0  0
 19 38  1  0  0  0  0
 19 20  2  0  0  0  0
 39 42  1  0  0  0  0
  8 11  1  0  0  0  0
 48 49  1  0  0  0  0
 22 23  1  0  0  0  0
 21 22  1  0  0  0  0
 23 24  1  0  0  0  0
 18 21  1  0  0  0  0
 24 25  1  0  0  0  0
 38 39  1  0  0  0  0
  7  8  1  0  0  0  0
 17 18  1  0  0  0  0
  3  4  1  0  0  0  0
  3  5  1  0  0  0  0
  3  6  1  0  0  0  0
 42 45  1  0  0  0  0
 42 46  1  0  0  0  0
 42 47  1  0  0  0  0
 11 14  1  0  0  0  0
 11 15  1  0  0  0  0
 11 16  1  0  0  0  0
 49 51  1  0  0  0  0
 49 52  1  0  0  0  0
 49 53  1  0  0  0  0
 22 30  1  0  0  0  0
 22 31  1  0  0  0  0
 23 32  1  0  0  0  0
 23 33  1  0  0  0  0
 21 28  1  0  0  0  0
 21 29  1  0  0  0  0
 24 34  1  0  0  0  0
 24 35  1  0  0  0  0
 39 44  1  0  0  0  0
  8 13  1  0  0  0  0
 18 27  1  0  0  0  0
 25 36  1  0  0  0  0
 25 37  1  0  0  0  0
 48 50  1  0  0  0  0
  7 12  1  0  0  0  0
 38 43  1  0  0  0  0
 17 26  1  0  0  0  0
M  END
$$$$

  -OEChem-05262214473D

 53 52  0     1  0  0  0  0  0999 V2000
   -1.0338   -5.6785    0.1476 C   0  0  0  0  0  0  0  0  0  0  0  0
   -2.0514   -5.7797    0.8227 O   0  0  0  0  0  0  0  0  0  0  0  0
   -0.6558   -6.7819   -0.7841 C   0  0  0  0  0  0  0  0  0  0  0  0
   -0.0111   -7.5354   -0.3038 H   0  0  0  0  0  0  0  0  0  0  0  0
   -1.5317   -7.3401   -1.1520 H   0  0  0  0  0  0  0  0  0  0  0  0
   -0.1109   -6.4687   -1.6890 H   0  0  0  0  0  0  0  0  0  0  0  0
   -0.1543   -4.6083    0.1480 N   0  0  0  0  0  0  0  0  0  0  0  0
   -0.3302   -3.4398    0.9696 C   0  0  2  0  0  0  0  0  0  0  0  0
    0.2328   -2.2439    0.2131 C   0  0  0  0  0  0  0  0  0  0  0  0
    1.2097   -2.3192   -0.5294 O   0  0  0  0  0  0  0  0  0  0  0  0
    0.3557   -3.6024    2.3171 C   0  0  0  0  0  0  0  0  0  0  0  0
    0.6584   -4.6506   -0.4643 H   0  0  0  0  0  0  0  0  0  0  0  0
   -1.4091   -3.3101    1.1082 H   0  0  0  0  0  0  0  0  0  0  0  0
    1.4375   -3.7336    2.1985 H   0  0  0  0  0  0  0  0  0  0  0  0
    0.1969   -2.7243    2.9517 H   0  0  0  0  0  0  0  0  0  0  0  0
   -0.0294   -4.4803    2.8470 H   0  0  0  0  0  0  0  0  0  0  0  0
   -0.4616   -1.0893    0.5050 N   0  0  0  0  0  0  0  0  0  0  0  0
   -0.0884    0.2050   -0.0621 C   0  0  2  0  0  0  0  0  0  0  0  0
   -0.1242    1.2317    1.0664 C   0  0  0  0  0  0  0  0  0  0  0  0
    0.5629    1.1361    2.0814 O   0  0  0  0  0  0  0  0  0  0  0  0
   -1.0410    0.6454   -1.1836 C   0  0  0  0  0  0  0  0  0  0  0  0
   -0.9429   -0.2244   -2.4412 C   0  0  0  0  0  0  0  0  0  0  0  0
   -1.8936    0.2722   -3.5338 C   0  0  0  0  0  0  0  0  0  0  0  0
   -1.8134   -0.6100   -4.7786 C   0  0  0  0  0  0  0  0  0  0  0  0
   -2.7424   -0.1347   -5.7968 N   0  0  0  0  0  0  0  0  0  0  0  0
   -1.2794   -1.1113    1.0935 H   0  0  0  0  0  0  0  0  0  0  0  0
    0.9352    0.1337   -0.4492 H   0  0  0  0  0  0  0  0  0  0  0  0
   -0.8197    1.6860   -1.4551 H   0  0  0  0  0  0  0  0  0  0  0  0
   -2.0763    0.6446   -0.8165 H   0  0  0  0  0  0  0  0  0  0  0  0
   -1.1871   -1.2653   -2.2009 H   0  0  0  0  0  0  0  0  0  0  0  0
    0.0870   -0.2094   -2.8176 H   0  0  0  0  0  0  0  0  0  0  0  0
   -2.9207    0.2789   -3.1476 H   0  0  0  0  0  0  0  0  0  0  0  0
   -1.6405    1.3072   -3.7963 H   0  0  0  0  0  0  0  0  0  0  0  0
   -2.0543   -1.6479   -4.5238 H   0  0  0  0  0  0  0  0  0  0  0  0
   -0.7974   -0.5939   -5.1870 H   0  0  0  0  0  0  0  0  0  0  0  0
   -3.2330    0.6481   -5.4319 H   0  0  0  0  0  0  0  0  0  0  0  0
   -2.2193    0.1249   -6.6002 H   0  0  0  0  0  0  0  0  0  0  0  0
   -1.0298    2.2532    0.8147 N   0  0  0  0  0  0  0  0  0  0  0  0
   -1.2727    3.3413    1.7344 C   0  0  2  0  0  0  0  0  0  0  0  0
   -2.7318    3.7557    1.5977 C   0  0  0  0  0  0  0  0  0  0  0  0
   -3.3430    3.7175    0.5318 O   0  0  0  0  0  0  0  0  0  0  0  0
   -0.3461    4.5155    1.4594 C   0  0  0  0  0  0  0  0  0  0  0  0
   -1.5485    2.2545   -0.0585 H   0  0  0  0  0  0  0  0  0  0  0  0
   -1.0966    2.9491    2.7419 H   0  0  0  0  0  0  0  0  0  0  0  0
   -0.5079    4.9218    0.4544 H   0  0  0  0  0  0  0  0  0  0  0  0
   -0.5118    5.3276    2.1749 H   0  0  0  0  0  0  0  0  0  0  0  0
    0.7031    4.2086    1.5289 H   0  0  0  0  0  0  0  0  0  0  0  0
   -3.2587    4.2141    2.7971 N   0  0  0  0  0  0  0  0  0  0  0  0
   -4.6118    4.7046    2.9174 C   0  0  0  0  0  0  0  0  0  0  0  0
   -2.6928    4.1728    3.6396 H   0  0  0  0  0  0  0  0  0  0  0  0
   -4.6215    5.7948    2.7708 H   0  0  0  0  0  0  0  0  0  0  0  0
   -5.2441    4.2266    2.1548 H   0  0  0  0  0  0  0  0  0  0  0  0
   -5.0006    4.4660    3.9183 H   0  0  0  0  0  0  0  0  0  0  0  0
  1  3  1  0  0  0  0
  1  7  1  0  0  0  0
  1  2  2  0  0  0  0
 39 40  1  0  0  0  0
 40 48  1  0  0  0  0
 40 41  2  0  0  0  0
  8  9  1  0  0  0  0
  9 17  1  0  0  0  0
  9 10  2  0  0  0  0
 18 19  1  0  0  0  0
 19 38  1  0  0  0  0
 19 20  2  0  0  0  0
 39 42  1  0  0  0  0
  8 11  1  0  0  0  0
 48 49  1  0  0  0  0
 22 23  1  0  0  0  0
 21 22  1  0  0  0  0
 23 24  1  0  0  0  0
 18 21  1  0  0  0  0
 24 25  1  0  0  0  0
 38 39  1  0  0  0  0
  7  8  1  0  0  0  0
 17 18  1  0  0  0  0
  3  4  1  0  0  0  0
  3  5  1  0  0  0  0
  3  6  1  0  0  0  0
 42 45  1  0  0  0  0
 42 46  1  0  0  0  0
 42 47  1  0  0  0  0
 11 14  1  0  0  0  0
 11 15  1  0  0  0  0
 11 16  1  0  0  0  0
 49 51  1  0  0  0  0
 49 52  1  0  0  0  0
 49 53  1  0  0  0  0
 22 30  1  0  0  0  0
 22 31  1  0  0  0  0
 23 32  1  0  0  0  0
 23 33  1  0  0  0  0
 21 28  1  0  0  0  0
 21 29  1  0  0  0  0
 24 34  1  0  0  0  0
 24 35  1  0  0  0  0
 39 44  1  0  0  0  0
  8 13  1  0  0  0  0
 18 27  1  0  0  0  0
 25 36  1  0  0  0  0
 25 37  1  0  0  0  0
 48 50  1  0  0  0  0
  7 12  1  0  0  0  0
 38 43  1  0  0  0  0
 17 26  1  0  0  0  0
M  END
$$$$

  -OEChem-05262214473D

 53 52  0     1  0  0  0  0  0999 V2000
   -1.0338   -5.6785    0.1476 C   0  0  0  0  0  0  0  0  0  0  0  0
   -2.0514   -5.7797    0.8227 O   0  0  0  0  0  0  0  0  0  0  0  0
   -0.6558   -6.7819   -0.7841 C   0  0  0  0  0  0  0  0  0  0  0  0
   -0.0111   -7.5354   -0.3038 H   0  0  0  0  0  0  0  0  0  0  0  0
   -1.5317   -7.3401   -1.1520 H   0  0  0  0  0  0  0  0  0  0  0  0
   -0.1109   -6.4687   -1.6890 H   0  0  0  0  0  0  0  0  0  0  0  0
   -0.1543   -4.6083    0.1480 N   0  0  0  0  0  0  0  0  0  0  0  0
   -0.3302   -3.4398    0.9696 C   0  0  2  0  0  0  0  0  0  0  0  0
    0.2328   -2.2439    0.2131 C   0  0  0  0  0  0  0  0  0  0  0  0
    1.2097   -2.3192   -0.5294 O   0  0  0  0  0  0  0  0  0  0  0  0
    0.3557   -3.6024    2.3171 C   0  0  0  0  0  0  0  0  0  0  0  0
    0.6584   -4.6506   -0.4643 H   0  0  0  0  0  0  0  0  0  0  0  0
   -1.4091   -3.3101    1.1082 H   0  0  0  0  0  0  0  0  0  0  0  0
    1.4375   -3.7336    2.1985 H   0  0  0  0  0  0  0  0  0  0  0  0
    0.1969   -2.7243    2.9517 H   0  0  0  0  0  0  0  0  0  0  0  0
   -0.0294   -4.4803    2.8470 H   0  0  0  0  0  0  0  0  0  0  0  0
   -0.4616   -1.0893    0.5050 N   0  0  0  0  0  0  0  0  0  0  0  0
   -0.0884    0.2050   -0.0621 C   0  0  2  0  0  0  0  0  0  0  0  0
   -0.1242    1.2317    1.0664 C   0  0  0  0  0  0  0  0  0  0  0  0
    0.7340    1.2924    1.9446 O   0  0  0  0  0  0  0  0  0  0  0  0
   -1.0410    0.6454   -1.1836 C   0  0  0  0  0  0  0  0  0  0  0  0
   -0.9429   -0.2244   -2.4412 C   0  0  0  0  0  0  0  0  0  0  0  0
   -1.8936    0.2722   -3.5338 C   0  0  0  0  0  0  0  0  0  0  0  0
   -1.8134   -0.6100   -4.7786 C   0  0  0  0  0  0  0  0  0  0  0  0
   -2.7424   -0.1347   -5.7968 N   0  0  0  0  0  0  0  0  0  0  0  0
   -1.2794   -1.1113    1.0935 H   0  0  0  0  0  0  0  0  0  0  0  0
    0.9352    0.1337   -0.4492 H   0  0  0  0  0  0  0  0  0  0  0  0
   -0.8197    1.6860   -1.4551 H   0  0  0  0  0  0  0  0  0  0  0  0
   -2.0763    0.6446   -0.8165 H   0  0  0  0  0  0  0  0  0  0  0  0
   -1.1871   -1.2653   -2.2009 H   0  0  0  0  0  0  0  0  0  0  0  0
    0.0870   -0.2094   -2.8176 H   0  0  0  0  0  0  0  0  0  0  0  0
   -2.9207    0.2789   -3.1476 H   0  0  0  0  0  0  0  0  0  0  0  0
   -1.6405    1.3072   -3.7963 H   0  0  0  0  0  0  0  0  0  0  0  0
   -2.0543   -1.6479   -4.5238 H   0  0  0  0  0  0  0  0  0  0  0  0
   -0.7974   -0.5939   -5.1870 H   0  0  0  0  0  0  0  0  0  0  0  0
   -3.2330    0.6481   -5.4319 H   0  0  0  0  0  0  0  0  0  0  0  0
   -2.2193    0.1249   -6.6002 H   0  0  0  0  0  0  0  0  0  0  0  0
   -1.2387    2.0555    0.9879 N   0  0  0  0  0  0  0  0  0  0  0  0
   -1.5225    3.0982    1.9476 C   0  0  2  0  0  0  0  0  0  0  0  0
   -3.0352    3.2232    2.0725 C   0  0  0  0  0  0  0  0  0  0  0  0
   -3.8032    3.0445    1.1295 O   0  0  0  0  0  0  0  0  0  0  0  0
   -0.9006    4.4209    1.5278 C   0  0  0  0  0  0  0  0  0  0  0  0
   -1.8915    1.9376    0.2188 H   0  0  0  0  0  0  0  0  0  0  0  0
   -1.1024    2.7701    2.9046 H   0  0  0  0  0  0  0  0  0  0  0  0
   -1.3093    4.7657    0.5710 H   0  0  0  0  0  0  0  0  0  0  0  0
   -1.0924    5.2028    2.2700 H   0  0  0  0  0  0  0  0  0  0  0  0
    0.1838    4.3216    1.4096 H   0  0  0  0  0  0  0  0  0  0  0  0
   -3.4240    3.6001    3.3504 N   0  0  0  0  0  0  0  0  0  0  0  0
   -4.8043    3.8261    3.7106 C   0  0  0  0  0  0  0  0  0  0  0  0
   -2.7233    3.6870    4.0806 H   0  0  0  0  0  0  0  0  0  0  0  0
   -5.0484    4.8906    3.5798 H   0  0  0  0  0  0  0  0  0  0  0  0
   -5.4557    3.2186    3.0651 H   0  0  0  0  0  0  0  0  0  0  0  0
   -4.9603    3.5407    4.7614 H   0  0  0  0  0  0  0  0  0  0  0  0
  1  3  1  0  0  0  0
  1  7  1  0  0  0  0
  1  2  2  0  0  0  0
 39 40  1  0  0  0  0
 40 48  1  0  0  0  0
 40 41  2  0  0  0  0
  8  9  1  0  0  0  0
  9 17  1  0  0  0  0
  9 10  2  0  0  0  0
 18 19  1  0  0  0  0
 19 38  1  0  0  0  0
 19 20  2  0  0  0  0
 39 42  1  0  0  0  0
  8 11  1  0  0  0  0
 48 49  1  0  0  0  0
 22 23  1  0  0  0  0
 21 22  1  0  0  0  0
 23 24  1  0  0  0  0
 18 21  1  0  0  0  0
 24 25  1  0  0  0  0
 38 39  1  0  0  0  0
  7  8  1  0  0  0  0
 17 18  1  0  0  0  0
  3  4  1  0  0  0  0
  3  5  1  0  0  0  0
  3  6  1  0  0  0  0
 42 45  1  0  0  0  0
 42 46  1  0  0  0  0
 42 47  1  0  0  0  0
 11 14  1  0  0  0  0
 11 15  1  0  0  0  0
 11 16  1  0  0  0  0
 49 51  1  0  0  0  0
 49 52  1  0  0  0  0
 49 53  1  0  0  0  0
 22 30  1  0  0  0  0
 22 31  1  0  0  0  0
 23 32  1  0  0  0  0
 23 33  1  0  0  0  0
 21 28  1  0  0  0  0
 21 29  1  0  0  0  0
 24 34  1  0  0  0  0
 24 35  1  0  0  0  0
 39 44  1  0  0  0  0
  8 13  1  0  0  0  0
 18 27  1  0  0  0  0
 25 36  1  0  0  0  0
 25 37  1  0  0  0  0
 48 50  1  0  0  0  0
  7 12  1  0  0  0  0
 38 43  1  0  0  0  0
 17 26  1  0  0  0  0
M  END
$$$$

  -OEChem-05262214473D

 53 52  0     1  0  0  0  0  0999 V2000
   -1.0338   -5.6785    0.1476 C   0  0  0  0  0  0  0  0  0  0  0  0
   -2.0514   -5.7797    0.8227 O   0  0  0  0  0  0  0  0  0  0  0  0
   -0.6558   -6.7819   -0.7841 C   0  0  0  0  0  0  0  0  0  0  0  0
   -0.0111   -7.5354   -0.3038 H   0  0  0  0  0  0  0  0  0  0  0  0
   -1.5317   -7.3401   -1.1520 H   0  0  0  0  0  0  0  0  0  0  0  0
   -0.1109   -6.4687   -1.6890 H   0  0  0  0  0  0  0  0  0  0  0  0
   -0.1543   -4.6083    0.1480 N   0  0  0  0  0  0  0  0  0  0  0  0
   -0.3302   -3.4398    0.9696 C   0  0  2  0  0  0  0  0  0  0  0  0
    0.2328   -2.2439    0.2131 C   0  0  0  0  0  0  0  0  0  0  0  0
    1.2097   -2.3192   -0.5294 O   0  0  0  0  0  0  0  0  0  0  0  0
    0.3557   -3.6024    2.3171 C   0  0  0  0  0  0  0  0  0  0  0  0
    0.6584   -4.6506   -0.4643 H   0  0  0  0  0  0  0  0  0  0  0  0
   -1.4091   -3.3101    1.1082 H   0  0  0  0  0  0  0  0  0  0  0  0
    1.4375   -3.7336    2.1985 H   0  0  0  0  0  0  0  0  0  0  0  0
    0.1969   -2.7243    2.9517 H   0  0  0  0  0  0  0  0  0  0  0  0
   -0.0294   -4.4803    2.8470 H   0  0  0  0  0  0  0  0  0  0  0  0
   -0.4616   -1.0893    0.5050 N   0  0  0  0  0  0  0  0  0  0  0  0
   -0.0884    0.2050   -0.0621 C   0  0  2  0  0  0  0  0  0  0  0  0
   -0.1242    1.2317    1.0664 C   0  0  0  0  0  0  0  0  0  0  0  0
    0.8455    1.4753    1.7817 O   0  0  0  0  0  0  0  0  0  0  0  0
   -1.0410    0.6454   -1.1836 C   0  0  0  0  0  0  0  0  0  0  0  0
   -0.9429   -0.2244   -2.4412 C   0  0  0  0  0  0  0  0  0  0  0  0
   -1.8936    0.2722   -3.5338 C   0  0  0  0  0  0  0  0  0  0  0  0
   -1.8134   -0.6100   -4.7786 C   0  0  0  0  0  0  0  0  0  0  0  0
   -2.7424   -0.1347   -5.7968 N   0  0  0  0  0  0  0  0  0  0  0  0
   -1.2794   -1.1113    1.0935 H   0  0  0  0  0  0  0  0  0  0  0  0
    0.9352    0.1337   -0.4492 H   0  0  0  0  0  0  0  0  0  0  0  0
   -0.8197    1.6860   -1.4551 H   0  0  0  0  0  0  0  0  0  0  0  0
   -2.0763    0.6446   -0.8165 H   0  0  0  0  0  0  0  0  0  0  0  0
   -1.1871   -1.2653   -2.2009 H   0  0  0  0  0  0  0  0  0  0  0  0
    0.0870   -0.2094   -2.8176 H   0  0  0  0  0  0  0  0  0  0  0  0
   -2.9207    0.2789   -3.1476 H   0  0  0  0  0  0  0  0  0  0  0  0
   -1.6405    1.3072   -3.7963 H   0  0  0  0  0  0  0  0  0  0  0  0
   -2.0543   -1.6479   -4.5238 H   0  0  0  0  0  0  0  0  0  0  0  0
   -0.7974   -0.5939   -5.1870 H   0  0  0  0  0  0  0  0  0  0  0  0
   -3.2330    0.6481   -5.4319 H   0  0  0  0  0  0  0  0  0  0  0  0
   -2.2193    0.1249   -6.6002 H   0  0  0  0  0  0  0  0  0  0  0  0
   -1.3724    1.8257    1.1928 N   0  0  0  0  0  0  0  0  0  0  0  0
   -1.6802    2.8168    2.1986 C   0  0  2  0  0  0  0  0  0  0  0  0
   -3.1437    2.6537    2.5872 C   0  0  0  0  0  0  0  0  0  0  0  0
   -4.0149    2.3100    1.7910 O   0  0  0  0  0  0  0  0  0  0  0  0
   -1.4062    4.2239    1.6910 C   0  0  0  0  0  0  0  0  0  0  0  0
   -2.1139    1.5677    0.5484 H   0  0  0  0  0  0  0  0  0  0  0  0
   -1.0453    2.5970    3.0638 H   0  0  0  0  0  0  0  0  0  0  0  0
   -2.0332    4.4622    0.8241 H   0  0  0  0  0  0  0  0  0  0  0  0
   -1.6127    4.9717    2.4638 H   0  0  0  0  0  0  0  0  0  0  0  0
   -0.3602    4.3306    1.3840 H   0  0  0  0  0  0  0  0  0  0  0  0
   -3.3698    2.9788    3.9174 N   0  0  0  0  0  0  0  0  0  0  0  0
   -4.6840    2.9454    4.5156 C   0  0  0  0  0  0  0  0  0  0  0  0
   -2.5830    3.2146    4.5149 H   0  0  0  0  0  0  0  0  0  0  0  0
   -5.1468    3.9405    4.4411 H   0  0  0  0  0  0  0  0  0  0  0  0
   -5.3087    2.2101    3.9873 H   0  0  0  0  0  0  0  0  0  0  0  0
   -4.5976    2.6597    5.5744 H   0  0  0  0  0  0  0  0  0  0  0  0
  1  3  1  0  0  0  0
  1  7  1  0  0  0  0
  1  2  2  0  0  0  0
 39 40  1  0  0  0  0
 40 48  1  0  0  0  0
 40 41  2  0  0  0  0
  8  9  1  0  0  0  0
  9 17  1  0  0  0  0
  9 10  2  0  0  0  0
 18 19  1  0  0  0  0
 19 38  1  0  0  0  0
 19 20  2  0  0  0  0
 39 42  1  0  0  0  0
  8 11  1  0  0  0  0
 48 49  1  0  0  0  0
 22 23  1  0  0  0  0
 21 22  1  0  0  0  0
 23 24  1  0  0  0  0
 18 21  1  0  0  0  0
 24 25  1  0  0  0  0
 38 39  1  0  0  0  0
  7  8  1  0  0  0  0
 17 18  1  0  0  0  0
  3  4  1  0  0  0  0
  3  5  1  0  0  0  0
  3  6  1  0  0  0  0
 42 45  1  0  0  0  0
 42 46  1  0  0  0  0
 42 47  1  0  0  0  0
 11 14  1  0  0  0  0
 11 15  1  0  0  0  0
 11 16  1  0  0  0  0
 49 51  1  0  0  0  0
 49 52  1  0  0  0  0
 49 53  1  0  0  0  0
 22 30  1  0  0  0  0
 22 31  1  0  0  0  0
 23 32  1  0  0  0  0
 23 33  1  0  0  0  0
 21 28  1  0  0  0  0
 21 29  1  0  0  0  0
 24 34  1  0  0  0  0
 24 35  1  0  0  0  0
 39 44  1  0  0  0  0
  8 13  1  0  0  0  0
 18 27  1  0  0  0  0
 25 36  1  0  0  0  0
 25 37  1  0  0  0  0
 48 50  1  0  0  0  0
  7 12  1  0  0  0  0
 38 43  1  0  0  0  0
 17 26  1  0  0  0  0
M  END
$$$$

  -OEChem-05262214473D

 53 52  0     1  0  0  0  0  0999 V2000
   -1.0338   -5.6785    0.1476 C   0  0  0  0  0  0  0  0  0  0  0  0
   -2.0514   -5.7797    0.8227 O   0  0  0  0  0  0  0  0  0  0  0  0
   -0.6558   -6.7819   -0.7841 C   0  0  0  0  0  0  0  0  0  0  0  0
   -0.0111   -7.5354   -0.3038 H   0  0  0  0  0  0  0  0  0  0  0  0
   -1.5317   -7.3401   -1.1520 H   0  0  0  0  0  0  0  0  0  0  0  0
   -0.1109   -6.4687   -1.6890 H   0  0  0  0  0  0  0  0  0  0  0  0
   -0.1543   -4.6083    0.1480 N   0  0  0  0  0  0  0  0  0  0  0  0
   -0.3302   -3.4398    0.9696 C   0  0  2  0  0  0  0  0  0  0  0  0
    0.2328   -2.2439    0.2131 C   0  0  0  0  0  0  0  0  0  0  0  0
    1.2097   -2.3192   -0.5294 O   0  0  0  0  0  0  0  0  0  0  0  0
    0.3557   -3.6024    2.3171 C   0  0  0  0  0  0  0  0  0  0  0  0
    0.6584   -4.6506   -0.4643 H   0  0  0  0  0  0  0  0  0  0  0  0
   -1.4091   -3.3101    1.1082 H   0  0  0  0  0  0  0  0  0  0  0  0
    1.4375   -3.7336    2.1985 H   0  0  0  0  0  0  0  0  0  0  0  0
    0.1969   -2.7243    2.9517 H   0  0  0  0  0  0  0  0  0  0  0  0
   -0.0294   -4.4803    2.8470 H   0  0  0  0  0  0  0  0  0  0  0  0
   -0.4616   -1.0893    0.5050 N   0  0  0  0  0  0  0  0  0  0  0  0
   -0.0884    0.2050   -0.0621 C   0  0  2  0  0  0  0  0  0  0  0  0
   -0.1242    1.2317    1.0664 C   0  0  0  0  0  0  0  0  0  0  0  0
    0.8899    1.6723    1.6039 O   0  0  0  0  0  0  0  0  0  0  0  0
   -1.0410    0.6454   -1.1836 C   0  0  0  0  0  0  0  0  0  0  0  0
   -0.9429   -0.2244   -2.4412 C   0  0  0  0  0  0  0  0  0  0  0  0
   -1.8936    0.2722   -3.5338 C   0  0  0  0  0  0  0  0  0  0  0  0
   -1.8134   -0.6100   -4.7786 C   0  0  0  0  0  0  0  0  0  0  0  0
   -2.7424   -0.1347   -5.7968 N   0  0  0  0  0  0  0  0  0  0  0  0
   -1.2794   -1.1113    1.0935 H   0  0  0  0  0  0  0  0  0  0  0  0
    0.9352    0.1337   -0.4492 H   0  0  0  0  0  0  0  0  0  0  0  0
   -0.8197    1.6860   -1.4551 H   0  0  0  0  0  0  0  0  0  0  0  0
   -2.0763    0.6446   -0.8165 H   0  0  0  0  0  0  0  0  0  0  0  0
   -1.1871   -1.2653   -2.2009 H   0  0  0  0  0  0  0  0  0  0  0  0
    0.0870   -0.2094   -2.8176 H   0  0  0  0  0  0  0  0  0  0  0  0
   -2.9207    0.2789   -3.1476 H   0  0  0  0  0  0  0  0  0  0  0  0
   -1.6405    1.3072   -3.7963 H   0  0  0  0  0  0  0  0  0  0  0  0
   -2.0543   -1.6479   -4.5238 H   0  0  0  0  0  0  0  0  0  0  0  0
   -0.7974   -0.5939   -5.1870 H   0  0  0  0  0  0  0  0  0  0  0  0
   -3.2330    0.6481   -5.4319 H   0  0  0  0  0  0  0  0  0  0  0  0
   -2.2193    0.1249   -6.6002 H   0  0  0  0  0  0  0  0  0  0  0  0
   -1.4220    1.5793    1.4153 N   0  0  0  0  0  0  0  0  0  0  0  0
   -1.7350    2.5163    2.4702 C   0  0  2  0  0  0  0  0  0  0  0  0
   -3.0499    2.0859    3.1068 C   0  0  0  0  0  0  0  0  0  0  0  0
   -3.9636    1.5640    2.4713 O   0  0  0  0  0  0  0  0  0  0  0  0
   -1.8284    3.9378    1.9379 C   0  0  0  0  0  0  0  0  0  0  0  0
   -2.2005    1.1697    0.9077 H   0  0  0  0  0  0  0  0  0  0  0  0
   -0.9294    2.4418    3.2088 H   0  0  0  0  0  0  0  0  0  0  0  0
   -2.6302    4.0320    1.1964 H   0  0  0  0  0  0  0  0  0  0  0  0
   -2.0374    4.6500    2.7429 H   0  0  0  0  0  0  0  0  0  0  0  0
   -0.8918    4.2351    1.4540 H   0  0  0  0  0  0  0  0  0  0  0  0
   -3.0999    2.3924    4.4594 N   0  0  0  0  0  0  0  0  0  0  0  0
   -4.2591    2.1226    5.2777 C   0  0  0  0  0  0  0  0  0  0  0  0
   -2.2814    2.7878    4.9128 H   0  0  0  0  0  0  0  0  0  0  0  0
   -4.9100    3.0091    5.2959 H   0  0  0  0  0  0  0  0  0  0  0  0
   -4.8130    1.2697    4.8586 H   0  0  0  0  0  0  0  0  0  0  0  0
   -3.9371    1.8832    6.3019 H   0  0  0  0  0  0  0  0  0  0  0  0
  1  3  1  0  0  0  0
  1  7  1  0  0  0  0
  1  2  2  0  0  0  0
 39 40  1  0  0  0  0
 40 48  1  0  0  0  0
 40 41  2  0  0  0  0
  8  9  1  0  0  0  0
  9 17  1  0  0  0  0
  9 10  2  0  0  0  0
 18 19  1  0  0  0  0
 19 38  1  0  0  0  0
 19 20  2  0  0  0  0
 39 42  1  0  0  0  0
  8 11  1  0  0  0  0
 48 49  1  0  0  0  0
 22 23  1  0  0  0  0
 21 22  1  0  0  0  0
 23 24  1  0  0  0  0
 18 21  1  0  0  0  0
 24 25  1  0  0  0  0
 38 39  1  0  0  0  0
  7  8  1  0  0  0  0
 17 18  1  0  0  0  0
  3  4  1  0  0  0  0
  3  5  1  0  0  0  0
  3  6  1  0  0  0  0
 42 45  1  0  0  0  0
 42 46  1  0  0  0  0
 42 47  1  0  0  0  0
 11 14  1  0  0  0  0
 11 15  1  0  0  0  0
 11 16  1  0  0  0  0
 49 51  1  0  0  0  0
 49 52  1  0  0  0  0
 49 53  1  0  0  0  0
 22 30  1  0  0  0  0
 22 31  1  0  0  0  0
 23 32  1  0  0  0  0
 23 33  1  0  0  0  0
 21 28  1  0  0  0  0
 21 29  1  0  0  0  0
 24 34  1  0  0  0  0
 24 35  1  0  0  0  0
 39 44  1  0  0  0  0
  8 13  1  0  0  0  0
 18 27  1  0  0  0  0
 25 36  1  0  0  0  0
 25 37  1  0  0  0  0
 48 50  1  0  0  0  0
  7 12  1  0  0  0  0
 38 43  1  0  0  0  0
 17 26  1  0  0  0  0
M  END
$$$$

  -OEChem-05262214473D

 53 52  0     1  0  0  0  0  0999 V2000
   -1.0338   -5.6785    0.1476 C   0  0  0  0  0  0  0  0  0  0  0  0
   -2.0514   -5.7797    0.8227 O   0  0  0  0  0  0  0  0  0  0  0  0
   -0.6558   -6.7819   -0.7841 C   0  0  0  0  0  0  0  0  0  0  0  0
   -0.0111   -7.5354   -0.3038 H   0  0  0  0  0  0  0  0  0  0  0  0
   -1.5317   -7.3401   -1.1520 H   0  0  0  0  0  0  0  0  0  0  0  0
   -0.1109   -6.4687   -1.6890 H   0  0  0  0  0  0  0  0  0  0  0  0
   -0.1543   -4.6083    0.1480 N   0  0  0  0  0  0  0  0  0  0  0  0
   -0.3302   -3.4398    0.9696 C   0  0  2  0  0  0  0  0  0  0  0  0
    0.2328   -2.2439    0.2131 C   0  0  0  0  0  0  0  0  0  0  0  0
    1.2097   -2.3192   -0.5294 O   0  0  0  0  0  0  0  0  0  0  0  0
    0.3557   -3.6024    2.3171 C   0  0  0  0  0  0  0  0  0  0  0  0
    0.6584   -4.6506   -0.4643 H   0  0  0  0  0  0  0  0  0  0  0  0
   -1.4091   -3.3101    1.1082 H   0  0  0  0  0  0  0  0  0  0  0  0
    1.4375   -3.7336    2.1985 H   0  0  0  0  0  0  0  0  0  0  0  0
    0.1969   -2.7243    2.9517 H   0  0  0  0  0  0  0  0  0  0  0  0
   -0.0294   -4.4803    2.8470 H   0  0  0  0  0  0  0  0  0  0  0  0
   -0.4616   -1.0893    0.5050 N   0  0  0  0  0  0  0  0  0  0  0  0
   -0.0884    0.2050   -0.0621 C   0  0  2  0  0  0  0  0  0  0  0  0
   -0.1242    1.2317    1.0664 C   0  0  0  0  0  0  0  0  0  0  0  0
    0.8641    1.8700    1.4232 O   0  0  0  0  0  0  0  0  0  0  0  0
   -1.0410    0.6454   -1.1836 C   0  0  0  0  0  0  0  0  0  0  0  0
   -0.9429   -0.2244   -2.4412 C   0  0  0  0  0  0  0  0  0  0  0  0
   -1.8936    0.2722   -3.5338 C   0  0  0  0  0  0  0  0  0  0  0  0
   -1.8134   -0.6100   -4.7786 C   0  0  0  0  0  0  0  0  0  0  0  0
   -2.7424   -0.1347   -5.7968 N   0  0  0  0  0  0  0  0  0  0  0  0
   -1.2794   -1.1113    1.0935 H   0  0  0  0  0  0  0  0  0  0  0  0
    0.9352    0.1337   -0.4492 H   0  0  0  0  0  0  0  0  0  0  0  0
   -0.8197    1.6860   -1.4551 H   0  0  0  0  0  0  0  0  0  0  0  0
   -2.0763    0.6446   -0.8165 H   0  0  0  0  0  0  0  0  0  0  0  0
   -1.1871   -1.2653   -2.2009 H   0  0  0  0  0  0  0  0  0  0  0  0
    0.0870   -0.2094   -2.8176 H   0  0  0  0  0  0  0  0  0  0  0  0
   -2.9207    0.2789   -3.1476 H   0  0  0  0  0  0  0  0  0  0  0  0
   -1.6405    1.3072   -3.7963 H   0  0  0  0  0  0  0  0  0  0  0  0
   -2.0543   -1.6479   -4.5238 H   0  0  0  0  0  0  0  0  0  0  0  0
   -0.7974   -0.5939   -5.1870 H   0  0  0  0  0  0  0  0  0  0  0  0
   -3.2330    0.6481   -5.4319 H   0  0  0  0  0  0  0  0  0  0  0  0
   -2.2193    0.1249   -6.6002 H   0  0  0  0  0  0  0  0  0  0  0  0
   -1.3840    1.3331    1.6405 N   0  0  0  0  0  0  0  0  0  0  0  0
   -1.6831    2.2173    2.7439 C   0  0  2  0  0  0  0  0  0  0  0  0
   -2.7602    1.5586    3.5957 C   0  0  0  0  0  0  0  0  0  0  0  0
   -3.6529    0.8574    3.1240 O   0  0  0  0  0  0  0  0  0  0  0  0
   -2.1386    3.5822    2.2516 C   0  0  0  0  0  0  0  0  0  0  0  0
   -2.1455    0.7710    1.2722 H   0  0  0  0  0  0  0  0  0  0  0  0
   -0.7624    2.3149    3.3295 H   0  0  0  0  0  0  0  0  0  0  0  0
   -3.0598    3.5045    1.6627 H   0  0  0  0  0  0  0  0  0  0  0  0
   -2.3374    4.2598    3.0884 H   0  0  0  0  0  0  0  0  0  0  0  0
   -1.3748    4.0416    1.6148 H   0  0  0  0  0  0  0  0  0  0  0  0
   -2.6325    1.8810    4.9395 N   0  0  0  0  0  0  0  0  0  0  0  0
   -3.5584    1.4139    5.9447 C   0  0  0  0  0  0  0  0  0  0  0  0
   -1.8391    2.4357    5.2472 H   0  0  0  0  0  0  0  0  0  0  0  0
   -4.3542    2.1600    6.0861 H   0  0  0  0  0  0  0  0  0  0  0  0
   -4.0025    0.4614    5.6197 H   0  0  0  0  0  0  0  0  0  0  0  0
   -3.0237    1.2639    6.8943 H   0  0  0  0  0  0  0  0  0  0  0  0
  1  3  1  0  0  0  0
  1  7  1  0  0  0  0
  1  2  2  0  0  0  0
 39 40  1  0  0  0  0
 40 48  1  0  0  0  0
 40 41  2  0  0  0  0
  8  9  1  0  0  0  0
  9 17  1  0  0  0  0
  9 10  2  0  0  0  0
 18 19  1  0  0  0  0
 19 38  1  0  0  0  0
 19 20  2  0  0  0  0
 39 42  1  0  0  0  0
  8 11  1  0  0  0  0
 48 49  1  0  0  0  0
 22 23  1  0  0  0  0
 21 22  1  0  0  0  0
 23 24  1  0  0  0  0
 18 21  1  0  0  0  0
 24 25  1  0  0  0  0
 38 39  1  0  0  0  0
  7  8  1  0  0  0  0
 17 18  1  0  0  0  0
  3  4  1  0  0  0  0
  3  5  1  0  0  0  0
  3  6  1  0  0  0  0
 42 45  1  0  0  0  0
 42 46  1  0  0  0  0
 42 47  1  0  0  0  0
 11 14  1  0  0  0  0
 11 15  1  0  0  0  0
 11 16  1  0  0  0  0
 49 51  1  0  0  0  0
 49 52  1  0  0  0  0
 49 53  1  0  0  0  0
 22 30  1  0  0  0  0
 22 31  1  0  0  0  0
 23 32  1  0  0  0  0
 23 33  1  0  0  0  0
 21 28  1  0  0  0  0
 21 29  1  0  0  0  0
 24 34  1  0  0  0  0
 24 35  1  0  0  0  0
 39 44  1  0  0  0  0
  8 13  1  0  0  0  0
 18 27  1  0  0  0  0
 25 36  1  0  0  0  0
 25 37  1  0  0  0  0
 48 50  1  0  0  0  0
  7 12  1  0  0  0  0
 38 43  1  0  0  0  0
 17 26  1  0  0  0  0
M  END
$$$$

  -OEChem-05262214473D

 53 52  0     1  0  0  0  0  0999 V2000
   -1.0338   -5.6785    0.1476 C   0  0  0  0  0  0  0  0  0  0  0  0
   -2.0514   -5.7797    0.8227 O   0  0  0  0  0  0  0  0  0  0  0  0
   -0.6558   -6.7819   -0.7841 C   0  0  0  0  0  0  0  0  0  0  0  0
   -0.0111   -7.5354   -0.3038 H   0  0  0  0  0  0  0  0  0  0  0  0
   -1.5317   -7.3401   -1.1520 H   0  0  0  0  0  0  0  0  0  0  0  0
   -0.1109   -6.4687   -1.6890 H   0  0  0  0  0  0  0  0  0  0  0  0
   -0.1543   -4.6083    0.1480 N   0  0  0  0  0  0  0  0  0  0  0  0
   -0.3302   -3.4398    0.9696 C   0  0  2  0  0  0  0  0  0  0  0  0
    0.2328   -2.2439    0.2131 C   0  0  0  0  0  0  0  0  0  0  0  0
    1.2097   -2.3192   -0.5294 O   0  0  0  0  0  0  0  0  0  0  0  0
    0.3557   -3.6024    2.3171 C   0  0  0  0  0  0  0  0  0  0  0  0
    0.6584   -4.6506   -0.4643 H   0  0  0  0  0  0  0  0  0  0  0  0
   -1.4091   -3.3101    1.1082 H   0  0  0  0  0  0  0  0  0  0  0  0
    1.4375   -3.7336    2.1985 H   0  0  0  0  0  0  0  0  0  0  0  0
    0.1969   -2.7243    2.9517 H   0  0  0  0  0  0  0  0  0  0  0  0
   -0.0294   -4.4803    2.8470 H   0  0  0  0  0  0  0  0  0  0  0  0
   -0.4616   -1.0893    0.5050 N   0  0  0  0  0  0  0  0  0  0  0  0
   -0.0884    0.2050   -0.0621 C   0  0  2  0  0  0  0  0  0  0  0  0
   -0.1242    1.2317    1.0664 C   0  0  0  0  0  0  0  0  0  0  0  0
    0.7698    2.0549    1.2520 O   0  0  0  0  0  0  0  0  0  0  0  0
   -1.0410    0.6454   -1.1836 C   0  0  0  0  0  0  0  0  0  0  0  0
   -0.9429   -0.2244   -2.4412 C   0  0  0  0  0  0  0  0  0  0  0  0
   -1.8936    0.2722   -3.5338 C   0  0  0  0  0  0  0  0  0  0  0  0
   -1.8134   -0.6100   -4.7786 C   0  0  0  0  0  0  0  0  0  0  0  0
   -2.7424   -0.1347   -5.7968 N   0  0  0  0  0  0  0  0  0  0  0  0
   -1.2794   -1.1113    1.0935 H   0  0  0  0  0  0  0  0  0  0  0  0
    0.9352    0.1337   -0.4492 H   0  0  0  0  0  0  0  0  0  0  0  0
   -0.8197    1.6860   -1.4551 H   0  0  0  0  0  0  0  0  0  0  0  0
   -2.0763    0.6446   -0.8165 H   0  0  0  0  0  0  0  0  0  0  0  0
   -1.1871   -1.2653   -2.2009 H   0  0  0  0  0  0  0  0  0  0  0  0
    0.0870   -0.2094   -2.8176 H   0  0  0  0  0  0  0  0  0  0  0  0
   -2.9207    0.2789   -3.1476 H   0  0  0  0  0  0  0  0  0  0  0  0
   -1.6405    1.3072   -3.7963 H   0  0  0  0  0  0  0  0  0  0  0  0
   -2.0543   -1.6479   -4.5238 H   0  0  0  0  0  0  0  0  0  0  0  0
   -0.7974   -0.5939   -5.1870 H   0  0  0  0  0  0  0  0  0  0  0  0
   -3.2330    0.6481   -5.4319 H   0  0  0  0  0  0  0  0  0  0  0  0
   -2.2193    0.1249   -6.6002 H   0  0  0  0  0  0  0  0  0  0  0  0
   -1.2609    1.1041    1.8528 N   0  0  0  0  0  0  0  0  0  0  0  0
   -1.5281    1.9400    3.0011 C   0  0  2  0  0  0  0  0  0  0  0  0
   -2.2942    1.1077    4.0207 C   0  0  0  0  0  0  0  0  0  0  0  0
   -3.1038    0.2384    3.7047 O   0  0  0  0  0  0  0  0  0  0  0  0
   -2.3154    3.1812    2.6107 C   0  0  0  0  0  0  0  0  0  0  0  0
   -1.9525    0.3985    1.6171 H   0  0  0  0  0  0  0  0  0  0  0  0
   -0.5559    2.2250    3.4178 H   0  0  0  0  0  0  0  0  0  0  0  0
   -3.2926    2.9156    2.1911 H   0  0  0  0  0  0  0  0  0  0  0  0
   -2.4923    3.8275    3.4768 H   0  0  0  0  0  0  0  0  0  0  0  0
   -1.7764    3.7631    1.8554 H   0  0  0  0  0  0  0  0  0  0  0  0
   -1.9996    1.4794    5.3250 N   0  0  0  0  0  0  0  0  0  0  0  0
   -2.6299    0.8674    6.4714 C   0  0  0  0  0  0  0  0  0  0  0  0
   -1.2863    2.1822    5.4953 H   0  0  0  0  0  0  0  0  0  0  0  0
   -3.5173    1.4510    6.7577 H   0  0  0  0  0  0  0  0  0  0  0  0
   -2.9325   -0.1595    6.2186 H   0  0  0  0  0  0  0  0  0  0  0  0
   -1.9198    0.8442    7.3112 H   0  0  0  0  0  0  0  0  0  0  0  0
  1  3  1  0  0  0  0
  1  7  1  0  0  0  0
  1  2  2  0  0  0  0
 39 40  1  0  0  0  0
 40 48  1  0  0  0  0
 40 41  2  0  0  0  0
  8  9  1  0  0  0  0
  9 17  1  0  0  0  0
  9 10  2  0  0  0  0
 18 19  1  0  0  0  0
 19 38  1  0  0  0  0
 19 20  2  0  0  0  0
 39 42  1  0  0  0  0
  8 11  1  0  0  0  0
 48 49  1  0  0  0  0
 22 23  1  0  0  0  0
 21 22  1  0  0  0  0
 23 24  1  0  0  0  0
 18 21  1  0  0  0  0
 24 25  1  0  0  0  0
 38 39  1  0  0  0  0
  7  8  1  0  0  0  0
 17 18  1  0  0  0  0
  3  4  1  0  0  0  0
  3  5  1  0  0  0  0
  3  6  1  0  0  0  0
 42 45  1  0  0  0  0
 42 46  1  0  0  0  0
 42 47  1  0  0  0  0
 11 14  1  0  0  0  0
 11 15  1  0  0  0  0
 11 16  1  0  0  0  0
 49 51  1  0  0  0  0
 49 52  1  0  0  0  0
 49 53  1  0  0  0  0
 22 30  1  0  0  0  0
 22 31  1  0  0  0  0
 23 32  1  0  0  0  0
 23 33  1  0  0  0  0
 21 28  1  0  0  0  0
 21 29  1  0  0  0  0
 24 34  1  0  0  0  0
 24 35  1  0  0  0  0
 39 44  1  0  0  0  0
  8 13  1  0  0  0  0
 18 27  1  0  0  0  0
 25 36  1  0  0  0  0
 25 37  1  0  0  0  0
 48 50  1  0  0  0  0
  7 12  1  0  0  0  0
 38 43  1  0  0  0  0
 17 26  1  0  0  0  0
M  END
$$$$

  -OEChem-05262214473D

 53 52  0     1  0  0  0  0  0999 V2000
   -1.0338   -5.6785    0.1476 C   0  0  0  0  0  0  0  0  0  0  0  0
   -2.0514   -5.7797    0.8227 O   0  0  0  0  0  0  0  0  0  0  0  0
   -0.6558   -6.7819   -0.7841 C   0  0  0  0  0  0  0  0  0  0  0  0
   -0.0111   -7.5354   -0.3038 H   0  0  0  0  0  0  0  0  0  0  0  0
   -1.5317   -7.3401   -1.1520 H   0  0  0  0  0  0  0  0  0  0  0  0
   -0.1109   -6.4687   -1.6890 H   0  0  0  0  0  0  0  0  0  0  0  0
   -0.1543   -4.6083    0.1480 N   0  0  0  0  0  0  0  0  0  0  0  0
   -0.3302   -3.4398    0.9696 C   0  0  2  0  0  0  0  0  0  0  0  0
    0.2328   -2.2439    0.2131 C   0  0  0  0  0  0  0  0  0  0  0  0
    1.2097   -2.3192   -0.5294 O   0  0  0  0  0  0  0  0  0  0  0  0
    0.3557   -3.6024    2.3171 C   0  0  0  0  0  0  0  0  0  0  0  0
    0.6584   -4.6506   -0.4643 H   0  0  0  0  0  0  0  0  0  0  0  0
   -1.4091   -3.3101    1.1082 H   0  0  0  0  0  0  0  0  0  0  0  0
    1.4375   -3.7336    2.1985 H   0  0  0  0  0  0  0  0  0  0  0  0
    0.1969   -2.7243    2.9517 H   0  0  0  0  0  0  0  0  0  0  0  0
   -0.0294   -4.4803    2.8470 H   0  0  0  0  0  0  0  0  0  0  0  0
   -0.4616   -1.0893    0.5050 N   0  0  0  0  0  0  0  0  0  0  0  0
   -0.0884    0.2050   -0.0621 C   0  0  2  0  0  0  0  0  0  0  0  0
   -0.1242    1.2317    1.0664 C   0  0  0  0  0  0  0  0  0  0  0  0
    0.6136    2.2145    1.1018 O   0  0  0  0  0  0  0  0  0  0  0  0
   -1.0410    0.6454   -1.1836 C   0  0  0  0  0  0  0  0  0  0  0  0
   -0.9429   -0.2244   -2.4412 C   0  0  0  0  0  0  0  0  0  0  0  0
   -1.8936    0.2722   -3.5338 C   0  0  0  0  0  0  0  0  0  0  0  0
   -1.8134   -0.6100   -4.7786 C   0  0  0  0  0  0  0  0  0  0  0  0
   -2.7424   -0.1347   -5.7968 N   0  0  0  0  0  0  0  0  0  0  0  0
   -1.2794   -1.1113    1.0935 H   0  0  0  0  0  0  0  0  0  0  0  0
    0.9352    0.1337   -0.4492 H   0  0  0  0  0  0  0  0  0  0  0  0
   -0.8197    1.6860   -1.4551 H   0  0  0  0  0  0  0  0  0  0  0  0
   -2.0763    0.6446   -0.8165 H   0  0  0  0  0  0  0  0  0  0  0  0
   -1.1871   -1.2653   -2.2009 H   0  0  0  0  0  0  0  0  0  0  0  0
    0.0870   -0.2094   -2.8176 H   0  0  0  0  0  0  0  0  0  0  0  0
   -2.9207    0.2789   -3.1476 H   0  0  0  0  0  0  0  0  0  0  0  0
   -1.6405    1.3072   -3.7963 H   0  0  0  0  0  0  0  0  0  0  0  0
   -2.0543   -1.6479   -4.5238 H   0  0  0  0  0  0  0  0  0  0  0  0
   -0.7974   -0.5939   -5.1870 H   0  0  0  0  0  0  0  0  0  0  0  0
   -3.2330    0.6481   -5.4319 H   0  0  0  0  0  0  0  0  0  0  0  0
   -2.2193    0.1249   -6.6002 H   0  0  0  0  0  0  0  0  0  0  0  0
   -1.0612    0.9076    2.0379 N   0  0  0  0  0  0  0  0  0  0  0  0
   -1.2805    1.7035    3.2242 C   0  0  2  0  0  0  0  0  0  0  0  0
   -1.6838    0.7639    4.3529 C   0  0  0  0  0  0  0  0  0  0  0  0
   -2.3539   -0.2510    4.1737 O   0  0  0  0  0  0  0  0  0  0  0  0
   -2.3470    2.7622    2.9909 C   0  0  0  0  0  0  0  0  0  0  0  0
   -1.6347    0.0778    1.9190 H   0  0  0  0  0  0  0  0  0  0  0  0
   -0.3238    2.1783    3.4677 H   0  0  0  0  0  0  0  0  0  0  0  0
   -3.3127    2.3054    2.7456 H   0  0  0  0  0  0  0  0  0  0  0  0
   -2.4916    3.3827    3.8815 H   0  0  0  0  0  0  0  0  0  0  0  0
   -2.0691    3.4187    2.1593 H   0  0  0  0  0  0  0  0  0  0  0  0
   -1.2443    1.2150    5.5896 N   0  0  0  0  0  0  0  0  0  0  0  0
   -1.5367    0.5205    6.8218 C   0  0  0  0  0  0  0  0  0  0  0  0
   -0.6606    2.0447    5.6403 H   0  0  0  0  0  0  0  0  0  0  0  0
   -2.4562    0.9305    7.2650 H   0  0  0  0  0  0  0  0  0  0  0  0
   -1.6758   -0.5508    6.6146 H   0  0  0  0  0  0  0  0  0  0  0  0
   -0.7006    0.6526    7.5243 H   0  0  0  0  0  0  0  0  0  0  0  0
  1  3  1  0  0  0  0
  1  7  1  0  0  0  0
  1  2  2  0  0  0  0
 39 40  1  0  0  0  0
 40 48  1  0  0  0  0
 40 41  2  0  0  0  0
  8  9  1  0  0  0  0
  9 17  1  0  0  0  0
  9 10  2  0  0  0  0
 18 19  1  0  0  0  0
 19 38  1  0  0  0  0
 19 20  2  0  0  0  0
 39 42  1  0  0  0  0
  8 11  1  0  0  0  0
 48 49  1  0  0  0  0
 22 23  1  0  0  0  0
 21 22  1  0  0  0  0
 23 24  1  0  0  0  0
 18 21  1  0  0  0  0
 24 25  1  0  0  0  0
 38 39  1  0  0  0  0
  7  8  1  0  0  0  0
 17 18  1  0  0  0  0
  3  4  1  0  0  0  0
  3  5  1  0  0  0  0
  3  6  1  0  0  0  0
 42 45  1  0  0  0  0
 42 46  1  0  0  0  0
 42 47  1  0  0  0  0
 11 14  1  0  0  0  0
 11 15  1  0  0  0  0
 11 16  1  0  0  0  0
 49 51  1  0  0  0  0
 49 52  1  0  0  0  0
 49 53  1  0  0  0  0
 22 30  1  0  0  0  0
 22 31  1  0  0  0  0
 23 32  1  0  0  0  0
 23 33  1  0  0  0  0
 21 28  1  0  0  0  0
 21 29  1  0  0  0  0
 24 34  1  0  0  0  0
 24 35  1  0  0  0  0
 39 44  1  0  0  0  0
  8 13  1  0  0  0  0
 18 27  1  0  0  0  0
 25 36  1  0  0  0  0
 25 37  1  0  0  0  0
 48 50  1  0  0  0  0
  7 12  1  0  0  0  0
 38 43  1  0  0  0  0
 17 26  1  0  0  0  0
M  END
$$$$

  -OEChem-05262214473D

 53 52  0     1  0  0  0  0  0999 V2000
   -1.0338   -5.6785    0.1476 C   0  0  0  0  0  0  0  0  0  0  0  0
   -2.0514   -5.7797    0.8227 O   0  0  0  0  0  0  0  0  0  0  0  0
   -0.6558   -6.7819   -0.7841 C   0  0  0  0  0  0  0  0  0  0  0  0
   -0.0111   -7.5354   -0.3038 H   0  0  0  0  0  0  0  0  0  0  0  0
   -1.5317   -7.3401   -1.1520 H   0  0  0  0  0  0  0  0  0  0  0  0
   -0.1109   -6.4687   -1.6890 H   0  0  0  0  0  0  0  0  0  0  0  0
   -0.1543   -4.6083    0.1480 N   0  0  0  0  0  0  0  0  0  0  0  0
   -0.3302   -3.4398    0.9696 C   0  0  2  0  0  0  0  0  0  0  0  0
    0.2328   -2.2439    0.2131 C   0  0  0  0  0  0  0  0  0  0  0  0
    1.2097   -2.3192   -0.5294 O   0  0  0  0  0  0  0  0  0  0  0  0
    0.3557   -3.6024    2.3171 C   0  0  0  0  0  0  0  0  0  0  0  0
    0.6584   -4.6506   -0.4643 H   0  0  0  0  0  0  0  0  0  0  0  0
   -1.4091   -3.3101    1.1082 H   0  0  0  0  0  0  0  0  0  0  0  0
    1.4375   -3.7336    2.1985 H   0  0  0  0  0  0  0  0  0  0  0  0
    0.1969   -2.7243    2.9517 H   0  0  0  0  0  0  0  0  0  0  0  0
   -0.0294   -4.4803    2.8470 H   0  0  0  0  0  0  0  0  0  0  0  0
   -0.4616   -1.0893    0.5050 N   0  0  0  0  0  0  0  0  0  0  0  0
   -0.0884    0.2050   -0.0621 C   0  0  2  0  0  0  0  0  0  0  0  0
   -0.1242    1.2317    1.0664 C   0  0  0  0  0  0  0  0  0  0  0  0
    0.4060    2.3378    0.9831 O   0  0  0  0  0  0  0  0  0  0  0  0
   -1.0410    0.6454   -1.1836 C   0  0  0  0  0  0  0  0  0  0  0  0
   -0.9429   -0.2244   -2.4412 C   0  0  0  0  0  0  0  0  0  0  0  0
   -1.8936    0.2722   -3.5338 C   0  0  0  0  0  0  0  0  0  0  0  0
   -1.8134   -0.6100   -4.7786 C   0  0  0  0  0  0  0  0  0  0  0  0
   -2.7424   -0.1347   -5.7968 N   0  0  0  0  0  0  0  0  0  0  0  0
   -1.2794   -1.1113    1.0935 H   0  0  0  0  0  0  0  0  0  0  0  0
    0.9352    0.1337   -0.4492 H   0  0  0  0  0  0  0  0  0  0  0  0
   -0.8197    1.6860   -1.4551 H   0  0  0  0  0  0  0  0  0  0  0  0
   -2.0763    0.6446   -0.8165 H   0  0  0  0  0  0  0  0  0  0  0  0
   -1.1871   -1.2653   -2.2009 H   0  0  0  0  0  0  0  0  0  0  0  0
    0.0870   -0.2094   -2.8176 H   0  0  0  0  0  0  0  0  0  0  0  0
   -2.9207    0.2789   -3.1476 H   0  0  0  0  0  0  0  0  0  0  0  0
   -1.6405    1.3072   -3.7963 H   0  0  0  0  0  0  0  0  0  0  0  0
   -2.0543   -1.6479   -4.5238 H   0  0  0  0  0  0  0  0  0  0  0  0
   -0.7974   -0.5939   -5.1870 H   0  0  0  0  0  0  0  0  0  0  0  0
   -3.2330    0.6481   -5.4319 H   0  0  0  0  0  0  0  0  0  0  0  0
   -2.2193    0.1249   -6.6002 H   0  0  0  0  0  0  0  0  0  0  0  0
   -0.7985    0.7572    2.1831 N   0  0  0  0  0  0  0  0  0  0  0  0
   -0.9572    1.5237    3.3980 C   0  0  2  0  0  0  0  0  0  0  0  0
   -0.9706    0.5507    4.5696 C   0  0  0  0  0  0  0  0  0  0  0  0
   -1.4541   -0.5773    4.4992 O   0  0  0  0  0  0  0  0  0  0  0  0
   -2.2310    2.3538    3.3662 C   0  0  0  0  0  0  0  0  0  0  0  0
   -1.2139   -0.1693    2.1572 H   0  0  0  0  0  0  0  0  0  0  0  0
   -0.0819    2.1779    3.4758 H   0  0  0  0  0  0  0  0  0  0  0  0
   -3.1188    1.7155    3.2884 H   0  0  0  0  0  0  0  0  0  0  0  0
   -2.3353    2.9556    4.2750 H   0  0  0  0  0  0  0  0  0  0  0  0
   -2.2329    3.0319    2.5060 H   0  0  0  0  0  0  0  0  0  0  0  0
   -0.4180    1.1057    5.7153 N   0  0  0  0  0  0  0  0  0  0  0  0
   -0.3534    0.3968    6.9719 C   0  0  0  0  0  0  0  0  0  0  0  0
   -0.0047    2.0326    5.6722 H   0  0  0  0  0  0  0  0  0  0  0  0
   -1.2433    0.6338    7.5735 H   0  0  0  0  0  0  0  0  0  0  0  0
   -0.3180   -0.6859    6.7806 H   0  0  0  0  0  0  0  0  0  0  0  0
    0.5508    0.7021    7.5190 H   0  0  0  0  0  0  0  0  0  0  0  0
  1  3  1  0  0  0  0
  1  7  1  0  0  0  0
  1  2  2  0  0  0  0
 39 40  1  0  0  0  0
 40 48  1  0  0  0  0
 40 41  2  0  0  0  0
  8  9  1  0  0  0  0
  9 17  1  0  0  0  0
  9 10  2  0  0  0  0
 18 19  1  0  0  0  0
 19 38  1  0  0  0  0
 19 20  2  0  0  0  0
 39 42  1  0  0  0  0
  8 11  1  0  0  0  0
 48 49  1  0  0  0  0
 22 23  1  0  0  0  0
 21 22  1  0  0  0  0
 23 24  1  0  0  0  0
 18 21  1  0  0  0  0
 24 25  1  0  0  0  0
 38 39  1  0  0  0  0
  7  8  1  0  0  0  0
 17 18  1  0  0  0  0
  3  4  1  0  0  0  0
  3  5  1  0  0  0  0
  3  6  1  0  0  0  0
 42 45  1  0  0  0  0
 42 46  1  0  0  0  0
 42 47  1  0  0  0  0
 11 14  1  0  0  0  0
 11 15  1  0  0  0  0
 11 16  1  0  0  0  0
 49 51  1  0  0  0  0
 49 52  1  0  0  0  0
 49 53  1  0  0  0  0
 22 30  1  0  0  0  0
 22 31  1  0  0  0  0
 23 32  1  0  0  0  0
 23 33  1  0  0  0  0
 21 28  1  0  0  0  0
 21 29  1  0  0  0  0
 24 34  1  0  0  0  0
 24 35  1  0  0  0  0
 39 44  1  0  0  0  0
  8 13  1  0  0  0  0
 18 27  1  0  0  0  0
 25 36  1  0  0  0  0
 25 37  1  0  0  0  0
 48 50  1  0  0  0  0
  7 12  1  0  0  0  0
 38 43  1  0  0  0  0
 17 26  1  0  0  0  0
M  END
$$$$

  -OEChem-05262214473D

 53 52  0     1  0  0  0  0  0999 V2000
   -1.0338   -5.6785    0.1476 C   0  0  0  0  0  0  0  0  0  0  0  0
   -2.0514   -5.7797    0.8227 O   0  0  0  0  0  0  0  0  0  0  0  0
   -0.6558   -6.7819   -0.7841 C   0  0  0  0  0  0  0  0  0  0  0  0
   -0.0111   -7.5354   -0.3038 H   0  0  0  0  0  0  0  0  0  0  0  0
   -1.5317   -7.3401   -1.1520 H   0  0  0  0  0  0  0  0  0  0  0  0
   -0.1109   -6.4687   -1.6890 H   0  0  0  0  0  0  0  0  0  0  0  0
   -0.1543   -4.6083    0.1480 N   0  0  0  0  0  0  0  0  0  0  0  0
   -0.3302   -3.4398    0.9696 C   0  0  2  0  0  0  0  0  0  0  0  0
    0.2328   -2.2439    0.2131 C   0  0  0  0  0  0  0  0  0  0  0  0
    1.2097   -2.3192   -0.5294 O   0  0  0  0  0  0  0  0  0  0  0  0
    0.3557   -3.6024    2.3171 C   0  0  0  0  0  0  0  0  0  0  0  0
    0.6584   -4.6506   -0.4643 H   0  0  0  0  0  0  0  0  0  0  0  0
   -1.4091   -3.3101    1.1082 H   0  0  0  0  0  0  0  0  0  0  0  0
    1.4375   -3.7336    2.1985 H   0  0  0  0  0  0  0  0  0  0  0  0
    0.1969   -2.7243    2.9517 H   0  0  0  0  0  0  0  0  0  0  0  0
   -0.0294   -4.4803    2.8470 H   0  0  0  0  0  0  0  0  0  0  0  0
   -0.4616   -1.0893    0.5050 N   0  0  0  0  0  0  0  0  0  0  0  0
   -0.0884    0.2050   -0.0621 C   0  0  2  0  0  0  0  0  0  0  0  0
   -0.1242    1.2317    1.0664 C   0  0  0  0  0  0  0  0  0  0  0  0
    0.1612    2.4164    0.9037 O   0  0  0  0  0  0  0  0  0  0  0  0
   -1.0410    0.6454   -1.1836 C   0  0  0  0  0  0  0  0  0  0  0  0
   -0.9429   -0.2244   -2.4412 C   0  0  0  0  0  0  0  0  0  0  0  0
   -1.8936    0.2722   -3.5338 C   0  0  0  0  0  0  0  0  0  0  0  0
   -1.8134   -0.6100   -4.7786 C   0  0  0  0  0  0  0  0  0  0  0  0
   -2.7424   -0.1347   -5.7968 N   0  0  0  0  0  0  0  0  0  0  0  0
   -1.2794   -1.1113    1.0935 H   0  0  0  0  0  0  0  0  0  0  0  0
    0.9352    0.1337   -0.4492 H   0  0  0  0  0  0  0  0  0  0  0  0
   -0.8197    1.6860   -1.4551 H   0  0  0  0  0  0  0  0  0  0  0  0
   -2.0763    0.6446   -0.8165 H   0  0  0  0  0  0  0  0  0  0  0  0
   -1.1871   -1.2653   -2.2009 H   0  0  0  0  0  0  0  0  0  0  0  0
    0.0870   -0.2094   -2.8176 H   0  0  0  0  0  0  0  0  0  0  0  0
   -2.9207    0.2789   -3.1476 H   0  0  0  0  0  0  0  0  0  0  0  0
   -1.6405    1.3072   -3.7963 H   0  0  0  0  0  0  0  0  0  0  0  0
   -2.0543   -1.6479   -4.5238 H   0  0  0  0  0  0  0  0  0  0  0  0
   -0.7974   -0.5939   -5.1870 H   0  0  0  0  0  0  0  0  0  0  0  0
   -3.2330    0.6481   -5.4319 H   0  0  0  0  0  0  0  0  0  0  0  0
   -2.2193    0.1249   -6.6002 H   0  0  0  0  0  0  0  0  0  0  0  0
   -0.4907    0.6631    2.2785 N   0  0  0  0  0  0  0  0  0  0  0  0
   -0.5803    1.4130    3.5107 C   0  0  2  0  0  0  0  0  0  0  0  0
   -0.2032    0.4826    4.6559 C   0  0  0  0  0  0  0  0  0  0  0  0
   -0.4659   -0.7183    4.6589 O   0  0  0  0  0  0  0  0  0  0  0  0
   -1.9756    1.9837    3.7110 C   0  0  0  0  0  0  0  0  0  0  0  0
   -0.7186   -0.3260    2.3155 H   0  0  0  0  0  0  0  0  0  0  0  0
    0.1531    2.2238    3.4415 H   0  0  0  0  0  0  0  0  0  0  0  0
   -2.7241    1.1862    3.7825 H   0  0  0  0  0  0  0  0  0  0  0  0
   -2.0340    2.5753    4.6305 H   0  0  0  0  0  0  0  0  0  0  0  0
   -2.2568    2.6291    2.8718 H   0  0  0  0  0  0  0  0  0  0  0  0
    0.4229    1.1591    5.6934 N   0  0  0  0  0  0  0  0  0  0  0  0
    0.8395    0.5046    6.9117 C   0  0  0  0  0  0  0  0  0  0  0  0
    0.6368    2.1466    5.5889 H   0  0  0  0  0  0  0  0  0  0  0  0
    0.0388    0.5813    7.6620 H   0  0  0  0  0  0  0  0  0  0  0  0
    1.0482   -0.5555    6.7054 H   0  0  0  0  0  0  0  0  0  0  0  0
    1.7492    0.9895    7.2957 H   0  0  0  0  0  0  0  0  0  0  0  0
  1  3  1  0  0  0  0
  1  7  1  0  0  0  0
  1  2  2  0  0  0  0
 39 40  1  0  0  0  0
 40 48  1  0  0  0  0
 40 41  2  0  0  0  0
  8  9  1  0  0  0  0
  9 17  1  0  0  0  0
  9 10  2  0  0  0  0
 18 19  1  0  0  0  0
 19 38  1  0  0  0  0
 19 20  2  0  0  0  0
 39 42  1  0  0  0  0
  8 11  1  0  0  0  0
 48 49  1  0  0  0  0
 22 23  1  0  0  0  0
 21 22  1  0  0  0  0
 23 24  1  0  0  0  0
 18 21  1  0  0  0  0
 24 25  1  0  0  0  0
 38 39  1  0  0  0  0
  7  8  1  0  0  0  0
 17 18  1  0  0  0  0
  3  4  1  0  0  0  0
  3  5  1  0  0  0  0
  3  6  1  0  0  0  0
 42 45  1  0  0  0  0
 42 46  1  0  0  0  0
 42 47  1  0  0  0  0
 11 14  1  0  0  0  0
 11 15  1  0  0  0  0
 11 16  1  0  0  0  0
 49 51  1  0  0  0  0
 49 52  1  0  0  0  0
 49 53  1  0  0  0  0
 22 30  1  0  0  0  0
 22 31  1  0  0  0  0
 23 32  1  0  0  0  0
 23 33  1  0  0  0  0
 21 28  1  0  0  0  0
 21 29  1  0  0  0  0
 24 34  1  0  0  0  0
 24 35  1  0  0  0  0
 39 44  1  0  0  0  0
  8 13  1  0  0  0  0
 18 27  1  0  0  0  0
 25 36  1  0  0  0  0
 25 37  1  0  0  0  0
 48 50  1  0  0  0  0
  7 12  1  0  0  0  0
 38 43  1  0  0  0  0
 17 26  1  0  0  0  0
M  END
$$$$

  -OEChem-05262214473D

 53 52  0     1  0  0  0  0  0999 V2000
   -1.0338   -5.6785    0.1476 C   0  0  0  0  0  0  0  0  0  0  0  0
   -2.0514   -5.7797    0.8227 O   0  0  0  0  0  0  0  0  0  0  0  0
   -0.6558   -6.7819   -0.7841 C   0  0  0  0  0  0  0  0  0  0  0  0
   -0.0111   -7.5354   -0.3038 H   0  0  0  0  0  0  0  0  0  0  0  0
   -1.5317   -7.3401   -1.1520 H   0  0  0  0  0  0  0  0  0  0  0  0
   -0.1109   -6.4687   -1.6890 H   0  0  0  0  0  0  0  0  0  0  0  0
   -0.1543   -4.6083    0.1480 N   0  0  0  0  0  0  0  0  0  0  0  0
   -0.3302   -3.4398    0.9696 C   0  0  2  0  0  0  0  0  0  0  0  0
    0.2328   -2.2439    0.2131 C   0  0  0  0  0  0  0  0  0  0  0  0
    1.2097   -2.3192   -0.5294 O   0  0  0  0  0  0  0  0  0  0  0  0
    0.3557   -3.6024    2.3171 C   0  0  0  0  0  0  0  0  0  0  0  0
    0.6584   -4.6506   -0.4643 H   0  0  0  0  0  0  0  0  0  0  0  0
   -1.4091   -3.3101    1.1082 H   0  0  0  0  0  0  0  0  0  0  0  0
    1.4375   -3.7336    2.1985 H   0  0  0  0  0  0  0  0  0  0  0  0
    0.1969   -2.7243    2.9517 H   0  0  0  0  0  0  0  0  0  0  0  0
   -0.0294   -4.4803    2.8470 H   0  0  0  0  0  0  0  0  0  0  0  0
   -0.4616   -1.0893    0.5050 N   0  0  0  0  0  0  0  0  0  0  0  0
   -0.0884    0.2050   -0.0621 C   0  0  2  0  0  0  0  0  0  0  0  0
   -0.1242    1.2317    1.0664 C   0  0  0  0  0  0  0  0  0  0  0  0
   -0.1042    2.4451    0.8693 O   0  0  0  0  0  0  0  0  0  0  0  0
   -1.0410    0.6454   -1.1836 C   0  0  0  0  0  0  0  0  0  0  0  0
   -0.9429   -0.2244   -2.4412 C   0  0  0  0  0  0  0  0  0  0  0  0
   -1.8936    0.2722   -3.5338 C   0  0  0  0  0  0  0  0  0  0  0  0
   -1.8134   -0.6100   -4.7786 C   0  0  0  0  0  0  0  0  0  0  0  0
   -2.7424   -0.1347   -5.7968 N   0  0  0  0  0  0  0  0  0  0  0  0
   -1.2794   -1.1113    1.0935 H   0  0  0  0  0  0  0  0  0  0  0  0
    0.9352    0.1337   -0.4492 H   0  0  0  0  0  0  0  0  0  0  0  0
   -0.8197    1.6860   -1.4551 H   0  0  0  0  0  0  0  0  0  0  0  0
   -2.0763    0.6446   -0.8165 H   0  0  0  0  0  0  0  0  0  0  0  0
   -1.1871   -1.2653   -2.2009 H   0  0  0  0  0  0  0  0  0  0  0  0
    0.0870   -0.2094   -2.8176 H   0  0  0  0  0  0  0  0  0  0  0  0
   -2.9207    0.2789   -3.1476 H   0  0  0  0  0  0  0  0  0  0  0  0
   -1.6405    1.3072   -3.7963 H   0  0  0  0  0  0  0  0  0  0  0  0
   -2.0543   -1.6479   -4.5238 H   0  0  0  0  0  0  0  0  0  0  0  0
   -0.7974   -0.5939   -5.1870 H   0  0  0  0  0  0  0  0  0  0  0  0
   -3.2330    0.6481   -5.4319 H   0  0  0  0  0  0  0  0  0  0  0  0
   -2.2193    0.1249   -6.6002 H   0  0  0  0  0  0  0  0  0  0  0  0
   -0.1588    0.6317    2.3176 N   0  0  0  0  0  0  0  0  0  0  0  0
   -0.1754    1.3789    3.5546 C   0  0  2  0  0  0  0  0  0  0  0  0
    0.5662    0.5642    4.6062 C   0  0  0  0  0  0  0  0  0  0  0  0
    0.5434   -0.6644    4.6419 O   0  0  0  0  0  0  0  0  0  0  0  0
   -1.5979    1.6773    4.0017 C   0  0  0  0  0  0  0  0  0  0  0  0
   -0.1826   -0.3816    2.3831 H   0  0  0  0  0  0  0  0  0  0  0  0
    0.3654    2.3129    3.3671 H   0  0  0  0  0  0  0  0  0  0  0  0
   -2.1554    0.7534    4.1943 H   0  0  0  0  0  0  0  0  0  0  0  0
   -1.6084    2.2679    4.9238 H   0  0  0  0  0  0  0  0  0  0  0  0
   -2.1391    2.2376    3.2317 H   0  0  0  0  0  0  0  0  0  0  0  0
    1.2212    1.3715    5.5256 N   0  0  0  0  0  0  0  0  0  0  0  0
    1.9606    0.8368    6.6452 C   0  0  0  0  0  0  0  0  0  0  0  0
    1.2201    2.3789    5.3960 H   0  0  0  0  0  0  0  0  0  0  0  0
    1.3026    0.7765    7.5246 H   0  0  0  0  0  0  0  0  0  0  0  0
    2.3299   -0.1685    6.3940 H   0  0  0  0  0  0  0  0  0  0  0  0
    2.8128    1.4950    6.8695 H   0  0  0  0  0  0  0  0  0  0  0  0
  1  3  1  0  0  0  0
  1  7  1  0  0  0  0
  1  2  2  0  0  0  0
 39 40  1  0  0  0  0
 40 48  1  0  0  0  0
 40 41  2  0  0  0  0
  8  9  1  0  0  0  0
  9 17  1  0  0  0  0
  9 10  2  0  0  0  0
 18 19  1  0  0  0  0
 19 38  1  0  0  0  0
 19 20  2  0  0  0  0
 39 42  1  0  0  0  0
  8 11  1  0  0  0  0
 48 49  1  0  0  0  0
 22 23  1  0  0  0  0
 21 22  1  0  0  0  0
 23 24  1  0  0  0  0
 18 21  1  0  0  0  0
 24 25  1  0  0  0  0
 38 39  1  0  0  0  0
  7  8  1  0  0  0  0
 17 18  1  0  0  0  0
  3  4  1  0  0  0  0
  3  5  1  0  0  0  0
  3  6  1  0  0  0  0
 42 45  1  0  0  0  0
 42 46  1  0  0  0  0
 42 47  1  0  0  0  0
 11 14  1  0  0  0  0
 11 15  1  0  0  0  0
 11 16  1  0  0  0  0
 49 51  1  0  0  0  0
 49 52  1  0  0  0  0
 49 53  1  0  0  0  0
 22 30  1  0  0  0  0
 22 31  1  0  0  0  0
 23 32  1  0  0  0  0
 23 33  1  0  0  0  0
 21 28  1  0  0  0  0
 21 29  1  0  0  0  0
 24 34  1  0  0  0  0
 24 35  1  0  0  0  0
 39 44  1  0  0  0  0
  8 13  1  0  0  0  0
 18 27  1  0  0  0  0
 25 36  1  0  0  0  0
 25 37  1  0  0  0  0
 48 50  1  0  0  0  0
  7 12  1  0  0  0  0
 38 43  1  0  0  0  0
 17 26  1  0  0  0  0
M  END
$$$$

  -OEChem-05262214473D

 53 52  0     1  0  0  0  0  0999 V2000
   -1.0338   -5.6785    0.1476 C   0  0  0  0  0  0  0  0  0  0  0  0
   -2.0514   -5.7797    0.8227 O   0  0  0  0  0  0  0  0  0  0  0  0
   -0.6558   -6.7819   -0.7841 C   0  0  0  0  0  0  0  0  0  0  0  0
   -0.0111   -7.5354   -0.3038 H   0  0  0  0  0  0  0  0  0  0  0  0
   -1.5317   -7.3401   -1.1520 H   0  0  0  0  0  0  0  0  0  0  0  0
   -0.1109   -6.4687   -1.6890 H   0  0  0  0  0  0  0  0  0  0  0  0
   -0.1543   -4.6083    0.1480 N   0  0  0  0  0  0  0  0  0  0  0  0
   -0.3302   -3.4398    0.9696 C   0  0  2  0  0  0  0  0  0  0  0  0
    0.2328   -2.2439    0.2131 C   0  0  0  0  0  0  0  0  0  0  0  0
    1.2097   -2.3192   -0.5294 O   0  0  0  0  0  0  0  0  0  0  0  0
    0.3557   -3.6024    2.3171 C   0  0  0  0  0  0  0  0  0  0  0  0
    0.6584   -4.6506   -0.4643 H   0  0  0  0  0  0  0  0  0  0  0  0
   -1.4091   -3.3101    1.1082 H   0  0  0  0  0  0  0  0  0  0  0  0
    1.4375   -3.7336    2.1985 H   0  0  0  0  0  0  0  0  0  0  0  0
    0.1969   -2.7243    2.9517 H   0  0  0  0  0  0  0  0  0  0  0  0
   -0.0294   -4.4803    2.8470 H   0  0  0  0  0  0  0  0  0  0  0  0
   -0.4616   -1.0893    0.5050 N   0  0  0  0  0  0  0  0  0  0  0  0
   -0.0884    0.2050   -0.0621 C   0  0  2  0  0  0  0  0  0  0  0  0
   -0.1242    1.2317    1.0664 C   0  0  0  0  0  0  0  0  0  0  0  0
   -0.3719    2.4217    0.8820 O   0  0  0  0  0  0  0  0  0  0  0  0
   -1.0410    0.6454   -1.1836 C   0  0  0  0  0  0  0  0  0  0  0  0
   -0.9429   -0.2244   -2.4412 C   0  0  0  0  0  0  0  0  0  0  0  0
   -1.8936    0.2722   -3.5338 C   0  0  0  0  0  0  0  0  0  0  0  0
   -1.8134   -0.6100   -4.7786 C   0  0  0  0  0  0  0  0  0  0  0  0
   -2.7424   -0.1347   -5.7968 N   0  0  0  0  0  0  0  0  0  0  0  0
   -1.2794   -1.1113    1.0935 H   0  0  0  0  0  0  0  0  0  0  0  0
    0.9352    0.1337   -0.4492 H   0  0  0  0  0  0  0  0  0  0  0  0
   -0.8197    1.6860   -1.4551 H   0  0  0  0  0  0  0  0  0  0  0  0
   -2.0763    0.6446   -0.8165 H   0  0  0  0  0  0  0  0  0  0  0  0
   -1.1871   -1.2653   -2.2009 H   0  0  0  0  0  0  0  0  0  0  0  0
    0.0870   -0.2094   -2.8176 H   0  0  0  0  0  0  0  0  0  0  0  0
   -2.9207    0.2789   -3.1476 H   0  0  0  0  0  0  0  0  0  0  0  0
   -1.6405    1.3072   -3.7963 H   0  0  0  0  0  0  0  0  0  0  0  0
   -2.0543   -1.6479   -4.5238 H   0  0  0  0  0  0  0  0  0  0  0  0
   -0.7974   -0.5939   -5.1870 H   0  0  0  0  0  0  0  0  0  0  0  0
   -3.2330    0.6481   -5.4319 H   0  0  0  0  0  0  0  0  0  0  0  0
   -2.2193    0.1249   -6.6002 H   0  0  0  0  0  0  0  0  0  0  0  0
    0.1747    0.6651    2.2978 N   0  0  0  0  0  0  0  0  0  0  0  0
    0.2299    1.4237    3.5267 C   0  0  2  0  0  0  0  0  0  0  0  0
    1.2851    0.7899    4.4236 C   0  0  0  0  0  0  0  0  0  0  0  0
    1.5050   -0.4192    4.4494 O   0  0  0  0  0  0  0  0  0  0  0  0
   -1.1239    1.4553    4.2187 C   0  0  0  0  0  0  0  0  0  0  0  0
    0.3575   -0.3323    2.3555 H   0  0  0  0  0  0  0  0  0  0  0  0
    0.5405    2.4392    3.2578 H   0  0  0  0  0  0  0  0  0  0  0  0
   -1.4517    0.4467    4.4957 H   0  0  0  0  0  0  0  0  0  0  0  0
   -1.0873    2.0542    5.1348 H   0  0  0  0  0  0  0  0  0  0  0  0
   -1.8878    1.8842    3.5612 H   0  0  0  0  0  0  0  0  0  0  0  0
    1.9224    1.7284    5.2232 N   0  0  0  0  0  0  0  0  0  0  0  0
    2.9335    1.3706    6.1905 C   0  0  0  0  0  0  0  0  0  0  0  0
    1.7055    2.7138    5.1068 H   0  0  0  0  0  0  0  0  0  0  0  0
    2.4621    1.2060    7.1706 H   0  0  0  0  0  0  0  0  0  0  0  0
    3.4395    0.4487    5.8678 H   0  0  0  0  0  0  0  0  0  0  0  0
    3.6693    2.1844    6.2696 H   0  0  0  0  0  0  0  0  0  0  0  0
  1  3  1  0  0  0  0
  1  7  1  0  0  0  0
  1  2  2  0  0  0  0
 39 40  1  0  0  0  0
 40 48  1  0  0  0  0
 40 41  2  0  0  0  0
  8  9  1  0  0  0  0
  9 17  1  0  0  0  0
  9 10  2  0  0  0  0
 18 19  1  0  0  0  0
 19 38  1  0  0  0  0
 19 20  2  0  0  0  0
 39 42  1  0  0  0  0
  8 11  1  0  0  0  0
 48 49  1  0  0  0  0
 22 23  1  0  0  0  0
 21 22  1  0  0  0  0
 23 24  1  0  0  0  0
 18 21  1  0  0  0  0
 24 25  1  0  0  0  0
 38 39  1  0  0  0  0
  7  8  1  0  0  0  0
 17 18  1  0  0  0  0
  3  4  1  0  0  0  0
  3  5  1  0  0  0  0
  3  6  1  0  0  0  0
 42 45  1  0  0  0  0
 42 46  1  0  0  0  0
 42 47  1  0  0  0  0
 11 14  1  0  0  0  0
 11 15  1  0  0  0  0
 11 16  1  0  0  0  0
 49 51  1  0  0  0  0
 49 52  1  0  0  0  0
 49 53  1  0  0  0  0
 22 30  1  0  0  0  0
 22 31  1  0  0  0  0
 23 32  1  0  0  0  0
 23 33  1  0  0  0  0
 21 28  1  0  0  0  0
 21 29  1  0  0  0  0
 24 34  1  0  0  0  0
 24 35  1  0  0  0  0
 39 44  1  0  0  0  0
  8 13  1  0  0  0  0
 18 27  1  0  0  0  0
 25 36  1  0  0  0  0
 25 37  1  0  0  0  0
 48 50  1  0  0  0  0
  7 12  1  0  0  0  0
 38 43  1  0  0  0  0
 17 26  1  0  0  0  0
M  END
$$$$

  -OEChem-05262214473D

 53 52  0     1  0  0  0  0  0999 V2000
   -1.0338   -5.6785    0.1476 C   0  0  0  0  0  0  0  0  0  0  0  0
   -2.0514   -5.7797    0.8227 O   0  0  0  0  0  0  0  0  0  0  0  0
   -0.6558   -6.7819   -0.7841 C   0  0  0  0  0  0  0  0  0  0  0  0
   -0.0111   -7.5354   -0.3038 H   0  0  0  0  0  0  0  0  0  0  0  0
   -1.5317   -7.3401   -1.1520 H   0  0  0  0  0  0  0  0  0  0  0  0
   -0.1109   -6.4687   -1.6890 H   0  0  0  0  0  0  0  0  0  0  0  0
   -0.1543   -4.6083    0.1480 N   0  0  0  0  0  0  0  0  0  0  0  0
   -0.3302   -3.4398    0.9696 C   0  0  2  0  0  0  0  0  0  0  0  0
    0.2328   -2.2439    0.2131 C   0  0  0  0  0  0  0  0  0  0  0  0
    1.2097   -2.3192   -0.5294 O   0  0  0  0  0  0  0  0  0  0  0  0
    0.3557   -3.6024    2.3171 C   0  0  0  0  0  0  0  0  0  0  0  0
    0.6584   -4.6506   -0.4643 H   0  0  0  0  0  0  0  0  0  0  0  0
   -1.4091   -3.3101    1.1082 H   0  0  0  0  0  0  0  0  0  0  0  0
    1.4375   -3.7336    2.1985 H   0  0  0  0  0  0  0  0  0  0  0  0
    0.1969   -2.7243    2.9517 H   0  0  0  0  0  0  0  0  0  0  0  0
   -0.0294   -4.4803    2.8470 H   0  0  0  0  0  0  0  0  0  0  0  0
   -0.4616   -1.0893    0.5050 N   0  0  0  0  0  0  0  0  0  0  0  0
   -0.0884    0.2050   -0.0621 C   0  0  2  0  0  0  0  0  0  0  0  0
   -0.1242    1.2317    1.0664 C   0  0  0  0  0  0  0  0  0  0  0  0
   -0.6239    2.3480    0.9410 O   0  0  0  0  0  0  0  0  0  0  0  0
   -1.0410    0.6454   -1.1836 C   0  0  0  0  0  0  0  0  0  0  0  0
   -0.9429   -0.2244   -2.4412 C   0  0  0  0  0  0  0  0  0  0  0  0
   -1.8936    0.2722   -3.5338 C   0  0  0  0  0  0  0  0  0  0  0  0
   -1.8134   -0.6100   -4.7786 C   0  0  0  0  0  0  0  0  0  0  0  0
   -2.7424   -0.1347   -5.7968 N   0  0  0  0  0  0  0  0  0  0  0  0
   -1.2794   -1.1113    1.0935 H   0  0  0  0  0  0  0  0  0  0  0  0
    0.9352    0.1337   -0.4492 H   0  0  0  0  0  0  0  0  0  0  0  0
   -0.8197    1.6860   -1.4551 H   0  0  0  0  0  0  0  0  0  0  0  0
   -2.0763    0.6446   -0.8165 H   0  0  0  0  0  0  0  0  0  0  0  0
   -1.1871   -1.2653   -2.2009 H   0  0  0  0  0  0  0  0  0  0  0  0
    0.0870   -0.2094   -2.8176 H   0  0  0  0  0  0  0  0  0  0  0  0
   -2.9207    0.2789   -3.1476 H   0  0  0  0  0  0  0  0  0  0  0  0
   -1.6405    1.3072   -3.7963 H   0  0  0  0  0  0  0  0  0  0  0  0
   -2.0543   -1.6479   -4.5238 H   0  0  0  0  0  0  0  0  0  0  0  0
   -0.7974   -0.5939   -5.1870 H   0  0  0  0  0  0  0  0  0  0  0  0
   -3.2330    0.6481   -5.4319 H   0  0  0  0  0  0  0  0  0  0  0  0
   -2.2193    0.1249   -6.6002 H   0  0  0  0  0  0  0  0  0  0  0  0
    0.4870    0.7611    2.2204 N   0  0  0  0  0  0  0  0  0  0  0  0
    0.6080    1.5444    3.4289 C   0  0  2  0  0  0  0  0  0  0  0  0
    1.9045    1.1445    4.1207 C   0  0  0  0  0  0  0  0  0  0  0  0
    2.3535    0.0004    4.0946 O   0  0  0  0  0  0  0  0  0  0  0  0
   -0.5857    1.3330    4.3472 C   0  0  0  0  0  0  0  0  0  0  0  0
    0.8650   -0.1815    2.2344 H   0  0  0  0  0  0  0  0  0  0  0  0
    0.6664    2.5940    3.1210 H   0  0  0  0  0  0  0  0  0  0  0  0
   -0.6607    0.2870    4.6662 H   0  0  0  0  0  0  0  0  0  0  0  0
   -0.5064    1.9487    5.2492 H   0  0  0  0  0  0  0  0  0  0  0  0
   -1.5200    1.5929    3.8379 H   0  0  0  0  0  0  0  0  0  0  0  0
    2.4787    2.2054    4.8068 N   0  0  0  0  0  0  0  0  0  0  0  0
    3.6919    2.0696    5.5786 C   0  0  0  0  0  0  0  0  0  0  0  0
    2.0598    3.1285    4.7408 H   0  0  0  0  0  0  0  0  0  0  0  0
    3.4382    1.8407    6.6242 H   0  0  0  0  0  0  0  0  0  0  0  0
    4.3017    1.2541    5.1625 H   0  0  0  0  0  0  0  0  0  0  0  0
    4.2602    3.0105    5.5368 H   0  0  0  0  0  0  0  0  0  0  0  0
  1  3  1  0  0  0  0
  1  7  1  0  0  0  0
  1  2  2  0  0  0  0
 39 40  1  0  0  0  0
 40 48  1  0  0  0  0
 40 41  2  0  0  0  0
  8  9  1  0  0  0  0
  9 17  1  0  0  0  0
  9 10  2  0  0  0  0
 18 19  1  0  0  0  0
 19 38  1  0  0  0  0
 19 20  2  0  0  0  0
 39 42  1  0  0  0  0
  8 11  1  0  0  0  0
 48 49  1  0  0  0  0
 22 23  1  0  0  0  0
 21 22  1  0  0  0  0
 23 24  1  0  0  0  0
 18 21  1  0  0  0  0
 24 25  1  0  0  0  0
 38 39  1  0  0  0  0
  7  8  1  0  0  0  0
 17 18  1  0  0  0  0
  3  4  1  0  0  0  0
  3  5  1  0  0  0  0
  3  6  1  0  0  0  0
 42 45  1  0  0  0  0
 42 46  1  0  0  0  0
 42 47  1  0  0  0  0
 11 14  1  0  0  0  0
 11 15  1  0  0  0  0
 11 16  1  0  0  0  0
 49 51  1  0  0  0  0
 49 52  1  0  0  0  0
 49 53  1  0  0  0  0
 22 30  1  0  0  0  0
 22 31  1  0  0  0  0
 23 32  1  0  0  0  0
 23 33  1  0  0  0  0
 21 28  1  0  0  0  0
 21 29  1  0  0  0  0
 24 34  1  0  0  0  0
 24 35  1  0  0  0  0
 39 44  1  0  0  0  0
  8 13  1  0  0  0  0
 18 27  1  0  0  0  0
 25 36  1  0  0  0  0
 25 37  1  0  0  0  0
 48 50  1  0  0  0  0
  7 12  1  0  0  0  0
 38 43  1  0  0  0  0
 17 26  1  0  0  0  0
M  END
$$$$

  -OEChem-05262214473D

 53 52  0     1  0  0  0  0  0999 V2000
   -1.0338   -5.6785    0.1476 C   0  0  0  0  0  0  0  0  0  0  0  0
   -2.0514   -5.7797    0.8227 O   0  0  0  0  0  0  0  0  0  0  0  0
   -0.6558   -6.7819   -0.7841 C   0  0  0  0  0  0  0  0  0  0  0  0
   -0.0111   -7.5354   -0.3038 H   0  0  0  0  0  0  0  0  0  0  0  0
   -1.5317   -7.3401   -1.1520 H   0  0  0  0  0  0  0  0  0  0  0  0
   -0.1109   -6.4687   -1.6890 H   0  0  0  0  0  0  0  0  0  0  0  0
   -0.1543   -4.6083    0.1480 N   0  0  0  0  0  0  0  0  0  0  0  0
   -0.3302   -3.4398    0.9696 C   0  0  2  0  0  0  0  0  0  0  0  0
    0.2328   -2.2439    0.2131 C   0  0  0  0  0  0  0  0  0  0  0  0
    1.2097   -2.3192   -0.5294 O   0  0  0  0  0  0  0  0  0  0  0  0
    0.3557   -3.6024    2.3171 C   0  0  0  0  0  0  0  0  0  0  0  0
    0.6584   -4.6506   -0.4643 H   0  0  0  0  0  0  0  0  0  0  0  0
   -1.4091   -3.3101    1.1082 H   0  0  0  0  0  0  0  0  0  0  0  0
    1.4375   -3.7336    2.1985 H   0  0  0  0  0  0  0  0  0  0  0  0
    0.1969   -2.7243    2.9517 H   0  0  0  0  0  0  0  0  0  0  0  0
   -0.0294   -4.4803    2.8470 H   0  0  0  0  0  0  0  0  0  0  0  0
   -0.4616   -1.0893    0.5050 N   0  0  0  0  0  0  0  0  0  0  0  0
   -0.0884    0.2050   -0.0621 C   0  0  2  0  0  0  0  0  0  0  0  0
   -0.1242    1.2317    1.0664 C   0  0  0  0  0  0  0  0  0  0  0  0
   -0.8429    2.2289    1.0424 O   0  0  0  0  0  0  0  0  0  0  0  0
   -1.0410    0.6454   -1.1836 C   0  0  0  0  0  0  0  0  0  0  0  0
   -0.9429   -0.2244   -2.4412 C   0  0  0  0  0  0  0  0  0  0  0  0
   -1.8936    0.2722   -3.5338 C   0  0  0  0  0  0  0  0  0  0  0  0
   -1.8134   -0.6100   -4.7786 C   0  0  0  0  0  0  0  0  0  0  0  0
   -2.7424   -0.1347   -5.7968 N   0  0  0  0  0  0  0  0  0  0  0  0
   -1.2794   -1.1113    1.0935 H   0  0  0  0  0  0  0  0  0  0  0  0
    0.9352    0.1337   -0.4492 H   0  0  0  0  0  0  0  0  0  0  0  0
   -0.8197    1.6860   -1.4551 H   0  0  0  0  0  0  0  0  0  0  0  0
   -2.0763    0.6446   -0.8165 H   0  0  0  0  0  0  0  0  0  0  0  0
   -1.1871   -1.2653   -2.2009 H   0  0  0  0  0  0  0  0  0  0  0  0
    0.0870   -0.2094   -2.8176 H   0  0  0  0  0  0  0  0  0  0  0  0
   -2.9207    0.2789   -3.1476 H   0  0  0  0  0  0  0  0  0  0  0  0
   -1.6405    1.3072   -3.7963 H   0  0  0  0  0  0  0  0  0  0  0  0
   -2.0543   -1.6479   -4.5238 H   0  0  0  0  0  0  0  0  0  0  0  0
   -0.7974   -0.5939   -5.1870 H   0  0  0  0  0  0  0  0  0  0  0  0
   -3.2330    0.6481   -5.4319 H   0  0  0  0  0  0  0  0  0  0  0  0
   -2.2193    0.1249   -6.6002 H   0  0  0  0  0  0  0  0  0  0  0  0
    0.7567    0.9131    2.0907 N   0  0  0  0  0  0  0  0  0  0  0  0
    0.9330    1.7327    3.2679 C   0  0  2  0  0  0  0  0  0  0  0  0
    2.3821    1.6036    3.7182 C   0  0  0  0  0  0  0  0  0  0  0  0
    3.0309    0.5661    3.6016 O   0  0  0  0  0  0  0  0  0  0  0  0
   -0.0201    1.3186    4.3782 C   0  0  0  0  0  0  0  0  0  0  0  0
    1.3052    0.0606    2.0282 H   0  0  0  0  0  0  0  0  0  0  0  0
    0.7345    2.7669    2.9659 H   0  0  0  0  0  0  0  0  0  0  0  0
    0.1636    0.2852    4.6940 H   0  0  0  0  0  0  0  0  0  0  0  0
    0.0948    1.9588    5.2591 H   0  0  0  0  0  0  0  0  0  0  0  0
   -1.0609    1.3836    4.0429 H   0  0  0  0  0  0  0  0  0  0  0  0
    2.8522    2.7702    4.3049 N   0  0  0  0  0  0  0  0  0  0  0  0
    4.1841    2.8862    4.8513 C   0  0  0  0  0  0  0  0  0  0  0  0
    2.2590    3.5946    4.3231 H   0  0  0  0  0  0  0  0  0  0  0  0
    4.1645    2.6373    5.9226 H   0  0  0  0  0  0  0  0  0  0  0  0
    4.8574    2.1927    4.3262 H   0  0  0  0  0  0  0  0  0  0  0  0
    4.5453    3.9171    4.7211 H   0  0  0  0  0  0  0  0  0  0  0  0
  1  3  1  0  0  0  0
  1  7  1  0  0  0  0
  1  2  2  0  0  0  0
 39 40  1  0  0  0  0
 40 48  1  0  0  0  0
 40 41  2  0  0  0  0
  8  9  1  0  0  0  0
  9 17  1  0  0  0  0
  9 10  2  0  0  0  0
 18 19  1  0  0  0  0
 19 38  1  0  0  0  0
 19 20  2  0  0  0  0
 39 42  1  0  0  0  0
  8 11  1  0  0  0  0
 48 49  1  0  0  0  0
 22 23  1  0  0  0  0
 21 22  1  0  0  0  0
 23 24  1  0  0  0  0
 18 21  1  0  0  0  0
 24 25  1  0  0  0  0
 38 39  1  0  0  0  0
  7  8  1  0  0  0  0
 17 18  1  0  0  0  0
  3  4  1  0  0  0  0
  3  5  1  0  0  0  0
  3  6  1  0  0  0  0
 42 45  1  0  0  0  0
 42 46  1  0  0  0  0
 42 47  1  0  0  0  0
 11 14  1  0  0  0  0
 11 15  1  0  0  0  0
 11 16  1  0  0  0  0
 49 51  1  0  0  0  0
 49 52  1  0  0  0  0
 49 53  1  0  0  0  0
 22 30  1  0  0  0  0
 22 31  1  0  0  0  0
 23 32  1  0  0  0  0
 23 33  1  0  0  0  0
 21 28  1  0  0  0  0
 21 29  1  0  0  0  0
 24 34  1  0  0  0  0
 24 35  1  0  0  0  0
 39 44  1  0  0  0  0
  8 13  1  0  0  0  0
 18 27  1  0  0  0  0
 25 36  1  0  0  0  0
 25 37  1  0  0  0  0
 48 50  1  0  0  0  0
  7 12  1  0  0  0  0
 38 43  1  0  0  0  0
 17 26  1  0  0  0  0
M  END
$$$$

  -OEChem-05262214473D

 53 52  0     1  0  0  0  0  0999 V2000
   -1.0338   -5.6785    0.1476 C   0  0  0  0  0  0  0  0  0  0  0  0
   -2.0514   -5.7797    0.8227 O   0  0  0  0  0  0  0  0  0  0  0  0
   -0.6558   -6.7819   -0.7841 C   0  0  0  0  0  0  0  0  0  0  0  0
   -0.0111   -7.5354   -0.3038 H   0  0  0  0  0  0  0  0  0  0  0  0
   -1.5317   -7.3401   -1.1520 H   0  0  0  0  0  0  0  0  0  0  0  0
   -0.1109   -6.4687   -1.6890 H   0  0  0  0  0  0  0  0  0  0  0  0
   -0.1543   -4.6083    0.1480 N   0  0  0  0  0  0  0  0  0  0  0  0
   -0.3302   -3.4398    0.9696 C   0  0  2  0  0  0  0  0  0  0  0  0
    0.2328   -2.2439    0.2131 C   0  0  0  0  0  0  0  0  0  0  0  0
    1.2097   -2.3192   -0.5294 O   0  0  0  0  0  0  0  0  0  0  0  0
    0.3557   -3.6024    2.3171 C   0  0  0  0  0  0  0  0  0  0  0  0
    0.6584   -4.6506   -0.4643 H   0  0  0  0  0  0  0  0  0  0  0  0
   -1.4091   -3.3101    1.1082 H   0  0  0  0  0  0  0  0  0  0  0  0
    1.4375   -3.7336    2.1985 H   0  0  0  0  0  0  0  0  0  0  0  0
    0.1969   -2.7243    2.9517 H   0  0  0  0  0  0  0  0  0  0  0  0
   -0.0294   -4.4803    2.8470 H   0  0  0  0  0  0  0  0  0  0  0  0
   -0.4616   -1.0893    0.5050 N   0  0  0  0  0  0  0  0  0  0  0  0
   -0.0884    0.2050   -0.0621 C   0  0  2  0  0  0  0  0  0  0  0  0
   -0.1242    1.2317    1.0664 C   0  0  0  0  0  0  0  0  0  0  0  0
   -1.0140    2.0726    1.1792 O   0  0  0  0  0  0  0  0  0  0  0  0
   -1.0410    0.6454   -1.1836 C   0  0  0  0  0  0  0  0  0  0  0  0
   -0.9429   -0.2244   -2.4412 C   0  0  0  0  0  0  0  0  0  0  0  0
   -1.8936    0.2722   -3.5338 C   0  0  0  0  0  0  0  0  0  0  0  0
   -1.8134   -0.6100   -4.7786 C   0  0  0  0  0  0  0  0  0  0  0  0
   -2.7424   -0.1347   -5.7968 N   0  0  0  0  0  0  0  0  0  0  0  0
   -1.2794   -1.1113    1.0935 H   0  0  0  0  0  0  0  0  0  0  0  0
    0.9352    0.1337   -0.4492 H   0  0  0  0  0  0  0  0  0  0  0  0
   -0.8197    1.6860   -1.4551 H   0  0  0  0  0  0  0  0  0  0  0  0
   -2.0763    0.6446   -0.8165 H   0  0  0  0  0  0  0  0  0  0  0  0
   -1.1871   -1.2653   -2.2009 H   0  0  0  0  0  0  0  0  0  0  0  0
    0.0870   -0.2094   -2.8176 H   0  0  0  0  0  0  0  0  0  0  0  0
   -2.9207    0.2789   -3.1476 H   0  0  0  0  0  0  0  0  0  0  0  0
   -1.6405    1.3072   -3.7963 H   0  0  0  0  0  0  0  0  0  0  0  0
   -2.0543   -1.6479   -4.5238 H   0  0  0  0  0  0  0  0  0  0  0  0
   -0.7974   -0.5939   -5.1870 H   0  0  0  0  0  0  0  0  0  0  0  0
   -3.2330    0.6481   -5.4319 H   0  0  0  0  0  0  0  0  0  0  0  0
   -2.2193    0.1249   -6.6002 H   0  0  0  0  0  0  0  0  0  0  0  0
    0.9656    1.1108    1.9175 N   0  0  0  0  0  0  0  0  0  0  0  0
    1.1829    1.9759    3.0547 C   0  0  2  0  0  0  0  0  0  0  0  0
    2.6856    2.1361    3.2434 C   0  0  0  0  0  0  0  0  0  0  0  0
    3.4912    1.2390    3.0039 O   0  0  0  0  0  0  0  0  0  0  0  0
    0.5344    1.4131    4.3098 C   0  0  0  0  0  0  0  0  0  0  0  0
    1.6482    0.3774    1.7508 H   0  0  0  0  0  0  0  0  0  0  0  0
    0.7403    2.9459    2.8032 H   0  0  0  0  0  0  0  0  0  0  0  0
    0.9650    0.4413    4.5774 H   0  0  0  0  0  0  0  0  0  0  0  0
    0.6754    2.0836    5.1640 H   0  0  0  0  0  0  0  0  0  0  0  0
   -0.5416    1.2706    4.1622 H   0  0  0  0  0  0  0  0  0  0  0  0
    3.0176    3.3842    3.7516 N   0  0  0  0  0  0  0  0  0  0  0  0
    4.3767    3.7648    4.0581 C   0  0  0  0  0  0  0  0  0  0  0  0
    2.2895    4.0804    3.8821 H   0  0  0  0  0  0  0  0  0  0  0  0
    4.5914    3.5415    5.1136 H   0  0  0  0  0  0  0  0  0  0  0  0
    5.0690    3.2007    3.4159 H   0  0  0  0  0  0  0  0  0  0  0  0
    4.5050    4.8424    3.8780 H   0  0  0  0  0  0  0  0  0  0  0  0
  1  3  1  0  0  0  0
  1  7  1  0  0  0  0
  1  2  2  0  0  0  0
 39 40  1  0  0  0  0
 40 48  1  0  0  0  0
 40 41  2  0  0  0  0
  8  9  1  0  0  0  0
  9 17  1  0  0  0  0
  9 10  2  0  0  0  0
 18 19  1  0  0  0  0
 19 38  1  0  0  0  0
 19 20  2  0  0  0  0
 39 42  1  0  0  0  0
  8 11  1  0  0  0  0
 48 49  1  0  0  0  0
 22 23  1  0  0  0  0
 21 22  1  0  0  0  0
 23 24  1  0  0  0  0
 18 21  1  0  0  0  0
 24 25  1  0  0  0  0
 38 39  1  0  0  0  0
  7  8  1  0  0  0  0
 17 18  1  0  0  0  0
  3  4  1  0  0  0  0
  3  5  1  0  0  0  0
  3  6  1  0  0  0  0
 42 45  1  0  0  0  0
 42 46  1  0  0  0  0
 42 47  1  0  0  0  0
 11 14  1  0  0  0  0
 11 15  1  0  0  0  0
 11 16  1  0  0  0  0
 49 51  1  0  0  0  0
 49 52  1  0  0  0  0
 49 53  1  0  0  0  0
 22 30  1  0  0  0  0
 22 31  1  0  0  0  0
 23 32  1  0  0  0  0
 23 33  1  0  0  0  0
 21 28  1  0  0  0  0
 21 29  1  0  0  0  0
 24 34  1  0  0  0  0
 24 35  1  0  0  0  0
 39 44  1  0  0  0  0
  8 13  1  0  0  0  0
 18 27  1  0  0  0  0
 25 36  1  0  0  0  0
 25 37  1  0  0  0  0
 48 50  1  0  0  0  0
  7 12  1  0  0  0  0
 38 43  1  0  0  0  0
 17 26  1  0  0  0  0
M  END
$$$$

  -OEChem-05262214473D

 53 52  0     1  0  0  0  0  0999 V2000
   -1.0338   -5.6785    0.1476 C   0  0  0  0  0  0  0  0  0  0  0  0
   -2.0514   -5.7797    0.8227 O   0  0  0  0  0  0  0  0  0  0  0  0
   -0.6558   -6.7819   -0.7841 C   0  0  0  0  0  0  0  0  0  0  0  0
   -0.0111   -7.5354   -0.3038 H   0  0  0  0  0  0  0  0  0  0  0  0
   -1.5317   -7.3401   -1.1520 H   0  0  0  0  0  0  0  0  0  0  0  0
   -0.1109   -6.4687   -1.6890 H   0  0  0  0  0  0  0  0  0  0  0  0
   -0.1543   -4.6083    0.1480 N   0  0  0  0  0  0  0  0  0  0  0  0
   -0.3302   -3.4398    0.9696 C   0  0  2  0  0  0  0  0  0  0  0  0
    0.2328   -2.2439    0.2131 C   0  0  0  0  0  0  0  0  0  0  0  0
    1.2097   -2.3192   -0.5294 O   0  0  0  0  0  0  0  0  0  0  0  0
    0.3557   -3.6024    2.3171 C   0  0  0  0  0  0  0  0  0  0  0  0
    0.6584   -4.6506   -0.4643 H   0  0  0  0  0  0  0  0  0  0  0  0
   -1.4091   -3.3101    1.1082 H   0  0  0  0  0  0  0  0  0  0  0  0
    1.4375   -3.7336    2.1985 H   0  0  0  0  0  0  0  0  0  0  0  0
    0.1969   -2.7243    2.9517 H   0  0  0  0  0  0  0  0  0  0  0  0
   -0.0294   -4.4803    2.8470 H   0  0  0  0  0  0  0  0  0  0  0  0
   -0.4616   -1.0893    0.5050 N   0  0  0  0  0  0  0  0  0  0  0  0
   -0.0884    0.2050   -0.0621 C   0  0  2  0  0  0  0  0  0  0  0  0
   -0.1242    1.2317    1.0664 C   0  0  0  0  0  0  0  0  0  0  0  0
   -1.1255    1.8897    1.3420 O   0  0  0  0  0  0  0  0  0  0  0  0
   -1.0410    0.6454   -1.1836 C   0  0  0  0  0  0  0  0  0  0  0  0
   -0.9429   -0.2244   -2.4412 C   0  0  0  0  0  0  0  0  0  0  0  0
   -1.8936    0.2722   -3.5338 C   0  0  0  0  0  0  0  0  0  0  0  0
   -1.8134   -0.6100   -4.7786 C   0  0  0  0  0  0  0  0  0  0  0  0
   -2.7424   -0.1347   -5.7968 N   0  0  0  0  0  0  0  0  0  0  0  0
   -1.2794   -1.1113    1.0935 H   0  0  0  0  0  0  0  0  0  0  0  0
    0.9352    0.1337   -0.4492 H   0  0  0  0  0  0  0  0  0  0  0  0
   -0.8197    1.6860   -1.4551 H   0  0  0  0  0  0  0  0  0  0  0  0
   -2.0763    0.6446   -0.8165 H   0  0  0  0  0  0  0  0  0  0  0  0
   -1.1871   -1.2653   -2.2009 H   0  0  0  0  0  0  0  0  0  0  0  0
    0.0870   -0.2094   -2.8176 H   0  0  0  0  0  0  0  0  0  0  0  0
   -2.9207    0.2789   -3.1476 H   0  0  0  0  0  0  0  0  0  0  0  0
   -1.6405    1.3072   -3.7963 H   0  0  0  0  0  0  0  0  0  0  0  0
   -2.0543   -1.6479   -4.5238 H   0  0  0  0  0  0  0  0  0  0  0  0
   -0.7974   -0.5939   -5.1870 H   0  0  0  0  0  0  0  0  0  0  0  0
   -3.2330    0.6481   -5.4319 H   0  0  0  0  0  0  0  0  0  0  0  0
   -2.2193    0.1249   -6.6002 H   0  0  0  0  0  0  0  0  0  0  0  0
    1.0994    1.3406    1.7126 N   0  0  0  0  0  0  0  0  0  0  0  0
    1.3405    2.2572    2.8037 C   0  0  2  0  0  0  0  0  0  0  0  0
    2.7941    2.7057    2.7287 C   0  0  0  0  0  0  0  0  0  0  0  0
    3.7029    1.9735    2.3424 O   0  0  0  0  0  0  0  0  0  0  0  0
    1.0400    1.6102    4.1467 C   0  0  0  0  0  0  0  0  0  0  0  0
    1.8706    0.7474    1.4213 H   0  0  0  0  0  0  0  0  0  0  0  0
    0.6832    3.1189    2.6440 H   0  0  0  0  0  0  0  0  0  0  0  0
    1.6889    0.7448    4.3243 H   0  0  0  0  0  0  0  0  0  0  0  0
    1.1957    2.3147    4.9703 H   0  0  0  0  0  0  0  0  0  0  0  0
    0.0024    1.2615    4.1878 H   0  0  0  0  0  0  0  0  0  0  0  0
    2.9634    4.0055    3.1846 N   0  0  0  0  0  0  0  0  0  0  0  0
    4.2564    4.6455    3.2531 C   0  0  0  0  0  0  0  0  0  0  0  0
    2.1492    4.5528    3.4478 H   0  0  0  0  0  0  0  0  0  0  0  0
    4.6898    4.4916    4.2523 H   0  0  0  0  0  0  0  0  0  0  0  0
    4.9220    4.2092    2.4937 H   0  0  0  0  0  0  0  0  0  0  0  0
    4.1423    5.7233    3.0650 H   0  0  0  0  0  0  0  0  0  0  0  0
  1  3  1  0  0  0  0
  1  7  1  0  0  0  0
  1  2  2  0  0  0  0
 39 40  1  0  0  0  0
 40 48  1  0  0  0  0
 40 41  2  0  0  0  0
  8  9  1  0  0  0  0
  9 17  1  0  0  0  0
  9 10  2  0  0  0  0
 18 19  1  0  0  0  0
 19 38  1  0  0  0  0
 19 20  2  0  0  0  0
 39 42  1  0  0  0  0
  8 11  1  0  0  0  0
 48 49  1  0  0  0  0
 22 23  1  0  0  0  0
 21 22  1  0  0  0  0
 23 24  1  0  0  0  0
 18 21  1  0  0  0  0
 24 25  1  0  0  0  0
 38 39  1  0  0  0  0
  7  8  1  0  0  0  0
 17 18  1  0  0  0  0
  3  4  1  0  0  0  0
  3  5  1  0  0  0  0
  3  6  1  0  0  0  0
 42 45  1  0  0  0  0
 42 46  1  0  0  0  0
 42 47  1  0  0  0  0
 11 14  1  0  0  0  0
 11 15  1  0  0  0  0
 11 16  1  0  0  0  0
 49 51  1  0  0  0  0
 49 52  1  0  0  0  0
 49 53  1  0  0  0  0
 22 30  1  0  0  0  0
 22 31  1  0  0  0  0
 23 32  1  0  0  0  0
 23 33  1  0  0  0  0
 21 28  1  0  0  0  0
 21 29  1  0  0  0  0
 24 34  1  0  0  0  0
 24 35  1  0  0  0  0
 39 44  1  0  0  0  0
  8 13  1  0  0  0  0
 18 27  1  0  0  0  0
 25 36  1  0  0  0  0
 25 37  1  0  0  0  0
 48 50  1  0  0  0  0
  7 12  1  0  0  0  0
 38 43  1  0  0  0  0
 17 26  1  0  0  0  0
M  END
$$$$

  -OEChem-05262214473D

 53 52  0     1  0  0  0  0  0999 V2000
   -1.0338   -5.6785    0.1476 C   0  0  0  0  0  0  0  0  0  0  0  0
   -2.0514   -5.7797    0.8227 O   0  0  0  0  0  0  0  0  0  0  0  0
   -0.6558   -6.7819   -0.7841 C   0  0  0  0  0  0  0  0  0  0  0  0
   -0.0111   -7.5354   -0.3038 H   0  0  0  0  0  0  0  0  0  0  0  0
   -1.5317   -7.3401   -1.1520 H   0  0  0  0  0  0  0  0  0  0  0  0
   -0.1109   -6.4687   -1.6890 H   0  0  0  0  0  0  0  0  0  0  0  0
   -0.1543   -4.6083    0.1480 N   0  0  0  0  0  0  0  0  0  0  0  0
   -0.3302   -3.4398    0.9696 C   0  0  2  0  0  0  0  0  0  0  0  0
    0.2328   -2.2439    0.2131 C   0  0  0  0  0  0  0  0  0  0  0  0
    1.2097   -2.3192   -0.5294 O   0  0  0  0  0  0  0  0  0  0  0  0
    0.3557   -3.6024    2.3171 C   0  0  0  0  0  0  0  0  0  0  0  0
    0.6584   -4.6506   -0.4643 H   0  0  0  0  0  0  0  0  0  0  0  0
   -1.4091   -3.3101    1.1082 H   0  0  0  0  0  0  0  0  0  0  0  0
    1.4375   -3.7336    2.1985 H   0  0  0  0  0  0  0  0  0  0  0  0
    0.1969   -2.7243    2.9517 H   0  0  0  0  0  0  0  0  0  0  0  0
   -0.0294   -4.4803    2.8470 H   0  0  0  0  0  0  0  0  0  0  0  0
   -0.4616   -1.0893    0.5050 N   0  0  0  0  0  0  0  0  0  0  0  0
   -0.0884    0.2050   -0.0621 C   0  0  2  0  0  0  0  0  0  0  0  0
   -0.1242    1.2317    1.0664 C   0  0  0  0  0  0  0  0  0  0  0  0
   -1.1699    1.6927    1.5198 O   0  0  0  0  0  0  0  0  0  0  0  0
   -1.0410    0.6454   -1.1836 C   0  0  0  0  0  0  0  0  0  0  0  0
   -0.9429   -0.2244   -2.4412 C   0  0  0  0  0  0  0  0  0  0  0  0
   -1.8936    0.2722   -3.5338 C   0  0  0  0  0  0  0  0  0  0  0  0
   -1.8134   -0.6100   -4.7786 C   0  0  0  0  0  0  0  0  0  0  0  0
   -2.7424   -0.1347   -5.7968 N   0  0  0  0  0  0  0  0  0  0  0  0
   -1.2794   -1.1113    1.0935 H   0  0  0  0  0  0  0  0  0  0  0  0
    0.9352    0.1337   -0.4492 H   0  0  0  0  0  0  0  0  0  0  0  0
   -0.8197    1.6860   -1.4551 H   0  0  0  0  0  0  0  0  0  0  0  0
   -2.0763    0.6446   -0.8165 H   0  0  0  0  0  0  0  0  0  0  0  0
   -1.1871   -1.2653   -2.2009 H   0  0  0  0  0  0  0  0  0  0  0  0
    0.0870   -0.2094   -2.8176 H   0  0  0  0  0  0  0  0  0  0  0  0
   -2.9207    0.2789   -3.1476 H   0  0  0  0  0  0  0  0  0  0  0  0
   -1.6405    1.3072   -3.7963 H   0  0  0  0  0  0  0  0  0  0  0  0
   -2.0543   -1.6479   -4.5238 H   0  0  0  0  0  0  0  0  0  0  0  0
   -0.7974   -0.5939   -5.1870 H   0  0  0  0  0  0  0  0  0  0  0  0
   -3.2330    0.6481   -5.4319 H   0  0  0  0  0  0  0  0  0  0  0  0
   -2.2193    0.1249   -6.6002 H   0  0  0  0  0  0  0  0  0  0  0  0
    1.1490    1.5870    1.4900 N   0  0  0  0  0  0  0  0  0  0  0  0
    1.3953    2.5577    2.5321 C   0  0  2  0  0  0  0  0  0  0  0  0
    2.7003    3.2734    2.2091 C   0  0  0  0  0  0  0  0  0  0  0  0
    3.6516    2.7195    1.6621 O   0  0  0  0  0  0  0  0  0  0  0  0
    1.4622    1.8962    3.8998 C   0  0  0  0  0  0  0  0  0  0  0  0
    1.9572    1.1453    1.0620 H   0  0  0  0  0  0  0  0  0  0  0  0
    0.5673    3.2741    2.4991 H   0  0  0  0  0  0  0  0  0  0  0  0
    2.2859    1.1750    3.9520 H   0  0  0  0  0  0  0  0  0  0  0  0
    1.6204    2.6364    4.6912 H   0  0  0  0  0  0  0  0  0  0  0  0
    0.5340    1.3570    4.1178 H   0  0  0  0  0  0  0  0  0  0  0  0
    2.6934    4.5919    2.6426 N   0  0  0  0  0  0  0  0  0  0  0  0
    3.8314    5.4683    2.4911 C   0  0  0  0  0  0  0  0  0  0  0  0
    1.8476    4.9796    3.0500 H   0  0  0  0  0  0  0  0  0  0  0  0
    4.4530    5.4230    3.3975 H   0  0  0  0  0  0  0  0  0  0  0  0
    4.4263    5.1497    1.6224 H   0  0  0  0  0  0  0  0  0  0  0  0
    3.4818    6.4998    2.3376 H   0  0  0  0  0  0  0  0  0  0  0  0
  1  3  1  0  0  0  0
  1  7  1  0  0  0  0
  1  2  2  0  0  0  0
 39 40  1  0  0  0  0
 40 48  1  0  0  0  0
 40 41  2  0  0  0  0
  8  9  1  0  0  0  0
  9 17  1  0  0  0  0
  9 10  2  0  0  0  0
 18 19  1  0  0  0  0
 19 38  1  0  0  0  0
 19 20  2  0  0  0  0
 39 42  1  0  0  0  0
  8 11  1  0  0  0  0
 48 49  1  0  0  0  0
 22 23  1  0  0  0  0
 21 22  1  0  0  0  0
 23 24  1  0  0  0  0
 18 21  1  0  0  0  0
 24 25  1  0  0  0  0
 38 39  1  0  0  0  0
  7  8  1  0  0  0  0
 17 18  1  0  0  0  0
  3  4  1  0  0  0  0
  3  5  1  0  0  0  0
  3  6  1  0  0  0  0
 42 45  1  0  0  0  0
 42 46  1  0  0  0  0
 42 47  1  0  0  0  0
 11 14  1  0  0  0  0
 11 15  1  0  0  0  0
 11 16  1  0  0  0  0
 49 51  1  0  0  0  0
 49 52  1  0  0  0  0
 49 53  1  0  0  0  0
 22 30  1  0  0  0  0
 22 31  1  0  0  0  0
 23 32  1  0  0  0  0
 23 33  1  0  0  0  0
 21 28  1  0  0  0  0
 21 29  1  0  0  0  0
 24 34  1  0  0  0  0
 24 35  1  0  0  0  0
 39 44  1  0  0  0  0
  8 13  1  0  0  0  0
 18 27  1  0  0  0  0
 25 36  1  0  0  0  0
 25 37  1  0  0  0  0
 48 50  1  0  0  0  0
  7 12  1  0  0  0  0
 38 43  1  0  0  0  0
 17 26  1  0  0  0  0
M  END
$$$$

  -OEChem-05262214473D

 53 52  0     1  0  0  0  0  0999 V2000
   -1.0338   -5.6785    0.1476 C   0  0  0  0  0  0  0  0  0  0  0  0
   -2.0514   -5.7797    0.8227 O   0  0  0  0  0  0  0  0  0  0  0  0
   -0.6558   -6.7819   -0.7841 C   0  0  0  0  0  0  0  0  0  0  0  0
   -0.0111   -7.5354   -0.3038 H   0  0  0  0  0  0  0  0  0  0  0  0
   -1.5317   -7.3401   -1.1520 H   0  0  0  0  0  0  0  0  0  0  0  0
   -0.1109   -6.4687   -1.6890 H   0  0  0  0  0  0  0  0  0  0  0  0
   -0.1543   -4.6083    0.1480 N   0  0  0  0  0  0  0  0  0  0  0  0
   -0.3302   -3.4398    0.9696 C   0  0  2  0  0  0  0  0  0  0  0  0
    0.2328   -2.2439    0.2131 C   0  0  0  0  0  0  0  0  0  0  0  0
    1.2097   -2.3192   -0.5294 O   0  0  0  0  0  0  0  0  0  0  0  0
    0.3557   -3.6024    2.3171 C   0  0  0  0  0  0  0  0  0  0  0  0
    0.6584   -4.6506   -0.4643 H   0  0  0  0  0  0  0  0  0  0  0  0
   -1.4091   -3.3101    1.1082 H   0  0  0  0  0  0  0  0  0  0  0  0
    1.4375   -3.7336    2.1985 H   0  0  0  0  0  0  0  0  0  0  0  0
    0.1969   -2.7243    2.9517 H   0  0  0  0  0  0  0  0  0  0  0  0
   -0.0294   -4.4803    2.8470 H   0  0  0  0  0  0  0  0  0  0  0  0
   -0.4616   -1.0893    0.5050 N   0  0  0  0  0  0  0  0  0  0  0  0
   -0.0884    0.2050   -0.0621 C   0  0  2  0  0  0  0  0  0  0  0  0
   -0.1242    1.2317    1.0664 C   0  0  0  0  0  0  0  0  0  0  0  0
   -1.1440    1.4950    1.7005 O   0  0  0  0  0  0  0  0  0  0  0  0
   -1.0410    0.6454   -1.1836 C   0  0  0  0  0  0  0  0  0  0  0  0
   -0.9429   -0.2244   -2.4412 C   0  0  0  0  0  0  0  0  0  0  0  0
   -1.8936    0.2722   -3.5338 C   0  0  0  0  0  0  0  0  0  0  0  0
   -1.8134   -0.6100   -4.7786 C   0  0  0  0  0  0  0  0  0  0  0  0
   -2.7424   -0.1347   -5.7968 N   0  0  0  0  0  0  0  0  0  0  0  0
   -1.2794   -1.1113    1.0935 H   0  0  0  0  0  0  0  0  0  0  0  0
    0.9352    0.1337   -0.4492 H   0  0  0  0  0  0  0  0  0  0  0  0
   -0.8197    1.6860   -1.4551 H   0  0  0  0  0  0  0  0  0  0  0  0
   -2.0763    0.6446   -0.8165 H   0  0  0  0  0  0  0  0  0  0  0  0
   -1.1871   -1.2653   -2.2009 H   0  0  0  0  0  0  0  0  0  0  0  0
    0.0870   -0.2094   -2.8176 H   0  0  0  0  0  0  0  0  0  0  0  0
   -2.9207    0.2789   -3.1476 H   0  0  0  0  0  0  0  0  0  0  0  0
   -1.6405    1.3072   -3.7963 H   0  0  0  0  0  0  0  0  0  0  0  0
   -2.0543   -1.6479   -4.5238 H   0  0  0  0  0  0  0  0  0  0  0  0
   -0.7974   -0.5939   -5.1870 H   0  0  0  0  0  0  0  0  0  0  0  0
   -3.2330    0.6481   -5.4319 H   0  0  0  0  0  0  0  0  0  0  0  0
   -2.2193    0.1249   -6.6002 H   0  0  0  0  0  0  0  0  0  0  0  0
    1.1109    1.8332    1.2649 N   0  0  0  0  0  0  0  0  0  0  0  0
    1.3434    2.8567    2.2584 C   0  0  2  0  0  0  0  0  0  0  0  0
    2.4105    3.8008    1.7202 C   0  0  0  0  0  0  0  0  0  0  0  0
    3.3408    3.4261    1.0094 O   0  0  0  0  0  0  0  0  0  0  0  0
    1.7723    2.2519    3.5861 C   0  0  0  0  0  0  0  0  0  0  0  0
    1.9022    1.5441    0.6975 H   0  0  0  0  0  0  0  0  0  0  0  0
    0.4003    3.4010    2.3783 H   0  0  0  0  0  0  0  0  0  0  0  0
    2.7155    1.7025    3.4857 H   0  0  0  0  0  0  0  0  0  0  0  0
    1.9204    3.0266    4.3456 H   0  0  0  0  0  0  0  0  0  0  0  0
    1.0170    1.5506    3.9570 H   0  0  0  0  0  0  0  0  0  0  0  0
    2.2261    5.1033    2.1624 N   0  0  0  0  0  0  0  0  0  0  0  0
    3.1308    6.1770    1.8240 C   0  0  0  0  0  0  0  0  0  0  0  0
    1.4053    5.3317    2.7156 H   0  0  0  0  0  0  0  0  0  0  0  0
    3.8972    6.2721    2.6073 H   0  0  0  0  0  0  0  0  0  0  0  0
    3.6159    5.9579    0.8613 H   0  0  0  0  0  0  0  0  0  0  0  0
    2.5684    7.1191    1.7452 H   0  0  0  0  0  0  0  0  0  0  0  0
  1  3  1  0  0  0  0
  1  7  1  0  0  0  0
  1  2  2  0  0  0  0
 39 40  1  0  0  0  0
 40 48  1  0  0  0  0
 40 41  2  0  0  0  0
  8  9  1  0  0  0  0
  9 17  1  0  0  0  0
  9 10  2  0  0  0  0
 18 19  1  0  0  0  0
 19 38  1  0  0  0  0
 19 20  2  0  0  0  0
 39 42  1  0  0  0  0
  8 11  1  0  0  0  0
 48 49  1  0  0  0  0
 22 23  1  0  0  0  0
 21 22  1  0  0  0  0
 23 24  1  0  0  0  0
 18 21  1  0  0  0  0
 24 25  1  0  0  0  0
 38 39  1  0  0  0  0
  7  8  1  0  0  0  0
 17 18  1  0  0  0  0
  3  4  1  0  0  0  0
  3  5  1  0  0  0  0
  3  6  1  0  0  0  0
 42 45  1  0  0  0  0
 42 46  1  0  0  0  0
 42 47  1  0  0  0  0
 11 14  1  0  0  0  0
 11 15  1  0  0  0  0
 11 16  1  0  0  0  0
 49 51  1  0  0  0  0
 49 52  1  0  0  0  0
 49 53  1  0  0  0  0
 22 30  1  0  0  0  0
 22 31  1  0  0  0  0
 23 32  1  0  0  0  0
 23 33  1  0  0  0  0
 21 28  1  0  0  0  0
 21 29  1  0  0  0  0
 24 34  1  0  0  0  0
 24 35  1  0  0  0  0
 39 44  1  0  0  0  0
  8 13  1  0  0  0  0
 18 27  1  0  0  0  0
 25 36  1  0  0  0  0
 25 37  1  0  0  0  0
 48 50  1  0  0  0  0
  7 12  1  0  0  0  0
 38 43  1  0  0  0  0
 17 26  1  0  0  0  0
M  END
$$$$

  -OEChem-05262214473D

 53 52  0     1  0  0  0  0  0999 V2000
   -1.0338   -5.6785    0.1476 C   0  0  0  0  0  0  0  0  0  0  0  0
   -2.0514   -5.7797    0.8227 O   0  0  0  0  0  0  0  0  0  0  0  0
   -0.6558   -6.7819   -0.7841 C   0  0  0  0  0  0  0  0  0  0  0  0
   -0.0111   -7.5354   -0.3038 H   0  0  0  0  0  0  0  0  0  0  0  0
   -1.5317   -7.3401   -1.1520 H   0  0  0  0  0  0  0  0  0  0  0  0
   -0.1109   -6.4687   -1.6890 H   0  0  0  0  0  0  0  0  0  0  0  0
   -0.1543   -4.6083    0.1480 N   0  0  0  0  0  0  0  0  0  0  0  0
   -0.3302   -3.4398    0.9696 C   0  0  2  0  0  0  0  0  0  0  0  0
    0.2328   -2.2439    0.2131 C   0  0  0  0  0  0  0  0  0  0  0  0
    1.2097   -2.3192   -0.5294 O   0  0  0  0  0  0  0  0  0  0  0  0
    0.3557   -3.6024    2.3171 C   0  0  0  0  0  0  0  0  0  0  0  0
    0.6584   -4.6506   -0.4643 H   0  0  0  0  0  0  0  0  0  0  0  0
   -1.4091   -3.3101    1.1082 H   0  0  0  0  0  0  0  0  0  0  0  0
    1.4375   -3.7336    2.1985 H   0  0  0  0  0  0  0  0  0  0  0  0
    0.1969   -2.7243    2.9517 H   0  0  0  0  0  0  0  0  0  0  0  0
   -0.0294   -4.4803    2.8470 H   0  0  0  0  0  0  0  0  0  0  0  0
   -0.4616   -1.0893    0.5050 N   0  0  0  0  0  0  0  0  0  0  0  0
   -0.0884    0.2050   -0.0621 C   0  0  2  0  0  0  0  0  0  0  0  0
   -0.1242    1.2317    1.0664 C   0  0  0  0  0  0  0  0  0  0  0  0
   -1.0498    1.3101    1.8718 O   0  0  0  0  0  0  0  0  0  0  0  0
   -1.0410    0.6454   -1.1836 C   0  0  0  0  0  0  0  0  0  0  0  0
   -0.9429   -0.2244   -2.4412 C   0  0  0  0  0  0  0  0  0  0  0  0
   -1.8936    0.2722   -3.5338 C   0  0  0  0  0  0  0  0  0  0  0  0
   -1.8134   -0.6100   -4.7786 C   0  0  0  0  0  0  0  0  0  0  0  0
   -2.7424   -0.1347   -5.7968 N   0  0  0  0  0  0  0  0  0  0  0  0
   -1.2794   -1.1113    1.0935 H   0  0  0  0  0  0  0  0  0  0  0  0
    0.9352    0.1337   -0.4492 H   0  0  0  0  0  0  0  0  0  0  0  0
   -0.8197    1.6860   -1.4551 H   0  0  0  0  0  0  0  0  0  0  0  0
   -2.0763    0.6446   -0.8165 H   0  0  0  0  0  0  0  0  0  0  0  0
   -1.1871   -1.2653   -2.2009 H   0  0  0  0  0  0  0  0  0  0  0  0
    0.0870   -0.2094   -2.8176 H   0  0  0  0  0  0  0  0  0  0  0  0
   -2.9207    0.2789   -3.1476 H   0  0  0  0  0  0  0  0  0  0  0  0
   -1.6405    1.3072   -3.7963 H   0  0  0  0  0  0  0  0  0  0  0  0
   -2.0543   -1.6479   -4.5238 H   0  0  0  0  0  0  0  0  0  0  0  0
   -0.7974   -0.5939   -5.1870 H   0  0  0  0  0  0  0  0  0  0  0  0
   -3.2330    0.6481   -5.4319 H   0  0  0  0  0  0  0  0  0  0  0  0
   -2.2193    0.1249   -6.6002 H   0  0  0  0  0  0  0  0  0  0  0  0
    0.9879    2.0622    1.0525 N   0  0  0  0  0  0  0  0  0  0  0  0
    1.1884    3.1340    2.0012 C   0  0  2  0  0  0  0  0  0  0  0  0
    1.9446    4.2517    1.2952 C   0  0  0  0  0  0  0  0  0  0  0  0
    2.7917    4.0452    0.4287 O   0  0  0  0  0  0  0  0  0  0  0  0
    1.9492    2.6529    3.2269 C   0  0  0  0  0  0  0  0  0  0  0  0
    1.7092    1.9165    0.3525 H   0  0  0  0  0  0  0  0  0  0  0  0
    0.1938    3.4909    2.2900 H   0  0  0  0  0  0  0  0  0  0  0  0
    2.9482    2.2914    2.9573 H   0  0  0  0  0  0  0  0  0  0  0  0
    2.0753    3.4589    3.9573 H   0  0  0  0  0  0  0  0  0  0  0  0
    1.4186    1.8291    3.7164 H   0  0  0  0  0  0  0  0  0  0  0  0
    1.5932    5.5049    1.7770 N   0  0  0  0  0  0  0  0  0  0  0  0
    2.2023    6.7235    1.2973 C   0  0  0  0  0  0  0  0  0  0  0  0
    0.8525    5.5851    2.4674 H   0  0  0  0  0  0  0  0  0  0  0  0
    3.0603    6.9811    1.9357 H   0  0  0  0  0  0  0  0  0  0  0  0
    2.5458    6.5788    0.2624 H   0  0  0  0  0  0  0  0  0  0  0  0
    1.4646    7.5388    1.3282 H   0  0  0  0  0  0  0  0  0  0  0  0
  1  3  1  0  0  0  0
  1  7  1  0  0  0  0
  1  2  2  0  0  0  0
 39 40  1  0  0  0  0
 40 48  1  0  0  0  0
 40 41  2  0  0  0  0
  8  9  1  0  0  0  0
  9 17  1  0  0  0  0
  9 10  2  0  0  0  0
 18 19  1  0  0  0  0
 19 38  1  0  0  0  0
 19 20  2  0  0  0  0
 39 42  1  0  0  0  0
  8 11  1  0  0  0  0
 48 49  1  0  0  0  0
 22 23  1  0  0  0  0
 21 22  1  0  0  0  0
 23 24  1  0  0  0  0
 18 21  1  0  0  0  0
 24 25  1  0  0  0  0
 38 39  1  0  0  0  0
  7  8  1  0  0  0  0
 17 18  1  0  0  0  0
  3  4  1  0  0  0  0
  3  5  1  0  0  0  0
  3  6  1  0  0  0  0
 42 45  1  0  0  0  0
 42 46  1  0  0  0  0
 42 47  1  0  0  0  0
 11 14  1  0  0  0  0
 11 15  1  0  0  0  0
 11 16  1  0  0  0  0
 49 51  1  0  0  0  0
 49 52  1  0  0  0  0
 49 53  1  0  0  0  0
 22 30  1  0  0  0  0
 22 31  1  0  0  0  0
 23 32  1  0  0  0  0
 23 33  1  0  0  0  0
 21 28  1  0  0  0  0
 21 29  1  0  0  0  0
 24 34  1  0  0  0  0
 24 35  1  0  0  0  0
 39 44  1  0  0  0  0
  8 13  1  0  0  0  0
 18 27  1  0  0  0  0
 25 36  1  0  0  0  0
 25 37  1  0  0  0  0
 48 50  1  0  0  0  0
  7 12  1  0  0  0  0
 38 43  1  0  0  0  0
 17 26  1  0  0  0  0
M  END
$$$$

  -OEChem-05262214473D

 53 52  0     1  0  0  0  0  0999 V2000
   -1.0338   -5.6785    0.1476 C   0  0  0  0  0  0  0  0  0  0  0  0
   -2.0514   -5.7797    0.8227 O   0  0  0  0  0  0  0  0  0  0  0  0
   -0.6558   -6.7819   -0.7841 C   0  0  0  0  0  0  0  0  0  0  0  0
   -0.0111   -7.5354   -0.3038 H   0  0  0  0  0  0  0  0  0  0  0  0
   -1.5317   -7.3401   -1.1520 H   0  0  0  0  0  0  0  0  0  0  0  0
   -0.1109   -6.4687   -1.6890 H   0  0  0  0  0  0  0  0  0  0  0  0
   -0.1543   -4.6083    0.1480 N   0  0  0  0  0  0  0  0  0  0  0  0
   -0.3302   -3.4398    0.9696 C   0  0  2  0  0  0  0  0  0  0  0  0
    0.2328   -2.2439    0.2131 C   0  0  0  0  0  0  0  0  0  0  0  0
    1.2097   -2.3192   -0.5294 O   0  0  0  0  0  0  0  0  0  0  0  0
    0.3557   -3.6024    2.3171 C   0  0  0  0  0  0  0  0  0  0  0  0
    0.6584   -4.6506   -0.4643 H   0  0  0  0  0  0  0  0  0  0  0  0
   -1.4091   -3.3101    1.1082 H   0  0  0  0  0  0  0  0  0  0  0  0
    1.4375   -3.7336    2.1985 H   0  0  0  0  0  0  0  0  0  0  0  0
    0.1969   -2.7243    2.9517 H   0  0  0  0  0  0  0  0  0  0  0  0
   -0.0294   -4.4803    2.8470 H   0  0  0  0  0  0  0  0  0  0  0  0
   -0.4616   -1.0893    0.5050 N   0  0  0  0  0  0  0  0  0  0  0  0
   -0.0884    0.2050   -0.0621 C   0  0  2  0  0  0  0  0  0  0  0  0
   -0.1242    1.2317    1.0664 C   0  0  0  0  0  0  0  0  0  0  0  0
   -0.8936    1.1505    2.0219 O   0  0  0  0  0  0  0  0  0  0  0  0
   -1.0410    0.6454   -1.1836 C   0  0  0  0  0  0  0  0  0  0  0  0
   -0.9429   -0.2244   -2.4412 C   0  0  0  0  0  0  0  0  0  0  0  0
   -1.8936    0.2722   -3.5338 C   0  0  0  0  0  0  0  0  0  0  0  0
   -1.8134   -0.6100   -4.7786 C   0  0  0  0  0  0  0  0  0  0  0  0
   -2.7424   -0.1347   -5.7968 N   0  0  0  0  0  0  0  0  0  0  0  0
   -1.2794   -1.1113    1.0935 H   0  0  0  0  0  0  0  0  0  0  0  0
    0.9352    0.1337   -0.4492 H   0  0  0  0  0  0  0  0  0  0  0  0
   -0.8197    1.6860   -1.4551 H   0  0  0  0  0  0  0  0  0  0  0  0
   -2.0763    0.6446   -0.8165 H   0  0  0  0  0  0  0  0  0  0  0  0
   -1.1871   -1.2653   -2.2009 H   0  0  0  0  0  0  0  0  0  0  0  0
    0.0870   -0.2094   -2.8176 H   0  0  0  0  0  0  0  0  0  0  0  0
   -2.9207    0.2789   -3.1476 H   0  0  0  0  0  0  0  0  0  0  0  0
   -1.6405    1.3072   -3.7963 H   0  0  0  0  0  0  0  0  0  0  0  0
   -2.0543   -1.6479   -4.5238 H   0  0  0  0  0  0  0  0  0  0  0  0
   -0.7974   -0.5939   -5.1870 H   0  0  0  0  0  0  0  0  0  0  0  0
   -3.2330    0.6481   -5.4319 H   0  0  0  0  0  0  0  0  0  0  0  0
   -2.2193    0.1249   -6.6002 H   0  0  0  0  0  0  0  0  0  0  0  0
    0.7882    2.2587    0.8675 N   0  0  0  0  0  0  0  0  0  0  0  0
    0.9408    3.3706    1.7781 C   0  0  2  0  0  0  0  0  0  0  0  0
    1.3342    4.5954    0.9630 C   0  0  0  0  0  0  0  0  0  0  0  0
    2.0418    4.5346   -0.0403 O   0  0  0  0  0  0  0  0  0  0  0  0
    1.9807    3.0719    2.8468 C   0  0  0  0  0  0  0  0  0  0  0  0
    1.3914    2.2372    0.0507 H   0  0  0  0  0  0  0  0  0  0  0  0
   -0.0383    3.5376    2.2401 H   0  0  0  0  0  0  0  0  0  0  0  0
    2.9683    2.9016    2.4028 H   0  0  0  0  0  0  0  0  0  0  0  0
    2.0746    3.9038    3.5526 H   0  0  0  0  0  0  0  0  0  0  0  0
    1.7113    2.1734    3.4125 H   0  0  0  0  0  0  0  0  0  0  0  0
    0.8378    5.7693    1.5124 N   0  0  0  0  0  0  0  0  0  0  0  0
    1.1091    7.0704    0.9470 C   0  0  0  0  0  0  0  0  0  0  0  0
    0.2268    5.7226    2.3224 H   0  0  0  0  0  0  0  0  0  0  0  0
    1.9992    7.5016    1.4284 H   0  0  0  0  0  0  0  0  0  0  0  0
    1.2891    6.9702   -0.1336 H   0  0  0  0  0  0  0  0  0  0  0  0
    0.2453    7.7304    1.1151 H   0  0  0  0  0  0  0  0  0  0  0  0
  1  3  1  0  0  0  0
  1  7  1  0  0  0  0
  1  2  2  0  0  0  0
 39 40  1  0  0  0  0
 40 48  1  0  0  0  0
 40 41  2  0  0  0  0
  8  9  1  0  0  0  0
  9 17  1  0  0  0  0
  9 10  2  0  0  0  0
 18 19  1  0  0  0  0
 19 38  1  0  0  0  0
 19 20  2  0  0  0  0
 39 42  1  0  0  0  0
  8 11  1  0  0  0  0
 48 49  1  0  0  0  0
 22 23  1  0  0  0  0
 21 22  1  0  0  0  0
 23 24  1  0  0  0  0
 18 21  1  0  0  0  0
 24 25  1  0  0  0  0
 38 39  1  0  0  0  0
  7  8  1  0  0  0  0
 17 18  1  0  0  0  0
  3  4  1  0  0  0  0
  3  5  1  0  0  0  0
  3  6  1  0  0  0  0
 42 45  1  0  0  0  0
 42 46  1  0  0  0  0
 42 47  1  0  0  0  0
 11 14  1  0  0  0  0
 11 15  1  0  0  0  0
 11 16  1  0  0  0  0
 49 51  1  0  0  0  0
 49 52  1  0  0  0  0
 49 53  1  0  0  0  0
 22 30  1  0  0  0  0
 22 31  1  0  0  0  0
 23 32  1  0  0  0  0
 23 33  1  0  0  0  0
 21 28  1  0  0  0  0
 21 29  1  0  0  0  0
 24 34  1  0  0  0  0
 24 35  1  0  0  0  0
 39 44  1  0  0  0  0
  8 13  1  0  0  0  0
 18 27  1  0  0  0  0
 25 36  1  0  0  0  0
 25 37  1  0  0  0  0
 48 50  1  0  0  0  0
  7 12  1  0  0  0  0
 38 43  1  0  0  0  0
 17 26  1  0  0  0  0
M  END
$$$$

  -OEChem-05262214473D

 53 52  0     1  0  0  0  0  0999 V2000
   -1.0338   -5.6785    0.1476 C   0  0  0  0  0  0  0  0  0  0  0  0
   -2.0514   -5.7797    0.8227 O   0  0  0  0  0  0  0  0  0  0  0  0
   -0.6558   -6.7819   -0.7841 C   0  0  0  0  0  0  0  0  0  0  0  0
   -0.0111   -7.5354   -0.3038 H   0  0  0  0  0  0  0  0  0  0  0  0
   -1.5317   -7.3401   -1.1520 H   0  0  0  0  0  0  0  0  0  0  0  0
   -0.1109   -6.4687   -1.6890 H   0  0  0  0  0  0  0  0  0  0  0  0
   -0.1543   -4.6083    0.1480 N   0  0  0  0  0  0  0  0  0  0  0  0
   -0.3302   -3.4398    0.9696 C   0  0  2  0  0  0  0  0  0  0  0  0
    0.2328   -2.2439    0.2131 C   0  0  0  0  0  0  0  0  0  0  0  0
    1.2097   -2.3192   -0.5294 O   0  0  0  0  0  0  0  0  0  0  0  0
    0.3557   -3.6024    2.3171 C   0  0  0  0  0  0  0  0  0  0  0  0
    0.6584   -4.6506   -0.4643 H   0  0  0  0  0  0  0  0  0  0  0  0
   -1.4091   -3.3101    1.1082 H   0  0  0  0  0  0  0  0  0  0  0  0
    1.4375   -3.7336    2.1985 H   0  0  0  0  0  0  0  0  0  0  0  0
    0.1969   -2.7243    2.9517 H   0  0  0  0  0  0  0  0  0  0  0  0
   -0.0294   -4.4803    2.8470 H   0  0  0  0  0  0  0  0  0  0  0  0
   -0.4616   -1.0893    0.5050 N   0  0  0  0  0  0  0  0  0  0  0  0
   -0.0884    0.2050   -0.0621 C   0  0  2  0  0  0  0  0  0  0  0  0
   -0.1242    1.2317    1.0664 C   0  0  0  0  0  0  0  0  0  0  0  0
   -0.6860    1.0272    2.1407 O   0  0  0  0  0  0  0  0  0  0  0  0
   -1.0410    0.6454   -1.1836 C   0  0  0  0  0  0  0  0  0  0  0  0
   -0.9429   -0.2244   -2.4412 C   0  0  0  0  0  0  0  0  0  0  0  0
   -1.8936    0.2722   -3.5338 C   0  0  0  0  0  0  0  0  0  0  0  0
   -1.8134   -0.6100   -4.7786 C   0  0  0  0  0  0  0  0  0  0  0  0
   -2.7424   -0.1347   -5.7968 N   0  0  0  0  0  0  0  0  0  0  0  0
   -1.2794   -1.1113    1.0935 H   0  0  0  0  0  0  0  0  0  0  0  0
    0.9352    0.1337   -0.4492 H   0  0  0  0  0  0  0  0  0  0  0  0
   -0.8197    1.6860   -1.4551 H   0  0  0  0  0  0  0  0  0  0  0  0
   -2.0763    0.6446   -0.8165 H   0  0  0  0  0  0  0  0  0  0  0  0
   -1.1871   -1.2653   -2.2009 H   0  0  0  0  0  0  0  0  0  0  0  0
    0.0870   -0.2094   -2.8176 H   0  0  0  0  0  0  0  0  0  0  0  0
   -2.9207    0.2789   -3.1476 H   0  0  0  0  0  0  0  0  0  0  0  0
   -1.6405    1.3072   -3.7963 H   0  0  0  0  0  0  0  0  0  0  0  0
   -2.0543   -1.6479   -4.5238 H   0  0  0  0  0  0  0  0  0  0  0  0
   -0.7974   -0.5939   -5.1870 H   0  0  0  0  0  0  0  0  0  0  0  0
   -3.2330    0.6481   -5.4319 H   0  0  0  0  0  0  0  0  0  0  0  0
   -2.2193    0.1249   -6.6002 H   0  0  0  0  0  0  0  0  0  0  0  0
    0.5255    2.4091    0.7223 N   0  0  0  0  0  0  0  0  0  0  0  0
    0.6175    3.5503    1.6043 C   0  0  2  0  0  0  0  0  0  0  0  0
    0.6210    4.8087    0.7464 C   0  0  0  0  0  0  0  0  0  0  0  0
    1.1421    4.8608   -0.3658 O   0  0  0  0  0  0  0  0  0  0  0  0
    1.8648    3.4803    2.4715 C   0  0  0  0  0  0  0  0  0  0  0  0
    0.9706    2.4843   -0.1875 H   0  0  0  0  0  0  0  0  0  0  0  0
   -0.2802    3.5381    2.2320 H   0  0  0  0  0  0  0  0  0  0  0  0
    2.7744    3.4915    1.8600 H   0  0  0  0  0  0  0  0  0  0  0  0
    1.9183    4.3308    3.1590 H   0  0  0  0  0  0  0  0  0  0  0  0
    1.8751    2.5602    3.0658 H   0  0  0  0  0  0  0  0  0  0  0  0
    0.0116    5.8786    1.3867 N   0  0  0  0  0  0  0  0  0  0  0  0
   -0.0743    7.1941    0.7968 C   0  0  0  0  0  0  0  0  0  0  0  0
   -0.4291    5.7348    2.2905 H   0  0  0  0  0  0  0  0  0  0  0  0
    0.7863    7.7983    1.1199 H   0  0  0  0  0  0  0  0  0  0  0  0
   -0.0687    7.1052   -0.2996 H   0  0  0  0  0  0  0  0  0  0  0  0
   -1.0061    7.6809    1.1204 H   0  0  0  0  0  0  0  0  0  0  0  0
  1  3  1  0  0  0  0
  1  7  1  0  0  0  0
  1  2  2  0  0  0  0
 39 40  1  0  0  0  0
 40 48  1  0  0  0  0
 40 41  2  0  0  0  0
  8  9  1  0  0  0  0
  9 17  1  0  0  0  0
  9 10  2  0  0  0  0
 18 19  1  0  0  0  0
 19 38  1  0  0  0  0
 19 20  2  0  0  0  0
 39 42  1  0  0  0  0
  8 11  1  0  0  0  0
 48 49  1  0  0  0  0
 22 23  1  0  0  0  0
 21 22  1  0  0  0  0
 23 24  1  0  0  0  0
 18 21  1  0  0  0  0
 24 25  1  0  0  0  0
 38 39  1  0  0  0  0
  7  8  1  0  0  0  0
 17 18  1  0  0  0  0
  3  4  1  0  0  0  0
  3  5  1  0  0  0  0
  3  6  1  0  0  0  0
 42 45  1  0  0  0  0
 42 46  1  0  0  0  0
 42 47  1  0  0  0  0
 11 14  1  0  0  0  0
 11 15  1  0  0  0  0
 11 16  1  0  0  0  0
 49 51  1  0  0  0  0
 49 52  1  0  0  0  0
 49 53  1  0  0  0  0
 22 30  1  0  0  0  0
 22 31  1  0  0  0  0
 23 32  1  0  0  0  0
 23 33  1  0  0  0  0
 21 28  1  0  0  0  0
 21 29  1  0  0  0  0
 24 34  1  0  0  0  0
 24 35  1  0  0  0  0
 39 44  1  0  0  0  0
  8 13  1  0  0  0  0
 18 27  1  0  0  0  0
 25 36  1  0  0  0  0
 25 37  1  0  0  0  0
 48 50  1  0  0  0  0
  7 12  1  0  0  0  0
 38 43  1  0  0  0  0
 17 26  1  0  0  0  0
M  END
$$$$

  -OEChem-05262214473D

 53 52  0     1  0  0  0  0  0999 V2000
   -1.0338   -5.6785    0.1476 C   0  0  0  0  0  0  0  0  0  0  0  0
   -2.0514   -5.7797    0.8227 O   0  0  0  0  0  0  0  0  0  0  0  0
   -0.6558   -6.7819   -0.7841 C   0  0  0  0  0  0  0  0  0  0  0  0
   -0.0111   -7.5354   -0.3038 H   0  0  0  0  0  0  0  0  0  0  0  0
   -1.5317   -7.3401   -1.1520 H   0  0  0  0  0  0  0  0  0  0  0  0
   -0.1109   -6.4687   -1.6890 H   0  0  0  0  0  0  0  0  0  0  0  0
   -0.1543   -4.6083    0.1480 N   0  0  0  0  0  0  0  0  0  0  0  0
   -0.3302   -3.4398    0.9696 C   0  0  2  0  0  0  0  0  0  0  0  0
    0.2328   -2.2439    0.2131 C   0  0  0  0  0  0  0  0  0  0  0  0
    1.2097   -2.3192   -0.5294 O   0  0  0  0  0  0  0  0  0  0  0  0
    0.3557   -3.6024    2.3171 C   0  0  0  0  0  0  0  0  0  0  0  0
    0.6584   -4.6506   -0.4643 H   0  0  0  0  0  0  0  0  0  0  0  0
   -1.4091   -3.3101    1.1082 H   0  0  0  0  0  0  0  0  0  0  0  0
    1.4375   -3.7336    2.1985 H   0  0  0  0  0  0  0  0  0  0  0  0
    0.1969   -2.7243    2.9517 H   0  0  0  0  0  0  0  0  0  0  0  0
   -0.0294   -4.4803    2.8470 H   0  0  0  0  0  0  0  0  0  0  0  0
   -0.4616   -1.0893    0.5050 N   0  0  0  0  0  0  0  0  0  0  0  0
   -0.0884    0.2050   -0.0621 C   0  0  2  0  0  0  0  0  0  0  0  0
    0.2428    1.1397    1.0979 C   0  0  0  0  0  0  0  0  0  0  0  0
    0.1659    0.7983    2.2765 O   0  0  0  0  0  0  0  0  0  0  0  0
   -1.2163    0.8177   -0.9057 C   0  0  0  0  0  0  0  0  0  0  0  0
   -1.4994    0.0431   -2.1970 C   0  0  0  0  0  0  0  0  0  0  0  0
   -2.6129    0.7092   -3.0098 C   0  0  0  0  0  0  0  0  0  0  0  0
   -2.9117   -0.0772   -4.2852 C   0  0  0  0  0  0  0  0  0  0  0  0
   -3.9896    0.5601   -5.0320 N   0  0  0  0  0  0  0  0  0  0  0  0
   -1.2794   -1.1113    1.0935 H   0  0  0  0  0  0  0  0  0  0  0  0
    0.8075    0.0695   -0.6799 H   0  0  0  0  0  0  0  0  0  0  0  0
   -0.9509    1.8513   -1.1641 H   0  0  0  0  0  0  0  0  0  0  0  0
   -2.1359    0.8844   -0.3084 H   0  0  0  0  0  0  0  0  0  0  0  0
   -1.7941   -0.9862   -1.9634 H   0  0  0  0  0  0  0  0  0  0  0  0
   -0.5857   -0.0082   -2.8012 H   0  0  0  0  0  0  0  0  0  0  0  0
   -3.5193    0.7810   -2.3955 H   0  0  0  0  0  0  0  0  0  0  0  0
   -2.3151    1.7335   -3.2673 H   0  0  0  0  0  0  0  0  0  0  0  0
   -3.1996   -1.1049   -4.0382 H   0  0  0  0  0  0  0  0  0  0  0  0
   -2.0185   -0.1235   -4.9172 H   0  0  0  0  0  0  0  0  0  0  0  0
   -4.2976    1.3541   -4.5210 H   0  0  0  0  0  0  0  0  0  0  0  0
   -3.6366    0.8317   -5.9198 H   0  0  0  0  0  0  0  0  0  0  0  0
    0.6120    2.4043    0.6608 N   0  0  0  0  0  0  0  0  0  0  0  0
    0.9546    3.4842    1.5581 C   0  0  2  0  0  0  0  0  0  0  0  0
    0.5236    4.7917    0.9067 C   0  0  0  0  0  0  0  0  0  0  0  0
    0.5602    4.9802   -0.3075 O   0  0  0  0  0  0  0  0  0  0  0  0
    2.4437    3.4958    1.8668 C   0  0  0  0  0  0  0  0  0  0  0  0
    0.6566    2.5929   -0.3362 H   0  0  0  0  0  0  0  0  0  0  0  0
    0.3796    3.3264    2.4770 H   0  0  0  0  0  0  0  0  0  0  0  0
    3.0362    3.6528    0.9580 H   0  0  0  0  0  0  0  0  0  0  0  0
    2.6971    4.2969    2.5690 H   0  0  0  0  0  0  0  0  0  0  0  0
    2.7577    2.5437    2.3078 H   0  0  0  0  0  0  0  0  0  0  0  0
    0.1340    5.7382    1.8440 N   0  0  0  0  0  0  0  0  0  0  0  0
   -0.2780    7.0734    1.4788 C   0  0  0  0  0  0  0  0  0  0  0  0
    0.0964    5.4826    2.8263 H   0  0  0  0  0  0  0  0  0  0  0  0
    0.5909    7.7473    1.5103 H   0  0  0  0  0  0  0  0  0  0  0  0
   -0.6967    7.0625    0.4617 H   0  0  0  0  0  0  0  0  0  0  0  0
   -1.0423    7.4275    2.1862 H   0  0  0  0  0  0  0  0  0  0  0  0
  1  3  1  0  0  0  0
  1  7  1  0  0  0  0
  1  2  2  0  0  0  0
 39 40  1  0  0  0  0
 40 48  1  0  0  0  0
 40 41  2  0  0  0  0
  8  9  1  0  0  0  0
  9 17  1  0  0  0  0
  9 10  2  0  0  0  0
 18 19  1  0  0  0  0
 19 38  1  0  0  0  0
 19 20  2  0  0  0  0
 39 42  1  0  0  0  0
  8 11  1  0  0  0  0
 48 49  1  0  0  0  0
 22 23  1  0  0  0  0
 21 22  1  0  0  0  0
 23 24  1  0  0  0  0
 18 21  1  0  0  0  0
 24 25  1  0  0  0  0
 38 39  1  0  0  0  0
  7  8  1  0  0  0  0
 17 18  1  0  0  0  0
  3  4  1  0  0  0  0
  3  5  1  0  0  0  0
  3  6  1  0  0  0  0
 42 45  1  0  0  0  0
 42 46  1  0  0  0  0
 42 47  1  0  0  0  0
 11 14  1  0  0  0  0
 11 15  1  0  0  0  0
 11 16  1  0  0  0  0
 49 51  1  0  0  0  0
 49 52  1  0  0  0  0
 49 53  1  0  0  0  0
 22 30  1  0  0  0  0
 22 31  1  0  0  0  0
 23 32  1  0  0  0  0
 23 33  1  0  0  0  0
 21 28  1  0  0  0  0
 21 29  1  0  0  0  0
 24 34  1  0  0  0  0
 24 35  1  0  0  0  0
 39 44  1  0  0  0  0
  8 13  1  0  0  0  0
 18 27  1  0  0  0  0
 25 36  1  0  0  0  0
 25 37  1  0  0  0  0
 48 50  1  0  0  0  0
  7 12  1  0  0  0  0
 38 43  1  0  0  0  0
 17 26  1  0  0  0  0
M  END
$$$$

  -OEChem-05262214473D

 53 52  0     1  0  0  0  0  0999 V2000
   -1.0338   -5.6785    0.1476 C   0  0  0  0  0  0  0  0  0  0  0  0
   -2.0514   -5.7797    0.8227 O   0  0  0  0  0  0  0  0  0  0  0  0
   -0.6558   -6.7819   -0.7841 C   0  0  0  0  0  0  0  0  0  0  0  0
   -0.0111   -7.5354   -0.3038 H   0  0  0  0  0  0  0  0  0  0  0  0
   -1.5317   -7.3401   -1.1520 H   0  0  0  0  0  0  0  0  0  0  0  0
   -0.1109   -6.4687   -1.6890 H   0  0  0  0  0  0  0  0  0  0  0  0
   -0.1543   -4.6083    0.1480 N   0  0  0  0  0  0  0  0  0  0  0  0
   -0.3302   -3.4398    0.9696 C   0  0  2  0  0  0  0  0  0  0  0  0
    0.2328   -2.2439    0.2131 C   0  0  0  0  0  0  0  0  0  0  0  0
    1.2097   -2.3192   -0.5294 O   0  0  0  0  0  0  0  0  0  0  0  0
    0.3557   -3.6024    2.3171 C   0  0  0  0  0  0  0  0  0  0  0  0
    0.6584   -4.6506   -0.4643 H   0  0  0  0  0  0  0  0  0  0  0  0
   -1.4091   -3.3101    1.1082 H   0  0  0  0  0  0  0  0  0  0  0  0
    1.4375   -3.7336    2.1985 H   0  0  0  0  0  0  0  0  0  0  0  0
    0.1969   -2.7243    2.9517 H   0  0  0  0  0  0  0  0  0  0  0  0
   -0.0294   -4.4803    2.8470 H   0  0  0  0  0  0  0  0  0  0  0  0
   -0.4616   -1.0893    0.5050 N   0  0  0  0  0  0  0  0  0  0  0  0
   -0.0884    0.2050   -0.0621 C   0  0  2  0  0  0  0  0  0  0  0  0
    0.2428    1.1397    1.0979 C   0  0  0  0  0  0  0  0  0  0  0  0
    0.4274    0.7426    2.2467 O   0  0  0  0  0  0  0  0  0  0  0  0
   -1.2163    0.8177   -0.9057 C   0  0  0  0  0  0  0  0  0  0  0  0
   -1.4994    0.0431   -2.1970 C   0  0  0  0  0  0  0  0  0  0  0  0
   -2.6129    0.7092   -3.0098 C   0  0  0  0  0  0  0  0  0  0  0  0
   -2.9117   -0.0772   -4.2852 C   0  0  0  0  0  0  0  0  0  0  0  0
   -3.9896    0.5601   -5.0320 N   0  0  0  0  0  0  0  0  0  0  0  0
   -1.2794   -1.1113    1.0935 H   0  0  0  0  0  0  0  0  0  0  0  0
    0.8075    0.0695   -0.6799 H   0  0  0  0  0  0  0  0  0  0  0  0
   -0.9509    1.8513   -1.1641 H   0  0  0  0  0  0  0  0  0  0  0  0
   -2.1359    0.8844   -0.3084 H   0  0  0  0  0  0  0  0  0  0  0  0
   -1.7941   -0.9862   -1.9634 H   0  0  0  0  0  0  0  0  0  0  0  0
   -0.5857   -0.0082   -2.8012 H   0  0  0  0  0  0  0  0  0  0  0  0
   -3.5193    0.7810   -2.3955 H   0  0  0  0  0  0  0  0  0  0  0  0
   -2.3151    1.7335   -3.2673 H   0  0  0  0  0  0  0  0  0  0  0  0
   -3.1996   -1.1049   -4.0382 H   0  0  0  0  0  0  0  0  0  0  0  0
   -2.0185   -0.1235   -4.9172 H   0  0  0  0  0  0  0  0  0  0  0  0
   -4.2976    1.3541   -4.5210 H   0  0  0  0  0  0  0  0  0  0  0  0
   -3.6366    0.8317   -5.9198 H   0  0  0  0  0  0  0  0  0  0  0  0
    0.2852    2.4693    0.7017 N   0  0  0  0  0  0  0  0  0  0  0  0
    0.5564    3.5591    1.6115 C   0  0  2  0  0  0  0  0  0  0  0  0
   -0.2189    4.7781    1.1295 C   0  0  0  0  0  0  0  0  0  0  0  0
   -0.4190    5.0189   -0.0592 O   0  0  0  0  0  0  0  0  0  0  0  0
    2.0456    3.8577    1.6889 C   0  0  0  0  0  0  0  0  0  0  0  0
    0.1285    2.7031   -0.2742 H   0  0  0  0  0  0  0  0  0  0  0  0
    0.1812    3.2518    2.5937 H   0  0  0  0  0  0  0  0  0  0  0  0
    2.4395    4.1672    0.7139 H   0  0  0  0  0  0  0  0  0  0  0  0
    2.2520    4.6643    2.4000 H   0  0  0  0  0  0  0  0  0  0  0  0
    2.6048    2.9712    2.0070 H   0  0  0  0  0  0  0  0  0  0  0  0
   -0.6238    5.5883    2.1811 N   0  0  0  0  0  0  0  0  0  0  0  0
   -1.3391    6.8269    1.9803 C   0  0  0  0  0  0  0  0  0  0  0  0
   -0.4499    5.2910    3.1366 H   0  0  0  0  0  0  0  0  0  0  0  0
   -0.6228    7.6601    1.9270 H   0  0  0  0  0  0  0  0  0  0  0  0
   -1.9090    6.7730    1.0410 H   0  0  0  0  0  0  0  0  0  0  0  0
   -2.0305    6.9911    2.8199 H   0  0  0  0  0  0  0  0  0  0  0  0
  1  3  1  0  0  0  0
  1  7  1  0  0  0  0
  1  2  2  0  0  0  0
 39 40  1  0  0  0  0
 40 48  1  0  0  0  0
 40 41  2  0  0  0  0
  8  9  1  0  0  0  0
  9 17  1  0  0  0  0
  9 10  2  0  0  0  0
 18 19  1  0  0  0  0
 19 38  1  0  0  0  0
 19 20  2  0  0  0  0
 39 42  1  0  0  0  0
  8 11  1  0  0  0  0
 48 49  1  0  0  0  0
 22 23  1  0  0  0  0
 21 22  1  0  0  0  0
 23 24  1  0  0  0  0
 18 21  1  0  0  0  0
 24 25  1  0  0  0  0
 38 39  1  0  0  0  0
  7  8  1  0  0  0  0
 17 18  1  0  0  0  0
  3  4  1  0  0  0  0
  3  5  1  0  0  0  0
  3  6  1  0  0  0  0
 42 45  1  0  0  0  0
 42 46  1  0  0  0  0
 42 47  1  0  0  0  0
 11 14  1  0  0  0  0
 11 15  1  0  0  0  0
 11 16  1  0  0  0  0
 49 51  1  0  0  0  0
 49 52  1  0  0  0  0
 49 53  1  0  0  0  0
 22 30  1  0  0  0  0
 22 31  1  0  0  0  0
 23 32  1  0  0  0  0
 23 33  1  0  0  0  0
 21 28  1  0  0  0  0
 21 29  1  0  0  0  0
 24 34  1  0  0  0  0
 24 35  1  0  0  0  0
 39 44  1  0  0  0  0
  8 13  1  0  0  0  0
 18 27  1  0  0  0  0
 25 36  1  0  0  0  0
 25 37  1  0  0  0  0
 48 50  1  0  0  0  0
  7 12  1  0  0  0  0
 38 43  1  0  0  0  0
 17 26  1  0  0  0  0
M  END
$$$$

  -OEChem-05262214473D

 53 52  0     1  0  0  0  0  0999 V2000
   -1.0338   -5.6785    0.1476 C   0  0  0  0  0  0  0  0  0  0  0  0
   -2.0514   -5.7797    0.8227 O   0  0  0  0  0  0  0  0  0  0  0  0
   -0.6558   -6.7819   -0.7841 C   0  0  0  0  0  0  0  0  0  0  0  0
   -0.0111   -7.5354   -0.3038 H   0  0  0  0  0  0  0  0  0  0  0  0
   -1.5317   -7.3401   -1.1520 H   0  0  0  0  0  0  0  0  0  0  0  0
   -0.1109   -6.4687   -1.6890 H   0  0  0  0  0  0  0  0  0  0  0  0
   -0.1543   -4.6083    0.1480 N   0  0  0  0  0  0  0  0  0  0  0  0
   -0.3302   -3.4398    0.9696 C   0  0  2  0  0  0  0  0  0  0  0  0
    0.2328   -2.2439    0.2131 C   0  0  0  0  0  0  0  0  0  0  0  0
    1.2097   -2.3192   -0.5294 O   0  0  0  0  0  0  0  0  0  0  0  0
    0.3557   -3.6024    2.3171 C   0  0  0  0  0  0  0  0  0  0  0  0
    0.6584   -4.6506   -0.4643 H   0  0  0  0  0  0  0  0  0  0  0  0
   -1.4091   -3.3101    1.1082 H   0  0  0  0  0  0  0  0  0  0  0  0
    1.4375   -3.7336    2.1985 H   0  0  0  0  0  0  0  0  0  0  0  0
    0.1969   -2.7243    2.9517 H   0  0  0  0  0  0  0  0  0  0  0  0
   -0.0294   -4.4803    2.8470 H   0  0  0  0  0  0  0  0  0  0  0  0
   -0.4616   -1.0893    0.5050 N   0  0  0  0  0  0  0  0  0  0  0  0
   -0.0884    0.2050   -0.0621 C   0  0  2  0  0  0  0  0  0  0  0  0
    0.2428    1.1397    1.0979 C   0  0  0  0  0  0  0  0  0  0  0  0
    0.6863    0.7419    2.1733 O   0  0  0  0  0  0  0  0  0  0  0  0
   -1.2163    0.8177   -0.9057 C   0  0  0  0  0  0  0  0  0  0  0  0
   -1.4994    0.0431   -2.1970 C   0  0  0  0  0  0  0  0  0  0  0  0
   -2.6129    0.7092   -3.0098 C   0  0  0  0  0  0  0  0  0  0  0  0
   -2.9117   -0.0772   -4.2852 C   0  0  0  0  0  0  0  0  0  0  0  0
   -3.9896    0.5601   -5.0320 N   0  0  0  0  0  0  0  0  0  0  0  0
   -1.2794   -1.1113    1.0935 H   0  0  0  0  0  0  0  0  0  0  0  0
    0.8075    0.0695   -0.6799 H   0  0  0  0  0  0  0  0  0  0  0  0
   -0.9509    1.8513   -1.1641 H   0  0  0  0  0  0  0  0  0  0  0  0
   -2.1359    0.8844   -0.3084 H   0  0  0  0  0  0  0  0  0  0  0  0
   -1.7941   -0.9862   -1.9634 H   0  0  0  0  0  0  0  0  0  0  0  0
   -0.5857   -0.0082   -2.8012 H   0  0  0  0  0  0  0  0  0  0  0  0
   -3.5193    0.7810   -2.3955 H   0  0  0  0  0  0  0  0  0  0  0  0
   -2.3151    1.7335   -3.2673 H   0  0  0  0  0  0  0  0  0  0  0  0
   -3.1996   -1.1049   -4.0382 H   0  0  0  0  0  0  0  0  0  0  0  0
   -2.0185   -0.1235   -4.9172 H   0  0  0  0  0  0  0  0  0  0  0  0
   -4.2976    1.3541   -4.5210 H   0  0  0  0  0  0  0  0  0  0  0  0
   -3.6366    0.8317   -5.9198 H   0  0  0  0  0  0  0  0  0  0  0  0
   -0.0368    2.4655    0.7966 N   0  0  0  0  0  0  0  0  0  0  0  0
    0.1655    3.5500    1.7304 C   0  0  2  0  0  0  0  0  0  0  0  0
   -0.8980    4.6065    1.4617 C   0  0  0  0  0  0  0  0  0  0  0  0
   -1.3331    4.8498    0.3380 O   0  0  0  0  0  0  0  0  0  0  0  0
    1.5616    4.1388    1.6005 C   0  0  0  0  0  0  0  0  0  0  0  0
   -0.3935    2.7021   -0.1244 H   0  0  0  0  0  0  0  0  0  0  0  0
    0.0228    3.1342    2.7337 H   0  0  0  0  0  0  0  0  0  0  0  0
    1.7232    4.5603    0.6016 H   0  0  0  0  0  0  0  0  0  0  0  0
    1.7230    4.9412    2.3279 H   0  0  0  0  0  0  0  0  0  0  0  0
    2.3253    3.3709    1.7647 H   0  0  0  0  0  0  0  0  0  0  0  0
   -1.2730    5.2755    2.6184 N   0  0  0  0  0  0  0  0  0  0  0  0
   -2.2360    6.3519    2.6191 C   0  0  0  0  0  0  0  0  0  0  0  0
   -0.8907    4.9810    3.5122 H   0  0  0  0  0  0  0  0  0  0  0  0
   -1.7119    7.3136    2.5171 H   0  0  0  0  0  0  0  0  0  0  0  0
   -2.9313    6.2222    1.7766 H   0  0  0  0  0  0  0  0  0  0  0  0
   -2.7988    6.3396    3.5641 H   0  0  0  0  0  0  0  0  0  0  0  0
  1  3  1  0  0  0  0
  1  7  1  0  0  0  0
  1  2  2  0  0  0  0
 39 40  1  0  0  0  0
 40 48  1  0  0  0  0
 40 41  2  0  0  0  0
  8  9  1  0  0  0  0
  9 17  1  0  0  0  0
  9 10  2  0  0  0  0
 18 19  1  0  0  0  0
 19 38  1  0  0  0  0
 19 20  2  0  0  0  0
 39 42  1  0  0  0  0
  8 11  1  0  0  0  0
 48 49  1  0  0  0  0
 22 23  1  0  0  0  0
 21 22  1  0  0  0  0
 23 24  1  0  0  0  0
 18 21  1  0  0  0  0
 24 25  1  0  0  0  0
 38 39  1  0  0  0  0
  7  8  1  0  0  0  0
 17 18  1  0  0  0  0
  3  4  1  0  0  0  0
  3  5  1  0  0  0  0
  3  6  1  0  0  0  0
 42 45  1  0  0  0  0
 42 46  1  0  0  0  0
 42 47  1  0  0  0  0
 11 14  1  0  0  0  0
 11 15  1  0  0  0  0
 11 16  1  0  0  0  0
 49 51  1  0  0  0  0
 49 52  1  0  0  0  0
 49 53  1  0  0  0  0
 22 30  1  0  0  0  0
 22 31  1  0  0  0  0
 23 32  1  0  0  0  0
 23 33  1  0  0  0  0
 21 28  1  0  0  0  0
 21 29  1  0  0  0  0
 24 34  1  0  0  0  0
 24 35  1  0  0  0  0
 39 44  1  0  0  0  0
  8 13  1  0  0  0  0
 18 27  1  0  0  0  0
 25 36  1  0  0  0  0
 25 37  1  0  0  0  0
 48 50  1  0  0  0  0
  7 12  1  0  0  0  0
 38 43  1  0  0  0  0
 17 26  1  0  0  0  0
M  END
$$$$

  -OEChem-05262214473D

 53 52  0     1  0  0  0  0  0999 V2000
   -1.0338   -5.6785    0.1476 C   0  0  0  0  0  0  0  0  0  0  0  0
   -2.0514   -5.7797    0.8227 O   0  0  0  0  0  0  0  0  0  0  0  0
   -0.6558   -6.7819   -0.7841 C   0  0  0  0  0  0  0  0  0  0  0  0
   -0.0111   -7.5354   -0.3038 H   0  0  0  0  0  0  0  0  0  0  0  0
   -1.5317   -7.3401   -1.1520 H   0  0  0  0  0  0  0  0  0  0  0  0
   -0.1109   -6.4687   -1.6890 H   0  0  0  0  0  0  0  0  0  0  0  0
   -0.1543   -4.6083    0.1480 N   0  0  0  0  0  0  0  0  0  0  0  0
   -0.3302   -3.4398    0.9696 C   0  0  2  0  0  0  0  0  0  0  0  0
    0.2328   -2.2439    0.2131 C   0  0  0  0  0  0  0  0  0  0  0  0
    1.2097   -2.3192   -0.5294 O   0  0  0  0  0  0  0  0  0  0  0  0
    0.3557   -3.6024    2.3171 C   0  0  0  0  0  0  0  0  0  0  0  0
    0.6584   -4.6506   -0.4643 H   0  0  0  0  0  0  0  0  0  0  0  0
   -1.4091   -3.3101    1.1082 H   0  0  0  0  0  0  0  0  0  0  0  0
    1.4375   -3.7336    2.1985 H   0  0  0  0  0  0  0  0  0  0  0  0
    0.1969   -2.7243    2.9517 H   0  0  0  0  0  0  0  0  0  0  0  0
   -0.0294   -4.4803    2.8470 H   0  0  0  0  0  0  0  0  0  0  0  0
   -0.4616   -1.0893    0.5050 N   0  0  0  0  0  0  0  0  0  0  0  0
   -0.0884    0.2050   -0.0621 C   0  0  2  0  0  0  0  0  0  0  0  0
    0.2428    1.1397    1.0979 C   0  0  0  0  0  0  0  0  0  0  0  0
    0.9249    0.7963    2.0614 O   0  0  0  0  0  0  0  0  0  0  0  0
   -1.2163    0.8177   -0.9057 C   0  0  0  0  0  0  0  0  0  0  0  0
   -1.4994    0.0431   -2.1970 C   0  0  0  0  0  0  0  0  0  0  0  0
   -2.6129    0.7092   -3.0098 C   0  0  0  0  0  0  0  0  0  0  0  0
   -2.9117   -0.0772   -4.2852 C   0  0  0  0  0  0  0  0  0  0  0  0
   -3.9896    0.5601   -5.0320 N   0  0  0  0  0  0  0  0  0  0  0  0
   -1.2794   -1.1113    1.0935 H   0  0  0  0  0  0  0  0  0  0  0  0
    0.8075    0.0695   -0.6799 H   0  0  0  0  0  0  0  0  0  0  0  0
   -0.9509    1.8513   -1.1641 H   0  0  0  0  0  0  0  0  0  0  0  0
   -2.1359    0.8844   -0.3084 H   0  0  0  0  0  0  0  0  0  0  0  0
   -1.7941   -0.9862   -1.9634 H   0  0  0  0  0  0  0  0  0  0  0  0
   -0.5857   -0.0082   -2.8012 H   0  0  0  0  0  0  0  0  0  0  0  0
   -3.5193    0.7810   -2.3955 H   0  0  0  0  0  0  0  0  0  0  0  0
   -2.3151    1.7335   -3.2673 H   0  0  0  0  0  0  0  0  0  0  0  0
   -3.1996   -1.1049   -4.0382 H   0  0  0  0  0  0  0  0  0  0  0  0
   -2.0185   -0.1235   -4.9172 H   0  0  0  0  0  0  0  0  0  0  0  0
   -4.2976    1.3541   -4.5210 H   0  0  0  0  0  0  0  0  0  0  0  0
   -3.6366    0.8317   -5.9198 H   0  0  0  0  0  0  0  0  0  0  0  0
   -0.3320    2.3932    0.9392 N   0  0  0  0  0  0  0  0  0  0  0  0
   -0.1915    3.4576    1.9067 C   0  0  2  0  0  0  0  0  0  0  0  0
   -1.4676    4.2884    1.8806 C   0  0  0  0  0  0  0  0  0  0  0  0
   -2.1197    4.4842    0.8571 O   0  0  0  0  0  0  0  0  0  0  0  0
    1.0248    4.3201    1.6076 C   0  0  0  0  0  0  0  0  0  0  0  0
   -0.8738    2.5900    0.1030 H   0  0  0  0  0  0  0  0  0  0  0  0
   -0.0849    2.9815    2.8875 H   0  0  0  0  0  0  0  0  0  0  0  0
    0.9362    4.8054    0.6288 H   0  0  0  0  0  0  0  0  0  0  0  0
    1.1462    5.1086    2.3577 H   0  0  0  0  0  0  0  0  0  0  0  0
    1.9382    3.7157    1.5974 H   0  0  0  0  0  0  0  0  0  0  0  0
   -1.7691    4.8211    3.1261 N   0  0  0  0  0  0  0  0  0  0  0  0
   -2.9077    5.6807    3.3516 C   0  0  0  0  0  0  0  0  0  0  0  0
   -1.1960    4.5738    3.9274 H   0  0  0  0  0  0  0  0  0  0  0  0
   -2.6022    6.7316    3.2402 H   0  0  0  0  0  0  0  0  0  0  0  0
   -3.6937    5.4478    2.6182 H   0  0  0  0  0  0  0  0  0  0  0  0
   -3.2947    5.5173    4.3682 H   0  0  0  0  0  0  0  0  0  0  0  0
  1  3  1  0  0  0  0
  1  7  1  0  0  0  0
  1  2  2  0  0  0  0
 39 40  1  0  0  0  0
 40 48  1  0  0  0  0
 40 41  2  0  0  0  0
  8  9  1  0  0  0  0
  9 17  1  0  0  0  0
  9 10  2  0  0  0  0
 18 19  1  0  0  0  0
 19 38  1  0  0  0  0
 19 20  2  0  0  0  0
 39 42  1  0  0  0  0
  8 11  1  0  0  0  0
 48 49  1  0  0  0  0
 22 23  1  0  0  0  0
 21 22  1  0  0  0  0
 23 24  1  0  0  0  0
 18 21  1  0  0  0  0
 24 25  1  0  0  0  0
 38 39  1  0  0  0  0
  7  8  1  0  0  0  0
 17 18  1  0  0  0  0
  3  4  1  0  0  0  0
  3  5  1  0  0  0  0
  3  6  1  0  0  0  0
 42 45  1  0  0  0  0
 42 46  1  0  0  0  0
 42 47  1  0  0  0  0
 11 14  1  0  0  0  0
 11 15  1  0  0  0  0
 11 16  1  0  0  0  0
 49 51  1  0  0  0  0
 49 52  1  0  0  0  0
 49 53  1  0  0  0  0
 22 30  1  0  0  0  0
 22 31  1  0  0  0  0
 23 32  1  0  0  0  0
 23 33  1  0  0  0  0
 21 28  1  0  0  0  0
 21 29  1  0  0  0  0
 24 34  1  0  0  0  0
 24 35  1  0  0  0  0
 39 44  1  0  0  0  0
  8 13  1  0  0  0  0
 18 27  1  0  0  0  0
 25 36  1  0  0  0  0
 25 37  1  0  0  0  0
 48 50  1  0  0  0  0
  7 12  1  0  0  0  0
 38 43  1  0  0  0  0
 17 26  1  0  0  0  0
M  END
$$$$

  -OEChem-05262214473D

 53 52  0     1  0  0  0  0  0999 V2000
   -1.0338   -5.6785    0.1476 C   0  0  0  0  0  0  0  0  0  0  0  0
   -2.0514   -5.7797    0.8227 O   0  0  0  0  0  0  0  0  0  0  0  0
   -0.6558   -6.7819   -0.7841 C   0  0  0  0  0  0  0  0  0  0  0  0
   -0.0111   -7.5354   -0.3038 H   0  0  0  0  0  0  0  0  0  0  0  0
   -1.5317   -7.3401   -1.1520 H   0  0  0  0  0  0  0  0  0  0  0  0
   -0.1109   -6.4687   -1.6890 H   0  0  0  0  0  0  0  0  0  0  0  0
   -0.1543   -4.6083    0.1480 N   0  0  0  0  0  0  0  0  0  0  0  0
   -0.3302   -3.4398    0.9696 C   0  0  2  0  0  0  0  0  0  0  0  0
    0.2328   -2.2439    0.2131 C   0  0  0  0  0  0  0  0  0  0  0  0
    1.2097   -2.3192   -0.5294 O   0  0  0  0  0  0  0  0  0  0  0  0
    0.3557   -3.6024    2.3171 C   0  0  0  0  0  0  0  0  0  0  0  0
    0.6584   -4.6506   -0.4643 H   0  0  0  0  0  0  0  0  0  0  0  0
   -1.4091   -3.3101    1.1082 H   0  0  0  0  0  0  0  0  0  0  0  0
    1.4375   -3.7336    2.1985 H   0  0  0  0  0  0  0  0  0  0  0  0
    0.1969   -2.7243    2.9517 H   0  0  0  0  0  0  0  0  0  0  0  0
   -0.0294   -4.4803    2.8470 H   0  0  0  0  0  0  0  0  0  0  0  0
   -0.4616   -1.0893    0.5050 N   0  0  0  0  0  0  0  0  0  0  0  0
   -0.0884    0.2050   -0.0621 C   0  0  2  0  0  0  0  0  0  0  0  0
    0.2428    1.1397    1.0979 C   0  0  0  0  0  0  0  0  0  0  0  0
    1.1269    0.9021    1.9185 O   0  0  0  0  0  0  0  0  0  0  0  0
   -1.2163    0.8177   -0.9057 C   0  0  0  0  0  0  0  0  0  0  0  0
   -1.4994    0.0431   -2.1970 C   0  0  0  0  0  0  0  0  0  0  0  0
   -2.6129    0.7092   -3.0098 C   0  0  0  0  0  0  0  0  0  0  0  0
   -2.9117   -0.0772   -4.2852 C   0  0  0  0  0  0  0  0  0  0  0  0
   -3.9896    0.5601   -5.0320 N   0  0  0  0  0  0  0  0  0  0  0  0
   -1.2794   -1.1113    1.0935 H   0  0  0  0  0  0  0  0  0  0  0  0
    0.8075    0.0695   -0.6799 H   0  0  0  0  0  0  0  0  0  0  0  0
   -0.9509    1.8513   -1.1641 H   0  0  0  0  0  0  0  0  0  0  0  0
   -2.1359    0.8844   -0.3084 H   0  0  0  0  0  0  0  0  0  0  0  0
   -1.7941   -0.9862   -1.9634 H   0  0  0  0  0  0  0  0  0  0  0  0
   -0.5857   -0.0082   -2.8012 H   0  0  0  0  0  0  0  0  0  0  0  0
   -3.5193    0.7810   -2.3955 H   0  0  0  0  0  0  0  0  0  0  0  0
   -2.3151    1.7335   -3.2673 H   0  0  0  0  0  0  0  0  0  0  0  0
   -3.1996   -1.1049   -4.0382 H   0  0  0  0  0  0  0  0  0  0  0  0
   -2.0185   -0.1235   -4.9172 H   0  0  0  0  0  0  0  0  0  0  0  0
   -4.2976    1.3541   -4.5210 H   0  0  0  0  0  0  0  0  0  0  0  0
   -3.6366    0.8317   -5.9198 H   0  0  0  0  0  0  0  0  0  0  0  0
   -0.5803    2.2572    1.1196 N   0  0  0  0  0  0  0  0  0  0  0  0
   -0.4901    3.2883    2.1284 C   0  0  2  0  0  0  0  0  0  0  0  0
   -1.8888    3.8456    2.3576 C   0  0  0  0  0  0  0  0  0  0  0  0
   -2.7254    3.9472    1.4626 O   0  0  0  0  0  0  0  0  0  0  0  0
    0.4718    4.3893    1.7098 C   0  0  0  0  0  0  0  0  0  0  0  0
   -1.2796    2.3745    0.3925 H   0  0  0  0  0  0  0  0  0  0  0  0
   -0.1346    2.8042    3.0445 H   0  0  0  0  0  0  0  0  0  0  0  0
    0.1321    4.8859    0.7935 H   0  0  0  0  0  0  0  0  0  0  0  0
    0.5607    5.1552    2.4873 H   0  0  0  0  0  0  0  0  0  0  0  0
    1.4700    3.9820    1.5165 H   0  0  0  0  0  0  0  0  0  0  0  0
   -2.0785    4.2561    3.6697 N   0  0  0  0  0  0  0  0  0  0  0  0
   -3.3083    4.8591    4.1279 C   0  0  0  0  0  0  0  0  0  0  0  0
   -1.3449    4.0971    4.3540 H   0  0  0  0  0  0  0  0  0  0  0  0
   -3.2330    5.9536    4.0471 H   0  0  0  0  0  0  0  0  0  0  0  0
   -4.1444    4.5026    3.5085 H   0  0  0  0  0  0  0  0  0  0  0  0
   -3.4845    4.5804    5.1773 H   0  0  0  0  0  0  0  0  0  0  0  0
  1  3  1  0  0  0  0
  1  7  1  0  0  0  0
  1  2  2  0  0  0  0
 39 40  1  0  0  0  0
 40 48  1  0  0  0  0
 40 41  2  0  0  0  0
  8  9  1  0  0  0  0
  9 17  1  0  0  0  0
  9 10  2  0  0  0  0
 18 19  1  0  0  0  0
 19 38  1  0  0  0  0
 19 20  2  0  0  0  0
 39 42  1  0  0  0  0
  8 11  1  0  0  0  0
 48 49  1  0  0  0  0
 22 23  1  0  0  0  0
 21 22  1  0  0  0  0
 23 24  1  0  0  0  0
 18 21  1  0  0  0  0
 24 25  1  0  0  0  0
 38 39  1  0  0  0  0
  7  8  1  0  0  0  0
 17 18  1  0  0  0  0
  3  4  1  0  0  0  0
  3  5  1  0  0  0  0
  3  6  1  0  0  0  0
 42 45  1  0  0  0  0
 42 46  1  0  0  0  0
 42 47  1  0  0  0  0
 11 14  1  0  0  0  0
 11 15  1  0  0  0  0
 11 16  1  0  0  0  0
 49 51  1  0  0  0  0
 49 52  1  0  0  0  0
 49 53  1  0  0  0  0
 22 30  1  0  0  0  0
 22 31  1  0  0  0  0
 23 32  1  0  0  0  0
 23 33  1  0  0  0  0
 21 28  1  0  0  0  0
 21 29  1  0  0  0  0
 24 34  1  0  0  0  0
 24 35  1  0  0  0  0
 39 44  1  0  0  0  0
  8 13  1  0  0  0  0
 18 27  1  0  0  0  0
 25 36  1  0  0  0  0
 25 37  1  0  0  0  0
 48 50  1  0  0  0  0
  7 12  1  0  0  0  0
 38 43  1  0  0  0  0
 17 26  1  0  0  0  0
M  END
$$$$

  -OEChem-05262214473D

 53 52  0     1  0  0  0  0  0999 V2000
   -1.0338   -5.6785    0.1476 C   0  0  0  0  0  0  0  0  0  0  0  0
   -2.0514   -5.7797    0.8227 O   0  0  0  0  0  0  0  0  0  0  0  0
   -0.6558   -6.7819   -0.7841 C   0  0  0  0  0  0  0  0  0  0  0  0
   -0.0111   -7.5354   -0.3038 H   0  0  0  0  0  0  0  0  0  0  0  0
   -1.5317   -7.3401   -1.1520 H   0  0  0  0  0  0  0  0  0  0  0  0
   -0.1109   -6.4687   -1.6890 H   0  0  0  0  0  0  0  0  0  0  0  0
   -0.1543   -4.6083    0.1480 N   0  0  0  0  0  0  0  0  0  0  0  0
   -0.3302   -3.4398    0.9696 C   0  0  2  0  0  0  0  0  0  0  0  0
    0.2328   -2.2439    0.2131 C   0  0  0  0  0  0  0  0  0  0  0  0
    1.2097   -2.3192   -0.5294 O   0  0  0  0  0  0  0  0  0  0  0  0
    0.3557   -3.6024    2.3171 C   0  0  0  0  0  0  0  0  0  0  0  0
    0.6584   -4.6506   -0.4643 H   0  0  0  0  0  0  0  0  0  0  0  0
   -1.4091   -3.3101    1.1082 H   0  0  0  0  0  0  0  0  0  0  0  0
    1.4375   -3.7336    2.1985 H   0  0  0  0  0  0  0  0  0  0  0  0
    0.1969   -2.7243    2.9517 H   0  0  0  0  0  0  0  0  0  0  0  0
   -0.0294   -4.4803    2.8470 H   0  0  0  0  0  0  0  0  0  0  0  0
   -0.4616   -1.0893    0.5050 N   0  0  0  0  0  0  0  0  0  0  0  0
   -0.0884    0.2050   -0.0621 C   0  0  2  0  0  0  0  0  0  0  0  0
    0.2428    1.1397    1.0979 C   0  0  0  0  0  0  0  0  0  0  0  0
    1.2785    1.0520    1.7544 O   0  0  0  0  0  0  0  0  0  0  0  0
   -1.2163    0.8177   -0.9057 C   0  0  0  0  0  0  0  0  0  0  0  0
   -1.4994    0.0431   -2.1970 C   0  0  0  0  0  0  0  0  0  0  0  0
   -2.6129    0.7092   -3.0098 C   0  0  0  0  0  0  0  0  0  0  0  0
   -2.9117   -0.0772   -4.2852 C   0  0  0  0  0  0  0  0  0  0  0  0
   -3.9896    0.5601   -5.0320 N   0  0  0  0  0  0  0  0  0  0  0  0
   -1.2794   -1.1113    1.0935 H   0  0  0  0  0  0  0  0  0  0  0  0
    0.8075    0.0695   -0.6799 H   0  0  0  0  0  0  0  0  0  0  0  0
   -0.9509    1.8513   -1.1641 H   0  0  0  0  0  0  0  0  0  0  0  0
   -2.1359    0.8844   -0.3084 H   0  0  0  0  0  0  0  0  0  0  0  0
   -1.7941   -0.9862   -1.9634 H   0  0  0  0  0  0  0  0  0  0  0  0
   -0.5857   -0.0082   -2.8012 H   0  0  0  0  0  0  0  0  0  0  0  0
   -3.5193    0.7810   -2.3955 H   0  0  0  0  0  0  0  0  0  0  0  0
   -2.3151    1.7335   -3.2673 H   0  0  0  0  0  0  0  0  0  0  0  0
   -3.1996   -1.1049   -4.0382 H   0  0  0  0  0  0  0  0  0  0  0  0
   -2.0185   -0.1235   -4.9172 H   0  0  0  0  0  0  0  0  0  0  0  0
   -4.2976    1.3541   -4.5210 H   0  0  0  0  0  0  0  0  0  0  0  0
   -3.6366    0.8317   -5.9198 H   0  0  0  0  0  0  0  0  0  0  0  0
   -0.7648    2.0669    1.3257 N   0  0  0  0  0  0  0  0  0  0  0  0
   -0.7102    3.0535    2.3804 C   0  0  2  0  0  0  0  0  0  0  0  0
   -2.1330    3.3082    2.8603 C   0  0  0  0  0  0  0  0  0  0  0  0
   -3.1088    3.2754    2.1134 O   0  0  0  0  0  0  0  0  0  0  0  0
   -0.0598    4.3415    1.9000 C   0  0  0  0  0  0  0  0  0  0  0  0
   -1.5833    2.0702    0.7243 H   0  0  0  0  0  0  0  0  0  0  0  0
   -0.1228    2.6144    3.1941 H   0  0  0  0  0  0  0  0  0  0  0  0
   -0.6343    4.7961    1.0846 H   0  0  0  0  0  0  0  0  0  0  0  0
    0.0066    5.0777    2.7079 H   0  0  0  0  0  0  0  0  0  0  0  0
    0.9526    4.1516    1.5275 H   0  0  0  0  0  0  0  0  0  0  0  0
   -2.1800    3.6189    4.2121 N   0  0  0  0  0  0  0  0  0  0  0  0
   -3.4106    3.9431    4.8952 C   0  0  0  0  0  0  0  0  0  0  0  0
   -1.3273    3.5834    4.7629 H   0  0  0  0  0  0  0  0  0  0  0  0
   -3.5613    5.0327    4.8828 H   0  0  0  0  0  0  0  0  0  0  0  0
   -4.2527    3.4508    4.3868 H   0  0  0  0  0  0  0  0  0  0  0  0
   -3.3552    3.5926    5.9363 H   0  0  0  0  0  0  0  0  0  0  0  0
  1  3  1  0  0  0  0
  1  7  1  0  0  0  0
  1  2  2  0  0  0  0
 39 40  1  0  0  0  0
 40 48  1  0  0  0  0
 40 41  2  0  0  0  0
  8  9  1  0  0  0  0
  9 17  1  0  0  0  0
  9 10  2  0  0  0  0
 18 19  1  0  0  0  0
 19 38  1  0  0  0  0
 19 20  2  0  0  0  0
 39 42  1  0  0  0  0
  8 11  1  0  0  0  0
 48 49  1  0  0  0  0
 22 23  1  0  0  0  0
 21 22  1  0  0  0  0
 23 24  1  0  0  0  0
 18 21  1  0  0  0  0
 24 25  1  0  0  0  0
 38 39  1  0  0  0  0
  7  8  1  0  0  0  0
 17 18  1  0  0  0  0
  3  4  1  0  0  0  0
  3  5  1  0  0  0  0
  3  6  1  0  0  0  0
 42 45  1  0  0  0  0
 42 46  1  0  0  0  0
 42 47  1  0  0  0  0
 11 14  1  0  0  0  0
 11 15  1  0  0  0  0
 11 16  1  0  0  0  0
 49 51  1  0  0  0  0
 49 52  1  0  0  0  0
 49 53  1  0  0  0  0
 22 30  1  0  0  0  0
 22 31  1  0  0  0  0
 23 32  1  0  0  0  0
 23 33  1  0  0  0  0
 21 28  1  0  0  0  0
 21 29  1  0  0  0  0
 24 34  1  0  0  0  0
 24 35  1  0  0  0  0
 39 44  1  0  0  0  0
  8 13  1  0  0  0  0
 18 27  1  0  0  0  0
 25 36  1  0  0  0  0
 25 37  1  0  0  0  0
 48 50  1  0  0  0  0
  7 12  1  0  0  0  0
 38 43  1  0  0  0  0
 17 26  1  0  0  0  0
M  END
$$$$

  -OEChem-05262214473D

 53 52  0     1  0  0  0  0  0999 V2000
   -1.0338   -5.6785    0.1476 C   0  0  0  0  0  0  0  0  0  0  0  0
   -2.0514   -5.7797    0.8227 O   0  0  0  0  0  0  0  0  0  0  0  0
   -0.6558   -6.7819   -0.7841 C   0  0  0  0  0  0  0  0  0  0  0  0
   -0.0111   -7.5354   -0.3038 H   0  0  0  0  0  0  0  0  0  0  0  0
   -1.5317   -7.3401   -1.1520 H   0  0  0  0  0  0  0  0  0  0  0  0
   -0.1109   -6.4687   -1.6890 H   0  0  0  0  0  0  0  0  0  0  0  0
   -0.1543   -4.6083    0.1480 N   0  0  0  0  0  0  0  0  0  0  0  0
   -0.3302   -3.4398    0.9696 C   0  0  2  0  0  0  0  0  0  0  0  0
    0.2328   -2.2439    0.2131 C   0  0  0  0  0  0  0  0  0  0  0  0
    1.2097   -2.3192   -0.5294 O   0  0  0  0  0  0  0  0  0  0  0  0
    0.3557   -3.6024    2.3171 C   0  0  0  0  0  0  0  0  0  0  0  0
    0.6584   -4.6506   -0.4643 H   0  0  0  0  0  0  0  0  0  0  0  0
   -1.4091   -3.3101    1.1082 H   0  0  0  0  0  0  0  0  0  0  0  0
    1.4375   -3.7336    2.1985 H   0  0  0  0  0  0  0  0  0  0  0  0
    0.1969   -2.7243    2.9517 H   0  0  0  0  0  0  0  0  0  0  0  0
   -0.0294   -4.4803    2.8470 H   0  0  0  0  0  0  0  0  0  0  0  0
   -0.4616   -1.0893    0.5050 N   0  0  0  0  0  0  0  0  0  0  0  0
   -0.0884    0.2050   -0.0621 C   0  0  2  0  0  0  0  0  0  0  0  0
    0.2428    1.1397    1.0979 C   0  0  0  0  0  0  0  0  0  0  0  0
    1.3695    1.2359    1.5802 O   0  0  0  0  0  0  0  0  0  0  0  0
   -1.2163    0.8177   -0.9057 C   0  0  0  0  0  0  0  0  0  0  0  0
   -1.4994    0.0431   -2.1970 C   0  0  0  0  0  0  0  0  0  0  0  0
   -2.6129    0.7092   -3.0098 C   0  0  0  0  0  0  0  0  0  0  0  0
   -2.9117   -0.0772   -4.2852 C   0  0  0  0  0  0  0  0  0  0  0  0
   -3.9896    0.5601   -5.0320 N   0  0  0  0  0  0  0  0  0  0  0  0
   -1.2794   -1.1113    1.0935 H   0  0  0  0  0  0  0  0  0  0  0  0
    0.8075    0.0695   -0.6799 H   0  0  0  0  0  0  0  0  0  0  0  0
   -0.9509    1.8513   -1.1641 H   0  0  0  0  0  0  0  0  0  0  0  0
   -2.1359    0.8844   -0.3084 H   0  0  0  0  0  0  0  0  0  0  0  0
   -1.7941   -0.9862   -1.9634 H   0  0  0  0  0  0  0  0  0  0  0  0
   -0.5857   -0.0082   -2.8012 H   0  0  0  0  0  0  0  0  0  0  0  0
   -3.5193    0.7810   -2.3955 H   0  0  0  0  0  0  0  0  0  0  0  0
   -2.3151    1.7335   -3.2673 H   0  0  0  0  0  0  0  0  0  0  0  0
   -3.1996   -1.1049   -4.0382 H   0  0  0  0  0  0  0  0  0  0  0  0
   -2.0185   -0.1235   -4.9172 H   0  0  0  0  0  0  0  0  0  0  0  0
   -4.2976    1.3541   -4.5210 H   0  0  0  0  0  0  0  0  0  0  0  0
   -3.6366    0.8317   -5.9198 H   0  0  0  0  0  0  0  0  0  0  0  0
   -0.8729    1.8352    1.5432 N   0  0  0  0  0  0  0  0  0  0  0  0
   -0.8366    2.7693    2.6454 C   0  0  2  0  0  0  0  0  0  0  0  0
   -2.1834    2.7128    3.3543 C   0  0  0  0  0  0  0  0  0  0  0  0
   -3.2438    2.5144    2.7651 O   0  0  0  0  0  0  0  0  0  0  0  0
   -0.5338    4.1801    2.1653 C   0  0  0  0  0  0  0  0  0  0  0  0
   -1.7642    1.6979    1.0759 H   0  0  0  0  0  0  0  0  0  0  0  0
   -0.0503    2.4250    3.3260 H   0  0  0  0  0  0  0  0  0  0  0  0
   -1.3108    4.5422    1.4823 H   0  0  0  0  0  0  0  0  0  0  0  0
   -0.4784    4.8815    3.0044 H   0  0  0  0  0  0  0  0  0  0  0  0
    0.4212    4.2130    1.6298 H   0  0  0  0  0  0  0  0  0  0  0  0
   -2.0667    2.9530    4.7163 N   0  0  0  0  0  0  0  0  0  0  0  0
   -3.2075    2.9952    5.6010 C   0  0  0  0  0  0  0  0  0  0  0  0
   -1.1445    3.0677    5.1263 H   0  0  0  0  0  0  0  0  0  0  0  0
   -3.5648    4.0317    5.6904 H   0  0  0  0  0  0  0  0  0  0  0  0
   -4.0111    2.3643    5.1933 H   0  0  0  0  0  0  0  0  0  0  0  0
   -2.9157    2.6212    6.5935 H   0  0  0  0  0  0  0  0  0  0  0  0
  1  3  1  0  0  0  0
  1  7  1  0  0  0  0
  1  2  2  0  0  0  0
 39 40  1  0  0  0  0
 40 48  1  0  0  0  0
 40 41  2  0  0  0  0
  8  9  1  0  0  0  0
  9 17  1  0  0  0  0
  9 10  2  0  0  0  0
 18 19  1  0  0  0  0
 19 38  1  0  0  0  0
 19 20  2  0  0  0  0
 39 42  1  0  0  0  0
  8 11  1  0  0  0  0
 48 49  1  0  0  0  0
 22 23  1  0  0  0  0
 21 22  1  0  0  0  0
 23 24  1  0  0  0  0
 18 21  1  0  0  0  0
 24 25  1  0  0  0  0
 38 39  1  0  0  0  0
  7  8  1  0  0  0  0
 17 18  1  0  0  0  0
  3  4  1  0  0  0  0
  3  5  1  0  0  0  0
  3  6  1  0  0  0  0
 42 45  1  0  0  0  0
 42 46  1  0  0  0  0
 42 47  1  0  0  0  0
 11 14  1  0  0  0  0
 11 15  1  0  0  0  0
 11 16  1  0  0  0  0
 49 51  1  0  0  0  0
 49 52  1  0  0  0  0
 49 53  1  0  0  0  0
 22 30  1  0  0  0  0
 22 31  1  0  0  0  0
 23 32  1  0  0  0  0
 23 33  1  0  0  0  0
 21 28  1  0  0  0  0
 21 29  1  0  0  0  0
 24 34  1  0  0  0  0
 24 35  1  0  0  0  0
 39 44  1  0  0  0  0
  8 13  1  0  0  0  0
 18 27  1  0  0  0  0
 25 36  1  0  0  0  0
 25 37  1  0  0  0  0
 48 50  1  0  0  0  0
  7 12  1  0  0  0  0
 38 43  1  0  0  0  0
 17 26  1  0  0  0  0
M  END
$$$$

  -OEChem-05262214473D

 53 52  0     1  0  0  0  0  0999 V2000
   -1.0338   -5.6785    0.1476 C   0  0  0  0  0  0  0  0  0  0  0  0
   -2.0514   -5.7797    0.8227 O   0  0  0  0  0  0  0  0  0  0  0  0
   -0.6558   -6.7819   -0.7841 C   0  0  0  0  0  0  0  0  0  0  0  0
   -0.0111   -7.5354   -0.3038 H   0  0  0  0  0  0  0  0  0  0  0  0
   -1.5317   -7.3401   -1.1520 H   0  0  0  0  0  0  0  0  0  0  0  0
   -0.1109   -6.4687   -1.6890 H   0  0  0  0  0  0  0  0  0  0  0  0
   -0.1543   -4.6083    0.1480 N   0  0  0  0  0  0  0  0  0  0  0  0
   -0.3302   -3.4398    0.9696 C   0  0  2  0  0  0  0  0  0  0  0  0
    0.2328   -2.2439    0.2131 C   0  0  0  0  0  0  0  0  0  0  0  0
    1.2097   -2.3192   -0.5294 O   0  0  0  0  0  0  0  0  0  0  0  0
    0.3557   -3.6024    2.3171 C   0  0  0  0  0  0  0  0  0  0  0  0
    0.6584   -4.6506   -0.4643 H   0  0  0  0  0  0  0  0  0  0  0  0
   -1.4091   -3.3101    1.1082 H   0  0  0  0  0  0  0  0  0  0  0  0
    1.4375   -3.7336    2.1985 H   0  0  0  0  0  0  0  0  0  0  0  0
    0.1969   -2.7243    2.9517 H   0  0  0  0  0  0  0  0  0  0  0  0
   -0.0294   -4.4803    2.8470 H   0  0  0  0  0  0  0  0  0  0  0  0
   -0.4616   -1.0893    0.5050 N   0  0  0  0  0  0  0  0  0  0  0  0
   -0.0884    0.2050   -0.0621 C   0  0  2  0  0  0  0  0  0  0  0  0
    0.2428    1.1397    1.0979 C   0  0  0  0  0  0  0  0  0  0  0  0
    1.3936    1.4412    1.4080 O   0  0  0  0  0  0  0  0  0  0  0  0
   -1.2163    0.8177   -0.9057 C   0  0  0  0  0  0  0  0  0  0  0  0
   -1.4994    0.0431   -2.1970 C   0  0  0  0  0  0  0  0  0  0  0  0
   -2.6129    0.7092   -3.0098 C   0  0  0  0  0  0  0  0  0  0  0  0
   -2.9117   -0.0772   -4.2852 C   0  0  0  0  0  0  0  0  0  0  0  0
   -3.9896    0.5601   -5.0320 N   0  0  0  0  0  0  0  0  0  0  0  0
   -1.2794   -1.1113    1.0935 H   0  0  0  0  0  0  0  0  0  0  0  0
    0.8075    0.0695   -0.6799 H   0  0  0  0  0  0  0  0  0  0  0  0
   -0.9509    1.8513   -1.1641 H   0  0  0  0  0  0  0  0  0  0  0  0
   -2.1359    0.8844   -0.3084 H   0  0  0  0  0  0  0  0  0  0  0  0
   -1.7941   -0.9862   -1.9634 H   0  0  0  0  0  0  0  0  0  0  0  0
   -0.5857   -0.0082   -2.8012 H   0  0  0  0  0  0  0  0  0  0  0  0
   -3.5193    0.7810   -2.3955 H   0  0  0  0  0  0  0  0  0  0  0  0
   -2.3151    1.7335   -3.2673 H   0  0  0  0  0  0  0  0  0  0  0  0
   -3.1996   -1.1049   -4.0382 H   0  0  0  0  0  0  0  0  0  0  0  0
   -2.0185   -0.1235   -4.9172 H   0  0  0  0  0  0  0  0  0  0  0  0
   -4.2976    1.3541   -4.5210 H   0  0  0  0  0  0  0  0  0  0  0  0
   -3.6366    0.8317   -5.9198 H   0  0  0  0  0  0  0  0  0  0  0  0
   -0.8973    1.5779    1.7575 N   0  0  0  0  0  0  0  0  0  0  0  0
   -0.8608    2.4550    2.9056 C   0  0  2  0  0  0  0  0  0  0  0  0
   -2.0366    2.1001    3.8061 C   0  0  0  0  0  0  0  0  0  0  0  0
   -3.1211    1.7162    3.3732 O   0  0  0  0  0  0  0  0  0  0  0  0
   -0.9178    3.9161    2.4877 C   0  0  0  0  0  0  0  0  0  0  0  0
   -1.8099    1.2830    1.4233 H   0  0  0  0  0  0  0  0  0  0  0  0
    0.0779    2.2488    3.4313 H   0  0  0  0  0  0  0  0  0  0  0  0
   -1.8513    4.1416    1.9593 H   0  0  0  0  0  0  0  0  0  0  0  0
   -0.8612    4.5798    3.3567 H   0  0  0  0  0  0  0  0  0  0  0  0
   -0.0881    4.1620    1.8162 H   0  0  0  0  0  0  0  0  0  0  0  0
   -1.7464    2.3038    5.1479 N   0  0  0  0  0  0  0  0  0  0  0  0
   -2.7130    2.0798    6.1974 C   0  0  0  0  0  0  0  0  0  0  0  0
   -0.8088    2.5851    5.4193 H   0  0  0  0  0  0  0  0  0  0  0  0
   -3.2432    3.0187    6.4147 H   0  0  0  0  0  0  0  0  0  0  0  0
   -3.4362    1.3170    5.8729 H   0  0  0  0  0  0  0  0  0  0  0  0
   -2.1959    1.7325    7.1041 H   0  0  0  0  0  0  0  0  0  0  0  0
  1  3  1  0  0  0  0
  1  7  1  0  0  0  0
  1  2  2  0  0  0  0
 39 40  1  0  0  0  0
 40 48  1  0  0  0  0
 40 41  2  0  0  0  0
  8  9  1  0  0  0  0
  9 17  1  0  0  0  0
  9 10  2  0  0  0  0
 18 19  1  0  0  0  0
 19 38  1  0  0  0  0
 19 20  2  0  0  0  0
 39 42  1  0  0  0  0
  8 11  1  0  0  0  0
 48 49  1  0  0  0  0
 22 23  1  0  0  0  0
 21 22  1  0  0  0  0
 23 24  1  0  0  0  0
 18 21  1  0  0  0  0
 24 25  1  0  0  0  0
 38 39  1  0  0  0  0
  7  8  1  0  0  0  0
 17 18  1  0  0  0  0
  3  4  1  0  0  0  0
  3  5  1  0  0  0  0
  3  6  1  0  0  0  0
 42 45  1  0  0  0  0
 42 46  1  0  0  0  0
 42 47  1  0  0  0  0
 11 14  1  0  0  0  0
 11 15  1  0  0  0  0
 11 16  1  0  0  0  0
 49 51  1  0  0  0  0
 49 52  1  0  0  0  0
 49 53  1  0  0  0  0
 22 30  1  0  0  0  0
 22 31  1  0  0  0  0
 23 32  1  0  0  0  0
 23 33  1  0  0  0  0
 21 28  1  0  0  0  0
 21 29  1  0  0  0  0
 24 34  1  0  0  0  0
 24 35  1  0  0  0  0
 39 44  1  0  0  0  0
  8 13  1  0  0  0  0
 18 27  1  0  0  0  0
 25 36  1  0  0  0  0
 25 37  1  0  0  0  0
 48 50  1  0  0  0  0
  7 12  1  0  0  0  0
 38 43  1  0  0  0  0
 17 26  1  0  0  0  0
M  END
$$$$

  -OEChem-05262214473D

 53 52  0     1  0  0  0  0  0999 V2000
   -1.0338   -5.6785    0.1476 C   0  0  0  0  0  0  0  0  0  0  0  0
   -2.0514   -5.7797    0.8227 O   0  0  0  0  0  0  0  0  0  0  0  0
   -0.6558   -6.7819   -0.7841 C   0  0  0  0  0  0  0  0  0  0  0  0
   -0.0111   -7.5354   -0.3038 H   0  0  0  0  0  0  0  0  0  0  0  0
   -1.5317   -7.3401   -1.1520 H   0  0  0  0  0  0  0  0  0  0  0  0
   -0.1109   -6.4687   -1.6890 H   0  0  0  0  0  0  0  0  0  0  0  0
   -0.1543   -4.6083    0.1480 N   0  0  0  0  0  0  0  0  0  0  0  0
   -0.3302   -3.4398    0.9696 C   0  0  2  0  0  0  0  0  0  0  0  0
    0.2328   -2.2439    0.2131 C   0  0  0  0  0  0  0  0  0  0  0  0
    1.2097   -2.3192   -0.5294 O   0  0  0  0  0  0  0  0  0  0  0  0
    0.3557   -3.6024    2.3171 C   0  0  0  0  0  0  0  0  0  0  0  0
    0.6584   -4.6506   -0.4643 H   0  0  0  0  0  0  0  0  0  0  0  0
   -1.4091   -3.3101    1.1082 H   0  0  0  0  0  0  0  0  0  0  0  0
    1.4375   -3.7336    2.1985 H   0  0  0  0  0  0  0  0  0  0  0  0
    0.1969   -2.7243    2.9517 H   0  0  0  0  0  0  0  0  0  0  0  0
   -0.0294   -4.4803    2.8470 H   0  0  0  0  0  0  0  0  0  0  0  0
   -0.4616   -1.0893    0.5050 N   0  0  0  0  0  0  0  0  0  0  0  0
   -0.0884    0.2050   -0.0621 C   0  0  2  0  0  0  0  0  0  0  0  0
    0.2428    1.1397    1.0979 C   0  0  0  0  0  0  0  0  0  0  0  0
    1.3492    1.6539    1.2492 O   0  0  0  0  0  0  0  0  0  0  0  0
   -1.2163    0.8177   -0.9057 C   0  0  0  0  0  0  0  0  0  0  0  0
   -1.4994    0.0431   -2.1970 C   0  0  0  0  0  0  0  0  0  0  0  0
   -2.6129    0.7092   -3.0098 C   0  0  0  0  0  0  0  0  0  0  0  0
   -2.9117   -0.0772   -4.2852 C   0  0  0  0  0  0  0  0  0  0  0  0
   -3.9896    0.5601   -5.0320 N   0  0  0  0  0  0  0  0  0  0  0  0
   -1.2794   -1.1113    1.0935 H   0  0  0  0  0  0  0  0  0  0  0  0
    0.8075    0.0695   -0.6799 H   0  0  0  0  0  0  0  0  0  0  0  0
   -0.9509    1.8513   -1.1641 H   0  0  0  0  0  0  0  0  0  0  0  0
   -2.1359    0.8844   -0.3084 H   0  0  0  0  0  0  0  0  0  0  0  0
   -1.7941   -0.9862   -1.9634 H   0  0  0  0  0  0  0  0  0  0  0  0
   -0.5857   -0.0082   -2.8012 H   0  0  0  0  0  0  0  0  0  0  0  0
   -3.5193    0.7810   -2.3955 H   0  0  0  0  0  0  0  0  0  0  0  0
   -2.3151    1.7335   -3.2673 H   0  0  0  0  0  0  0  0  0  0  0  0
   -3.1996   -1.1049   -4.0382 H   0  0  0  0  0  0  0  0  0  0  0  0
   -2.0185   -0.1235   -4.9172 H   0  0  0  0  0  0  0  0  0  0  0  0
   -4.2976    1.3541   -4.5210 H   0  0  0  0  0  0  0  0  0  0  0  0
   -3.6366    0.8317   -5.9198 H   0  0  0  0  0  0  0  0  0  0  0  0
   -0.8362    1.3125    1.9539 N   0  0  0  0  0  0  0  0  0  0  0  0
   -0.7810    2.1320    3.1430 C   0  0  2  0  0  0  0  0  0  0  0  0
   -1.7027    1.5118    4.1848 C   0  0  0  0  0  0  0  0  0  0  0  0
   -2.7493    0.9352    3.8963 O   0  0  0  0  0  0  0  0  0  0  0  0
   -1.1856    3.5674    2.8451 C   0  0  0  0  0  0  0  0  0  0  0  0
   -1.7174    0.8537    1.7428 H   0  0  0  0  0  0  0  0  0  0  0  0
    0.2531    2.0980    3.5029 H   0  0  0  0  0  0  0  0  0  0  0  0
   -2.2189    3.6215    2.4833 H   0  0  0  0  0  0  0  0  0  0  0  0
   -1.1158    4.1934    3.7408 H   0  0  0  0  0  0  0  0  0  0  0  0
   -0.5403    4.0022    2.0741 H   0  0  0  0  0  0  0  0  0  0  0  0
   -1.2407    1.7154    5.4776 N   0  0  0  0  0  0  0  0  0  0  0  0
   -1.9607    1.2594    6.6437 C   0  0  0  0  0  0  0  0  0  0  0  0
   -0.3432    2.1685    5.6220 H   0  0  0  0  0  0  0  0  0  0  0  0
   -2.6185    2.0628    7.0066 H   0  0  0  0  0  0  0  0  0  0  0  0
   -2.5670    0.3804    6.3795 H   0  0  0  0  0  0  0  0  0  0  0  0
   -1.2448    0.9871    7.4332 H   0  0  0  0  0  0  0  0  0  0  0  0
  1  3  1  0  0  0  0
  1  7  1  0  0  0  0
  1  2  2  0  0  0  0
 39 40  1  0  0  0  0
 40 48  1  0  0  0  0
 40 41  2  0  0  0  0
  8  9  1  0  0  0  0
  9 17  1  0  0  0  0
  9 10  2  0  0  0  0
 18 19  1  0  0  0  0
 19 38  1  0  0  0  0
 19 20  2  0  0  0  0
 39 42  1  0  0  0  0
  8 11  1  0  0  0  0
 48 49  1  0  0  0  0
 22 23  1  0  0  0  0
 21 22  1  0  0  0  0
 23 24  1  0  0  0  0
 18 21  1  0  0  0  0
 24 25  1  0  0  0  0
 38 39  1  0  0  0  0
  7  8  1  0  0  0  0
 17 18  1  0  0  0  0
  3  4  1  0  0  0  0
  3  5  1  0  0  0  0
  3  6  1  0  0  0  0
 42 45  1  0  0  0  0
 42 46  1  0  0  0  0
 42 47  1  0  0  0  0
 11 14  1  0  0  0  0
 11 15  1  0  0  0  0
 11 16  1  0  0  0  0
 49 51  1  0  0  0  0
 49 52  1  0  0  0  0
 49 53  1  0  0  0  0
 22 30  1  0  0  0  0
 22 31  1  0  0  0  0
 23 32  1  0  0  0  0
 23 33  1  0  0  0  0
 21 28  1  0  0  0  0
 21 29  1  0  0  0  0
 24 34  1  0  0  0  0
 24 35  1  0  0  0  0
 39 44  1  0  0  0  0
  8 13  1  0  0  0  0
 18 27  1  0  0  0  0
 25 36  1  0  0  0  0
 25 37  1  0  0  0  0
 48 50  1  0  0  0  0
  7 12  1  0  0  0  0
 38 43  1  0  0  0  0
 17 26  1  0  0  0  0
M  END
$$$$

  -OEChem-05262214473D

 53 52  0     1  0  0  0  0  0999 V2000
   -1.0338   -5.6785    0.1476 C   0  0  0  0  0  0  0  0  0  0  0  0
   -2.0514   -5.7797    0.8227 O   0  0  0  0  0  0  0  0  0  0  0  0
   -0.6558   -6.7819   -0.7841 C   0  0  0  0  0  0  0  0  0  0  0  0
   -0.0111   -7.5354   -0.3038 H   0  0  0  0  0  0  0  0  0  0  0  0
   -1.5317   -7.3401   -1.1520 H   0  0  0  0  0  0  0  0  0  0  0  0
   -0.1109   -6.4687   -1.6890 H   0  0  0  0  0  0  0  0  0  0  0  0
   -0.1543   -4.6083    0.1480 N   0  0  0  0  0  0  0  0  0  0  0  0
   -0.3302   -3.4398    0.9696 C   0  0  2  0  0  0  0  0  0  0  0  0
    0.2328   -2.2439    0.2131 C   0  0  0  0  0  0  0  0  0  0  0  0
    1.2097   -2.3192   -0.5294 O   0  0  0  0  0  0  0  0  0  0  0  0
    0.3557   -3.6024    2.3171 C   0  0  0  0  0  0  0  0  0  0  0  0
    0.6584   -4.6506   -0.4643 H   0  0  0  0  0  0  0  0  0  0  0  0
   -1.4091   -3.3101    1.1082 H   0  0  0  0  0  0  0  0  0  0  0  0
    1.4375   -3.7336    2.1985 H   0  0  0  0  0  0  0  0  0  0  0  0
    0.1969   -2.7243    2.9517 H   0  0  0  0  0  0  0  0  0  0  0  0
   -0.0294   -4.4803    2.8470 H   0  0  0  0  0  0  0  0  0  0  0  0
   -0.4616   -1.0893    0.5050 N   0  0  0  0  0  0  0  0  0  0  0  0
   -0.0884    0.2050   -0.0621 C   0  0  2  0  0  0  0  0  0  0  0  0
    0.2428    1.1397    1.0979 C   0  0  0  0  0  0  0  0  0  0  0  0
    1.2393    1.8595    1.1149 O   0  0  0  0  0  0  0  0  0  0  0  0
   -1.2163    0.8177   -0.9057 C   0  0  0  0  0  0  0  0  0  0  0  0
   -1.4994    0.0431   -2.1970 C   0  0  0  0  0  0  0  0  0  0  0  0
   -2.6129    0.7092   -3.0098 C   0  0  0  0  0  0  0  0  0  0  0  0
   -2.9117   -0.0772   -4.2852 C   0  0  0  0  0  0  0  0  0  0  0  0
   -3.9896    0.5601   -5.0320 N   0  0  0  0  0  0  0  0  0  0  0  0
   -1.2794   -1.1113    1.0935 H   0  0  0  0  0  0  0  0  0  0  0  0
    0.8075    0.0695   -0.6799 H   0  0  0  0  0  0  0  0  0  0  0  0
   -0.9509    1.8513   -1.1641 H   0  0  0  0  0  0  0  0  0  0  0  0
   -2.1359    0.8844   -0.3084 H   0  0  0  0  0  0  0  0  0  0  0  0
   -1.7941   -0.9862   -1.9634 H   0  0  0  0  0  0  0  0  0  0  0  0
   -0.5857   -0.0082   -2.8012 H   0  0  0  0  0  0  0  0  0  0  0  0
   -3.5193    0.7810   -2.3955 H   0  0  0  0  0  0  0  0  0  0  0  0
   -2.3151    1.7335   -3.2673 H   0  0  0  0  0  0  0  0  0  0  0  0
   -3.1996   -1.1049   -4.0382 H   0  0  0  0  0  0  0  0  0  0  0  0
   -2.0185   -0.1235   -4.9172 H   0  0  0  0  0  0  0  0  0  0  0  0
   -4.2976    1.3541   -4.5210 H   0  0  0  0  0  0  0  0  0  0  0  0
   -3.6366    0.8317   -5.9198 H   0  0  0  0  0  0  0  0  0  0  0  0
   -0.6939    1.0572    2.1190 N   0  0  0  0  0  0  0  0  0  0  0  0
   -0.6028    1.8224    3.3416 C   0  0  2  0  0  0  0  0  0  0  0  0
   -1.2043    0.9879    4.4647 C   0  0  0  0  0  0  0  0  0  0  0  0
   -2.1535    0.2246    4.2988 O   0  0  0  0  0  0  0  0  0  0  0  0
   -1.3191    3.1578    3.2132 C   0  0  0  0  0  0  0  0  0  0  0  0
   -1.4930    0.4393    2.0126 H   0  0  0  0  0  0  0  0  0  0  0  0
    0.4633    1.9828    3.5357 H   0  0  0  0  0  0  0  0  0  0  0  0
   -2.3886    3.0174    3.0185 H   0  0  0  0  0  0  0  0  0  0  0  0
   -1.2249    3.7484    4.1305 H   0  0  0  0  0  0  0  0  0  0  0  0
   -0.9049    3.7443    2.3860 H   0  0  0  0  0  0  0  0  0  0  0  0
   -0.5844    1.2281    5.6829 N   0  0  0  0  0  0  0  0  0  0  0  0
   -1.0019    0.5899    6.9094 C   0  0  0  0  0  0  0  0  0  0  0  0
    0.2207    1.8464    5.7206 H   0  0  0  0  0  0  0  0  0  0  0  0
   -1.7332    1.2292    7.4256 H   0  0  0  0  0  0  0  0  0  0  0  0
   -1.4630   -0.3818    6.6785 H   0  0  0  0  0  0  0  0  0  0  0  0
   -0.1273    0.4357    7.5585 H   0  0  0  0  0  0  0  0  0  0  0  0
  1  3  1  0  0  0  0
  1  7  1  0  0  0  0
  1  2  2  0  0  0  0
 39 40  1  0  0  0  0
 40 48  1  0  0  0  0
 40 41  2  0  0  0  0
  8  9  1  0  0  0  0
  9 17  1  0  0  0  0
  9 10  2  0  0  0  0
 18 19  1  0  0  0  0
 19 38  1  0  0  0  0
 19 20  2  0  0  0  0
 39 42  1  0  0  0  0
  8 11  1  0  0  0  0
 48 49  1  0  0  0  0
 22 23  1  0  0  0  0
 21 22  1  0  0  0  0
 23 24  1  0  0  0  0
 18 21  1  0  0  0  0
 24 25  1  0  0  0  0
 38 39  1  0  0  0  0
  7  8  1  0  0  0  0
 17 18  1  0  0  0  0
  3  4  1  0  0  0  0
  3  5  1  0  0  0  0
  3  6  1  0  0  0  0
 42 45  1  0  0  0  0
 42 46  1  0  0  0  0
 42 47  1  0  0  0  0
 11 14  1  0  0  0  0
 11 15  1  0  0  0  0
 11 16  1  0  0  0  0
 49 51  1  0  0  0  0
 49 52  1  0  0  0  0
 49 53  1  0  0  0  0
 22 30  1  0  0  0  0
 22 31  1  0  0  0  0
 23 32  1  0  0  0  0
 23 33  1  0  0  0  0
 21 28  1  0  0  0  0
 21 29  1  0  0  0  0
 24 34  1  0  0  0  0
 24 35  1  0  0  0  0
 39 44  1  0  0  0  0
  8 13  1  0  0  0  0
 18 27  1  0  0  0  0
 25 36  1  0  0  0  0
 25 37  1  0  0  0  0
 48 50  1  0  0  0  0
  7 12  1  0  0  0  0
 38 43  1  0  0  0  0
 17 26  1  0  0  0  0
M  END
$$$$

  -OEChem-05262214473D

 53 52  0     1  0  0  0  0  0999 V2000
   -1.0338   -5.6785    0.1476 C   0  0  0  0  0  0  0  0  0  0  0  0
   -2.0514   -5.7797    0.8227 O   0  0  0  0  0  0  0  0  0  0  0  0
   -0.6558   -6.7819   -0.7841 C   0  0  0  0  0  0  0  0  0  0  0  0
   -0.0111   -7.5354   -0.3038 H   0  0  0  0  0  0  0  0  0  0  0  0
   -1.5317   -7.3401   -1.1520 H   0  0  0  0  0  0  0  0  0  0  0  0
   -0.1109   -6.4687   -1.6890 H   0  0  0  0  0  0  0  0  0  0  0  0
   -0.1543   -4.6083    0.1480 N   0  0  0  0  0  0  0  0  0  0  0  0
   -0.3302   -3.4398    0.9696 C   0  0  2  0  0  0  0  0  0  0  0  0
    0.2328   -2.2439    0.2131 C   0  0  0  0  0  0  0  0  0  0  0  0
    1.2097   -2.3192   -0.5294 O   0  0  0  0  0  0  0  0  0  0  0  0
    0.3557   -3.6024    2.3171 C   0  0  0  0  0  0  0  0  0  0  0  0
    0.6584   -4.6506   -0.4643 H   0  0  0  0  0  0  0  0  0  0  0  0
   -1.4091   -3.3101    1.1082 H   0  0  0  0  0  0  0  0  0  0  0  0
    1.4375   -3.7336    2.1985 H   0  0  0  0  0  0  0  0  0  0  0  0
    0.1969   -2.7243    2.9517 H   0  0  0  0  0  0  0  0  0  0  0  0
   -0.0294   -4.4803    2.8470 H   0  0  0  0  0  0  0  0  0  0  0  0
   -0.4616   -1.0893    0.5050 N   0  0  0  0  0  0  0  0  0  0  0  0
   -0.0884    0.2050   -0.0621 C   0  0  2  0  0  0  0  0  0  0  0  0
    0.2428    1.1397    1.0979 C   0  0  0  0  0  0  0  0  0  0  0  0
    1.0713    2.0441    1.0142 O   0  0  0  0  0  0  0  0  0  0  0  0
   -1.2163    0.8177   -0.9057 C   0  0  0  0  0  0  0  0  0  0  0  0
   -1.4994    0.0431   -2.1970 C   0  0  0  0  0  0  0  0  0  0  0  0
   -2.6129    0.7092   -3.0098 C   0  0  0  0  0  0  0  0  0  0  0  0
   -2.9117   -0.0772   -4.2852 C   0  0  0  0  0  0  0  0  0  0  0  0
   -3.9896    0.5601   -5.0320 N   0  0  0  0  0  0  0  0  0  0  0  0
   -1.2794   -1.1113    1.0935 H   0  0  0  0  0  0  0  0  0  0  0  0
    0.8075    0.0695   -0.6799 H   0  0  0  0  0  0  0  0  0  0  0  0
   -0.9509    1.8513   -1.1641 H   0  0  0  0  0  0  0  0  0  0  0  0
   -2.1359    0.8844   -0.3084 H   0  0  0  0  0  0  0  0  0  0  0  0
   -1.7941   -0.9862   -1.9634 H   0  0  0  0  0  0  0  0  0  0  0  0
   -0.5857   -0.0082   -2.8012 H   0  0  0  0  0  0  0  0  0  0  0  0
   -3.5193    0.7810   -2.3955 H   0  0  0  0  0  0  0  0  0  0  0  0
   -2.3151    1.7335   -3.2673 H   0  0  0  0  0  0  0  0  0  0  0  0
   -3.1996   -1.1049   -4.0382 H   0  0  0  0  0  0  0  0  0  0  0  0
   -2.0185   -0.1235   -4.9172 H   0  0  0  0  0  0  0  0  0  0  0  0
   -4.2976    1.3541   -4.5210 H   0  0  0  0  0  0  0  0  0  0  0  0
   -3.6366    0.8317   -5.9198 H   0  0  0  0  0  0  0  0  0  0  0  0
   -0.4800    0.8293    2.2416 N   0  0  0  0  0  0  0  0  0  0  0  0
   -0.3383    1.5473    3.4878 C   0  0  2  0  0  0  0  0  0  0  0  0
   -0.5756    0.5642    4.6266 C   0  0  0  0  0  0  0  0  0  0  0  0
   -1.3744   -0.3672    4.5532 O   0  0  0  0  0  0  0  0  0  0  0  0
   -1.3091    2.7153    3.5669 C   0  0  0  0  0  0  0  0  0  0  0  0
   -1.1518    0.0680    2.2144 H   0  0  0  0  0  0  0  0  0  0  0  0
    0.6942    1.9110    3.5276 H   0  0  0  0  0  0  0  0  0  0  0  0
   -2.3488    2.3704    3.5285 H   0  0  0  0  0  0  0  0  0  0  0  0
   -1.1809    3.2753    4.4991 H   0  0  0  0  0  0  0  0  0  0  0  0
   -1.1568    3.4059    2.7305 H   0  0  0  0  0  0  0  0  0  0  0  0
    0.1781    0.8750    5.7498 N   0  0  0  0  0  0  0  0  0  0  0  0
    0.0981    0.1169    6.9765 C   0  0  0  0  0  0  0  0  0  0  0  0
    0.8443    1.6406    5.7084 H   0  0  0  0  0  0  0  0  0  0  0  0
   -0.6477    0.5746    7.6431 H   0  0  0  0  0  0  0  0  0  0  0  0
   -0.1991   -0.9175    6.7494 H   0  0  0  0  0  0  0  0  0  0  0  0
    1.0805    0.1158    7.4715 H   0  0  0  0  0  0  0  0  0  0  0  0
  1  3  1  0  0  0  0
  1  7  1  0  0  0  0
  1  2  2  0  0  0  0
 39 40  1  0  0  0  0
 40 48  1  0  0  0  0
 40 41  2  0  0  0  0
  8  9  1  0  0  0  0
  9 17  1  0  0  0  0
  9 10  2  0  0  0  0
 18 19  1  0  0  0  0
 19 38  1  0  0  0  0
 19 20  2  0  0  0  0
 39 42  1  0  0  0  0
  8 11  1  0  0  0  0
 48 49  1  0  0  0  0
 22 23  1  0  0  0  0
 21 22  1  0  0  0  0
 23 24  1  0  0  0  0
 18 21  1  0  0  0  0
 24 25  1  0  0  0  0
 38 39  1  0  0  0  0
  7  8  1  0  0  0  0
 17 18  1  0  0  0  0
  3  4  1  0  0  0  0
  3  5  1  0  0  0  0
  3  6  1  0  0  0  0
 42 45  1  0  0  0  0
 42 46  1  0  0  0  0
 42 47  1  0  0  0  0
 11 14  1  0  0  0  0
 11 15  1  0  0  0  0
 11 16  1  0  0  0  0
 49 51  1  0  0  0  0
 49 52  1  0  0  0  0
 49 53  1  0  0  0  0
 22 30  1  0  0  0  0
 22 31  1  0  0  0  0
 23 32  1  0  0  0  0
 23 33  1  0  0  0  0
 21 28  1  0  0  0  0
 21 29  1  0  0  0  0
 24 34  1  0  0  0  0
 24 35  1  0  0  0  0
 39 44  1  0  0  0  0
  8 13  1  0  0  0  0
 18 27  1  0  0  0  0
 25 36  1  0  0  0  0
 25 37  1  0  0  0  0
 48 50  1  0  0  0  0
  7 12  1  0  0  0  0
 38 43  1  0  0  0  0
 17 26  1  0  0  0  0
M  END
$$$$

  -OEChem-05262214473D

 53 52  0     1  0  0  0  0  0999 V2000
   -1.0338   -5.6785    0.1476 C   0  0  0  0  0  0  0  0  0  0  0  0
   -2.0514   -5.7797    0.8227 O   0  0  0  0  0  0  0  0  0  0  0  0
   -0.6558   -6.7819   -0.7841 C   0  0  0  0  0  0  0  0  0  0  0  0
   -0.0111   -7.5354   -0.3038 H   0  0  0  0  0  0  0  0  0  0  0  0
   -1.5317   -7.3401   -1.1520 H   0  0  0  0  0  0  0  0  0  0  0  0
   -0.1109   -6.4687   -1.6890 H   0  0  0  0  0  0  0  0  0  0  0  0
   -0.1543   -4.6083    0.1480 N   0  0  0  0  0  0  0  0  0  0  0  0
   -0.3302   -3.4398    0.9696 C   0  0  2  0  0  0  0  0  0  0  0  0
    0.2328   -2.2439    0.2131 C   0  0  0  0  0  0  0  0  0  0  0  0
    1.2097   -2.3192   -0.5294 O   0  0  0  0  0  0  0  0  0  0  0  0
    0.3557   -3.6024    2.3171 C   0  0  0  0  0  0  0  0  0  0  0  0
    0.6584   -4.6506   -0.4643 H   0  0  0  0  0  0  0  0  0  0  0  0
   -1.4091   -3.3101    1.1082 H   0  0  0  0  0  0  0  0  0  0  0  0
    1.4375   -3.7336    2.1985 H   0  0  0  0  0  0  0  0  0  0  0  0
    0.1969   -2.7243    2.9517 H   0  0  0  0  0  0  0  0  0  0  0  0
   -0.0294   -4.4803    2.8470 H   0  0  0  0  0  0  0  0  0  0  0  0
   -0.4616   -1.0893    0.5050 N   0  0  0  0  0  0  0  0  0  0  0  0
   -0.0884    0.2050   -0.0621 C   0  0  2  0  0  0  0  0  0  0  0  0
    0.2428    1.1397    1.0979 C   0  0  0  0  0  0  0  0  0  0  0  0
    0.8569    2.1950    0.9538 O   0  0  0  0  0  0  0  0  0  0  0  0
   -1.2163    0.8177   -0.9057 C   0  0  0  0  0  0  0  0  0  0  0  0
   -1.4994    0.0431   -2.1970 C   0  0  0  0  0  0  0  0  0  0  0  0
   -2.6129    0.7092   -3.0098 C   0  0  0  0  0  0  0  0  0  0  0  0
   -2.9117   -0.0772   -4.2852 C   0  0  0  0  0  0  0  0  0  0  0  0
   -3.9896    0.5601   -5.0320 N   0  0  0  0  0  0  0  0  0  0  0  0
   -1.2794   -1.1113    1.0935 H   0  0  0  0  0  0  0  0  0  0  0  0
    0.8075    0.0695   -0.6799 H   0  0  0  0  0  0  0  0  0  0  0  0
   -0.9509    1.8513   -1.1641 H   0  0  0  0  0  0  0  0  0  0  0  0
   -2.1359    0.8844   -0.3084 H   0  0  0  0  0  0  0  0  0  0  0  0
   -1.7941   -0.9862   -1.9634 H   0  0  0  0  0  0  0  0  0  0  0  0
   -0.5857   -0.0082   -2.8012 H   0  0  0  0  0  0  0  0  0  0  0  0
   -3.5193    0.7810   -2.3955 H   0  0  0  0  0  0  0  0  0  0  0  0
   -2.3151    1.7335   -3.2673 H   0  0  0  0  0  0  0  0  0  0  0  0
   -3.1996   -1.1049   -4.0382 H   0  0  0  0  0  0  0  0  0  0  0  0
   -2.0185   -0.1235   -4.9172 H   0  0  0  0  0  0  0  0  0  0  0  0
   -4.2976    1.3541   -4.5210 H   0  0  0  0  0  0  0  0  0  0  0  0
   -3.6366    0.8317   -5.9198 H   0  0  0  0  0  0  0  0  0  0  0  0
   -0.2092    0.6443    2.3133 N   0  0  0  0  0  0  0  0  0  0  0  0
   -0.0056    1.3254    3.5716 C   0  0  2  0  0  0  0  0  0  0  0  0
    0.1408    0.2696    4.6595 C   0  0  0  0  0  0  0  0  0  0  0  0
   -0.4651   -0.7998    4.6423 O   0  0  0  0  0  0  0  0  0  0  0  0
   -1.1563    2.2699    3.8822 C   0  0  0  0  0  0  0  0  0  0  0  0
   -0.7173   -0.2348    2.3344 H   0  0  0  0  0  0  0  0  0  0  0  0
    0.9301    1.8875    3.4792 H   0  0  0  0  0  0  0  0  0  0  0  0
   -2.1023    1.7247    3.9784 H   0  0  0  0  0  0  0  0  0  0  0  0
   -0.9869    2.8062    4.8217 H   0  0  0  0  0  0  0  0  0  0  0  0
   -1.2790    3.0102    3.0842 H   0  0  0  0  0  0  0  0  0  0  0  0
    0.9946    0.6802    5.6737 N   0  0  0  0  0  0  0  0  0  0  0  0
    1.2643   -0.1273    6.8404 C   0  0  0  0  0  0  0  0  0  0  0  0
    1.4852    1.5652    5.5861 H   0  0  0  0  0  0  0  0  0  0  0  0
    0.5642    0.1437    7.6444 H   0  0  0  0  0  0  0  0  0  0  0  0
    1.1382   -1.1904    6.5875 H   0  0  0  0  0  0  0  0  0  0  0  0
    2.2962    0.0494    7.1779 H   0  0  0  0  0  0  0  0  0  0  0  0
  1  3  1  0  0  0  0
  1  7  1  0  0  0  0
  1  2  2  0  0  0  0
 39 40  1  0  0  0  0
 40 48  1  0  0  0  0
 40 41  2  0  0  0  0
  8  9  1  0  0  0  0
  9 17  1  0  0  0  0
  9 10  2  0  0  0  0
 18 19  1  0  0  0  0
 19 38  1  0  0  0  0
 19 20  2  0  0  0  0
 39 42  1  0  0  0  0
  8 11  1  0  0  0  0
 48 49  1  0  0  0  0
 22 23  1  0  0  0  0
 21 22  1  0  0  0  0
 23 24  1  0  0  0  0
 18 21  1  0  0  0  0
 24 25  1  0  0  0  0
 38 39  1  0  0  0  0
  7  8  1  0  0  0  0
 17 18  1  0  0  0  0
  3  4  1  0  0  0  0
  3  5  1  0  0  0  0
  3  6  1  0  0  0  0
 42 45  1  0  0  0  0
 42 46  1  0  0  0  0
 42 47  1  0  0  0  0
 11 14  1  0  0  0  0
 11 15  1  0  0  0  0
 11 16  1  0  0  0  0
 49 51  1  0  0  0  0
 49 52  1  0  0  0  0
 49 53  1  0  0  0  0
 22 30  1  0  0  0  0
 22 31  1  0  0  0  0
 23 32  1  0  0  0  0
 23 33  1  0  0  0  0
 21 28  1  0  0  0  0
 21 29  1  0  0  0  0
 24 34  1  0  0  0  0
 24 35  1  0  0  0  0
 39 44  1  0  0  0  0
  8 13  1  0  0  0  0
 18 27  1  0  0  0  0
 25 36  1  0  0  0  0
 25 37  1  0  0  0  0
 48 50  1  0  0  0  0
  7 12  1  0  0  0  0
 38 43  1  0  0  0  0
 17 26  1  0  0  0  0
M  END
$$$$

  -OEChem-05262214473D

 53 52  0     1  0  0  0  0  0999 V2000
   -1.0338   -5.6785    0.1476 C   0  0  0  0  0  0  0  0  0  0  0  0
   -2.0514   -5.7797    0.8227 O   0  0  0  0  0  0  0  0  0  0  0  0
   -0.6558   -6.7819   -0.7841 C   0  0  0  0  0  0  0  0  0  0  0  0
   -0.0111   -7.5354   -0.3038 H   0  0  0  0  0  0  0  0  0  0  0  0
   -1.5317   -7.3401   -1.1520 H   0  0  0  0  0  0  0  0  0  0  0  0
   -0.1109   -6.4687   -1.6890 H   0  0  0  0  0  0  0  0  0  0  0  0
   -0.1543   -4.6083    0.1480 N   0  0  0  0  0  0  0  0  0  0  0  0
   -0.3302   -3.4398    0.9696 C   0  0  2  0  0  0  0  0  0  0  0  0
    0.2328   -2.2439    0.2131 C   0  0  0  0  0  0  0  0  0  0  0  0
    1.2097   -2.3192   -0.5294 O   0  0  0  0  0  0  0  0  0  0  0  0
    0.3557   -3.6024    2.3171 C   0  0  0  0  0  0  0  0  0  0  0  0
    0.6584   -4.6506   -0.4643 H   0  0  0  0  0  0  0  0  0  0  0  0
   -1.4091   -3.3101    1.1082 H   0  0  0  0  0  0  0  0  0  0  0  0
    1.4375   -3.7336    2.1985 H   0  0  0  0  0  0  0  0  0  0  0  0
    0.1969   -2.7243    2.9517 H   0  0  0  0  0  0  0  0  0  0  0  0
   -0.0294   -4.4803    2.8470 H   0  0  0  0  0  0  0  0  0  0  0  0
   -0.4616   -1.0893    0.5050 N   0  0  0  0  0  0  0  0  0  0  0  0
   -0.0884    0.2050   -0.0621 C   0  0  2  0  0  0  0  0  0  0  0  0
    0.2428    1.1397    1.0979 C   0  0  0  0  0  0  0  0  0  0  0  0
    0.6104    2.3019    0.9380 O   0  0  0  0  0  0  0  0  0  0  0  0
   -1.2163    0.8177   -0.9057 C   0  0  0  0  0  0  0  0  0  0  0  0
   -1.4994    0.0431   -2.1970 C   0  0  0  0  0  0  0  0  0  0  0  0
   -2.6129    0.7092   -3.0098 C   0  0  0  0  0  0  0  0  0  0  0  0
   -2.9117   -0.0772   -4.2852 C   0  0  0  0  0  0  0  0  0  0  0  0
   -3.9896    0.5601   -5.0320 N   0  0  0  0  0  0  0  0  0  0  0  0
   -1.2794   -1.1113    1.0935 H   0  0  0  0  0  0  0  0  0  0  0  0
    0.8075    0.0695   -0.6799 H   0  0  0  0  0  0  0  0  0  0  0  0
   -0.9509    1.8513   -1.1641 H   0  0  0  0  0  0  0  0  0  0  0  0
   -2.1359    0.8844   -0.3084 H   0  0  0  0  0  0  0  0  0  0  0  0
   -1.7941   -0.9862   -1.9634 H   0  0  0  0  0  0  0  0  0  0  0  0
   -0.5857   -0.0082   -2.8012 H   0  0  0  0  0  0  0  0  0  0  0  0
   -3.5193    0.7810   -2.3955 H   0  0  0  0  0  0  0  0  0  0  0  0
   -2.3151    1.7335   -3.2673 H   0  0  0  0  0  0  0  0  0  0  0  0
   -3.1996   -1.1049   -4.0382 H   0  0  0  0  0  0  0  0  0  0  0  0
   -2.0185   -0.1235   -4.9172 H   0  0  0  0  0  0  0  0  0  0  0  0
   -4.2976    1.3541   -4.5210 H   0  0  0  0  0  0  0  0  0  0  0  0
   -3.6366    0.8317   -5.9198 H   0  0  0  0  0  0  0  0  0  0  0  0
    0.1002    0.5149    2.3292 N   0  0  0  0  0  0  0  0  0  0  0  0
    0.3729    1.1718    3.5874 C   0  0  2  0  0  0  0  0  0  0  0  0
    0.8959    0.1241    4.5612 C   0  0  0  0  0  0  0  0  0  0  0  0
    0.5124   -1.0438    4.5598 O   0  0  0  0  0  0  0  0  0  0  0  0
   -0.8711    1.8521    4.1374 C   0  0  0  0  0  0  0  0  0  0  0  0
   -0.2190   -0.4486    2.3644 H   0  0  0  0  0  0  0  0  0  0  0  0
    1.1549    1.9140    3.3937 H   0  0  0  0  0  0  0  0  0  0  0  0
   -1.6658    1.1242    4.3376 H   0  0  0  0  0  0  0  0  0  0  0  0
   -0.6560    2.3732    5.0761 H   0  0  0  0  0  0  0  0  0  0  0  0
   -1.2631    2.5841    3.4230 H   0  0  0  0  0  0  0  0  0  0  0  0
    1.8096    0.6569    5.4598 N   0  0  0  0  0  0  0  0  0  0  0  0
    2.4172   -0.1261    6.5103 C   0  0  0  0  0  0  0  0  0  0  0  0
    2.0998    1.6254    5.3623 H   0  0  0  0  0  0  0  0  0  0  0  0
    1.8197   -0.0342    7.4293 H   0  0  0  0  0  0  0  0  0  0  0  0
    2.4581   -1.1818    6.2038 H   0  0  0  0  0  0  0  0  0  0  0  0
    3.4371    0.2409    6.6980 H   0  0  0  0  0  0  0  0  0  0  0  0
  1  3  1  0  0  0  0
  1  7  1  0  0  0  0
  1  2  2  0  0  0  0
 39 40  1  0  0  0  0
 40 48  1  0  0  0  0
 40 41  2  0  0  0  0
  8  9  1  0  0  0  0
  9 17  1  0  0  0  0
  9 10  2  0  0  0  0
 18 19  1  0  0  0  0
 19 38  1  0  0  0  0
 19 20  2  0  0  0  0
 39 42  1  0  0  0  0
  8 11  1  0  0  0  0
 48 49  1  0  0  0  0
 22 23  1  0  0  0  0
 21 22  1  0  0  0  0
 23 24  1  0  0  0  0
 18 21  1  0  0  0  0
 24 25  1  0  0  0  0
 38 39  1  0  0  0  0
  7  8  1  0  0  0  0
 17 18  1  0  0  0  0
  3  4  1  0  0  0  0
  3  5  1  0  0  0  0
  3  6  1  0  0  0  0
 42 45  1  0  0  0  0
 42 46  1  0  0  0  0
 42 47  1  0  0  0  0
 11 14  1  0  0  0  0
 11 15  1  0  0  0  0
 11 16  1  0  0  0  0
 49 51  1  0  0  0  0
 49 52  1  0  0  0  0
 49 53  1  0  0  0  0
 22 30  1  0  0  0  0
 22 31  1  0  0  0  0
 23 32  1  0  0  0  0
 23 33  1  0  0  0  0
 21 28  1  0  0  0  0
 21 29  1  0  0  0  0
 24 34  1  0  0  0  0
 24 35  1  0  0  0  0
 39 44  1  0  0  0  0
  8 13  1  0  0  0  0
 18 27  1  0  0  0  0
 25 36  1  0  0  0  0
 25 37  1  0  0  0  0
 48 50  1  0  0  0  0
  7 12  1  0  0  0  0
 38 43  1  0  0  0  0
 17 26  1  0  0  0  0
M  END
$$$$

  -OEChem-05262214473D

 53 52  0     1  0  0  0  0  0999 V2000
   -1.0338   -5.6785    0.1476 C   0  0  0  0  0  0  0  0  0  0  0  0
   -2.0514   -5.7797    0.8227 O   0  0  0  0  0  0  0  0  0  0  0  0
   -0.6558   -6.7819   -0.7841 C   0  0  0  0  0  0  0  0  0  0  0  0
   -0.0111   -7.5354   -0.3038 H   0  0  0  0  0  0  0  0  0  0  0  0
   -1.5317   -7.3401   -1.1520 H   0  0  0  0  0  0  0  0  0  0  0  0
   -0.1109   -6.4687   -1.6890 H   0  0  0  0  0  0  0  0  0  0  0  0
   -0.1543   -4.6083    0.1480 N   0  0  0  0  0  0  0  0  0  0  0  0
   -0.3302   -3.4398    0.9696 C   0  0  2  0  0  0  0  0  0  0  0  0
    0.2328   -2.2439    0.2131 C   0  0  0  0  0  0  0  0  0  0  0  0
    1.2097   -2.3192   -0.5294 O   0  0  0  0  0  0  0  0  0  0  0  0
    0.3557   -3.6024    2.3171 C   0  0  0  0  0  0  0  0  0  0  0  0
    0.6584   -4.6506   -0.4643 H   0  0  0  0  0  0  0  0  0  0  0  0
   -1.4091   -3.3101    1.1082 H   0  0  0  0  0  0  0  0  0  0  0  0
    1.4375   -3.7336    2.1985 H   0  0  0  0  0  0  0  0  0  0  0  0
    0.1969   -2.7243    2.9517 H   0  0  0  0  0  0  0  0  0  0  0  0
   -0.0294   -4.4803    2.8470 H   0  0  0  0  0  0  0  0  0  0  0  0
   -0.4616   -1.0893    0.5050 N   0  0  0  0  0  0  0  0  0  0  0  0
   -0.0884    0.2050   -0.0621 C   0  0  2  0  0  0  0  0  0  0  0  0
    0.2428    1.1397    1.0979 C   0  0  0  0  0  0  0  0  0  0  0  0
    0.3489    2.3576    0.9678 O   0  0  0  0  0  0  0  0  0  0  0  0
   -1.2163    0.8177   -0.9057 C   0  0  0  0  0  0  0  0  0  0  0  0
   -1.4994    0.0431   -2.1970 C   0  0  0  0  0  0  0  0  0  0  0  0
   -2.6129    0.7092   -3.0098 C   0  0  0  0  0  0  0  0  0  0  0  0
   -2.9117   -0.0772   -4.2852 C   0  0  0  0  0  0  0  0  0  0  0  0
   -3.9896    0.5601   -5.0320 N   0  0  0  0  0  0  0  0  0  0  0  0
   -1.2794   -1.1113    1.0935 H   0  0  0  0  0  0  0  0  0  0  0  0
    0.8075    0.0695   -0.6799 H   0  0  0  0  0  0  0  0  0  0  0  0
   -0.9509    1.8513   -1.1641 H   0  0  0  0  0  0  0  0  0  0  0  0
   -2.1359    0.8844   -0.3084 H   0  0  0  0  0  0  0  0  0  0  0  0
   -1.7941   -0.9862   -1.9634 H   0  0  0  0  0  0  0  0  0  0  0  0
   -0.5857   -0.0082   -2.8012 H   0  0  0  0  0  0  0  0  0  0  0  0
   -3.5193    0.7810   -2.3955 H   0  0  0  0  0  0  0  0  0  0  0  0
   -2.3151    1.7335   -3.2673 H   0  0  0  0  0  0  0  0  0  0  0  0
   -3.1996   -1.1049   -4.0382 H   0  0  0  0  0  0  0  0  0  0  0  0
   -2.0185   -0.1235   -4.9172 H   0  0  0  0  0  0  0  0  0  0  0  0
   -4.2976    1.3541   -4.5210 H   0  0  0  0  0  0  0  0  0  0  0  0
   -3.6366    0.8317   -5.9198 H   0  0  0  0  0  0  0  0  0  0  0  0
    0.4270    0.4499    2.2883 N   0  0  0  0  0  0  0  0  0  0  0  0
    0.7711    1.0969    3.5340 C   0  0  2  0  0  0  0  0  0  0  0  0
    1.6384    0.1376    4.3383 C   0  0  0  0  0  0  0  0  0  0  0  0
    1.4916   -1.0825    4.3115 O   0  0  0  0  0  0  0  0  0  0  0  0
   -0.4729    1.4902    4.3153 C   0  0  0  0  0  0  0  0  0  0  0  0
    0.3092   -0.5588    2.3024 H   0  0  0  0  0  0  0  0  0  0  0  0
    1.3533    1.9886    3.2770 H   0  0  0  0  0  0  0  0  0  0  0  0
   -1.0691    0.6099    4.5817 H   0  0  0  0  0  0  0  0  0  0  0  0
   -0.2110    2.0057    5.2452 H   0  0  0  0  0  0  0  0  0  0  0  0
   -1.1102    2.1565    3.7238 H   0  0  0  0  0  0  0  0  0  0  0  0
    2.5675    0.8067    5.1227 N   0  0  0  0  0  0  0  0  0  0  0  0
    3.4783    0.1204    6.0088 C   0  0  0  0  0  0  0  0  0  0  0  0
    2.6461    1.8170    5.0520 H   0  0  0  0  0  0  0  0  0  0  0  0
    3.0334    0.0530    7.0126 H   0  0  0  0  0  0  0  0  0  0  0  0
    3.6704   -0.8922    5.6244 H   0  0  0  0  0  0  0  0  0  0  0  0
    4.4253    0.6773    6.0643 H   0  0  0  0  0  0  0  0  0  0  0  0
  1  3  1  0  0  0  0
  1  7  1  0  0  0  0
  1  2  2  0  0  0  0
 39 40  1  0  0  0  0
 40 48  1  0  0  0  0
 40 41  2  0  0  0  0
  8  9  1  0  0  0  0
  9 17  1  0  0  0  0
  9 10  2  0  0  0  0
 18 19  1  0  0  0  0
 19 38  1  0  0  0  0
 19 20  2  0  0  0  0
 39 42  1  0  0  0  0
  8 11  1  0  0  0  0
 48 49  1  0  0  0  0
 22 23  1  0  0  0  0
 21 22  1  0  0  0  0
 23 24  1  0  0  0  0
 18 21  1  0  0  0  0
 24 25  1  0  0  0  0
 38 39  1  0  0  0  0
  7  8  1  0  0  0  0
 17 18  1  0  0  0  0
  3  4  1  0  0  0  0
  3  5  1  0  0  0  0
  3  6  1  0  0  0  0
 42 45  1  0  0  0  0
 42 46  1  0  0  0  0
 42 47  1  0  0  0  0
 11 14  1  0  0  0  0
 11 15  1  0  0  0  0
 11 16  1  0  0  0  0
 49 51  1  0  0  0  0
 49 52  1  0  0  0  0
 49 53  1  0  0  0  0
 22 30  1  0  0  0  0
 22 31  1  0  0  0  0
 23 32  1  0  0  0  0
 23 33  1  0  0  0  0
 21 28  1  0  0  0  0
 21 29  1  0  0  0  0
 24 34  1  0  0  0  0
 24 35  1  0  0  0  0
 39 44  1  0  0  0  0
  8 13  1  0  0  0  0
 18 27  1  0  0  0  0
 25 36  1  0  0  0  0
 25 37  1  0  0  0  0
 48 50  1  0  0  0  0
  7 12  1  0  0  0  0
 38 43  1  0  0  0  0
 17 26  1  0  0  0  0
M  END
$$$$

  -OEChem-05262214473D

 53 52  0     1  0  0  0  0  0999 V2000
   -1.0338   -5.6785    0.1476 C   0  0  0  0  0  0  0  0  0  0  0  0
   -2.0514   -5.7797    0.8227 O   0  0  0  0  0  0  0  0  0  0  0  0
   -0.6558   -6.7819   -0.7841 C   0  0  0  0  0  0  0  0  0  0  0  0
   -0.0111   -7.5354   -0.3038 H   0  0  0  0  0  0  0  0  0  0  0  0
   -1.5317   -7.3401   -1.1520 H   0  0  0  0  0  0  0  0  0  0  0  0
   -0.1109   -6.4687   -1.6890 H   0  0  0  0  0  0  0  0  0  0  0  0
   -0.1543   -4.6083    0.1480 N   0  0  0  0  0  0  0  0  0  0  0  0
   -0.3302   -3.4398    0.9696 C   0  0  2  0  0  0  0  0  0  0  0  0
    0.2328   -2.2439    0.2131 C   0  0  0  0  0  0  0  0  0  0  0  0
    1.2097   -2.3192   -0.5294 O   0  0  0  0  0  0  0  0  0  0  0  0
    0.3557   -3.6024    2.3171 C   0  0  0  0  0  0  0  0  0  0  0  0
    0.6584   -4.6506   -0.4643 H   0  0  0  0  0  0  0  0  0  0  0  0
   -1.4091   -3.3101    1.1082 H   0  0  0  0  0  0  0  0  0  0  0  0
    1.4375   -3.7336    2.1985 H   0  0  0  0  0  0  0  0  0  0  0  0
    0.1969   -2.7243    2.9517 H   0  0  0  0  0  0  0  0  0  0  0  0
   -0.0294   -4.4803    2.8470 H   0  0  0  0  0  0  0  0  0  0  0  0
   -0.4616   -1.0893    0.5050 N   0  0  0  0  0  0  0  0  0  0  0  0
   -0.0884    0.2050   -0.0621 C   0  0  2  0  0  0  0  0  0  0  0  0
    0.2428    1.1397    1.0979 C   0  0  0  0  0  0  0  0  0  0  0  0
    0.0900    2.3583    1.0412 O   0  0  0  0  0  0  0  0  0  0  0  0
   -1.2163    0.8177   -0.9057 C   0  0  0  0  0  0  0  0  0  0  0  0
   -1.4994    0.0431   -2.1970 C   0  0  0  0  0  0  0  0  0  0  0  0
   -2.6129    0.7092   -3.0098 C   0  0  0  0  0  0  0  0  0  0  0  0
   -2.9117   -0.0772   -4.2852 C   0  0  0  0  0  0  0  0  0  0  0  0
   -3.9896    0.5601   -5.0320 N   0  0  0  0  0  0  0  0  0  0  0  0
   -1.2794   -1.1113    1.0935 H   0  0  0  0  0  0  0  0  0  0  0  0
    0.8075    0.0695   -0.6799 H   0  0  0  0  0  0  0  0  0  0  0  0
   -0.9509    1.8513   -1.1641 H   0  0  0  0  0  0  0  0  0  0  0  0
   -2.1359    0.8844   -0.3084 H   0  0  0  0  0  0  0  0  0  0  0  0
   -1.7941   -0.9862   -1.9634 H   0  0  0  0  0  0  0  0  0  0  0  0
   -0.5857   -0.0082   -2.8012 H   0  0  0  0  0  0  0  0  0  0  0  0
   -3.5193    0.7810   -2.3955 H   0  0  0  0  0  0  0  0  0  0  0  0
   -2.3151    1.7335   -3.2673 H   0  0  0  0  0  0  0  0  0  0  0  0
   -3.1996   -1.1049   -4.0382 H   0  0  0  0  0  0  0  0  0  0  0  0
   -2.0185   -0.1235   -4.9172 H   0  0  0  0  0  0  0  0  0  0  0  0
   -4.2976    1.3541   -4.5210 H   0  0  0  0  0  0  0  0  0  0  0  0
   -3.6366    0.8317   -5.9198 H   0  0  0  0  0  0  0  0  0  0  0  0
    0.7490    0.4537    2.1933 N   0  0  0  0  0  0  0  0  0  0  0  0
    1.1620    1.1060    3.4151 C   0  0  2  0  0  0  0  0  0  0  0  0
    2.3176    0.3093    4.0062 C   0  0  0  0  0  0  0  0  0  0  0  0
    2.4056   -0.9134    3.9143 O   0  0  0  0  0  0  0  0  0  0  0  0
    0.0110    1.2091    4.4037 C   0  0  0  0  0  0  0  0  0  0  0  0
    0.8312   -0.5578    2.1526 H   0  0  0  0  0  0  0  0  0  0  0  0
    1.5118    2.1062    3.1370 H   0  0  0  0  0  0  0  0  0  0  0  0
   -0.3528    0.2167    4.6940 H   0  0  0  0  0  0  0  0  0  0  0  0
    0.3180    1.7289    5.3173 H   0  0  0  0  0  0  0  0  0  0  0  0
   -0.8307    1.7568    3.9662 H   0  0  0  0  0  0  0  0  0  0  0  0
    3.2166    1.1195    4.6854 N   0  0  0  0  0  0  0  0  0  0  0  0
    4.3753    0.5954    5.3701 C   0  0  0  0  0  0  0  0  0  0  0  0
    3.0869    2.1269    4.6764 H   0  0  0  0  0  0  0  0  0  0  0  0
    4.1224    0.3995    6.4226 H   0  0  0  0  0  0  0  0  0  0  0  0
    4.6927   -0.3415    4.8889 H   0  0  0  0  0  0  0  0  0  0  0  0
    5.1935    1.3288    5.3200 H   0  0  0  0  0  0  0  0  0  0  0  0
  1  3  1  0  0  0  0
  1  7  1  0  0  0  0
  1  2  2  0  0  0  0
 39 40  1  0  0  0  0
 40 48  1  0  0  0  0
 40 41  2  0  0  0  0
  8  9  1  0  0  0  0
  9 17  1  0  0  0  0
  9 10  2  0  0  0  0
 18 19  1  0  0  0  0
 19 38  1  0  0  0  0
 19 20  2  0  0  0  0
 39 42  1  0  0  0  0
  8 11  1  0  0  0  0
 48 49  1  0  0  0  0
 22 23  1  0  0  0  0
 21 22  1  0  0  0  0
 23 24  1  0  0  0  0
 18 21  1  0  0  0  0
 24 25  1  0  0  0  0
 38 39  1  0  0  0  0
  7  8  1  0  0  0  0
 17 18  1  0  0  0  0
  3  4  1  0  0  0  0
  3  5  1  0  0  0  0
  3  6  1  0  0  0  0
 42 45  1  0  0  0  0
 42 46  1  0  0  0  0
 42 47  1  0  0  0  0
 11 14  1  0  0  0  0
 11 15  1  0  0  0  0
 11 16  1  0  0  0  0
 49 51  1  0  0  0  0
 49 52  1  0  0  0  0
 49 53  1  0  0  0  0
 22 30  1  0  0  0  0
 22 31  1  0  0  0  0
 23 32  1  0  0  0  0
 23 33  1  0  0  0  0
 21 28  1  0  0  0  0
 21 29  1  0  0  0  0
 24 34  1  0  0  0  0
 24 35  1  0  0  0  0
 39 44  1  0  0  0  0
  8 13  1  0  0  0  0
 18 27  1  0  0  0  0
 25 36  1  0  0  0  0
 25 37  1  0  0  0  0
 48 50  1  0  0  0  0
  7 12  1  0  0  0  0
 38 43  1  0  0  0  0
 17 26  1  0  0  0  0
M  END
$$$$

  -OEChem-05262214473D

 53 52  0     1  0  0  0  0  0999 V2000
   -1.0338   -5.6785    0.1476 C   0  0  0  0  0  0  0  0  0  0  0  0
   -2.0514   -5.7797    0.8227 O   0  0  0  0  0  0  0  0  0  0  0  0
   -0.6558   -6.7819   -0.7841 C   0  0  0  0  0  0  0  0  0  0  0  0
   -0.0111   -7.5354   -0.3038 H   0  0  0  0  0  0  0  0  0  0  0  0
   -1.5317   -7.3401   -1.1520 H   0  0  0  0  0  0  0  0  0  0  0  0
   -0.1109   -6.4687   -1.6890 H   0  0  0  0  0  0  0  0  0  0  0  0
   -0.1543   -4.6083    0.1480 N   0  0  0  0  0  0  0  0  0  0  0  0
   -0.3302   -3.4398    0.9696 C   0  0  2  0  0  0  0  0  0  0  0  0
    0.2328   -2.2439    0.2131 C   0  0  0  0  0  0  0  0  0  0  0  0
    1.2097   -2.3192   -0.5294 O   0  0  0  0  0  0  0  0  0  0  0  0
    0.3557   -3.6024    2.3171 C   0  0  0  0  0  0  0  0  0  0  0  0
    0.6584   -4.6506   -0.4643 H   0  0  0  0  0  0  0  0  0  0  0  0
   -1.4091   -3.3101    1.1082 H   0  0  0  0  0  0  0  0  0  0  0  0
    1.4375   -3.7336    2.1985 H   0  0  0  0  0  0  0  0  0  0  0  0
    0.1969   -2.7243    2.9517 H   0  0  0  0  0  0  0  0  0  0  0  0
   -0.0294   -4.4803    2.8470 H   0  0  0  0  0  0  0  0  0  0  0  0
   -0.4616   -1.0893    0.5050 N   0  0  0  0  0  0  0  0  0  0  0  0
   -0.0884    0.2050   -0.0621 C   0  0  2  0  0  0  0  0  0  0  0  0
    0.2428    1.1397    1.0979 C   0  0  0  0  0  0  0  0  0  0  0  0
   -0.1486    2.3039    1.1531 O   0  0  0  0  0  0  0  0  0  0  0  0
   -1.2163    0.8177   -0.9057 C   0  0  0  0  0  0  0  0  0  0  0  0
   -1.4994    0.0431   -2.1970 C   0  0  0  0  0  0  0  0  0  0  0  0
   -2.6129    0.7092   -3.0098 C   0  0  0  0  0  0  0  0  0  0  0  0
   -2.9117   -0.0772   -4.2852 C   0  0  0  0  0  0  0  0  0  0  0  0
   -3.9896    0.5601   -5.0320 N   0  0  0  0  0  0  0  0  0  0  0  0
   -1.2794   -1.1113    1.0935 H   0  0  0  0  0  0  0  0  0  0  0  0
    0.8075    0.0695   -0.6799 H   0  0  0  0  0  0  0  0  0  0  0  0
   -0.9509    1.8513   -1.1641 H   0  0  0  0  0  0  0  0  0  0  0  0
   -2.1359    0.8844   -0.3084 H   0  0  0  0  0  0  0  0  0  0  0  0
   -1.7941   -0.9862   -1.9634 H   0  0  0  0  0  0  0  0  0  0  0  0
   -0.5857   -0.0082   -2.8012 H   0  0  0  0  0  0  0  0  0  0  0  0
   -3.5193    0.7810   -2.3955 H   0  0  0  0  0  0  0  0  0  0  0  0
   -2.3151    1.7335   -3.2673 H   0  0  0  0  0  0  0  0  0  0  0  0
   -3.1996   -1.1049   -4.0382 H   0  0  0  0  0  0  0  0  0  0  0  0
   -2.0185   -0.1235   -4.9172 H   0  0  0  0  0  0  0  0  0  0  0  0
   -4.2976    1.3541   -4.5210 H   0  0  0  0  0  0  0  0  0  0  0  0
   -3.6366    0.8317   -5.9198 H   0  0  0  0  0  0  0  0  0  0  0  0
    1.0442    0.5261    2.0508 N   0  0  0  0  0  0  0  0  0  0  0  0
    1.5190    1.1984    3.2388 C   0  0  2  0  0  0  0  0  0  0  0  0
    2.8872    0.6274    3.5873 C   0  0  0  0  0  0  0  0  0  0  0  0
    3.1923   -0.5478    3.3952 O   0  0  0  0  0  0  0  0  0  0  0  0
    0.5478    1.0278    4.3965 C   0  0  0  0  0  0  0  0  0  0  0  0
    1.3115   -0.4457    1.9252 H   0  0  0  0  0  0  0  0  0  0  0  0
    1.6195    2.2589    2.9832 H   0  0  0  0  0  0  0  0  0  0  0  0
    0.4342   -0.0284    4.6669 H   0  0  0  0  0  0  0  0  0  0  0  0
    0.8949    1.5614    5.2875 H   0  0  0  0  0  0  0  0  0  0  0  0
   -0.4436    1.4120    4.1335 H   0  0  0  0  0  0  0  0  0  0  0  0
    3.7128    1.5739    4.1777 N   0  0  0  0  0  0  0  0  0  0  0  0
    5.0469    1.2665    4.6376 C   0  0  0  0  0  0  0  0  0  0  0  0
    3.3921    2.5341    4.2612 H   0  0  0  0  0  0  0  0  0  0  0  0
    5.0127    0.9815    5.6994 H   0  0  0  0  0  0  0  0  0  0  0  0
    5.4551    0.4329    4.0473 H   0  0  0  0  0  0  0  0  0  0  0  0
    5.6894    2.1511    4.5160 H   0  0  0  0  0  0  0  0  0  0  0  0
  1  3  1  0  0  0  0
  1  7  1  0  0  0  0
  1  2  2  0  0  0  0
 39 40  1  0  0  0  0
 40 48  1  0  0  0  0
 40 41  2  0  0  0  0
  8  9  1  0  0  0  0
  9 17  1  0  0  0  0
  9 10  2  0  0  0  0
 18 19  1  0  0  0  0
 19 38  1  0  0  0  0
 19 20  2  0  0  0  0
 39 42  1  0  0  0  0
  8 11  1  0  0  0  0
 48 49  1  0  0  0  0
 22 23  1  0  0  0  0
 21 22  1  0  0  0  0
 23 24  1  0  0  0  0
 18 21  1  0  0  0  0
 24 25  1  0  0  0  0
 38 39  1  0  0  0  0
  7  8  1  0  0  0  0
 17 18  1  0  0  0  0
  3  4  1  0  0  0  0
  3  5  1  0  0  0  0
  3  6  1  0  0  0  0
 42 45  1  0  0  0  0
 42 46  1  0  0  0  0
 42 47  1  0  0  0  0
 11 14  1  0  0  0  0
 11 15  1  0  0  0  0
 11 16  1  0  0  0  0
 49 51  1  0  0  0  0
 49 52  1  0  0  0  0
 49 53  1  0  0  0  0
 22 30  1  0  0  0  0
 22 31  1  0  0  0  0
 23 32  1  0  0  0  0
 23 33  1  0  0  0  0
 21 28  1  0  0  0  0
 21 29  1  0  0  0  0
 24 34  1  0  0  0  0
 24 35  1  0  0  0  0
 39 44  1  0  0  0  0
  8 13  1  0  0  0  0
 18 27  1  0  0  0  0
 25 36  1  0  0  0  0
 25 37  1  0  0  0  0
 48 50  1  0  0  0  0
  7 12  1  0  0  0  0
 38 43  1  0  0  0  0
 17 26  1  0  0  0  0
M  END
$$$$

  -OEChem-05262214473D

 53 52  0     1  0  0  0  0  0999 V2000
   -1.0338   -5.6785    0.1476 C   0  0  0  0  0  0  0  0  0  0  0  0
   -2.0514   -5.7797    0.8227 O   0  0  0  0  0  0  0  0  0  0  0  0
   -0.6558   -6.7819   -0.7841 C   0  0  0  0  0  0  0  0  0  0  0  0
   -0.0111   -7.5354   -0.3038 H   0  0  0  0  0  0  0  0  0  0  0  0
   -1.5317   -7.3401   -1.1520 H   0  0  0  0  0  0  0  0  0  0  0  0
   -0.1109   -6.4687   -1.6890 H   0  0  0  0  0  0  0  0  0  0  0  0
   -0.1543   -4.6083    0.1480 N   0  0  0  0  0  0  0  0  0  0  0  0
   -0.3302   -3.4398    0.9696 C   0  0  2  0  0  0  0  0  0  0  0  0
    0.2328   -2.2439    0.2131 C   0  0  0  0  0  0  0  0  0  0  0  0
    1.2097   -2.3192   -0.5294 O   0  0  0  0  0  0  0  0  0  0  0  0
    0.3557   -3.6024    2.3171 C   0  0  0  0  0  0  0  0  0  0  0  0
    0.6584   -4.6506   -0.4643 H   0  0  0  0  0  0  0  0  0  0  0  0
   -1.4091   -3.3101    1.1082 H   0  0  0  0  0  0  0  0  0  0  0  0
    1.4375   -3.7336    2.1985 H   0  0  0  0  0  0  0  0  0  0  0  0
    0.1969   -2.7243    2.9517 H   0  0  0  0  0  0  0  0  0  0  0  0
   -0.0294   -4.4803    2.8470 H   0  0  0  0  0  0  0  0  0  0  0  0
   -0.4616   -1.0893    0.5050 N   0  0  0  0  0  0  0  0  0  0  0  0
   -0.0884    0.2050   -0.0621 C   0  0  2  0  0  0  0  0  0  0  0  0
    0.2428    1.1397    1.0979 C   0  0  0  0  0  0  0  0  0  0  0  0
   -0.3506    2.1981    1.2960 O   0  0  0  0  0  0  0  0  0  0  0  0
   -1.2163    0.8177   -0.9057 C   0  0  0  0  0  0  0  0  0  0  0  0
   -1.4994    0.0431   -2.1970 C   0  0  0  0  0  0  0  0  0  0  0  0
   -2.6129    0.7092   -3.0098 C   0  0  0  0  0  0  0  0  0  0  0  0
   -2.9117   -0.0772   -4.2852 C   0  0  0  0  0  0  0  0  0  0  0  0
   -3.9896    0.5601   -5.0320 N   0  0  0  0  0  0  0  0  0  0  0  0
   -1.2794   -1.1113    1.0935 H   0  0  0  0  0  0  0  0  0  0  0  0
    0.8075    0.0695   -0.6799 H   0  0  0  0  0  0  0  0  0  0  0  0
   -0.9509    1.8513   -1.1641 H   0  0  0  0  0  0  0  0  0  0  0  0
   -2.1359    0.8844   -0.3084 H   0  0  0  0  0  0  0  0  0  0  0  0
   -1.7941   -0.9862   -1.9634 H   0  0  0  0  0  0  0  0  0  0  0  0
   -0.5857   -0.0082   -2.8012 H   0  0  0  0  0  0  0  0  0  0  0  0
   -3.5193    0.7810   -2.3955 H   0  0  0  0  0  0  0  0  0  0  0  0
   -2.3151    1.7335   -3.2673 H   0  0  0  0  0  0  0  0  0  0  0  0
   -3.1996   -1.1049   -4.0382 H   0  0  0  0  0  0  0  0  0  0  0  0
   -2.0185   -0.1235   -4.9172 H   0  0  0  0  0  0  0  0  0  0  0  0
   -4.2976    1.3541   -4.5210 H   0  0  0  0  0  0  0  0  0  0  0  0
   -3.6366    0.8317   -5.9198 H   0  0  0  0  0  0  0  0  0  0  0  0
    1.2925    0.6621    1.8703 N   0  0  0  0  0  0  0  0  0  0  0  0
    1.8176    1.3677    3.0171 C   0  0  2  0  0  0  0  0  0  0  0  0
    3.3084    1.0702    3.1102 C   0  0  0  0  0  0  0  0  0  0  0  0
    3.7980   -0.0108    2.7897 O   0  0  0  0  0  0  0  0  0  0  0  0
    1.1009    0.9586    4.2944 C   0  0  0  0  0  0  0  0  0  0  0  0
    1.7173   -0.2302    1.6357 H   0  0  0  0  0  0  0  0  0  0  0  0
    1.6691    2.4361    2.8262 H   0  0  0  0  0  0  0  0  0  0  0  0
    1.2383   -0.1088    4.5021 H   0  0  0  0  0  0  0  0  0  0  0  0
    1.4803    1.5149    5.1579 H   0  0  0  0  0  0  0  0  0  0  0  0
    0.0246    1.1457    4.2144 H   0  0  0  0  0  0  0  0  0  0  0  0
    4.0221    2.1390    3.6341 N   0  0  0  0  0  0  0  0  0  0  0  0
    5.4475    2.0881    3.8612 C   0  0  0  0  0  0  0  0  0  0  0  0
    3.5411    3.0108    3.8345 H   0  0  0  0  0  0  0  0  0  0  0  0
    5.6435    1.7595    4.8925 H   0  0  0  0  0  0  0  0  0  0  0  0
    5.9058    1.3782    3.1570 H   0  0  0  0  0  0  0  0  0  0  0  0
    5.8792    3.0880    3.7068 H   0  0  0  0  0  0  0  0  0  0  0  0
  1  3  1  0  0  0  0
  1  7  1  0  0  0  0
  1  2  2  0  0  0  0
 39 40  1  0  0  0  0
 40 48  1  0  0  0  0
 40 41  2  0  0  0  0
  8  9  1  0  0  0  0
  9 17  1  0  0  0  0
  9 10  2  0  0  0  0
 18 19  1  0  0  0  0
 19 38  1  0  0  0  0
 19 20  2  0  0  0  0
 39 42  1  0  0  0  0
  8 11  1  0  0  0  0
 48 49  1  0  0  0  0
 22 23  1  0  0  0  0
 21 22  1  0  0  0  0
 23 24  1  0  0  0  0
 18 21  1  0  0  0  0
 24 25  1  0  0  0  0
 38 39  1  0  0  0  0
  7  8  1  0  0  0  0
 17 18  1  0  0  0  0
  3  4  1  0  0  0  0
  3  5  1  0  0  0  0
  3  6  1  0  0  0  0
 42 45  1  0  0  0  0
 42 46  1  0  0  0  0
 42 47  1  0  0  0  0
 11 14  1  0  0  0  0
 11 15  1  0  0  0  0
 11 16  1  0  0  0  0
 49 51  1  0  0  0  0
 49 52  1  0  0  0  0
 49 53  1  0  0  0  0
 22 30  1  0  0  0  0
 22 31  1  0  0  0  0
 23 32  1  0  0  0  0
 23 33  1  0  0  0  0
 21 28  1  0  0  0  0
 21 29  1  0  0  0  0
 24 34  1  0  0  0  0
 24 35  1  0  0  0  0
 39 44  1  0  0  0  0
  8 13  1  0  0  0  0
 18 27  1  0  0  0  0
 25 36  1  0  0  0  0
 25 37  1  0  0  0  0
 48 50  1  0  0  0  0
  7 12  1  0  0  0  0
 38 43  1  0  0  0  0
 17 26  1  0  0  0  0
M  END
$$$$

  -OEChem-05262214473D

 53 52  0     1  0  0  0  0  0999 V2000
   -1.0338   -5.6785    0.1476 C   0  0  0  0  0  0  0  0  0  0  0  0
   -2.0514   -5.7797    0.8227 O   0  0  0  0  0  0  0  0  0  0  0  0
   -0.6558   -6.7819   -0.7841 C   0  0  0  0  0  0  0  0  0  0  0  0
   -0.0111   -7.5354   -0.3038 H   0  0  0  0  0  0  0  0  0  0  0  0
   -1.5317   -7.3401   -1.1520 H   0  0  0  0  0  0  0  0  0  0  0  0
   -0.1109   -6.4687   -1.6890 H   0  0  0  0  0  0  0  0  0  0  0  0
   -0.1543   -4.6083    0.1480 N   0  0  0  0  0  0  0  0  0  0  0  0
   -0.3302   -3.4398    0.9696 C   0  0  2  0  0  0  0  0  0  0  0  0
    0.2328   -2.2439    0.2131 C   0  0  0  0  0  0  0  0  0  0  0  0
    1.2097   -2.3192   -0.5294 O   0  0  0  0  0  0  0  0  0  0  0  0
    0.3557   -3.6024    2.3171 C   0  0  0  0  0  0  0  0  0  0  0  0
    0.6584   -4.6506   -0.4643 H   0  0  0  0  0  0  0  0  0  0  0  0
   -1.4091   -3.3101    1.1082 H   0  0  0  0  0  0  0  0  0  0  0  0
    1.4375   -3.7336    2.1985 H   0  0  0  0  0  0  0  0  0  0  0  0
    0.1969   -2.7243    2.9517 H   0  0  0  0  0  0  0  0  0  0  0  0
   -0.0294   -4.4803    2.8470 H   0  0  0  0  0  0  0  0  0  0  0  0
   -0.4616   -1.0893    0.5050 N   0  0  0  0  0  0  0  0  0  0  0  0
   -0.0884    0.2050   -0.0621 C   0  0  2  0  0  0  0  0  0  0  0  0
    0.2428    1.1397    1.0979 C   0  0  0  0  0  0  0  0  0  0  0  0
   -0.5022    2.0481    1.4601 O   0  0  0  0  0  0  0  0  0  0  0  0
   -1.2163    0.8177   -0.9057 C   0  0  0  0  0  0  0  0  0  0  0  0
   -1.4994    0.0431   -2.1970 C   0  0  0  0  0  0  0  0  0  0  0  0
   -2.6129    0.7092   -3.0098 C   0  0  0  0  0  0  0  0  0  0  0  0
   -2.9117   -0.0772   -4.2852 C   0  0  0  0  0  0  0  0  0  0  0  0
   -3.9896    0.5601   -5.0320 N   0  0  0  0  0  0  0  0  0  0  0  0
   -1.2794   -1.1113    1.0935 H   0  0  0  0  0  0  0  0  0  0  0  0
    0.8075    0.0695   -0.6799 H   0  0  0  0  0  0  0  0  0  0  0  0
   -0.9509    1.8513   -1.1641 H   0  0  0  0  0  0  0  0  0  0  0  0
   -2.1359    0.8844   -0.3084 H   0  0  0  0  0  0  0  0  0  0  0  0
   -1.7941   -0.9862   -1.9634 H   0  0  0  0  0  0  0  0  0  0  0  0
   -0.5857   -0.0082   -2.8012 H   0  0  0  0  0  0  0  0  0  0  0  0
   -3.5193    0.7810   -2.3955 H   0  0  0  0  0  0  0  0  0  0  0  0
   -2.3151    1.7335   -3.2673 H   0  0  0  0  0  0  0  0  0  0  0  0
   -3.1996   -1.1049   -4.0382 H   0  0  0  0  0  0  0  0  0  0  0  0
   -2.0185   -0.1235   -4.9172 H   0  0  0  0  0  0  0  0  0  0  0  0
   -4.2976    1.3541   -4.5210 H   0  0  0  0  0  0  0  0  0  0  0  0
   -3.6366    0.8317   -5.9198 H   0  0  0  0  0  0  0  0  0  0  0  0
    1.4770    0.8524    1.6643 N   0  0  0  0  0  0  0  0  0  0  0  0
    2.0377    1.6025    2.7651 C   0  0  2  0  0  0  0  0  0  0  0  0
    3.5525    1.6076    2.6076 C   0  0  0  0  0  0  0  0  0  0  0  0
    4.1813    0.6610    2.1389 O   0  0  0  0  0  0  0  0  0  0  0  0
    1.6325    1.0064    4.1042 C   0  0  0  0  0  0  0  0  0  0  0  0
    2.0210    0.0741    1.3038 H   0  0  0  0  0  0  0  0  0  0  0  0
    1.6573    2.6260    2.6766 H   0  0  0  0  0  0  0  0  0  0  0  0
    2.0047   -0.0190    4.2110 H   0  0  0  0  0  0  0  0  0  0  0  0
    2.0344    1.5924    4.9373 H   0  0  0  0  0  0  0  0  0  0  0  0
    0.5420    0.9761    4.2033 H   0  0  0  0  0  0  0  0  0  0  0  0
    4.1236    2.7762    3.0917 N   0  0  0  0  0  0  0  0  0  0  0  0
    5.5498    3.0041    3.0940 C   0  0  0  0  0  0  0  0  0  0  0  0
    3.5235    3.5246    3.4256 H   0  0  0  0  0  0  0  0  0  0  0  0
    5.9719    2.6804    4.0568 H   0  0  0  0  0  0  0  0  0  0  0  0
    6.0141    2.4299    2.2787 H   0  0  0  0  0  0  0  0  0  0  0  0
    5.7499    4.0758    2.9478 H   0  0  0  0  0  0  0  0  0  0  0  0
  1  3  1  0  0  0  0
  1  7  1  0  0  0  0
  1  2  2  0  0  0  0
 39 40  1  0  0  0  0
 40 48  1  0  0  0  0
 40 41  2  0  0  0  0
  8  9  1  0  0  0  0
  9 17  1  0  0  0  0
  9 10  2  0  0  0  0
 18 19  1  0  0  0  0
 19 38  1  0  0  0  0
 19 20  2  0  0  0  0
 39 42  1  0  0  0  0
  8 11  1  0  0  0  0
 48 49  1  0  0  0  0
 22 23  1  0  0  0  0
 21 22  1  0  0  0  0
 23 24  1  0  0  0  0
 18 21  1  0  0  0  0
 24 25  1  0  0  0  0
 38 39  1  0  0  0  0
  7  8  1  0  0  0  0
 17 18  1  0  0  0  0
  3  4  1  0  0  0  0
  3  5  1  0  0  0  0
  3  6  1  0  0  0  0
 42 45  1  0  0  0  0
 42 46  1  0  0  0  0
 42 47  1  0  0  0  0
 11 14  1  0  0  0  0
 11 15  1  0  0  0  0
 11 16  1  0  0  0  0
 49 51  1  0  0  0  0
 49 52  1  0  0  0  0
 49 53  1  0  0  0  0
 22 30  1  0  0  0  0
 22 31  1  0  0  0  0
 23 32  1  0  0  0  0
 23 33  1  0  0  0  0
 21 28  1  0  0  0  0
 21 29  1  0  0  0  0
 24 34  1  0  0  0  0
 24 35  1  0  0  0  0
 39 44  1  0  0  0  0
  8 13  1  0  0  0  0
 18 27  1  0  0  0  0
 25 36  1  0  0  0  0
 25 37  1  0  0  0  0
 48 50  1  0  0  0  0
  7 12  1  0  0  0  0
 38 43  1  0  0  0  0
 17 26  1  0  0  0  0
M  END
$$$$

  -OEChem-05262214473D

 53 52  0     1  0  0  0  0  0999 V2000
   -1.0338   -5.6785    0.1476 C   0  0  0  0  0  0  0  0  0  0  0  0
   -2.0514   -5.7797    0.8227 O   0  0  0  0  0  0  0  0  0  0  0  0
   -0.6558   -6.7819   -0.7841 C   0  0  0  0  0  0  0  0  0  0  0  0
   -0.0111   -7.5354   -0.3038 H   0  0  0  0  0  0  0  0  0  0  0  0
   -1.5317   -7.3401   -1.1520 H   0  0  0  0  0  0  0  0  0  0  0  0
   -0.1109   -6.4687   -1.6890 H   0  0  0  0  0  0  0  0  0  0  0  0
   -0.1543   -4.6083    0.1480 N   0  0  0  0  0  0  0  0  0  0  0  0
   -0.3302   -3.4398    0.9696 C   0  0  2  0  0  0  0  0  0  0  0  0
    0.2328   -2.2439    0.2131 C   0  0  0  0  0  0  0  0  0  0  0  0
    1.2097   -2.3192   -0.5294 O   0  0  0  0  0  0  0  0  0  0  0  0
    0.3557   -3.6024    2.3171 C   0  0  0  0  0  0  0  0  0  0  0  0
    0.6584   -4.6506   -0.4643 H   0  0  0  0  0  0  0  0  0  0  0  0
   -1.4091   -3.3101    1.1082 H   0  0  0  0  0  0  0  0  0  0  0  0
    1.4375   -3.7336    2.1985 H   0  0  0  0  0  0  0  0  0  0  0  0
    0.1969   -2.7243    2.9517 H   0  0  0  0  0  0  0  0  0  0  0  0
   -0.0294   -4.4803    2.8470 H   0  0  0  0  0  0  0  0  0  0  0  0
   -0.4616   -1.0893    0.5050 N   0  0  0  0  0  0  0  0  0  0  0  0
   -0.0884    0.2050   -0.0621 C   0  0  2  0  0  0  0  0  0  0  0  0
    0.2428    1.1397    1.0979 C   0  0  0  0  0  0  0  0  0  0  0  0
   -0.5932    1.8643    1.6342 O   0  0  0  0  0  0  0  0  0  0  0  0
   -1.2163    0.8177   -0.9057 C   0  0  0  0  0  0  0  0  0  0  0  0
   -1.4994    0.0431   -2.1970 C   0  0  0  0  0  0  0  0  0  0  0  0
   -2.6129    0.7092   -3.0098 C   0  0  0  0  0  0  0  0  0  0  0  0
   -2.9117   -0.0772   -4.2852 C   0  0  0  0  0  0  0  0  0  0  0  0
   -3.9896    0.5601   -5.0320 N   0  0  0  0  0  0  0  0  0  0  0  0
   -1.2794   -1.1113    1.0935 H   0  0  0  0  0  0  0  0  0  0  0  0
    0.8075    0.0695   -0.6799 H   0  0  0  0  0  0  0  0  0  0  0  0
   -0.9509    1.8513   -1.1641 H   0  0  0  0  0  0  0  0  0  0  0  0
   -2.1359    0.8844   -0.3084 H   0  0  0  0  0  0  0  0  0  0  0  0
   -1.7941   -0.9862   -1.9634 H   0  0  0  0  0  0  0  0  0  0  0  0
   -0.5857   -0.0082   -2.8012 H   0  0  0  0  0  0  0  0  0  0  0  0
   -3.5193    0.7810   -2.3955 H   0  0  0  0  0  0  0  0  0  0  0  0
   -2.3151    1.7335   -3.2673 H   0  0  0  0  0  0  0  0  0  0  0  0
   -3.1996   -1.1049   -4.0382 H   0  0  0  0  0  0  0  0  0  0  0  0
   -2.0185   -0.1235   -4.9172 H   0  0  0  0  0  0  0  0  0  0  0  0
   -4.2976    1.3541   -4.5210 H   0  0  0  0  0  0  0  0  0  0  0  0
   -3.6366    0.8317   -5.9198 H   0  0  0  0  0  0  0  0  0  0  0  0
    1.5851    1.0841    1.4467 N   0  0  0  0  0  0  0  0  0  0  0  0
    2.1641    1.8867    2.5000 C   0  0  2  0  0  0  0  0  0  0  0  0
    3.6029    2.2029    2.1135 C   0  0  0  0  0  0  0  0  0  0  0  0
    4.3163    1.4220    1.4872 O   0  0  0  0  0  0  0  0  0  0  0  0
    2.1064    1.1678    3.8388 C   0  0  0  0  0  0  0  0  0  0  0  0
    2.2019    0.4464    0.9522 H   0  0  0  0  0  0  0  0  0  0  0  0
    1.5848    2.8154    2.5447 H   0  0  0  0  0  0  0  0  0  0  0  0
    2.6812    0.2348    3.8134 H   0  0  0  0  0  0  0  0  0  0  0  0
    2.5194    1.7886    4.6407 H   0  0  0  0  0  0  0  0  0  0  0  0
    1.0735    0.9147    4.1011 H   0  0  0  0  0  0  0  0  0  0  0  0
    4.0103    3.4421    2.5875 N   0  0  0  0  0  0  0  0  0  0  0  0
    5.3468    3.9521    2.3881 C   0  0  0  0  0  0  0  0  0  0  0  0
    3.3407    4.0403    3.0623 H   0  0  0  0  0  0  0  0  0  0  0  0
    5.9754    3.6814    3.2493 H   0  0  0  0  0  0  0  0  0  0  0  0
    5.7725    3.5164    1.4722 H   0  0  0  0  0  0  0  0  0  0  0  0
    5.3104    5.0472    2.2907 H   0  0  0  0  0  0  0  0  0  0  0  0
  1  3  1  0  0  0  0
  1  7  1  0  0  0  0
  1  2  2  0  0  0  0
 39 40  1  0  0  0  0
 40 48  1  0  0  0  0
 40 41  2  0  0  0  0
  8  9  1  0  0  0  0
  9 17  1  0  0  0  0
  9 10  2  0  0  0  0
 18 19  1  0  0  0  0
 19 38  1  0  0  0  0
 19 20  2  0  0  0  0
 39 42  1  0  0  0  0
  8 11  1  0  0  0  0
 48 49  1  0  0  0  0
 22 23  1  0  0  0  0
 21 22  1  0  0  0  0
 23 24  1  0  0  0  0
 18 21  1  0  0  0  0
 24 25  1  0  0  0  0
 38 39  1  0  0  0  0
  7  8  1  0  0  0  0
 17 18  1  0  0  0  0
  3  4  1  0  0  0  0
  3  5  1  0  0  0  0
  3  6  1  0  0  0  0
 42 45  1  0  0  0  0
 42 46  1  0  0  0  0
 42 47  1  0  0  0  0
 11 14  1  0  0  0  0
 11 15  1  0  0  0  0
 11 16  1  0  0  0  0
 49 51  1  0  0  0  0
 49 52  1  0  0  0  0
 49 53  1  0  0  0  0
 22 30  1  0  0  0  0
 22 31  1  0  0  0  0
 23 32  1  0  0  0  0
 23 33  1  0  0  0  0
 21 28  1  0  0  0  0
 21 29  1  0  0  0  0
 24 34  1  0  0  0  0
 24 35  1  0  0  0  0
 39 44  1  0  0  0  0
  8 13  1  0  0  0  0
 18 27  1  0  0  0  0
 25 36  1  0  0  0  0
 25 37  1  0  0  0  0
 48 50  1  0  0  0  0
  7 12  1  0  0  0  0
 38 43  1  0  0  0  0
 17 26  1  0  0  0  0
M  END
$$$$

  -OEChem-05262214473D

 53 52  0     1  0  0  0  0  0999 V2000
   -1.0338   -5.6785    0.1476 C   0  0  0  0  0  0  0  0  0  0  0  0
   -2.0514   -5.7797    0.8227 O   0  0  0  0  0  0  0  0  0  0  0  0
   -0.6558   -6.7819   -0.7841 C   0  0  0  0  0  0  0  0  0  0  0  0
   -0.0111   -7.5354   -0.3038 H   0  0  0  0  0  0  0  0  0  0  0  0
   -1.5317   -7.3401   -1.1520 H   0  0  0  0  0  0  0  0  0  0  0  0
   -0.1109   -6.4687   -1.6890 H   0  0  0  0  0  0  0  0  0  0  0  0
   -0.1543   -4.6083    0.1480 N   0  0  0  0  0  0  0  0  0  0  0  0
   -0.3302   -3.4398    0.9696 C   0  0  2  0  0  0  0  0  0  0  0  0
    0.2328   -2.2439    0.2131 C   0  0  0  0  0  0  0  0  0  0  0  0
    1.2097   -2.3192   -0.5294 O   0  0  0  0  0  0  0  0  0  0  0  0
    0.3557   -3.6024    2.3171 C   0  0  0  0  0  0  0  0  0  0  0  0
    0.6584   -4.6506   -0.4643 H   0  0  0  0  0  0  0  0  0  0  0  0
   -1.4091   -3.3101    1.1082 H   0  0  0  0  0  0  0  0  0  0  0  0
    1.4375   -3.7336    2.1985 H   0  0  0  0  0  0  0  0  0  0  0  0
    0.1969   -2.7243    2.9517 H   0  0  0  0  0  0  0  0  0  0  0  0
   -0.0294   -4.4803    2.8470 H   0  0  0  0  0  0  0  0  0  0  0  0
   -0.4616   -1.0893    0.5050 N   0  0  0  0  0  0  0  0  0  0  0  0
   -0.0884    0.2050   -0.0621 C   0  0  2  0  0  0  0  0  0  0  0  0
    0.2428    1.1397    1.0979 C   0  0  0  0  0  0  0  0  0  0  0  0
   -0.6173    1.6590    1.8065 O   0  0  0  0  0  0  0  0  0  0  0  0
   -1.2163    0.8177   -0.9057 C   0  0  0  0  0  0  0  0  0  0  0  0
   -1.4994    0.0431   -2.1970 C   0  0  0  0  0  0  0  0  0  0  0  0
   -2.6129    0.7092   -3.0098 C   0  0  0  0  0  0  0  0  0  0  0  0
   -2.9117   -0.0772   -4.2852 C   0  0  0  0  0  0  0  0  0  0  0  0
   -3.9896    0.5601   -5.0320 N   0  0  0  0  0  0  0  0  0  0  0  0
   -1.2794   -1.1113    1.0935 H   0  0  0  0  0  0  0  0  0  0  0  0
    0.8075    0.0695   -0.6799 H   0  0  0  0  0  0  0  0  0  0  0  0
   -0.9509    1.8513   -1.1641 H   0  0  0  0  0  0  0  0  0  0  0  0
   -2.1359    0.8844   -0.3084 H   0  0  0  0  0  0  0  0  0  0  0  0
   -1.7941   -0.9862   -1.9634 H   0  0  0  0  0  0  0  0  0  0  0  0
   -0.5857   -0.0082   -2.8012 H   0  0  0  0  0  0  0  0  0  0  0  0
   -3.5193    0.7810   -2.3955 H   0  0  0  0  0  0  0  0  0  0  0  0
   -2.3151    1.7335   -3.2673 H   0  0  0  0  0  0  0  0  0  0  0  0
   -3.1996   -1.1049   -4.0382 H   0  0  0  0  0  0  0  0  0  0  0  0
   -2.0185   -0.1235   -4.9172 H   0  0  0  0  0  0  0  0  0  0  0  0
   -4.2976    1.3541   -4.5210 H   0  0  0  0  0  0  0  0  0  0  0  0
   -3.6366    0.8317   -5.9198 H   0  0  0  0  0  0  0  0  0  0  0  0
    1.6095    1.3414    1.2325 N   0  0  0  0  0  0  0  0  0  0  0  0
    2.1883    2.2010    2.2399 C   0  0  2  0  0  0  0  0  0  0  0  0
    3.4561    2.8156    1.6617 C   0  0  0  0  0  0  0  0  0  0  0  0
    4.1937    2.2201    0.8791 O   0  0  0  0  0  0  0  0  0  0  0  0
    2.4904    1.4318    3.5165 C   0  0  0  0  0  0  0  0  0  0  0  0
    2.2476    0.8613    0.6049 H   0  0  0  0  0  0  0  0  0  0  0  0
    1.4566    2.9915    2.4394 H   0  0  0  0  0  0  0  0  0  0  0  0
    3.2217    0.6354    3.3363 H   0  0  0  0  0  0  0  0  0  0  0  0
    2.9023    2.0903    4.2884 H   0  0  0  0  0  0  0  0  0  0  0  0
    1.5827    0.9657    3.9147 H   0  0  0  0  0  0  0  0  0  0  0  0
    3.6900    4.0913    2.1559 N   0  0  0  0  0  0  0  0  0  0  0  0
    4.8522    4.8675    1.7917 C   0  0  0  0  0  0  0  0  0  0  0  0
    3.0050    4.5229    2.7693 H   0  0  0  0  0  0  0  0  0  0  0  0
    5.6538    4.6944    2.5249 H   0  0  0  0  0  0  0  0  0  0  0  0
    5.1976    4.5637    0.7925 H   0  0  0  0  0  0  0  0  0  0  0  0
    4.5906    5.9359    1.7801 H   0  0  0  0  0  0  0  0  0  0  0  0
  1  3  1  0  0  0  0
  1  7  1  0  0  0  0
  1  2  2  0  0  0  0
 39 40  1  0  0  0  0
 40 48  1  0  0  0  0
 40 41  2  0  0  0  0
  8  9  1  0  0  0  0
  9 17  1  0  0  0  0
  9 10  2  0  0  0  0
 18 19  1  0  0  0  0
 19 38  1  0  0  0  0
 19 20  2  0  0  0  0
 39 42  1  0  0  0  0
  8 11  1  0  0  0  0
 48 49  1  0  0  0  0
 22 23  1  0  0  0  0
 21 22  1  0  0  0  0
 23 24  1  0  0  0  0
 18 21  1  0  0  0  0
 24 25  1  0  0  0  0
 38 39  1  0  0  0  0
  7  8  1  0  0  0  0
 17 18  1  0  0  0  0
  3  4  1  0  0  0  0
  3  5  1  0  0  0  0
  3  6  1  0  0  0  0
 42 45  1  0  0  0  0
 42 46  1  0  0  0  0
 42 47  1  0  0  0  0
 11 14  1  0  0  0  0
 11 15  1  0  0  0  0
 11 16  1  0  0  0  0
 49 51  1  0  0  0  0
 49 52  1  0  0  0  0
 49 53  1  0  0  0  0
 22 30  1  0  0  0  0
 22 31  1  0  0  0  0
 23 32  1  0  0  0  0
 23 33  1  0  0  0  0
 21 28  1  0  0  0  0
 21 29  1  0  0  0  0
 24 34  1  0  0  0  0
 24 35  1  0  0  0  0
 39 44  1  0  0  0  0
  8 13  1  0  0  0  0
 18 27  1  0  0  0  0
 25 36  1  0  0  0  0
 25 37  1  0  0  0  0
 48 50  1  0  0  0  0
  7 12  1  0  0  0  0
 38 43  1  0  0  0  0
 17 26  1  0  0  0  0
M  END
$$$$

  -OEChem-05262214473D

 53 52  0     1  0  0  0  0  0999 V2000
   -1.0338   -5.6785    0.1476 C   0  0  0  0  0  0  0  0  0  0  0  0
   -2.0514   -5.7797    0.8227 O   0  0  0  0  0  0  0  0  0  0  0  0
   -0.6558   -6.7819   -0.7841 C   0  0  0  0  0  0  0  0  0  0  0  0
   -0.0111   -7.5354   -0.3038 H   0  0  0  0  0  0  0  0  0  0  0  0
   -1.5317   -7.3401   -1.1520 H   0  0  0  0  0  0  0  0  0  0  0  0
   -0.1109   -6.4687   -1.6890 H   0  0  0  0  0  0  0  0  0  0  0  0
   -0.1543   -4.6083    0.1480 N   0  0  0  0  0  0  0  0  0  0  0  0
   -0.3302   -3.4398    0.9696 C   0  0  2  0  0  0  0  0  0  0  0  0
    0.2328   -2.2439    0.2131 C   0  0  0  0  0  0  0  0  0  0  0  0
    1.2097   -2.3192   -0.5294 O   0  0  0  0  0  0  0  0  0  0  0  0
    0.3557   -3.6024    2.3171 C   0  0  0  0  0  0  0  0  0  0  0  0
    0.6584   -4.6506   -0.4643 H   0  0  0  0  0  0  0  0  0  0  0  0
   -1.4091   -3.3101    1.1082 H   0  0  0  0  0  0  0  0  0  0  0  0
    1.4375   -3.7336    2.1985 H   0  0  0  0  0  0  0  0  0  0  0  0
    0.1969   -2.7243    2.9517 H   0  0  0  0  0  0  0  0  0  0  0  0
   -0.0294   -4.4803    2.8470 H   0  0  0  0  0  0  0  0  0  0  0  0
   -0.4616   -1.0893    0.5050 N   0  0  0  0  0  0  0  0  0  0  0  0
   -0.0884    0.2050   -0.0621 C   0  0  2  0  0  0  0  0  0  0  0  0
    0.2428    1.1397    1.0979 C   0  0  0  0  0  0  0  0  0  0  0  0
   -0.5729    1.4463    1.9652 O   0  0  0  0  0  0  0  0  0  0  0  0
   -1.2163    0.8177   -0.9057 C   0  0  0  0  0  0  0  0  0  0  0  0
   -1.4994    0.0431   -2.1970 C   0  0  0  0  0  0  0  0  0  0  0  0
   -2.6129    0.7092   -3.0098 C   0  0  0  0  0  0  0  0  0  0  0  0
   -2.9117   -0.0772   -4.2852 C   0  0  0  0  0  0  0  0  0  0  0  0
   -3.9896    0.5601   -5.0320 N   0  0  0  0  0  0  0  0  0  0  0  0
   -1.2794   -1.1113    1.0935 H   0  0  0  0  0  0  0  0  0  0  0  0
    0.8075    0.0695   -0.6799 H   0  0  0  0  0  0  0  0  0  0  0  0
   -0.9509    1.8513   -1.1641 H   0  0  0  0  0  0  0  0  0  0  0  0
   -2.1359    0.8844   -0.3084 H   0  0  0  0  0  0  0  0  0  0  0  0
   -1.7941   -0.9862   -1.9634 H   0  0  0  0  0  0  0  0  0  0  0  0
   -0.5857   -0.0082   -2.8012 H   0  0  0  0  0  0  0  0  0  0  0  0
   -3.5193    0.7810   -2.3955 H   0  0  0  0  0  0  0  0  0  0  0  0
   -2.3151    1.7335   -3.2673 H   0  0  0  0  0  0  0  0  0  0  0  0
   -3.1996   -1.1049   -4.0382 H   0  0  0  0  0  0  0  0  0  0  0  0
   -2.0185   -0.1235   -4.9172 H   0  0  0  0  0  0  0  0  0  0  0  0
   -4.2976    1.3541   -4.5210 H   0  0  0  0  0  0  0  0  0  0  0  0
   -3.6366    0.8317   -5.9198 H   0  0  0  0  0  0  0  0  0  0  0  0
    1.5484    1.6068    1.0361 N   0  0  0  0  0  0  0  0  0  0  0  0
    2.1085    2.5240    2.0024 C   0  0  2  0  0  0  0  0  0  0  0  0
    3.1222    3.4040    1.2830 C   0  0  0  0  0  0  0  0  0  0  0  0
    3.8218    3.0011    0.3560 O   0  0  0  0  0  0  0  0  0  0  0  0
    2.7582    1.7805    3.1591 C   0  0  0  0  0  0  0  0  0  0  0  0
    2.1551    1.2906    0.2854 H   0  0  0  0  0  0  0  0  0  0  0  0
    1.2815    3.1424    2.3678 H   0  0  0  0  0  0  0  0  0  0  0  0
    3.5893    1.1555    2.8123 H   0  0  0  0  0  0  0  0  0  0  0  0
    3.1569    2.4767    3.9043 H   0  0  0  0  0  0  0  0  0  0  0  0
    2.0350    1.1255    3.6568 H   0  0  0  0  0  0  0  0  0  0  0  0
    3.1844    4.6796    1.8262 N   0  0  0  0  0  0  0  0  0  0  0  0
    4.0999    5.6879    1.3455 C   0  0  0  0  0  0  0  0  0  0  0  0
    2.5394    4.9394    2.5666 H   0  0  0  0  0  0  0  0  0  0  0  0
    5.0291    5.6503    1.9330 H   0  0  0  0  0  0  0  0  0  0  0  0
    4.3284    5.5003    0.2859 H   0  0  0  0  0  0  0  0  0  0  0  0
    3.6395    6.6813    1.4510 H   0  0  0  0  0  0  0  0  0  0  0  0
  1  3  1  0  0  0  0
  1  7  1  0  0  0  0
  1  2  2  0  0  0  0
 39 40  1  0  0  0  0
 40 48  1  0  0  0  0
 40 41  2  0  0  0  0
  8  9  1  0  0  0  0
  9 17  1  0  0  0  0
  9 10  2  0  0  0  0
 18 19  1  0  0  0  0
 19 38  1  0  0  0  0
 19 20  2  0  0  0  0
 39 42  1  0  0  0  0
  8 11  1  0  0  0  0
 48 49  1  0  0  0  0
 22 23  1  0  0  0  0
 21 22  1  0  0  0  0
 23 24  1  0  0  0  0
 18 21  1  0  0  0  0
 24 25  1  0  0  0  0
 38 39  1  0  0  0  0
  7  8  1  0  0  0  0
 17 18  1  0  0  0  0
  3  4  1  0  0  0  0
  3  5  1  0  0  0  0
  3  6  1  0  0  0  0
 42 45  1  0  0  0  0
 42 46  1  0  0  0  0
 42 47  1  0  0  0  0
 11 14  1  0  0  0  0
 11 15  1  0  0  0  0
 11 16  1  0  0  0  0
 49 51  1  0  0  0  0
 49 52  1  0  0  0  0
 49 53  1  0  0  0  0
 22 30  1  0  0  0  0
 22 31  1  0  0  0  0
 23 32  1  0  0  0  0
 23 33  1  0  0  0  0
 21 28  1  0  0  0  0
 21 29  1  0  0  0  0
 24 34  1  0  0  0  0
 24 35  1  0  0  0  0
 39 44  1  0  0  0  0
  8 13  1  0  0  0  0
 18 27  1  0  0  0  0
 25 36  1  0  0  0  0
 25 37  1  0  0  0  0
 48 50  1  0  0  0  0
  7 12  1  0  0  0  0
 38 43  1  0  0  0  0
 17 26  1  0  0  0  0
M  END
$$$$

  -OEChem-05262214473D

 53 52  0     1  0  0  0  0  0999 V2000
   -1.0338   -5.6785    0.1476 C   0  0  0  0  0  0  0  0  0  0  0  0
   -2.0514   -5.7797    0.8227 O   0  0  0  0  0  0  0  0  0  0  0  0
   -0.6558   -6.7819   -0.7841 C   0  0  0  0  0  0  0  0  0  0  0  0
   -0.0111   -7.5354   -0.3038 H   0  0  0  0  0  0  0  0  0  0  0  0
   -1.5317   -7.3401   -1.1520 H   0  0  0  0  0  0  0  0  0  0  0  0
   -0.1109   -6.4687   -1.6890 H   0  0  0  0  0  0  0  0  0  0  0  0
   -0.1543   -4.6083    0.1480 N   0  0  0  0  0  0  0  0  0  0  0  0
   -0.3302   -3.4398    0.9696 C   0  0  2  0  0  0  0  0  0  0  0  0
    0.2328   -2.2439    0.2131 C   0  0  0  0  0  0  0  0  0  0  0  0
    1.2097   -2.3192   -0.5294 O   0  0  0  0  0  0  0  0  0  0  0  0
    0.3557   -3.6024    2.3171 C   0  0  0  0  0  0  0  0  0  0  0  0
    0.6584   -4.6506   -0.4643 H   0  0  0  0  0  0  0  0  0  0  0  0
   -1.4091   -3.3101    1.1082 H   0  0  0  0  0  0  0  0  0  0  0  0
    1.4375   -3.7336    2.1985 H   0  0  0  0  0  0  0  0  0  0  0  0
    0.1969   -2.7243    2.9517 H   0  0  0  0  0  0  0  0  0  0  0  0
   -0.0294   -4.4803    2.8470 H   0  0  0  0  0  0  0  0  0  0  0  0
   -0.4616   -1.0893    0.5050 N   0  0  0  0  0  0  0  0  0  0  0  0
   -0.0884    0.2050   -0.0621 C   0  0  2  0  0  0  0  0  0  0  0  0
    0.2428    1.1397    1.0979 C   0  0  0  0  0  0  0  0  0  0  0  0
   -0.4630    1.2406    2.0995 O   0  0  0  0  0  0  0  0  0  0  0  0
   -1.2163    0.8177   -0.9057 C   0  0  0  0  0  0  0  0  0  0  0  0
   -1.4994    0.0431   -2.1970 C   0  0  0  0  0  0  0  0  0  0  0  0
   -2.6129    0.7092   -3.0098 C   0  0  0  0  0  0  0  0  0  0  0  0
   -2.9117   -0.0772   -4.2852 C   0  0  0  0  0  0  0  0  0  0  0  0
   -3.9896    0.5601   -5.0320 N   0  0  0  0  0  0  0  0  0  0  0  0
   -1.2794   -1.1113    1.0935 H   0  0  0  0  0  0  0  0  0  0  0  0
    0.8075    0.0695   -0.6799 H   0  0  0  0  0  0  0  0  0  0  0  0
   -0.9509    1.8513   -1.1641 H   0  0  0  0  0  0  0  0  0  0  0  0
   -2.1359    0.8844   -0.3084 H   0  0  0  0  0  0  0  0  0  0  0  0
   -1.7941   -0.9862   -1.9634 H   0  0  0  0  0  0  0  0  0  0  0  0
   -0.5857   -0.0082   -2.8012 H   0  0  0  0  0  0  0  0  0  0  0  0
   -3.5193    0.7810   -2.3955 H   0  0  0  0  0  0  0  0  0  0  0  0
   -2.3151    1.7335   -3.2673 H   0  0  0  0  0  0  0  0  0  0  0  0
   -3.1996   -1.1049   -4.0382 H   0  0  0  0  0  0  0  0  0  0  0  0
   -2.0185   -0.1235   -4.9172 H   0  0  0  0  0  0  0  0  0  0  0  0
   -4.2976    1.3541   -4.5210 H   0  0  0  0  0  0  0  0  0  0  0  0
   -3.6366    0.8317   -5.9198 H   0  0  0  0  0  0  0  0  0  0  0  0
    1.4061    1.8621    0.8710 N   0  0  0  0  0  0  0  0  0  0  0  0
    1.9304    2.8336    1.8038 C   0  0  2  0  0  0  0  0  0  0  0  0
    2.6239    3.9278    1.0031 C   0  0  0  0  0  0  0  0  0  0  0  0
    3.2261    3.7117   -0.0465 O   0  0  0  0  0  0  0  0  0  0  0  0
    2.8917    2.1901    2.7910 C   0  0  0  0  0  0  0  0  0  0  0  0
    1.9306    1.7050    0.0155 H   0  0  0  0  0  0  0  0  0  0  0  0
    1.0712    3.2576    2.3350 H   0  0  0  0  0  0  0  0  0  0  0  0
    3.7590    1.7596    2.2771 H   0  0  0  0  0  0  0  0  0  0  0  0
    3.2659    2.9217    3.5147 H   0  0  0  0  0  0  0  0  0  0  0  0
    2.3995    1.3834    3.3449 H   0  0  0  0  0  0  0  0  0  0  0  0
    2.5280    5.1669    1.6209 N   0  0  0  0  0  0  0  0  0  0  0  0
    3.1411    6.3574    1.0797 C   0  0  0  0  0  0  0  0  0  0  0  0
    1.9755    5.2616    2.4680 H   0  0  0  0  0  0  0  0  0  0  0  0
    4.1438    6.4839    1.5141 H   0  0  0  0  0  0  0  0  0  0  0  0
    3.2243    6.2625   -0.0130 H   0  0  0  0  0  0  0  0  0  0  0  0
    2.5220    7.2327    1.3256 H   0  0  0  0  0  0  0  0  0  0  0  0
  1  3  1  0  0  0  0
  1  7  1  0  0  0  0
  1  2  2  0  0  0  0
 39 40  1  0  0  0  0
 40 48  1  0  0  0  0
 40 41  2  0  0  0  0
  8  9  1  0  0  0  0
  9 17  1  0  0  0  0
  9 10  2  0  0  0  0
 18 19  1  0  0  0  0
 19 38  1  0  0  0  0
 19 20  2  0  0  0  0
 39 42  1  0  0  0  0
  8 11  1  0  0  0  0
 48 49  1  0  0  0  0
 22 23  1  0  0  0  0
 21 22  1  0  0  0  0
 23 24  1  0  0  0  0
 18 21  1  0  0  0  0
 24 25  1  0  0  0  0
 38 39  1  0  0  0  0
  7  8  1  0  0  0  0
 17 18  1  0  0  0  0
  3  4  1  0  0  0  0
  3  5  1  0  0  0  0
  3  6  1  0  0  0  0
 42 45  1  0  0  0  0
 42 46  1  0  0  0  0
 42 47  1  0  0  0  0
 11 14  1  0  0  0  0
 11 15  1  0  0  0  0
 11 16  1  0  0  0  0
 49 51  1  0  0  0  0
 49 52  1  0  0  0  0
 49 53  1  0  0  0  0
 22 30  1  0  0  0  0
 22 31  1  0  0  0  0
 23 32  1  0  0  0  0
 23 33  1  0  0  0  0
 21 28  1  0  0  0  0
 21 29  1  0  0  0  0
 24 34  1  0  0  0  0
 24 35  1  0  0  0  0
 39 44  1  0  0  0  0
  8 13  1  0  0  0  0
 18 27  1  0  0  0  0
 25 36  1  0  0  0  0
 25 37  1  0  0  0  0
 48 50  1  0  0  0  0
  7 12  1  0  0  0  0
 38 43  1  0  0  0  0
 17 26  1  0  0  0  0
M  END
$$$$

  -OEChem-05262214473D

 53 52  0     1  0  0  0  0  0999 V2000
   -1.0338   -5.6785    0.1476 C   0  0  0  0  0  0  0  0  0  0  0  0
   -2.0514   -5.7797    0.8227 O   0  0  0  0  0  0  0  0  0  0  0  0
   -0.6558   -6.7819   -0.7841 C   0  0  0  0  0  0  0  0  0  0  0  0
   -0.0111   -7.5354   -0.3038 H   0  0  0  0  0  0  0  0  0  0  0  0
   -1.5317   -7.3401   -1.1520 H   0  0  0  0  0  0  0  0  0  0  0  0
   -0.1109   -6.4687   -1.6890 H   0  0  0  0  0  0  0  0  0  0  0  0
   -0.1543   -4.6083    0.1480 N   0  0  0  0  0  0  0  0  0  0  0  0
   -0.3302   -3.4398    0.9696 C   0  0  2  0  0  0  0  0  0  0  0  0
    0.2328   -2.2439    0.2131 C   0  0  0  0  0  0  0  0  0  0  0  0
    1.2097   -2.3192   -0.5294 O   0  0  0  0  0  0  0  0  0  0  0  0
    0.3557   -3.6024    2.3171 C   0  0  0  0  0  0  0  0  0  0  0  0
    0.6584   -4.6506   -0.4643 H   0  0  0  0  0  0  0  0  0  0  0  0
   -1.4091   -3.3101    1.1082 H   0  0  0  0  0  0  0  0  0  0  0  0
    1.4375   -3.7336    2.1985 H   0  0  0  0  0  0  0  0  0  0  0  0
    0.1969   -2.7243    2.9517 H   0  0  0  0  0  0  0  0  0  0  0  0
   -0.0294   -4.4803    2.8470 H   0  0  0  0  0  0  0  0  0  0  0  0
   -0.4616   -1.0893    0.5050 N   0  0  0  0  0  0  0  0  0  0  0  0
   -0.0884    0.2050   -0.0621 C   0  0  2  0  0  0  0  0  0  0  0  0
    0.2428    1.1397    1.0979 C   0  0  0  0  0  0  0  0  0  0  0  0
   -0.2950    1.0561    2.2003 O   0  0  0  0  0  0  0  0  0  0  0  0
   -1.2163    0.8177   -0.9057 C   0  0  0  0  0  0  0  0  0  0  0  0
   -1.4994    0.0431   -2.1970 C   0  0  0  0  0  0  0  0  0  0  0  0
   -2.6129    0.7092   -3.0098 C   0  0  0  0  0  0  0  0  0  0  0  0
   -2.9117   -0.0772   -4.2852 C   0  0  0  0  0  0  0  0  0  0  0  0
   -3.9896    0.5601   -5.0320 N   0  0  0  0  0  0  0  0  0  0  0  0
   -1.2794   -1.1113    1.0935 H   0  0  0  0  0  0  0  0  0  0  0  0
    0.8075    0.0695   -0.6799 H   0  0  0  0  0  0  0  0  0  0  0  0
   -0.9509    1.8513   -1.1641 H   0  0  0  0  0  0  0  0  0  0  0  0
   -2.1359    0.8844   -0.3084 H   0  0  0  0  0  0  0  0  0  0  0  0
   -1.7941   -0.9862   -1.9634 H   0  0  0  0  0  0  0  0  0  0  0  0
   -0.5857   -0.0082   -2.8012 H   0  0  0  0  0  0  0  0  0  0  0  0
   -3.5193    0.7810   -2.3955 H   0  0  0  0  0  0  0  0  0  0  0  0
   -2.3151    1.7335   -3.2673 H   0  0  0  0  0  0  0  0  0  0  0  0
   -3.1996   -1.1049   -4.0382 H   0  0  0  0  0  0  0  0  0  0  0  0
   -2.0185   -0.1235   -4.9172 H   0  0  0  0  0  0  0  0  0  0  0  0
   -4.2976    1.3541   -4.5210 H   0  0  0  0  0  0  0  0  0  0  0  0
   -3.6366    0.8317   -5.9198 H   0  0  0  0  0  0  0  0  0  0  0  0
    1.1923    2.0900    0.7484 N   0  0  0  0  0  0  0  0  0  0  0  0
    1.6658    3.1087    1.6576 C   0  0  2  0  0  0  0  0  0  0  0  0
    1.9951    4.3515    0.8413 C   0  0  0  0  0  0  0  0  0  0  0  0
    2.4470    4.3035   -0.3009 O   0  0  0  0  0  0  0  0  0  0  0  0
    2.8817    2.6326    2.4372 C   0  0  0  0  0  0  0  0  0  0  0  0
    1.5895    2.0763   -0.1863 H   0  0  0  0  0  0  0  0  0  0  0  0
    0.8403    3.3294    2.3431 H   0  0  0  0  0  0  0  0  0  0  0  0
    3.7192    2.4066    1.7672 H   0  0  0  0  0  0  0  0  0  0  0  0
    3.2219    3.3948    3.1460 H   0  0  0  0  0  0  0  0  0  0  0  0
    2.6514    1.7218    3.0004 H   0  0  0  0  0  0  0  0  0  0  0  0
    1.7655    5.5201    1.5540 N   0  0  0  0  0  0  0  0  0  0  0  0
    2.0411    6.8304    1.0126 C   0  0  0  0  0  0  0  0  0  0  0  0
    1.3519    5.4673    2.4802 H   0  0  0  0  0  0  0  0  0  0  0  0
    3.0582    7.1385    1.2965 H   0  0  0  0  0  0  0  0  0  0  0  0
    1.9605    6.7983   -0.0840 H   0  0  0  0  0  0  0  0  0  0  0  0
    1.3143    7.5526    1.4127 H   0  0  0  0  0  0  0  0  0  0  0  0
  1  3  1  0  0  0  0
  1  7  1  0  0  0  0
  1  2  2  0  0  0  0
 39 40  1  0  0  0  0
 40 48  1  0  0  0  0
 40 41  2  0  0  0  0
  8  9  1  0  0  0  0
  9 17  1  0  0  0  0
  9 10  2  0  0  0  0
 18 19  1  0  0  0  0
 19 38  1  0  0  0  0
 19 20  2  0  0  0  0
 39 42  1  0  0  0  0
  8 11  1  0  0  0  0
 48 49  1  0  0  0  0
 22 23  1  0  0  0  0
 21 22  1  0  0  0  0
 23 24  1  0  0  0  0
 18 21  1  0  0  0  0
 24 25  1  0  0  0  0
 38 39  1  0  0  0  0
  7  8  1  0  0  0  0
 17 18  1  0  0  0  0
  3  4  1  0  0  0  0
  3  5  1  0  0  0  0
  3  6  1  0  0  0  0
 42 45  1  0  0  0  0
 42 46  1  0  0  0  0
 42 47  1  0  0  0  0
 11 14  1  0  0  0  0
 11 15  1  0  0  0  0
 11 16  1  0  0  0  0
 49 51  1  0  0  0  0
 49 52  1  0  0  0  0
 49 53  1  0  0  0  0
 22 30  1  0  0  0  0
 22 31  1  0  0  0  0
 23 32  1  0  0  0  0
 23 33  1  0  0  0  0
 21 28  1  0  0  0  0
 21 29  1  0  0  0  0
 24 34  1  0  0  0  0
 24 35  1  0  0  0  0
 39 44  1  0  0  0  0
  8 13  1  0  0  0  0
 18 27  1  0  0  0  0
 25 36  1  0  0  0  0
 25 37  1  0  0  0  0
 48 50  1  0  0  0  0
  7 12  1  0  0  0  0
 38 43  1  0  0  0  0
 17 26  1  0  0  0  0
M  END
$$$$

  -OEChem-05262214473D

 53 52  0     1  0  0  0  0  0999 V2000
   -1.0338   -5.6785    0.1476 C   0  0  0  0  0  0  0  0  0  0  0  0
   -2.0514   -5.7797    0.8227 O   0  0  0  0  0  0  0  0  0  0  0  0
   -0.6558   -6.7819   -0.7841 C   0  0  0  0  0  0  0  0  0  0  0  0
   -0.0111   -7.5354   -0.3038 H   0  0  0  0  0  0  0  0  0  0  0  0
   -1.5317   -7.3401   -1.1520 H   0  0  0  0  0  0  0  0  0  0  0  0
   -0.1109   -6.4687   -1.6890 H   0  0  0  0  0  0  0  0  0  0  0  0
   -0.1543   -4.6083    0.1480 N   0  0  0  0  0  0  0  0  0  0  0  0
   -0.3302   -3.4398    0.9696 C   0  0  2  0  0  0  0  0  0  0  0  0
    0.2328   -2.2439    0.2131 C   0  0  0  0  0  0  0  0  0  0  0  0
    1.2097   -2.3192   -0.5294 O   0  0  0  0  0  0  0  0  0  0  0  0
    0.3557   -3.6024    2.3171 C   0  0  0  0  0  0  0  0  0  0  0  0
    0.6584   -4.6506   -0.4643 H   0  0  0  0  0  0  0  0  0  0  0  0
   -1.4091   -3.3101    1.1082 H   0  0  0  0  0  0  0  0  0  0  0  0
    1.4375   -3.7336    2.1985 H   0  0  0  0  0  0  0  0  0  0  0  0
    0.1969   -2.7243    2.9517 H   0  0  0  0  0  0  0  0  0  0  0  0
   -0.0294   -4.4803    2.8470 H   0  0  0  0  0  0  0  0  0  0  0  0
   -0.4616   -1.0893    0.5050 N   0  0  0  0  0  0  0  0  0  0  0  0
   -0.0884    0.2050   -0.0621 C   0  0  2  0  0  0  0  0  0  0  0  0
    0.2428    1.1397    1.0979 C   0  0  0  0  0  0  0  0  0  0  0  0
   -0.0806    0.9052    2.2606 O   0  0  0  0  0  0  0  0  0  0  0  0
   -1.2163    0.8177   -0.9057 C   0  0  0  0  0  0  0  0  0  0  0  0
   -1.4994    0.0431   -2.1970 C   0  0  0  0  0  0  0  0  0  0  0  0
   -2.6129    0.7092   -3.0098 C   0  0  0  0  0  0  0  0  0  0  0  0
   -2.9117   -0.0772   -4.2852 C   0  0  0  0  0  0  0  0  0  0  0  0
   -3.9896    0.5601   -5.0320 N   0  0  0  0  0  0  0  0  0  0  0  0
   -1.2794   -1.1113    1.0935 H   0  0  0  0  0  0  0  0  0  0  0  0
    0.8075    0.0695   -0.6799 H   0  0  0  0  0  0  0  0  0  0  0  0
   -0.9509    1.8513   -1.1641 H   0  0  0  0  0  0  0  0  0  0  0  0
   -2.1359    0.8844   -0.3084 H   0  0  0  0  0  0  0  0  0  0  0  0
   -1.7941   -0.9862   -1.9634 H   0  0  0  0  0  0  0  0  0  0  0  0
   -0.5857   -0.0082   -2.8012 H   0  0  0  0  0  0  0  0  0  0  0  0
   -3.5193    0.7810   -2.3955 H   0  0  0  0  0  0  0  0  0  0  0  0
   -2.3151    1.7335   -3.2673 H   0  0  0  0  0  0  0  0  0  0  0  0
   -3.1996   -1.1049   -4.0382 H   0  0  0  0  0  0  0  0  0  0  0  0
   -2.0185   -0.1235   -4.9172 H   0  0  0  0  0  0  0  0  0  0  0  0
   -4.2976    1.3541   -4.5210 H   0  0  0  0  0  0  0  0  0  0  0  0
   -3.6366    0.8317   -5.9198 H   0  0  0  0  0  0  0  0  0  0  0  0
    0.9214    2.2750    0.6767 N   0  0  0  0  0  0  0  0  0  0  0  0
    1.3331    3.3306    1.5738 C   0  0  2  0  0  0  0  0  0  0  0  0
    1.2787    4.6462    0.8083 C   0  0  0  0  0  0  0  0  0  0  0  0
    1.5377    4.7362   -0.3900 O   0  0  0  0  0  0  0  0  0  0  0  0
    2.7289    3.0780    2.1220 C   0  0  0  0  0  0  0  0  0  0  0  0
    1.1550    2.3791   -0.3062 H   0  0  0  0  0  0  0  0  0  0  0  0
    0.6044    3.3529    2.3915 H   0  0  0  0  0  0  0  0  0  0  0  0
    3.4727    3.0523    1.3173 H   0  0  0  0  0  0  0  0  0  0  0  0
    3.0279    3.8639    2.8235 H   0  0  0  0  0  0  0  0  0  0  0  0
    2.7736    2.1175    2.6467 H   0  0  0  0  0  0  0  0  0  0  0  0
    0.9490    5.7149    1.6301 N   0  0  0  0  0  0  0  0  0  0  0  0
    0.8749    7.0746    1.1487 C   0  0  0  0  0  0  0  0  0  0  0  0
    0.7109    5.5427    2.6024 H   0  0  0  0  0  0  0  0  0  0  0  0
    1.8464    7.5694    1.2952 H   0  0  0  0  0  0  0  0  0  0  0  0
    0.6231    7.0711    0.0779 H   0  0  0  0  0  0  0  0  0  0  0  0
    0.0985    7.6190    1.7062 H   0  0  0  0  0  0  0  0  0  0  0  0
  1  3  1  0  0  0  0
  1  7  1  0  0  0  0
  1  2  2  0  0  0  0
 39 40  1  0  0  0  0
 40 48  1  0  0  0  0
 40 41  2  0  0  0  0
  8  9  1  0  0  0  0
  9 17  1  0  0  0  0
  9 10  2  0  0  0  0
 18 19  1  0  0  0  0
 19 38  1  0  0  0  0
 19 20  2  0  0  0  0
 39 42  1  0  0  0  0
  8 11  1  0  0  0  0
 48 49  1  0  0  0  0
 22 23  1  0  0  0  0
 21 22  1  0  0  0  0
 23 24  1  0  0  0  0
 18 21  1  0  0  0  0
 24 25  1  0  0  0  0
 38 39  1  0  0  0  0
  7  8  1  0  0  0  0
 17 18  1  0  0  0  0
  3  4  1  0  0  0  0
  3  5  1  0  0  0  0
  3  6  1  0  0  0  0
 42 45  1  0  0  0  0
 42 46  1  0  0  0  0
 42 47  1  0  0  0  0
 11 14  1  0  0  0  0
 11 15  1  0  0  0  0
 11 16  1  0  0  0  0
 49 51  1  0  0  0  0
 49 52  1  0  0  0  0
 49 53  1  0  0  0  0
 22 30  1  0  0  0  0
 22 31  1  0  0  0  0
 23 32  1  0  0  0  0
 23 33  1  0  0  0  0
 21 28  1  0  0  0  0
 21 29  1  0  0  0  0
 24 34  1  0  0  0  0
 24 35  1  0  0  0  0
 39 44  1  0  0  0  0
  8 13  1  0  0  0  0
 18 27  1  0  0  0  0
 25 36  1  0  0  0  0
 25 37  1  0  0  0  0
 48 50  1  0  0  0  0
  7 12  1  0  0  0  0
 38 43  1  0  0  0  0
 17 26  1  0  0  0  0
M  END
$$$$

  -OEChem-05262214473D

 53 52  0     1  0  0  0  0  0999 V2000
   -1.0338   -5.6785    0.1476 C   0  0  0  0  0  0  0  0  0  0  0  0
   -2.0514   -5.7797    0.8227 O   0  0  0  0  0  0  0  0  0  0  0  0
   -0.6558   -6.7819   -0.7841 C   0  0  0  0  0  0  0  0  0  0  0  0
   -0.0111   -7.5354   -0.3038 H   0  0  0  0  0  0  0  0  0  0  0  0
   -1.5317   -7.3401   -1.1520 H   0  0  0  0  0  0  0  0  0  0  0  0
   -0.1109   -6.4687   -1.6890 H   0  0  0  0  0  0  0  0  0  0  0  0
   -0.1543   -4.6083    0.1480 N   0  0  0  0  0  0  0  0  0  0  0  0
   -0.3302   -3.4398    0.9696 C   0  0  2  0  0  0  0  0  0  0  0  0
    0.2328   -2.2439    0.2131 C   0  0  0  0  0  0  0  0  0  0  0  0
    1.2097   -2.3192   -0.5294 O   0  0  0  0  0  0  0  0  0  0  0  0
    0.3557   -3.6024    2.3171 C   0  0  0  0  0  0  0  0  0  0  0  0
    0.6584   -4.6506   -0.4643 H   0  0  0  0  0  0  0  0  0  0  0  0
   -1.4091   -3.3101    1.1082 H   0  0  0  0  0  0  0  0  0  0  0  0
    1.4375   -3.7336    2.1985 H   0  0  0  0  0  0  0  0  0  0  0  0
    0.1969   -2.7243    2.9517 H   0  0  0  0  0  0  0  0  0  0  0  0
   -0.0294   -4.4803    2.8470 H   0  0  0  0  0  0  0  0  0  0  0  0
   -0.4616   -1.0893    0.5050 N   0  0  0  0  0  0  0  0  0  0  0  0
   -0.0884    0.2050   -0.0621 C   0  0  2  0  0  0  0  0  0  0  0  0
    0.5952    1.0119    1.0381 C   0  0  0  0  0  0  0  0  0  0  0  0
    0.7500    0.5884    2.1819 O   0  0  0  0  0  0  0  0  0  0  0  0
   -1.3047    0.9834   -0.5856 C   0  0  0  0  0  0  0  0  0  0  0  0
   -1.9541    0.3412   -1.8158 C   0  0  0  0  0  0  0  0  0  0  0  0
   -3.1437    1.1689   -2.3099 C   0  0  0  0  0  0  0  0  0  0  0  0
   -3.8059    0.5152   -3.5216 C   0  0  0  0  0  0  0  0  0  0  0  0
   -4.9493    1.3058   -3.9615 N   0  0  0  0  0  0  0  0  0  0  0  0
   -1.2794   -1.1113    1.0935 H   0  0  0  0  0  0  0  0  0  0  0  0
    0.6248    0.0355   -0.8777 H   0  0  0  0  0  0  0  0  0  0  0  0
   -0.9943    2.0049   -0.8421 H   0  0  0  0  0  0  0  0  0  0  0  0
   -2.0528    1.0884    0.2119 H   0  0  0  0  0  0  0  0  0  0  0  0
   -2.2979   -0.6714   -1.5764 H   0  0  0  0  0  0  0  0  0  0  0  0
   -1.2115    0.2525   -2.6179 H   0  0  0  0  0  0  0  0  0  0  0  0
   -3.8747    1.2764   -1.4986 H   0  0  0  0  0  0  0  0  0  0  0  0
   -2.8028    2.1781   -2.5735 H   0  0  0  0  0  0  0  0  0  0  0  0
   -4.1400   -0.4975   -3.2707 H   0  0  0  0  0  0  0  0  0  0  0  0
   -3.0890    0.4356   -4.3456 H   0  0  0  0  0  0  0  0  0  0  0  0
   -5.0462    2.0829   -3.3505 H   0  0  0  0  0  0  0  0  0  0  0  0
   -4.7786    1.6118   -4.8909 H   0  0  0  0  0  0  0  0  0  0  0  0
    0.9908    2.2670    0.5965 N   0  0  0  0  0  0  0  0  0  0  0  0
    1.6419    3.2374    1.4469 C   0  0  2  0  0  0  0  0  0  0  0  0
    1.2188    4.6258    0.9857 C   0  0  0  0  0  0  0  0  0  0  0  0
    1.0004    4.9040   -0.1915 O   0  0  0  0  0  0  0  0  0  0  0  0
    3.1545    3.0868    1.4010 C   0  0  0  0  0  0  0  0  0  0  0  0
    0.8292    2.5276   -0.3717 H   0  0  0  0  0  0  0  0  0  0  0  0
    1.2756    3.0625    2.4644 H   0  0  0  0  0  0  0  0  0  0  0  0
    3.5398    3.2584    0.3893 H   0  0  0  0  0  0  0  0  0  0  0  0
    3.6450    3.8038    2.0675 H   0  0  0  0  0  0  0  0  0  0  0  0
    3.4551    2.0782    1.7045 H   0  0  0  0  0  0  0  0  0  0  0  0
    1.1557    5.5286    2.0380 N   0  0  0  0  0  0  0  0  0  0  0  0
    0.8187    6.9206    1.8518 C   0  0  0  0  0  0  0  0  0  0  0  0
    1.3134    5.2019    2.9868 H   0  0  0  0  0  0  0  0  0  0  0  0
    1.7398    7.5066    1.7170 H   0  0  0  0  0  0  0  0  0  0  0  0
    0.1824    7.0277    0.9609 H   0  0  0  0  0  0  0  0  0  0  0  0
    0.2767    7.2879    2.7358 H   0  0  0  0  0  0  0  0  0  0  0  0
  1  3  1  0  0  0  0
  1  7  1  0  0  0  0
  1  2  2  0  0  0  0
 39 40  1  0  0  0  0
 40 48  1  0  0  0  0
 40 41  2  0  0  0  0
  8  9  1  0  0  0  0
  9 17  1  0  0  0  0
  9 10  2  0  0  0  0
 18 19  1  0  0  0  0
 19 38  1  0  0  0  0
 19 20  2  0  0  0  0
 39 42  1  0  0  0  0
  8 11  1  0  0  0  0
 48 49  1  0  0  0  0
 22 23  1  0  0  0  0
 21 22  1  0  0  0  0
 23 24  1  0  0  0  0
 18 21  1  0  0  0  0
 24 25  1  0  0  0  0
 38 39  1  0  0  0  0
  7  8  1  0  0  0  0
 17 18  1  0  0  0  0
  3  4  1  0  0  0  0
  3  5  1  0  0  0  0
  3  6  1  0  0  0  0
 42 45  1  0  0  0  0
 42 46  1  0  0  0  0
 42 47  1  0  0  0  0
 11 14  1  0  0  0  0
 11 15  1  0  0  0  0
 11 16  1  0  0  0  0
 49 51  1  0  0  0  0
 49 52  1  0  0  0  0
 49 53  1  0  0  0  0
 22 30  1  0  0  0  0
 22 31  1  0  0  0  0
 23 32  1  0  0  0  0
 23 33  1  0  0  0  0
 21 28  1  0  0  0  0
 21 29  1  0  0  0  0
 24 34  1  0  0  0  0
 24 35  1  0  0  0  0
 39 44  1  0  0  0  0
  8 13  1  0  0  0  0
 18 27  1  0  0  0  0
 25 36  1  0  0  0  0
 25 37  1  0  0  0  0
 48 50  1  0  0  0  0
  7 12  1  0  0  0  0
 38 43  1  0  0  0  0
 17 26  1  0  0  0  0
M  END
$$$$

  -OEChem-05262214473D

 53 52  0     1  0  0  0  0  0999 V2000
   -1.0338   -5.6785    0.1476 C   0  0  0  0  0  0  0  0  0  0  0  0
   -2.0514   -5.7797    0.8227 O   0  0  0  0  0  0  0  0  0  0  0  0
   -0.6558   -6.7819   -0.7841 C   0  0  0  0  0  0  0  0  0  0  0  0
   -0.0111   -7.5354   -0.3038 H   0  0  0  0  0  0  0  0  0  0  0  0
   -1.5317   -7.3401   -1.1520 H   0  0  0  0  0  0  0  0  0  0  0  0
   -0.1109   -6.4687   -1.6890 H   0  0  0  0  0  0  0  0  0  0  0  0
   -0.1543   -4.6083    0.1480 N   0  0  0  0  0  0  0  0  0  0  0  0
   -0.3302   -3.4398    0.9696 C   0  0  2  0  0  0  0  0  0  0  0  0
    0.2328   -2.2439    0.2131 C   0  0  0  0  0  0  0  0  0  0  0  0
    1.2097   -2.3192   -0.5294 O   0  0  0  0  0  0  0  0  0  0  0  0
    0.3557   -3.6024    2.3171 C   0  0  0  0  0  0  0  0  0  0  0  0
    0.6584   -4.6506   -0.4643 H   0  0  0  0  0  0  0  0  0  0  0  0
   -1.4091   -3.3101    1.1082 H   0  0  0  0  0  0  0  0  0  0  0  0
    1.4375   -3.7336    2.1985 H   0  0  0  0  0  0  0  0  0  0  0  0
    0.1969   -2.7243    2.9517 H   0  0  0  0  0  0  0  0  0  0  0  0
   -0.0294   -4.4803    2.8470 H   0  0  0  0  0  0  0  0  0  0  0  0
   -0.4616   -1.0893    0.5050 N   0  0  0  0  0  0  0  0  0  0  0  0
   -0.0884    0.2050   -0.0621 C   0  0  2  0  0  0  0  0  0  0  0  0
    0.5952    1.0119    1.0381 C   0  0  0  0  0  0  0  0  0  0  0  0
    0.9905    0.5112    2.0891 O   0  0  0  0  0  0  0  0  0  0  0  0
   -1.3047    0.9834   -0.5856 C   0  0  0  0  0  0  0  0  0  0  0  0
   -1.9541    0.3412   -1.8158 C   0  0  0  0  0  0  0  0  0  0  0  0
   -3.1437    1.1689   -2.3099 C   0  0  0  0  0  0  0  0  0  0  0  0
   -3.8059    0.5152   -3.5216 C   0  0  0  0  0  0  0  0  0  0  0  0
   -4.9493    1.3058   -3.9615 N   0  0  0  0  0  0  0  0  0  0  0  0
   -1.2794   -1.1113    1.0935 H   0  0  0  0  0  0  0  0  0  0  0  0
    0.6248    0.0355   -0.8777 H   0  0  0  0  0  0  0  0  0  0  0  0
   -0.9943    2.0049   -0.8421 H   0  0  0  0  0  0  0  0  0  0  0  0
   -2.0528    1.0884    0.2119 H   0  0  0  0  0  0  0  0  0  0  0  0
   -2.2979   -0.6714   -1.5764 H   0  0  0  0  0  0  0  0  0  0  0  0
   -1.2115    0.2525   -2.6179 H   0  0  0  0  0  0  0  0  0  0  0  0
   -3.8747    1.2764   -1.4986 H   0  0  0  0  0  0  0  0  0  0  0  0
   -2.8028    2.1781   -2.5735 H   0  0  0  0  0  0  0  0  0  0  0  0
   -4.1400   -0.4975   -3.2707 H   0  0  0  0  0  0  0  0  0  0  0  0
   -3.0890    0.4356   -4.3456 H   0  0  0  0  0  0  0  0  0  0  0  0
   -5.0462    2.0829   -3.3505 H   0  0  0  0  0  0  0  0  0  0  0  0
   -4.7786    1.6118   -4.8909 H   0  0  0  0  0  0  0  0  0  0  0  0
    0.6906    2.3586    0.7158 N   0  0  0  0  0  0  0  0  0  0  0  0
    1.2765    3.3444    1.5955 C   0  0  2  0  0  0  0  0  0  0  0  0
    0.5489    4.6639    1.3741 C   0  0  0  0  0  0  0  0  0  0  0  0
    0.1127    5.0140    0.2794 O   0  0  0  0  0  0  0  0  0  0  0  0
    2.7679    3.4967    1.3405 C   0  0  0  0  0  0  0  0  0  0  0  0
    0.3438    2.6811   -0.1827 H   0  0  0  0  0  0  0  0  0  0  0  0
    1.1018    2.9978    2.6198 H   0  0  0  0  0  0  0  0  0  0  0  0
    2.9626    3.8433    0.3190 H   0  0  0  0  0  0  0  0  0  0  0  0
    3.2157    4.2230    2.0269 H   0  0  0  0  0  0  0  0  0  0  0  0
    3.2854    2.5402    1.4712 H   0  0  0  0  0  0  0  0  0  0  0  0
    0.4818    5.4239    2.5334 N   0  0  0  0  0  0  0  0  0  0  0  0
   -0.1220    6.7353    2.5722 C   0  0  0  0  0  0  0  0  0  0  0  0
    0.8339    5.0382    3.4047 H   0  0  0  0  0  0  0  0  0  0  0  0
    0.6495    7.5000    2.3992 H   0  0  0  0  0  0  0  0  0  0  0  0
   -0.8918    6.8076    1.7898 H   0  0  0  0  0  0  0  0  0  0  0  0
   -0.5841    6.8971    3.5572 H   0  0  0  0  0  0  0  0  0  0  0  0
  1  3  1  0  0  0  0
  1  7  1  0  0  0  0
  1  2  2  0  0  0  0
 39 40  1  0  0  0  0
 40 48  1  0  0  0  0
 40 41  2  0  0  0  0
  8  9  1  0  0  0  0
  9 17  1  0  0  0  0
  9 10  2  0  0  0  0
 18 19  1  0  0  0  0
 19 38  1  0  0  0  0
 19 20  2  0  0  0  0
 39 42  1  0  0  0  0
  8 11  1  0  0  0  0
 48 49  1  0  0  0  0
 22 23  1  0  0  0  0
 21 22  1  0  0  0  0
 23 24  1  0  0  0  0
 18 21  1  0  0  0  0
 24 25  1  0  0  0  0
 38 39  1  0  0  0  0
  7  8  1  0  0  0  0
 17 18  1  0  0  0  0
  3  4  1  0  0  0  0
  3  5  1  0  0  0  0
  3  6  1  0  0  0  0
 42 45  1  0  0  0  0
 42 46  1  0  0  0  0
 42 47  1  0  0  0  0
 11 14  1  0  0  0  0
 11 15  1  0  0  0  0
 11 16  1  0  0  0  0
 49 51  1  0  0  0  0
 49 52  1  0  0  0  0
 49 53  1  0  0  0  0
 22 30  1  0  0  0  0
 22 31  1  0  0  0  0
 23 32  1  0  0  0  0
 23 33  1  0  0  0  0
 21 28  1  0  0  0  0
 21 29  1  0  0  0  0
 24 34  1  0  0  0  0
 24 35  1  0  0  0  0
 39 44  1  0  0  0  0
  8 13  1  0  0  0  0
 18 27  1  0  0  0  0
 25 36  1  0  0  0  0
 25 37  1  0  0  0  0
 48 50  1  0  0  0  0
  7 12  1  0  0  0  0
 38 43  1  0  0  0  0
 17 26  1  0  0  0  0
M  END
$$$$

  -OEChem-05262214473D

 53 52  0     1  0  0  0  0  0999 V2000
   -1.0338   -5.6785    0.1476 C   0  0  0  0  0  0  0  0  0  0  0  0
   -2.0514   -5.7797    0.8227 O   0  0  0  0  0  0  0  0  0  0  0  0
   -0.6558   -6.7819   -0.7841 C   0  0  0  0  0  0  0  0  0  0  0  0
   -0.0111   -7.5354   -0.3038 H   0  0  0  0  0  0  0  0  0  0  0  0
   -1.5317   -7.3401   -1.1520 H   0  0  0  0  0  0  0  0  0  0  0  0
   -0.1109   -6.4687   -1.6890 H   0  0  0  0  0  0  0  0  0  0  0  0
   -0.1543   -4.6083    0.1480 N   0  0  0  0  0  0  0  0  0  0  0  0
   -0.3302   -3.4398    0.9696 C   0  0  2  0  0  0  0  0  0  0  0  0
    0.2328   -2.2439    0.2131 C   0  0  0  0  0  0  0  0  0  0  0  0
    1.2097   -2.3192   -0.5294 O   0  0  0  0  0  0  0  0  0  0  0  0
    0.3557   -3.6024    2.3171 C   0  0  0  0  0  0  0  0  0  0  0  0
    0.6584   -4.6506   -0.4643 H   0  0  0  0  0  0  0  0  0  0  0  0
   -1.4091   -3.3101    1.1082 H   0  0  0  0  0  0  0  0  0  0  0  0
    1.4375   -3.7336    2.1985 H   0  0  0  0  0  0  0  0  0  0  0  0
    0.1969   -2.7243    2.9517 H   0  0  0  0  0  0  0  0  0  0  0  0
   -0.0294   -4.4803    2.8470 H   0  0  0  0  0  0  0  0  0  0  0  0
   -0.4616   -1.0893    0.5050 N   0  0  0  0  0  0  0  0  0  0  0  0
   -0.0884    0.2050   -0.0621 C   0  0  2  0  0  0  0  0  0  0  0  0
    0.5952    1.0119    1.0381 C   0  0  0  0  0  0  0  0  0  0  0  0
    1.2245    0.4922    1.9576 O   0  0  0  0  0  0  0  0  0  0  0  0
   -1.3047    0.9834   -0.5856 C   0  0  0  0  0  0  0  0  0  0  0  0
   -1.9541    0.3412   -1.8158 C   0  0  0  0  0  0  0  0  0  0  0  0
   -3.1437    1.1689   -2.3099 C   0  0  0  0  0  0  0  0  0  0  0  0
   -3.8059    0.5152   -3.5216 C   0  0  0  0  0  0  0  0  0  0  0  0
   -4.9493    1.3058   -3.9615 N   0  0  0  0  0  0  0  0  0  0  0  0
   -1.2794   -1.1113    1.0935 H   0  0  0  0  0  0  0  0  0  0  0  0
    0.6248    0.0355   -0.8777 H   0  0  0  0  0  0  0  0  0  0  0  0
   -0.9943    2.0049   -0.8421 H   0  0  0  0  0  0  0  0  0  0  0  0
   -2.0528    1.0884    0.2119 H   0  0  0  0  0  0  0  0  0  0  0  0
   -2.2979   -0.6714   -1.5764 H   0  0  0  0  0  0  0  0  0  0  0  0
   -1.2115    0.2525   -2.6179 H   0  0  0  0  0  0  0  0  0  0  0  0
   -3.8747    1.2764   -1.4986 H   0  0  0  0  0  0  0  0  0  0  0  0
   -2.8028    2.1781   -2.5735 H   0  0  0  0  0  0  0  0  0  0  0  0
   -4.1400   -0.4975   -3.2707 H   0  0  0  0  0  0  0  0  0  0  0  0
   -3.0890    0.4356   -4.3456 H   0  0  0  0  0  0  0  0  0  0  0  0
   -5.0462    2.0829   -3.3505 H   0  0  0  0  0  0  0  0  0  0  0  0
   -4.7786    1.6118   -4.8909 H   0  0  0  0  0  0  0  0  0  0  0  0
    0.3999    2.3773    0.8827 N   0  0  0  0  0  0  0  0  0  0  0  0
    0.9239    3.3624    1.8013 C   0  0  2  0  0  0  0  0  0  0  0  0
   -0.0522    4.5306    1.8453 C   0  0  0  0  0  0  0  0  0  0  0  0
   -0.7008    4.8999    0.8685 O   0  0  0  0  0  0  0  0  0  0  0  0
    2.3099    3.8276    1.3826 C   0  0  0  0  0  0  0  0  0  0  0  0
   -0.1279    2.7169    0.0842 H   0  0  0  0  0  0  0  0  0  0  0  0
    0.9673    2.8848    2.7863 H   0  0  0  0  0  0  0  0  0  0  0  0
    2.2863    4.3087    0.3980 H   0  0  0  0  0  0  0  0  0  0  0  0
    2.7172    4.5525    2.0950 H   0  0  0  0  0  0  0  0  0  0  0  0
    3.0033    2.9818    1.3226 H   0  0  0  0  0  0  0  0  0  0  0  0
   -0.0817    5.1395    3.0921 N   0  0  0  0  0  0  0  0  0  0  0  0
   -0.8975    6.2972    3.3753 C   0  0  0  0  0  0  0  0  0  0  0  0
    0.4584    4.7422    3.8551 H   0  0  0  0  0  0  0  0  0  0  0  0
   -0.3091    7.2112    3.2066 H   0  0  0  0  0  0  0  0  0  0  0  0
   -1.7749    6.2985    2.7118 H   0  0  0  0  0  0  0  0  0  0  0  0
   -1.2302    6.2637    4.4232 H   0  0  0  0  0  0  0  0  0  0  0  0
  1  3  1  0  0  0  0
  1  7  1  0  0  0  0
  1  2  2  0  0  0  0
 39 40  1  0  0  0  0
 40 48  1  0  0  0  0
 40 41  2  0  0  0  0
  8  9  1  0  0  0  0
  9 17  1  0  0  0  0
  9 10  2  0  0  0  0
 18 19  1  0  0  0  0
 19 38  1  0  0  0  0
 19 20  2  0  0  0  0
 39 42  1  0  0  0  0
  8 11  1  0  0  0  0
 48 49  1  0  0  0  0
 22 23  1  0  0  0  0
 21 22  1  0  0  0  0
 23 24  1  0  0  0  0
 18 21  1  0  0  0  0
 24 25  1  0  0  0  0
 38 39  1  0  0  0  0
  7  8  1  0  0  0  0
 17 18  1  0  0  0  0
  3  4  1  0  0  0  0
  3  5  1  0  0  0  0
  3  6  1  0  0  0  0
 42 45  1  0  0  0  0
 42 46  1  0  0  0  0
 42 47  1  0  0  0  0
 11 14  1  0  0  0  0
 11 15  1  0  0  0  0
 11 16  1  0  0  0  0
 49 51  1  0  0  0  0
 49 52  1  0  0  0  0
 49 53  1  0  0  0  0
 22 30  1  0  0  0  0
 22 31  1  0  0  0  0
 23 32  1  0  0  0  0
 23 33  1  0  0  0  0
 21 28  1  0  0  0  0
 21 29  1  0  0  0  0
 24 34  1  0  0  0  0
 24 35  1  0  0  0  0
 39 44  1  0  0  0  0
  8 13  1  0  0  0  0
 18 27  1  0  0  0  0
 25 36  1  0  0  0  0
 25 37  1  0  0  0  0
 48 50  1  0  0  0  0
  7 12  1  0  0  0  0
 38 43  1  0  0  0  0
 17 26  1  0  0  0  0
M  END
$$$$

  -OEChem-05262214473D

 53 52  0     1  0  0  0  0  0999 V2000
   -1.0338   -5.6785    0.1476 C   0  0  0  0  0  0  0  0  0  0  0  0
   -2.0514   -5.7797    0.8227 O   0  0  0  0  0  0  0  0  0  0  0  0
   -0.6558   -6.7819   -0.7841 C   0  0  0  0  0  0  0  0  0  0  0  0
   -0.0111   -7.5354   -0.3038 H   0  0  0  0  0  0  0  0  0  0  0  0
   -1.5317   -7.3401   -1.1520 H   0  0  0  0  0  0  0  0  0  0  0  0
   -0.1109   -6.4687   -1.6890 H   0  0  0  0  0  0  0  0  0  0  0  0
   -0.1543   -4.6083    0.1480 N   0  0  0  0  0  0  0  0  0  0  0  0
   -0.3302   -3.4398    0.9696 C   0  0  2  0  0  0  0  0  0  0  0  0
    0.2328   -2.2439    0.2131 C   0  0  0  0  0  0  0  0  0  0  0  0
    1.2097   -2.3192   -0.5294 O   0  0  0  0  0  0  0  0  0  0  0  0
    0.3557   -3.6024    2.3171 C   0  0  0  0  0  0  0  0  0  0  0  0
    0.6584   -4.6506   -0.4643 H   0  0  0  0  0  0  0  0  0  0  0  0
   -1.4091   -3.3101    1.1082 H   0  0  0  0  0  0  0  0  0  0  0  0
    1.4375   -3.7336    2.1985 H   0  0  0  0  0  0  0  0  0  0  0  0
    0.1969   -2.7243    2.9517 H   0  0  0  0  0  0  0  0  0  0  0  0
   -0.0294   -4.4803    2.8470 H   0  0  0  0  0  0  0  0  0  0  0  0
   -0.4616   -1.0893    0.5050 N   0  0  0  0  0  0  0  0  0  0  0  0
   -0.0884    0.2050   -0.0621 C   0  0  2  0  0  0  0  0  0  0  0  0
    0.5952    1.0119    1.0381 C   0  0  0  0  0  0  0  0  0  0  0  0
    1.4361    0.5328    1.7964 O   0  0  0  0  0  0  0  0  0  0  0  0
   -1.3047    0.9834   -0.5856 C   0  0  0  0  0  0  0  0  0  0  0  0
   -1.9541    0.3412   -1.8158 C   0  0  0  0  0  0  0  0  0  0  0  0
   -3.1437    1.1689   -2.3099 C   0  0  0  0  0  0  0  0  0  0  0  0
   -3.8059    0.5152   -3.5216 C   0  0  0  0  0  0  0  0  0  0  0  0
   -4.9493    1.3058   -3.9615 N   0  0  0  0  0  0  0  0  0  0  0  0
   -1.2794   -1.1113    1.0935 H   0  0  0  0  0  0  0  0  0  0  0  0
    0.6248    0.0355   -0.8777 H   0  0  0  0  0  0  0  0  0  0  0  0
   -0.9943    2.0049   -0.8421 H   0  0  0  0  0  0  0  0  0  0  0  0
   -2.0528    1.0884    0.2119 H   0  0  0  0  0  0  0  0  0  0  0  0
   -2.2979   -0.6714   -1.5764 H   0  0  0  0  0  0  0  0  0  0  0  0
   -1.2115    0.2525   -2.6179 H   0  0  0  0  0  0  0  0  0  0  0  0
   -3.8747    1.2764   -1.4986 H   0  0  0  0  0  0  0  0  0  0  0  0
   -2.8028    2.1781   -2.5735 H   0  0  0  0  0  0  0  0  0  0  0  0
   -4.1400   -0.4975   -3.2707 H   0  0  0  0  0  0  0  0  0  0  0  0
   -3.0890    0.4356   -4.3456 H   0  0  0  0  0  0  0  0  0  0  0  0
   -5.0462    2.0829   -3.3505 H   0  0  0  0  0  0  0  0  0  0  0  0
   -4.7786    1.6118   -4.8909 H   0  0  0  0  0  0  0  0  0  0  0  0
    0.1385    2.3218    1.0859 N   0  0  0  0  0  0  0  0  0  0  0  0
    0.6081    3.2901    2.0506 C   0  0  2  0  0  0  0  0  0  0  0  0
   -0.5435    4.2351    2.3672 C   0  0  0  0  0  0  0  0  0  0  0  0
   -1.3848    4.5696    1.5357 O   0  0  0  0  0  0  0  0  0  0  0  0
    1.8114    4.0568    1.5242 C   0  0  0  0  0  0  0  0  0  0  0  0
   -0.5536    2.6325    0.4106 H   0  0  0  0  0  0  0  0  0  0  0  0
    0.8813    2.7313    2.9523 H   0  0  0  0  0  0  0  0  0  0  0  0
    1.5570    4.6229    0.6207 H   0  0  0  0  0  0  0  0  0  0  0  0
    2.1835    4.7699    2.2672 H   0  0  0  0  0  0  0  0  0  0  0  0
    2.6280    3.3729    1.2689 H   0  0  0  0  0  0  0  0  0  0  0  0
   -0.4965    4.6950    3.6758 N   0  0  0  0  0  0  0  0  0  0  0  0
   -1.4549    5.6363    4.2063 C   0  0  0  0  0  0  0  0  0  0  0  0
    0.2126    4.3340    4.3071 H   0  0  0  0  0  0  0  0  0  0  0  0
   -1.0707    6.6597    4.0842 H   0  0  0  0  0  0  0  0  0  0  0  0
   -2.4067    5.5350    3.6643 H   0  0  0  0  0  0  0  0  0  0  0  0
   -1.6177    5.4309    5.2746 H   0  0  0  0  0  0  0  0  0  0  0  0
  1  3  1  0  0  0  0
  1  7  1  0  0  0  0
  1  2  2  0  0  0  0
 39 40  1  0  0  0  0
 40 48  1  0  0  0  0
 40 41  2  0  0  0  0
  8  9  1  0  0  0  0
  9 17  1  0  0  0  0
  9 10  2  0  0  0  0
 18 19  1  0  0  0  0
 19 38  1  0  0  0  0
 19 20  2  0  0  0  0
 39 42  1  0  0  0  0
  8 11  1  0  0  0  0
 48 49  1  0  0  0  0
 22 23  1  0  0  0  0
 21 22  1  0  0  0  0
 23 24  1  0  0  0  0
 18 21  1  0  0  0  0
 24 25  1  0  0  0  0
 38 39  1  0  0  0  0
  7  8  1  0  0  0  0
 17 18  1  0  0  0  0
  3  4  1  0  0  0  0
  3  5  1  0  0  0  0
  3  6  1  0  0  0  0
 42 45  1  0  0  0  0
 42 46  1  0  0  0  0
 42 47  1  0  0  0  0
 11 14  1  0  0  0  0
 11 15  1  0  0  0  0
 11 16  1  0  0  0  0
 49 51  1  0  0  0  0
 49 52  1  0  0  0  0
 49 53  1  0  0  0  0
 22 30  1  0  0  0  0
 22 31  1  0  0  0  0
 23 32  1  0  0  0  0
 23 33  1  0  0  0  0
 21 28  1  0  0  0  0
 21 29  1  0  0  0  0
 24 34  1  0  0  0  0
 24 35  1  0  0  0  0
 39 44  1  0  0  0  0
  8 13  1  0  0  0  0
 18 27  1  0  0  0  0
 25 36  1  0  0  0  0
 25 37  1  0  0  0  0
 48 50  1  0  0  0  0
  7 12  1  0  0  0  0
 38 43  1  0  0  0  0
 17 26  1  0  0  0  0
M  END
$$$$

  -OEChem-05262214473D

 53 52  0     1  0  0  0  0  0999 V2000
   -1.0338   -5.6785    0.1476 C   0  0  0  0  0  0  0  0  0  0  0  0
   -2.0514   -5.7797    0.8227 O   0  0  0  0  0  0  0  0  0  0  0  0
   -0.6558   -6.7819   -0.7841 C   0  0  0  0  0  0  0  0  0  0  0  0
   -0.0111   -7.5354   -0.3038 H   0  0  0  0  0  0  0  0  0  0  0  0
   -1.5317   -7.3401   -1.1520 H   0  0  0  0  0  0  0  0  0  0  0  0
   -0.1109   -6.4687   -1.6890 H   0  0  0  0  0  0  0  0  0  0  0  0
   -0.1543   -4.6083    0.1480 N   0  0  0  0  0  0  0  0  0  0  0  0
   -0.3302   -3.4398    0.9696 C   0  0  2  0  0  0  0  0  0  0  0  0
    0.2328   -2.2439    0.2131 C   0  0  0  0  0  0  0  0  0  0  0  0
    1.2097   -2.3192   -0.5294 O   0  0  0  0  0  0  0  0  0  0  0  0
    0.3557   -3.6024    2.3171 C   0  0  0  0  0  0  0  0  0  0  0  0
    0.6584   -4.6506   -0.4643 H   0  0  0  0  0  0  0  0  0  0  0  0
   -1.4091   -3.3101    1.1082 H   0  0  0  0  0  0  0  0  0  0  0  0
    1.4375   -3.7336    2.1985 H   0  0  0  0  0  0  0  0  0  0  0  0
    0.1969   -2.7243    2.9517 H   0  0  0  0  0  0  0  0  0  0  0  0
   -0.0294   -4.4803    2.8470 H   0  0  0  0  0  0  0  0  0  0  0  0
   -0.4616   -1.0893    0.5050 N   0  0  0  0  0  0  0  0  0  0  0  0
   -0.0884    0.2050   -0.0621 C   0  0  2  0  0  0  0  0  0  0  0  0
    0.5952    1.0119    1.0381 C   0  0  0  0  0  0  0  0  0  0  0  0
    1.6108    0.6302    1.6164 O   0  0  0  0  0  0  0  0  0  0  0  0
   -1.3047    0.9834   -0.5856 C   0  0  0  0  0  0  0  0  0  0  0  0
   -1.9541    0.3412   -1.8158 C   0  0  0  0  0  0  0  0  0  0  0  0
   -3.1437    1.1689   -2.3099 C   0  0  0  0  0  0  0  0  0  0  0  0
   -3.8059    0.5152   -3.5216 C   0  0  0  0  0  0  0  0  0  0  0  0
   -4.9493    1.3058   -3.9615 N   0  0  0  0  0  0  0  0  0  0  0  0
   -1.2794   -1.1113    1.0935 H   0  0  0  0  0  0  0  0  0  0  0  0
    0.6248    0.0355   -0.8777 H   0  0  0  0  0  0  0  0  0  0  0  0
   -0.9943    2.0049   -0.8421 H   0  0  0  0  0  0  0  0  0  0  0  0
   -2.0528    1.0884    0.2119 H   0  0  0  0  0  0  0  0  0  0  0  0
   -2.2979   -0.6714   -1.5764 H   0  0  0  0  0  0  0  0  0  0  0  0
   -1.2115    0.2525   -2.6179 H   0  0  0  0  0  0  0  0  0  0  0  0
   -3.8747    1.2764   -1.4986 H   0  0  0  0  0  0  0  0  0  0  0  0
   -2.8028    2.1781   -2.5735 H   0  0  0  0  0  0  0  0  0  0  0  0
   -4.1400   -0.4975   -3.2707 H   0  0  0  0  0  0  0  0  0  0  0  0
   -3.0890    0.4356   -4.3456 H   0  0  0  0  0  0  0  0  0  0  0  0
   -5.0462    2.0829   -3.3505 H   0  0  0  0  0  0  0  0  0  0  0  0
   -4.7786    1.6118   -4.8909 H   0  0  0  0  0  0  0  0  0  0  0  0
   -0.0759    2.1958    1.3115 N   0  0  0  0  0  0  0  0  0  0  0  0
    0.3507    3.1325    2.3261 C   0  0  2  0  0  0  0  0  0  0  0  0
   -0.8914    3.7975    2.9043 C   0  0  0  0  0  0  0  0  0  0  0  0
   -1.8924    4.0456    2.2354 O   0  0  0  0  0  0  0  0  0  0  0  0
    1.3065    4.1687    1.7558 C   0  0  0  0  0  0  0  0  0  0  0  0
   -0.9044    2.4336    0.7744 H   0  0  0  0  0  0  0  0  0  0  0  0
    0.8495    2.5477    3.1067 H   0  0  0  0  0  0  0  0  0  0  0  0
    0.8244    4.7644    0.9721 H   0  0  0  0  0  0  0  0  0  0  0  0
    1.6510    4.8603    2.5317 H   0  0  0  0  0  0  0  0  0  0  0  0
    2.1853    3.6869    1.3138 H   0  0  0  0  0  0  0  0  0  0  0  0
   -0.7344    4.1205    4.2449 N   0  0  0  0  0  0  0  0  0  0  0  0
   -1.7563    4.7975    5.0086 C   0  0  0  0  0  0  0  0  0  0  0  0
    0.1132    3.8414    4.7301 H   0  0  0  0  0  0  0  0  0  0  0  0
   -1.5833    5.8832    4.9721 H   0  0  0  0  0  0  0  0  0  0  0  0
   -2.7442    4.5692    4.5822 H   0  0  0  0  0  0  0  0  0  0  0  0
   -1.7200    4.4555    6.0535 H   0  0  0  0  0  0  0  0  0  0  0  0
  1  3  1  0  0  0  0
  1  7  1  0  0  0  0
  1  2  2  0  0  0  0
 39 40  1  0  0  0  0
 40 48  1  0  0  0  0
 40 41  2  0  0  0  0
  8  9  1  0  0  0  0
  9 17  1  0  0  0  0
  9 10  2  0  0  0  0
 18 19  1  0  0  0  0
 19 38  1  0  0  0  0
 19 20  2  0  0  0  0
 39 42  1  0  0  0  0
  8 11  1  0  0  0  0
 48 49  1  0  0  0  0
 22 23  1  0  0  0  0
 21 22  1  0  0  0  0
 23 24  1  0  0  0  0
 18 21  1  0  0  0  0
 24 25  1  0  0  0  0
 38 39  1  0  0  0  0
  7  8  1  0  0  0  0
 17 18  1  0  0  0  0
  3  4  1  0  0  0  0
  3  5  1  0  0  0  0
  3  6  1  0  0  0  0
 42 45  1  0  0  0  0
 42 46  1  0  0  0  0
 42 47  1  0  0  0  0
 11 14  1  0  0  0  0
 11 15  1  0  0  0  0
 11 16  1  0  0  0  0
 49 51  1  0  0  0  0
 49 52  1  0  0  0  0
 49 53  1  0  0  0  0
 22 30  1  0  0  0  0
 22 31  1  0  0  0  0
 23 32  1  0  0  0  0
 23 33  1  0  0  0  0
 21 28  1  0  0  0  0
 21 29  1  0  0  0  0
 24 34  1  0  0  0  0
 24 35  1  0  0  0  0
 39 44  1  0  0  0  0
  8 13  1  0  0  0  0
 18 27  1  0  0  0  0
 25 36  1  0  0  0  0
 25 37  1  0  0  0  0
 48 50  1  0  0  0  0
  7 12  1  0  0  0  0
 38 43  1  0  0  0  0
 17 26  1  0  0  0  0
M  END
$$$$

  -OEChem-05262214473D

 53 52  0     1  0  0  0  0  0999 V2000
   -1.0338   -5.6785    0.1476 C   0  0  0  0  0  0  0  0  0  0  0  0
   -2.0514   -5.7797    0.8227 O   0  0  0  0  0  0  0  0  0  0  0  0
   -0.6558   -6.7819   -0.7841 C   0  0  0  0  0  0  0  0  0  0  0  0
   -0.0111   -7.5354   -0.3038 H   0  0  0  0  0  0  0  0  0  0  0  0
   -1.5317   -7.3401   -1.1520 H   0  0  0  0  0  0  0  0  0  0  0  0
   -0.1109   -6.4687   -1.6890 H   0  0  0  0  0  0  0  0  0  0  0  0
   -0.1543   -4.6083    0.1480 N   0  0  0  0  0  0  0  0  0  0  0  0
   -0.3302   -3.4398    0.9696 C   0  0  2  0  0  0  0  0  0  0  0  0
    0.2328   -2.2439    0.2131 C   0  0  0  0  0  0  0  0  0  0  0  0
    1.2097   -2.3192   -0.5294 O   0  0  0  0  0  0  0  0  0  0  0  0
    0.3557   -3.6024    2.3171 C   0  0  0  0  0  0  0  0  0  0  0  0
    0.6584   -4.6506   -0.4643 H   0  0  0  0  0  0  0  0  0  0  0  0
   -1.4091   -3.3101    1.1082 H   0  0  0  0  0  0  0  0  0  0  0  0
    1.4375   -3.7336    2.1985 H   0  0  0  0  0  0  0  0  0  0  0  0
    0.1969   -2.7243    2.9517 H   0  0  0  0  0  0  0  0  0  0  0  0
   -0.0294   -4.4803    2.8470 H   0  0  0  0  0  0  0  0  0  0  0  0
   -0.4616   -1.0893    0.5050 N   0  0  0  0  0  0  0  0  0  0  0  0
   -0.0884    0.2050   -0.0621 C   0  0  2  0  0  0  0  0  0  0  0  0
    0.5952    1.0119    1.0381 C   0  0  0  0  0  0  0  0  0  0  0  0
    1.7368    0.7777    1.4299 O   0  0  0  0  0  0  0  0  0  0  0  0
   -1.3047    0.9834   -0.5856 C   0  0  0  0  0  0  0  0  0  0  0  0
   -1.9541    0.3412   -1.8158 C   0  0  0  0  0  0  0  0  0  0  0  0
   -3.1437    1.1689   -2.3099 C   0  0  0  0  0  0  0  0  0  0  0  0
   -3.8059    0.5152   -3.5216 C   0  0  0  0  0  0  0  0  0  0  0  0
   -4.9493    1.3058   -3.9615 N   0  0  0  0  0  0  0  0  0  0  0  0
   -1.2794   -1.1113    1.0935 H   0  0  0  0  0  0  0  0  0  0  0  0
    0.6248    0.0355   -0.8777 H   0  0  0  0  0  0  0  0  0  0  0  0
   -0.9943    2.0049   -0.8421 H   0  0  0  0  0  0  0  0  0  0  0  0
   -2.0528    1.0884    0.2119 H   0  0  0  0  0  0  0  0  0  0  0  0
   -2.2979   -0.6714   -1.5764 H   0  0  0  0  0  0  0  0  0  0  0  0
   -1.2115    0.2525   -2.6179 H   0  0  0  0  0  0  0  0  0  0  0  0
   -3.8747    1.2764   -1.4986 H   0  0  0  0  0  0  0  0  0  0  0  0
   -2.8028    2.1781   -2.5735 H   0  0  0  0  0  0  0  0  0  0  0  0
   -4.1400   -0.4975   -3.2707 H   0  0  0  0  0  0  0  0  0  0  0  0
   -3.0890    0.4356   -4.3456 H   0  0  0  0  0  0  0  0  0  0  0  0
   -5.0462    2.0829   -3.3505 H   0  0  0  0  0  0  0  0  0  0  0  0
   -4.7786    1.6118   -4.8909 H   0  0  0  0  0  0  0  0  0  0  0  0
   -0.2286    2.0079    1.5441 N   0  0  0  0  0  0  0  0  0  0  0  0
    0.1692    2.9002    2.6092 C   0  0  2  0  0  0  0  0  0  0  0  0
   -1.0724    3.2476    3.4200 C   0  0  0  0  0  0  0  0  0  0  0  0
   -2.1893    3.3636    2.9199 O   0  0  0  0  0  0  0  0  0  0  0  0
    0.8296    4.1558    2.0615 C   0  0  0  0  0  0  0  0  0  0  0  0
   -1.1564    2.1339    1.1507 H   0  0  0  0  0  0  0  0  0  0  0  0
    0.8742    2.3465    3.2389 H   0  0  0  0  0  0  0  0  0  0  0  0
    0.1384    4.7237    1.4281 H   0  0  0  0  0  0  0  0  0  0  0  0
    1.1560    4.8176    2.8706 H   0  0  0  0  0  0  0  0  0  0  0  0
    1.7051    3.9024    1.4541 H   0  0  0  0  0  0  0  0  0  0  0  0
   -0.7790    3.4552    4.7605 N   0  0  0  0  0  0  0  0  0  0  0  0
   -1.7811    3.8380    5.7276 C   0  0  0  0  0  0  0  0  0  0  0  0
    0.1670    3.2980    5.0952 H   0  0  0  0  0  0  0  0  0  0  0  0
   -1.8120    4.9345    5.8100 H   0  0  0  0  0  0  0  0  0  0  0  0
   -2.7644    3.4669    5.4031 H   0  0  0  0  0  0  0  0  0  0  0  0
   -1.5303    3.4039    6.7067 H   0  0  0  0  0  0  0  0  0  0  0  0
  1  3  1  0  0  0  0
  1  7  1  0  0  0  0
  1  2  2  0  0  0  0
 39 40  1  0  0  0  0
 40 48  1  0  0  0  0
 40 41  2  0  0  0  0
  8  9  1  0  0  0  0
  9 17  1  0  0  0  0
  9 10  2  0  0  0  0
 18 19  1  0  0  0  0
 19 38  1  0  0  0  0
 19 20  2  0  0  0  0
 39 42  1  0  0  0  0
  8 11  1  0  0  0  0
 48 49  1  0  0  0  0
 22 23  1  0  0  0  0
 21 22  1  0  0  0  0
 23 24  1  0  0  0  0
 18 21  1  0  0  0  0
 24 25  1  0  0  0  0
 38 39  1  0  0  0  0
  7  8  1  0  0  0  0
 17 18  1  0  0  0  0
  3  4  1  0  0  0  0
  3  5  1  0  0  0  0
  3  6  1  0  0  0  0
 42 45  1  0  0  0  0
 42 46  1  0  0  0  0
 42 47  1  0  0  0  0
 11 14  1  0  0  0  0
 11 15  1  0  0  0  0
 11 16  1  0  0  0  0
 49 51  1  0  0  0  0
 49 52  1  0  0  0  0
 49 53  1  0  0  0  0
 22 30  1  0  0  0  0
 22 31  1  0  0  0  0
 23 32  1  0  0  0  0
 23 33  1  0  0  0  0
 21 28  1  0  0  0  0
 21 29  1  0  0  0  0
 24 34  1  0  0  0  0
 24 35  1  0  0  0  0
 39 44  1  0  0  0  0
  8 13  1  0  0  0  0
 18 27  1  0  0  0  0
 25 36  1  0  0  0  0
 25 37  1  0  0  0  0
 48 50  1  0  0  0  0
  7 12  1  0  0  0  0
 38 43  1  0  0  0  0
 17 26  1  0  0  0  0
M  END
$$$$

  -OEChem-05262214473D

 53 52  0     1  0  0  0  0  0999 V2000
   -1.0338   -5.6785    0.1476 C   0  0  0  0  0  0  0  0  0  0  0  0
   -2.0514   -5.7797    0.8227 O   0  0  0  0  0  0  0  0  0  0  0  0
   -0.6558   -6.7819   -0.7841 C   0  0  0  0  0  0  0  0  0  0  0  0
   -0.0111   -7.5354   -0.3038 H   0  0  0  0  0  0  0  0  0  0  0  0
   -1.5317   -7.3401   -1.1520 H   0  0  0  0  0  0  0  0  0  0  0  0
   -0.1109   -6.4687   -1.6890 H   0  0  0  0  0  0  0  0  0  0  0  0
   -0.1543   -4.6083    0.1480 N   0  0  0  0  0  0  0  0  0  0  0  0
   -0.3302   -3.4398    0.9696 C   0  0  2  0  0  0  0  0  0  0  0  0
    0.2328   -2.2439    0.2131 C   0  0  0  0  0  0  0  0  0  0  0  0
    1.2097   -2.3192   -0.5294 O   0  0  0  0  0  0  0  0  0  0  0  0
    0.3557   -3.6024    2.3171 C   0  0  0  0  0  0  0  0  0  0  0  0
    0.6584   -4.6506   -0.4643 H   0  0  0  0  0  0  0  0  0  0  0  0
   -1.4091   -3.3101    1.1082 H   0  0  0  0  0  0  0  0  0  0  0  0
    1.4375   -3.7336    2.1985 H   0  0  0  0  0  0  0  0  0  0  0  0
    0.1969   -2.7243    2.9517 H   0  0  0  0  0  0  0  0  0  0  0  0
   -0.0294   -4.4803    2.8470 H   0  0  0  0  0  0  0  0  0  0  0  0
   -0.4616   -1.0893    0.5050 N   0  0  0  0  0  0  0  0  0  0  0  0
   -0.0884    0.2050   -0.0621 C   0  0  2  0  0  0  0  0  0  0  0  0
    0.5952    1.0119    1.0381 C   0  0  0  0  0  0  0  0  0  0  0  0
    1.8054    0.9654    1.2497 O   0  0  0  0  0  0  0  0  0  0  0  0
   -1.3047    0.9834   -0.5856 C   0  0  0  0  0  0  0  0  0  0  0  0
   -1.9541    0.3412   -1.8158 C   0  0  0  0  0  0  0  0  0  0  0  0
   -3.1437    1.1689   -2.3099 C   0  0  0  0  0  0  0  0  0  0  0  0
   -3.8059    0.5152   -3.5216 C   0  0  0  0  0  0  0  0  0  0  0  0
   -4.9493    1.3058   -3.9615 N   0  0  0  0  0  0  0  0  0  0  0  0
   -1.2794   -1.1113    1.0935 H   0  0  0  0  0  0  0  0  0  0  0  0
    0.6248    0.0355   -0.8777 H   0  0  0  0  0  0  0  0  0  0  0  0
   -0.9943    2.0049   -0.8421 H   0  0  0  0  0  0  0  0  0  0  0  0
   -2.0528    1.0884    0.2119 H   0  0  0  0  0  0  0  0  0  0  0  0
   -2.2979   -0.6714   -1.5764 H   0  0  0  0  0  0  0  0  0  0  0  0
   -1.2115    0.2525   -2.6179 H   0  0  0  0  0  0  0  0  0  0  0  0
   -3.8747    1.2764   -1.4986 H   0  0  0  0  0  0  0  0  0  0  0  0
   -2.8028    2.1781   -2.5735 H   0  0  0  0  0  0  0  0  0  0  0  0
   -4.1400   -0.4975   -3.2707 H   0  0  0  0  0  0  0  0  0  0  0  0
   -3.0890    0.4356   -4.3456 H   0  0  0  0  0  0  0  0  0  0  0  0
   -5.0462    2.0829   -3.3505 H   0  0  0  0  0  0  0  0  0  0  0  0
   -4.7786    1.6118   -4.8909 H   0  0  0  0  0  0  0  0  0  0  0  0
   -0.3092    1.7710    1.7679 N   0  0  0  0  0  0  0  0  0  0  0  0
    0.0759    2.6092    2.8806 C   0  0  2  0  0  0  0  0  0  0  0  0
   -1.0739    2.6228    3.8791 C   0  0  0  0  0  0  0  0  0  0  0  0
   -2.2551    2.5700    3.5427 O   0  0  0  0  0  0  0  0  0  0  0  0
    0.4132    4.0189    2.4206 C   0  0  0  0  0  0  0  0  0  0  0  0
   -1.2924    1.7538    1.5139 H   0  0  0  0  0  0  0  0  0  0  0  0
    0.9537    2.1415    3.3398 H   0  0  0  0  0  0  0  0  0  0  0  0
   -0.4541    4.5035    1.9578 H   0  0  0  0  0  0  0  0  0  0  0  0
    0.7322    4.6447    3.2607 H   0  0  0  0  0  0  0  0  0  0  0  0
    1.2204    4.0047    1.6803 H   0  0  0  0  0  0  0  0  0  0  0  0
   -0.6275    2.7445    5.1875 N   0  0  0  0  0  0  0  0  0  0  0  0
   -1.5276    2.8232    6.3143 C   0  0  0  0  0  0  0  0  0  0  0  0
    0.3704    2.7409    5.3774 H   0  0  0  0  0  0  0  0  0  0  0  0
   -1.7413    3.8783    6.5405 H   0  0  0  0  0  0  0  0  0  0  0  0
   -2.4659    2.3033    6.0709 H   0  0  0  0  0  0  0  0  0  0  0  0
   -1.0613    2.3478    7.1898 H   0  0  0  0  0  0  0  0  0  0  0  0
  1  3  1  0  0  0  0
  1  7  1  0  0  0  0
  1  2  2  0  0  0  0
 39 40  1  0  0  0  0
 40 48  1  0  0  0  0
 40 41  2  0  0  0  0
  8  9  1  0  0  0  0
  9 17  1  0  0  0  0
  9 10  2  0  0  0  0
 18 19  1  0  0  0  0
 19 38  1  0  0  0  0
 19 20  2  0  0  0  0
 39 42  1  0  0  0  0
  8 11  1  0  0  0  0
 48 49  1  0  0  0  0
 22 23  1  0  0  0  0
 21 22  1  0  0  0  0
 23 24  1  0  0  0  0
 18 21  1  0  0  0  0
 24 25  1  0  0  0  0
 38 39  1  0  0  0  0
  7  8  1  0  0  0  0
 17 18  1  0  0  0  0
  3  4  1  0  0  0  0
  3  5  1  0  0  0  0
  3  6  1  0  0  0  0
 42 45  1  0  0  0  0
 42 46  1  0  0  0  0
 42 47  1  0  0  0  0
 11 14  1  0  0  0  0
 11 15  1  0  0  0  0
 11 16  1  0  0  0  0
 49 51  1  0  0  0  0
 49 52  1  0  0  0  0
 49 53  1  0  0  0  0
 22 30  1  0  0  0  0
 22 31  1  0  0  0  0
 23 32  1  0  0  0  0
 23 33  1  0  0  0  0
 21 28  1  0  0  0  0
 21 29  1  0  0  0  0
 24 34  1  0  0  0  0
 24 35  1  0  0  0  0
 39 44  1  0  0  0  0
  8 13  1  0  0  0  0
 18 27  1  0  0  0  0
 25 36  1  0  0  0  0
 25 37  1  0  0  0  0
 48 50  1  0  0  0  0
  7 12  1  0  0  0  0
 38 43  1  0  0  0  0
 17 26  1  0  0  0  0
M  END
$$$$

  -OEChem-05262214473D

 53 52  0     1  0  0  0  0  0999 V2000
   -1.0338   -5.6785    0.1476 C   0  0  0  0  0  0  0  0  0  0  0  0
   -2.0514   -5.7797    0.8227 O   0  0  0  0  0  0  0  0  0  0  0  0
   -0.6558   -6.7819   -0.7841 C   0  0  0  0  0  0  0  0  0  0  0  0
   -0.0111   -7.5354   -0.3038 H   0  0  0  0  0  0  0  0  0  0  0  0
   -1.5317   -7.3401   -1.1520 H   0  0  0  0  0  0  0  0  0  0  0  0
   -0.1109   -6.4687   -1.6890 H   0  0  0  0  0  0  0  0  0  0  0  0
   -0.1543   -4.6083    0.1480 N   0  0  0  0  0  0  0  0  0  0  0  0
   -0.3302   -3.4398    0.9696 C   0  0  2  0  0  0  0  0  0  0  0  0
    0.2328   -2.2439    0.2131 C   0  0  0  0  0  0  0  0  0  0  0  0
    1.2097   -2.3192   -0.5294 O   0  0  0  0  0  0  0  0  0  0  0  0
    0.3557   -3.6024    2.3171 C   0  0  0  0  0  0  0  0  0  0  0  0
    0.6584   -4.6506   -0.4643 H   0  0  0  0  0  0  0  0  0  0  0  0
   -1.4091   -3.3101    1.1082 H   0  0  0  0  0  0  0  0  0  0  0  0
    1.4375   -3.7336    2.1985 H   0  0  0  0  0  0  0  0  0  0  0  0
    0.1969   -2.7243    2.9517 H   0  0  0  0  0  0  0  0  0  0  0  0
   -0.0294   -4.4803    2.8470 H   0  0  0  0  0  0  0  0  0  0  0  0
   -0.4616   -1.0893    0.5050 N   0  0  0  0  0  0  0  0  0  0  0  0
   -0.0884    0.2050   -0.0621 C   0  0  2  0  0  0  0  0  0  0  0  0
    0.5952    1.0119    1.0381 C   0  0  0  0  0  0  0  0  0  0  0  0
    1.8120    1.1803    1.0880 O   0  0  0  0  0  0  0  0  0  0  0  0
   -1.3047    0.9834   -0.5856 C   0  0  0  0  0  0  0  0  0  0  0  0
   -1.9541    0.3412   -1.8158 C   0  0  0  0  0  0  0  0  0  0  0  0
   -3.1437    1.1689   -2.3099 C   0  0  0  0  0  0  0  0  0  0  0  0
   -3.8059    0.5152   -3.5216 C   0  0  0  0  0  0  0  0  0  0  0  0
   -4.9493    1.3058   -3.9615 N   0  0  0  0  0  0  0  0  0  0  0  0
   -1.2794   -1.1113    1.0935 H   0  0  0  0  0  0  0  0  0  0  0  0
    0.6248    0.0355   -0.8777 H   0  0  0  0  0  0  0  0  0  0  0  0
   -0.9943    2.0049   -0.8421 H   0  0  0  0  0  0  0  0  0  0  0  0
   -2.0528    1.0884    0.2119 H   0  0  0  0  0  0  0  0  0  0  0  0
   -2.2979   -0.6714   -1.5764 H   0  0  0  0  0  0  0  0  0  0  0  0
   -1.2115    0.2525   -2.6179 H   0  0  0  0  0  0  0  0  0  0  0  0
   -3.8747    1.2764   -1.4986 H   0  0  0  0  0  0  0  0  0  0  0  0
   -2.8028    2.1781   -2.5735 H   0  0  0  0  0  0  0  0  0  0  0  0
   -4.1400   -0.4975   -3.2707 H   0  0  0  0  0  0  0  0  0  0  0  0
   -3.0890    0.4356   -4.3456 H   0  0  0  0  0  0  0  0  0  0  0  0
   -5.0462    2.0829   -3.3505 H   0  0  0  0  0  0  0  0  0  0  0  0
   -4.7786    1.6118   -4.8909 H   0  0  0  0  0  0  0  0  0  0  0  0
   -0.3122    1.5012    1.9676 N   0  0  0  0  0  0  0  0  0  0  0  0
    0.0773    2.2792    3.1217 C   0  0  2  0  0  0  0  0  0  0  0  0
   -0.8961    1.9659    4.2503 C   0  0  0  0  0  0  0  0  0  0  0  0
   -2.0854    1.7190    4.0613 O   0  0  0  0  0  0  0  0  0  0  0  0
    0.0857    3.7673    2.8086 C   0  0  0  0  0  0  0  0  0  0  0  0
   -1.3031    1.3191    1.8393 H   0  0  0  0  0  0  0  0  0  0  0  0
    1.0825    1.9466    3.4027 H   0  0  0  0  0  0  0  0  0  0  0  0
   -0.9130    4.1189    2.5249 H   0  0  0  0  0  0  0  0  0  0  0  0
    0.4085    4.3533    3.6755 H   0  0  0  0  0  0  0  0  0  0  0  0
    0.7640    3.9868    1.9769 H   0  0  0  0  0  0  0  0  0  0  0  0
   -0.2900    2.0367    5.4969 N   0  0  0  0  0  0  0  0  0  0  0  0
   -1.0131    1.8223    6.7286 C   0  0  0  0  0  0  0  0  0  0  0  0
    0.7093    2.2079    5.5576 H   0  0  0  0  0  0  0  0  0  0  0  0
   -1.3759    2.7866    7.1141 H   0  0  0  0  0  0  0  0  0  0  0  0
   -1.8690    1.1575    6.5403 H   0  0  0  0  0  0  0  0  0  0  0  0
   -0.3452    1.3592    7.4699 H   0  0  0  0  0  0  0  0  0  0  0  0
  1  3  1  0  0  0  0
  1  7  1  0  0  0  0
  1  2  2  0  0  0  0
 39 40  1  0  0  0  0
 40 48  1  0  0  0  0
 40 41  2  0  0  0  0
  8  9  1  0  0  0  0
  9 17  1  0  0  0  0
  9 10  2  0  0  0  0
 18 19  1  0  0  0  0
 19 38  1  0  0  0  0
 19 20  2  0  0  0  0
 39 42  1  0  0  0  0
  8 11  1  0  0  0  0
 48 49  1  0  0  0  0
 22 23  1  0  0  0  0
 21 22  1  0  0  0  0
 23 24  1  0  0  0  0
 18 21  1  0  0  0  0
 24 25  1  0  0  0  0
 38 39  1  0  0  0  0
  7  8  1  0  0  0  0
 17 18  1  0  0  0  0
  3  4  1  0  0  0  0
  3  5  1  0  0  0  0
  3  6  1  0  0  0  0
 42 45  1  0  0  0  0
 42 46  1  0  0  0  0
 42 47  1  0  0  0  0
 11 14  1  0  0  0  0
 11 15  1  0  0  0  0
 11 16  1  0  0  0  0
 49 51  1  0  0  0  0
 49 52  1  0  0  0  0
 49 53  1  0  0  0  0
 22 30  1  0  0  0  0
 22 31  1  0  0  0  0
 23 32  1  0  0  0  0
 23 33  1  0  0  0  0
 21 28  1  0  0  0  0
 21 29  1  0  0  0  0
 24 34  1  0  0  0  0
 24 35  1  0  0  0  0
 39 44  1  0  0  0  0
  8 13  1  0  0  0  0
 18 27  1  0  0  0  0
 25 36  1  0  0  0  0
 25 37  1  0  0  0  0
 48 50  1  0  0  0  0
  7 12  1  0  0  0  0
 38 43  1  0  0  0  0
 17 26  1  0  0  0  0
M  END
$$$$

  -OEChem-05262214473D

 53 52  0     1  0  0  0  0  0999 V2000
   -1.0338   -5.6785    0.1476 C   0  0  0  0  0  0  0  0  0  0  0  0
   -2.0514   -5.7797    0.8227 O   0  0  0  0  0  0  0  0  0  0  0  0
   -0.6558   -6.7819   -0.7841 C   0  0  0  0  0  0  0  0  0  0  0  0
   -0.0111   -7.5354   -0.3038 H   0  0  0  0  0  0  0  0  0  0  0  0
   -1.5317   -7.3401   -1.1520 H   0  0  0  0  0  0  0  0  0  0  0  0
   -0.1109   -6.4687   -1.6890 H   0  0  0  0  0  0  0  0  0  0  0  0
   -0.1543   -4.6083    0.1480 N   0  0  0  0  0  0  0  0  0  0  0  0
   -0.3302   -3.4398    0.9696 C   0  0  2  0  0  0  0  0  0  0  0  0
    0.2328   -2.2439    0.2131 C   0  0  0  0  0  0  0  0  0  0  0  0
    1.2097   -2.3192   -0.5294 O   0  0  0  0  0  0  0  0  0  0  0  0
    0.3557   -3.6024    2.3171 C   0  0  0  0  0  0  0  0  0  0  0  0
    0.6584   -4.6506   -0.4643 H   0  0  0  0  0  0  0  0  0  0  0  0
   -1.4091   -3.3101    1.1082 H   0  0  0  0  0  0  0  0  0  0  0  0
    1.4375   -3.7336    2.1985 H   0  0  0  0  0  0  0  0  0  0  0  0
    0.1969   -2.7243    2.9517 H   0  0  0  0  0  0  0  0  0  0  0  0
   -0.0294   -4.4803    2.8470 H   0  0  0  0  0  0  0  0  0  0  0  0
   -0.4616   -1.0893    0.5050 N   0  0  0  0  0  0  0  0  0  0  0  0
   -0.0884    0.2050   -0.0621 C   0  0  2  0  0  0  0  0  0  0  0  0
    0.5952    1.0119    1.0381 C   0  0  0  0  0  0  0  0  0  0  0  0
    1.7562    1.4079    0.9557 O   0  0  0  0  0  0  0  0  0  0  0  0
   -1.3047    0.9834   -0.5856 C   0  0  0  0  0  0  0  0  0  0  0  0
   -1.9541    0.3412   -1.8158 C   0  0  0  0  0  0  0  0  0  0  0  0
   -3.1437    1.1689   -2.3099 C   0  0  0  0  0  0  0  0  0  0  0  0
   -3.8059    0.5152   -3.5216 C   0  0  0  0  0  0  0  0  0  0  0  0
   -4.9493    1.3058   -3.9615 N   0  0  0  0  0  0  0  0  0  0  0  0
   -1.2794   -1.1113    1.0935 H   0  0  0  0  0  0  0  0  0  0  0  0
    0.6248    0.0355   -0.8777 H   0  0  0  0  0  0  0  0  0  0  0  0
   -0.9943    2.0049   -0.8421 H   0  0  0  0  0  0  0  0  0  0  0  0
   -2.0528    1.0884    0.2119 H   0  0  0  0  0  0  0  0  0  0  0  0
   -2.2979   -0.6714   -1.5764 H   0  0  0  0  0  0  0  0  0  0  0  0
   -1.2115    0.2525   -2.6179 H   0  0  0  0  0  0  0  0  0  0  0  0
   -3.8747    1.2764   -1.4986 H   0  0  0  0  0  0  0  0  0  0  0  0
   -2.8028    2.1781   -2.5735 H   0  0  0  0  0  0  0  0  0  0  0  0
   -4.1400   -0.4975   -3.2707 H   0  0  0  0  0  0  0  0  0  0  0  0
   -3.0890    0.4356   -4.3456 H   0  0  0  0  0  0  0  0  0  0  0  0
   -5.0462    2.0829   -3.3505 H   0  0  0  0  0  0  0  0  0  0  0  0
   -4.7786    1.6118   -4.8909 H   0  0  0  0  0  0  0  0  0  0  0  0
   -0.2374    1.2169    2.1297 N   0  0  0  0  0  0  0  0  0  0  0  0
    0.1732    1.9327    3.3162 C   0  0  2  0  0  0  0  0  0  0  0  0
   -0.5509    1.3214    4.5084 C   0  0  0  0  0  0  0  0  0  0  0  0
   -1.6917    0.8686    4.4403 O   0  0  0  0  0  0  0  0  0  0  0  0
   -0.1306    3.4182    3.1990 C   0  0  0  0  0  0  0  0  0  0  0  0
   -1.1878    0.8596    2.1047 H   0  0  0  0  0  0  0  0  0  0  0  0
    1.2520    1.7751    3.4232 H   0  0  0  0  0  0  0  0  0  0  0  0
   -1.2068    3.5959    3.0910 H   0  0  0  0  0  0  0  0  0  0  0  0
    0.2069    3.9634    4.0866 H   0  0  0  0  0  0  0  0  0  0  0  0
    0.3670    3.8500    2.3239 H   0  0  0  0  0  0  0  0  0  0  0  0
    0.2103    1.3802    5.6675 N   0  0  0  0  0  0  0  0  0  0  0  0
   -0.2727    0.9035    6.9424 C   0  0  0  0  0  0  0  0  0  0  0  0
    1.1609    1.7355    5.6235 H   0  0  0  0  0  0  0  0  0  0  0  0
   -0.7407    1.7338    7.4915 H   0  0  0  0  0  0  0  0  0  0  0  0
   -1.0144    0.1078    6.7791 H   0  0  0  0  0  0  0  0  0  0  0  0
    0.5693    0.5054    7.5278 H   0  0  0  0  0  0  0  0  0  0  0  0
  1  3  1  0  0  0  0
  1  7  1  0  0  0  0
  1  2  2  0  0  0  0
 39 40  1  0  0  0  0
 40 48  1  0  0  0  0
 40 41  2  0  0  0  0
  8  9  1  0  0  0  0
  9 17  1  0  0  0  0
  9 10  2  0  0  0  0
 18 19  1  0  0  0  0
 19 38  1  0  0  0  0
 19 20  2  0  0  0  0
 39 42  1  0  0  0  0
  8 11  1  0  0  0  0
 48 49  1  0  0  0  0
 22 23  1  0  0  0  0
 21 22  1  0  0  0  0
 23 24  1  0  0  0  0
 18 21  1  0  0  0  0
 24 25  1  0  0  0  0
 38 39  1  0  0  0  0
  7  8  1  0  0  0  0
 17 18  1  0  0  0  0
  3  4  1  0  0  0  0
  3  5  1  0  0  0  0
  3  6  1  0  0  0  0
 42 45  1  0  0  0  0
 42 46  1  0  0  0  0
 42 47  1  0  0  0  0
 11 14  1  0  0  0  0
 11 15  1  0  0  0  0
 11 16  1  0  0  0  0
 49 51  1  0  0  0  0
 49 52  1  0  0  0  0
 49 53  1  0  0  0  0
 22 30  1  0  0  0  0
 22 31  1  0  0  0  0
 23 32  1  0  0  0  0
 23 33  1  0  0  0  0
 21 28  1  0  0  0  0
 21 29  1  0  0  0  0
 24 34  1  0  0  0  0
 24 35  1  0  0  0  0
 39 44  1  0  0  0  0
  8 13  1  0  0  0  0
 18 27  1  0  0  0  0
 25 36  1  0  0  0  0
 25 37  1  0  0  0  0
 48 50  1  0  0  0  0
  7 12  1  0  0  0  0
 38 43  1  0  0  0  0
 17 26  1  0  0  0  0
M  END
$$$$

  -OEChem-05262214473D

 53 52  0     1  0  0  0  0  0999 V2000
   -1.0338   -5.6785    0.1476 C   0  0  0  0  0  0  0  0  0  0  0  0
   -2.0514   -5.7797    0.8227 O   0  0  0  0  0  0  0  0  0  0  0  0
   -0.6558   -6.7819   -0.7841 C   0  0  0  0  0  0  0  0  0  0  0  0
   -0.0111   -7.5354   -0.3038 H   0  0  0  0  0  0  0  0  0  0  0  0
   -1.5317   -7.3401   -1.1520 H   0  0  0  0  0  0  0  0  0  0  0  0
   -0.1109   -6.4687   -1.6890 H   0  0  0  0  0  0  0  0  0  0  0  0
   -0.1543   -4.6083    0.1480 N   0  0  0  0  0  0  0  0  0  0  0  0
   -0.3302   -3.4398    0.9696 C   0  0  2  0  0  0  0  0  0  0  0  0
    0.2328   -2.2439    0.2131 C   0  0  0  0  0  0  0  0  0  0  0  0
    1.2097   -2.3192   -0.5294 O   0  0  0  0  0  0  0  0  0  0  0  0
    0.3557   -3.6024    2.3171 C   0  0  0  0  0  0  0  0  0  0  0  0
    0.6584   -4.6506   -0.4643 H   0  0  0  0  0  0  0  0  0  0  0  0
   -1.4091   -3.3101    1.1082 H   0  0  0  0  0  0  0  0  0  0  0  0
    1.4375   -3.7336    2.1985 H   0  0  0  0  0  0  0  0  0  0  0  0
    0.1969   -2.7243    2.9517 H   0  0  0  0  0  0  0  0  0  0  0  0
   -0.0294   -4.4803    2.8470 H   0  0  0  0  0  0  0  0  0  0  0  0
   -0.4616   -1.0893    0.5050 N   0  0  0  0  0  0  0  0  0  0  0  0
   -0.0884    0.2050   -0.0621 C   0  0  2  0  0  0  0  0  0  0  0  0
    0.5952    1.0119    1.0381 C   0  0  0  0  0  0  0  0  0  0  0  0
    1.6417    1.6327    0.8621 O   0  0  0  0  0  0  0  0  0  0  0  0
   -1.3047    0.9834   -0.5856 C   0  0  0  0  0  0  0  0  0  0  0  0
   -1.9541    0.3412   -1.8158 C   0  0  0  0  0  0  0  0  0  0  0  0
   -3.1437    1.1689   -2.3099 C   0  0  0  0  0  0  0  0  0  0  0  0
   -3.8059    0.5152   -3.5216 C   0  0  0  0  0  0  0  0  0  0  0  0
   -4.9493    1.3058   -3.9615 N   0  0  0  0  0  0  0  0  0  0  0  0
   -1.2794   -1.1113    1.0935 H   0  0  0  0  0  0  0  0  0  0  0  0
    0.6248    0.0355   -0.8777 H   0  0  0  0  0  0  0  0  0  0  0  0
   -0.9943    2.0049   -0.8421 H   0  0  0  0  0  0  0  0  0  0  0  0
   -2.0528    1.0884    0.2119 H   0  0  0  0  0  0  0  0  0  0  0  0
   -2.2979   -0.6714   -1.5764 H   0  0  0  0  0  0  0  0  0  0  0  0
   -1.2115    0.2525   -2.6179 H   0  0  0  0  0  0  0  0  0  0  0  0
   -3.8747    1.2764   -1.4986 H   0  0  0  0  0  0  0  0  0  0  0  0
   -2.8028    2.1781   -2.5735 H   0  0  0  0  0  0  0  0  0  0  0  0
   -4.1400   -0.4975   -3.2707 H   0  0  0  0  0  0  0  0  0  0  0  0
   -3.0890    0.4356   -4.3456 H   0  0  0  0  0  0  0  0  0  0  0  0
   -5.0462    2.0829   -3.3505 H   0  0  0  0  0  0  0  0  0  0  0  0
   -4.7786    1.6118   -4.8909 H   0  0  0  0  0  0  0  0  0  0  0  0
   -0.0899    0.9374    2.2430 N   0  0  0  0  0  0  0  0  0  0  0  0
    0.3571    1.5934    3.4507 C   0  0  2  0  0  0  0  0  0  0  0  0
   -0.0619    0.7335    4.6358 C   0  0  0  0  0  0  0  0  0  0  0  0
   -1.1008    0.0767    4.6540 O   0  0  0  0  0  0  0  0  0  0  0  0
   -0.2209    2.9954    3.5652 C   0  0  0  0  0  0  0  0  0  0  0  0
   -0.9544    0.4064    2.2920 H   0  0  0  0  0  0  0  0  0  0  0  0
    1.4504    1.6387    3.3999 H   0  0  0  0  0  0  0  0  0  0  0  0
   -1.3155    2.9703    3.6173 H   0  0  0  0  0  0  0  0  0  0  0  0
    0.1413    3.5016    4.4661 H   0  0  0  0  0  0  0  0  0  0  0  0
    0.0566    3.6035    2.6975 H   0  0  0  0  0  0  0  0  0  0  0  0
    0.8395    0.8196    5.6876 N   0  0  0  0  0  0  0  0  0  0  0  0
    0.6432    0.1293    6.9410 C   0  0  0  0  0  0  0  0  0  0  0  0
    1.6942    1.3558    5.5706 H   0  0  0  0  0  0  0  0  0  0  0  0
    0.1208    0.7916    7.6471 H   0  0  0  0  0  0  0  0  0  0  0  0
    0.0396   -0.7744    6.7712 H   0  0  0  0  0  0  0  0  0  0  0  0
    1.6198   -0.1553    7.3595 H   0  0  0  0  0  0  0  0  0  0  0  0
  1  3  1  0  0  0  0
  1  7  1  0  0  0  0
  1  2  2  0  0  0  0
 39 40  1  0  0  0  0
 40 48  1  0  0  0  0
 40 41  2  0  0  0  0
  8  9  1  0  0  0  0
  9 17  1  0  0  0  0
  9 10  2  0  0  0  0
 18 19  1  0  0  0  0
 19 38  1  0  0  0  0
 19 20  2  0  0  0  0
 39 42  1  0  0  0  0
  8 11  1  0  0  0  0
 48 49  1  0  0  0  0
 22 23  1  0  0  0  0
 21 22  1  0  0  0  0
 23 24  1  0  0  0  0
 18 21  1  0  0  0  0
 24 25  1  0  0  0  0
 38 39  1  0  0  0  0
  7  8  1  0  0  0  0
 17 18  1  0  0  0  0
  3  4  1  0  0  0  0
  3  5  1  0  0  0  0
  3  6  1  0  0  0  0
 42 45  1  0  0  0  0
 42 46  1  0  0  0  0
 42 47  1  0  0  0  0
 11 14  1  0  0  0  0
 11 15  1  0  0  0  0
 11 16  1  0  0  0  0
 49 51  1  0  0  0  0
 49 52  1  0  0  0  0
 49 53  1  0  0  0  0
 22 30  1  0  0  0  0
 22 31  1  0  0  0  0
 23 32  1  0  0  0  0
 23 33  1  0  0  0  0
 21 28  1  0  0  0  0
 21 29  1  0  0  0  0
 24 34  1  0  0  0  0
 24 35  1  0  0  0  0
 39 44  1  0  0  0  0
  8 13  1  0  0  0  0
 18 27  1  0  0  0  0
 25 36  1  0  0  0  0
 25 37  1  0  0  0  0
 48 50  1  0  0  0  0
  7 12  1  0  0  0  0
 38 43  1  0  0  0  0
 17 26  1  0  0  0  0
M  END
$$$$

  -OEChem-05262214473D

 53 52  0     1  0  0  0  0  0999 V2000
   -1.0338   -5.6785    0.1476 C   0  0  0  0  0  0  0  0  0  0  0  0
   -2.0514   -5.7797    0.8227 O   0  0  0  0  0  0  0  0  0  0  0  0
   -0.6558   -6.7819   -0.7841 C   0  0  0  0  0  0  0  0  0  0  0  0
   -0.0111   -7.5354   -0.3038 H   0  0  0  0  0  0  0  0  0  0  0  0
   -1.5317   -7.3401   -1.1520 H   0  0  0  0  0  0  0  0  0  0  0  0
   -0.1109   -6.4687   -1.6890 H   0  0  0  0  0  0  0  0  0  0  0  0
   -0.1543   -4.6083    0.1480 N   0  0  0  0  0  0  0  0  0  0  0  0
   -0.3302   -3.4398    0.9696 C   0  0  2  0  0  0  0  0  0  0  0  0
    0.2328   -2.2439    0.2131 C   0  0  0  0  0  0  0  0  0  0  0  0
    1.2097   -2.3192   -0.5294 O   0  0  0  0  0  0  0  0  0  0  0  0
    0.3557   -3.6024    2.3171 C   0  0  0  0  0  0  0  0  0  0  0  0
    0.6584   -4.6506   -0.4643 H   0  0  0  0  0  0  0  0  0  0  0  0
   -1.4091   -3.3101    1.1082 H   0  0  0  0  0  0  0  0  0  0  0  0
    1.4375   -3.7336    2.1985 H   0  0  0  0  0  0  0  0  0  0  0  0
    0.1969   -2.7243    2.9517 H   0  0  0  0  0  0  0  0  0  0  0  0
   -0.0294   -4.4803    2.8470 H   0  0  0  0  0  0  0  0  0  0  0  0
   -0.4616   -1.0893    0.5050 N   0  0  0  0  0  0  0  0  0  0  0  0
   -0.0884    0.2050   -0.0621 C   0  0  2  0  0  0  0  0  0  0  0  0
    0.5952    1.0119    1.0381 C   0  0  0  0  0  0  0  0  0  0  0  0
    1.4763    1.8393    0.8133 O   0  0  0  0  0  0  0  0  0  0  0  0
   -1.3047    0.9834   -0.5856 C   0  0  0  0  0  0  0  0  0  0  0  0
   -1.9541    0.3412   -1.8158 C   0  0  0  0  0  0  0  0  0  0  0  0
   -3.1437    1.1689   -2.3099 C   0  0  0  0  0  0  0  0  0  0  0  0
   -3.8059    0.5152   -3.5216 C   0  0  0  0  0  0  0  0  0  0  0  0
   -4.9493    1.3058   -3.9615 N   0  0  0  0  0  0  0  0  0  0  0  0
   -1.2794   -1.1113    1.0935 H   0  0  0  0  0  0  0  0  0  0  0  0
    0.6248    0.0355   -0.8777 H   0  0  0  0  0  0  0  0  0  0  0  0
   -0.9943    2.0049   -0.8421 H   0  0  0  0  0  0  0  0  0  0  0  0
   -2.0528    1.0884    0.2119 H   0  0  0  0  0  0  0  0  0  0  0  0
   -2.2979   -0.6714   -1.5764 H   0  0  0  0  0  0  0  0  0  0  0  0
   -1.2115    0.2525   -2.6179 H   0  0  0  0  0  0  0  0  0  0  0  0
   -3.8747    1.2764   -1.4986 H   0  0  0  0  0  0  0  0  0  0  0  0
   -2.8028    2.1781   -2.5735 H   0  0  0  0  0  0  0  0  0  0  0  0
   -4.1400   -0.4975   -3.2707 H   0  0  0  0  0  0  0  0  0  0  0  0
   -3.0890    0.4356   -4.3456 H   0  0  0  0  0  0  0  0  0  0  0  0
   -5.0462    2.0829   -3.3505 H   0  0  0  0  0  0  0  0  0  0  0  0
   -4.7786    1.6118   -4.8909 H   0  0  0  0  0  0  0  0  0  0  0  0
    0.1202    0.6818    2.2999 N   0  0  0  0  0  0  0  0  0  0  0  0
    0.6164    1.2844    3.5162 C   0  0  2  0  0  0  0  0  0  0  0  0
    0.5376    0.2420    4.6237 C   0  0  0  0  0  0  0  0  0  0  0  0
   -0.3531   -0.6028    4.6876 O   0  0  0  0  0  0  0  0  0  0  0  0
   -0.1792    2.5277    3.8823 C   0  0  0  0  0  0  0  0  0  0  0  0
   -0.6187   -0.0095    2.3884 H   0  0  0  0  0  0  0  0  0  0  0  0
    1.6644    1.5466    3.3345 H   0  0  0  0  0  0  0  0  0  0  0  0
   -1.2318    2.2848    4.0680 H   0  0  0  0  0  0  0  0  0  0  0  0
    0.2160    2.9991    4.7882 H   0  0  0  0  0  0  0  0  0  0  0  0
   -0.1460    3.2642    3.0722 H   0  0  0  0  0  0  0  0  0  0  0  0
    1.5545    0.3932    5.5560 N   0  0  0  0  0  0  0  0  0  0  0  0
    1.6722   -0.4474    6.7246 C   0  0  0  0  0  0  0  0  0  0  0  0
    2.2730    1.0946    5.4025 H   0  0  0  0  0  0  0  0  0  0  0  0
    1.1502    0.0243    7.5703 H   0  0  0  0  0  0  0  0  0  0  0  0
    1.2212   -1.4290    6.5170 H   0  0  0  0  0  0  0  0  0  0  0  0
    2.7349   -0.5780    6.9767 H   0  0  0  0  0  0  0  0  0  0  0  0
  1  3  1  0  0  0  0
  1  7  1  0  0  0  0
  1  2  2  0  0  0  0
 39 40  1  0  0  0  0
 40 48  1  0  0  0  0
 40 41  2  0  0  0  0
  8  9  1  0  0  0  0
  9 17  1  0  0  0  0
  9 10  2  0  0  0  0
 18 19  1  0  0  0  0
 19 38  1  0  0  0  0
 19 20  2  0  0  0  0
 39 42  1  0  0  0  0
  8 11  1  0  0  0  0
 48 49  1  0  0  0  0
 22 23  1  0  0  0  0
 21 22  1  0  0  0  0
 23 24  1  0  0  0  0
 18 21  1  0  0  0  0
 24 25  1  0  0  0  0
 38 39  1  0  0  0  0
  7  8  1  0  0  0  0
 17 18  1  0  0  0  0
  3  4  1  0  0  0  0
  3  5  1  0  0  0  0
  3  6  1  0  0  0  0
 42 45  1  0  0  0  0
 42 46  1  0  0  0  0
 42 47  1  0  0  0  0
 11 14  1  0  0  0  0
 11 15  1  0  0  0  0
 11 16  1  0  0  0  0
 49 51  1  0  0  0  0
 49 52  1  0  0  0  0
 49 53  1  0  0  0  0
 22 30  1  0  0  0  0
 22 31  1  0  0  0  0
 23 32  1  0  0  0  0
 23 33  1  0  0  0  0
 21 28  1  0  0  0  0
 21 29  1  0  0  0  0
 24 34  1  0  0  0  0
 24 35  1  0  0  0  0
 39 44  1  0  0  0  0
  8 13  1  0  0  0  0
 18 27  1  0  0  0  0
 25 36  1  0  0  0  0
 25 37  1  0  0  0  0
 48 50  1  0  0  0  0
  7 12  1  0  0  0  0
 38 43  1  0  0  0  0
 17 26  1  0  0  0  0
M  END
$$$$

  -OEChem-05262214473D

 53 52  0     1  0  0  0  0  0999 V2000
   -1.0338   -5.6785    0.1476 C   0  0  0  0  0  0  0  0  0  0  0  0
   -2.0514   -5.7797    0.8227 O   0  0  0  0  0  0  0  0  0  0  0  0
   -0.6558   -6.7819   -0.7841 C   0  0  0  0  0  0  0  0  0  0  0  0
   -0.0111   -7.5354   -0.3038 H   0  0  0  0  0  0  0  0  0  0  0  0
   -1.5317   -7.3401   -1.1520 H   0  0  0  0  0  0  0  0  0  0  0  0
   -0.1109   -6.4687   -1.6890 H   0  0  0  0  0  0  0  0  0  0  0  0
   -0.1543   -4.6083    0.1480 N   0  0  0  0  0  0  0  0  0  0  0  0
   -0.3302   -3.4398    0.9696 C   0  0  2  0  0  0  0  0  0  0  0  0
    0.2328   -2.2439    0.2131 C   0  0  0  0  0  0  0  0  0  0  0  0
    1.2097   -2.3192   -0.5294 O   0  0  0  0  0  0  0  0  0  0  0  0
    0.3557   -3.6024    2.3171 C   0  0  0  0  0  0  0  0  0  0  0  0
    0.6584   -4.6506   -0.4643 H   0  0  0  0  0  0  0  0  0  0  0  0
   -1.4091   -3.3101    1.1082 H   0  0  0  0  0  0  0  0  0  0  0  0
    1.4375   -3.7336    2.1985 H   0  0  0  0  0  0  0  0  0  0  0  0
    0.1969   -2.7243    2.9517 H   0  0  0  0  0  0  0  0  0  0  0  0
   -0.0294   -4.4803    2.8470 H   0  0  0  0  0  0  0  0  0  0  0  0
   -0.4616   -1.0893    0.5050 N   0  0  0  0  0  0  0  0  0  0  0  0
   -0.0884    0.2050   -0.0621 C   0  0  2  0  0  0  0  0  0  0  0  0
    0.5952    1.0119    1.0381 C   0  0  0  0  0  0  0  0  0  0  0  0
    1.2713    2.0137    0.8128 O   0  0  0  0  0  0  0  0  0  0  0  0
   -1.3047    0.9834   -0.5856 C   0  0  0  0  0  0  0  0  0  0  0  0
   -1.9541    0.3412   -1.8158 C   0  0  0  0  0  0  0  0  0  0  0  0
   -3.1437    1.1689   -2.3099 C   0  0  0  0  0  0  0  0  0  0  0  0
   -3.8059    0.5152   -3.5216 C   0  0  0  0  0  0  0  0  0  0  0  0
   -4.9493    1.3058   -3.9615 N   0  0  0  0  0  0  0  0  0  0  0  0
   -1.2794   -1.1113    1.0935 H   0  0  0  0  0  0  0  0  0  0  0  0
    0.6248    0.0355   -0.8777 H   0  0  0  0  0  0  0  0  0  0  0  0
   -0.9943    2.0049   -0.8421 H   0  0  0  0  0  0  0  0  0  0  0  0
   -2.0528    1.0884    0.2119 H   0  0  0  0  0  0  0  0  0  0  0  0
   -2.2979   -0.6714   -1.5764 H   0  0  0  0  0  0  0  0  0  0  0  0
   -1.2115    0.2525   -2.6179 H   0  0  0  0  0  0  0  0  0  0  0  0
   -3.8747    1.2764   -1.4986 H   0  0  0  0  0  0  0  0  0  0  0  0
   -2.8028    2.1781   -2.5735 H   0  0  0  0  0  0  0  0  0  0  0  0
   -4.1400   -0.4975   -3.2707 H   0  0  0  0  0  0  0  0  0  0  0  0
   -3.0890    0.4356   -4.3456 H   0  0  0  0  0  0  0  0  0  0  0  0
   -5.0462    2.0829   -3.3505 H   0  0  0  0  0  0  0  0  0  0  0  0
   -4.7786    1.6118   -4.8909 H   0  0  0  0  0  0  0  0  0  0  0  0
    0.3786    0.4675    2.2965 N   0  0  0  0  0  0  0  0  0  0  0  0
    0.9335    1.0267    3.5081 C   0  0  2  0  0  0  0  0  0  0  0  0
    1.2068   -0.1195    4.4730 C   0  0  0  0  0  0  0  0  0  0  0  0
    0.5006   -1.1235    4.5391 O   0  0  0  0  0  0  0  0  0  0  0  0
   -0.0083    2.0469    4.1287 C   0  0  0  0  0  0  0  0  0  0  0  0
   -0.2036   -0.3597    2.3874 H   0  0  0  0  0  0  0  0  0  0  0  0
    1.8793    1.5052    3.2313 H   0  0  0  0  0  0  0  0  0  0  0  0
   -0.9614    1.5859    4.4125 H   0  0  0  0  0  0  0  0  0  0  0  0
    0.4259    2.4905    5.0307 H   0  0  0  0  0  0  0  0  0  0  0  0
   -0.2272    2.8552    3.4226 H   0  0  0  0  0  0  0  0  0  0  0  0
    2.3068    0.1300    5.2816 N   0  0  0  0  0  0  0  0  0  0  0  0
    2.7441   -0.7873    6.3079 C   0  0  0  0  0  0  0  0  0  0  0  0
    2.8577    0.9699    5.1306 H   0  0  0  0  0  0  0  0  0  0  0  0
    2.2771   -0.5159    7.2662 H   0  0  0  0  0  0  0  0  0  0  0  0
    2.4500   -1.8112    6.0339 H   0  0  0  0  0  0  0  0  0  0  0  0
    3.8384   -0.7338    6.4053 H   0  0  0  0  0  0  0  0  0  0  0  0
  1  3  1  0  0  0  0
  1  7  1  0  0  0  0
  1  2  2  0  0  0  0
 39 40  1  0  0  0  0
 40 48  1  0  0  0  0
 40 41  2  0  0  0  0
  8  9  1  0  0  0  0
  9 17  1  0  0  0  0
  9 10  2  0  0  0  0
 18 19  1  0  0  0  0
 19 38  1  0  0  0  0
 19 20  2  0  0  0  0
 39 42  1  0  0  0  0
  8 11  1  0  0  0  0
 48 49  1  0  0  0  0
 22 23  1  0  0  0  0
 21 22  1  0  0  0  0
 23 24  1  0  0  0  0
 18 21  1  0  0  0  0
 24 25  1  0  0  0  0
 38 39  1  0  0  0  0
  7  8  1  0  0  0  0
 17 18  1  0  0  0  0
  3  4  1  0  0  0  0
  3  5  1  0  0  0  0
  3  6  1  0  0  0  0
 42 45  1  0  0  0  0
 42 46  1  0  0  0  0
 42 47  1  0  0  0  0
 11 14  1  0  0  0  0
 11 15  1  0  0  0  0
 11 16  1  0  0  0  0
 49 51  1  0  0  0  0
 49 52  1  0  0  0  0
 49 53  1  0  0  0  0
 22 30  1  0  0  0  0
 22 31  1  0  0  0  0
 23 32  1  0  0  0  0
 23 33  1  0  0  0  0
 21 28  1  0  0  0  0
 21 29  1  0  0  0  0
 24 34  1  0  0  0  0
 24 35  1  0  0  0  0
 39 44  1  0  0  0  0
  8 13  1  0  0  0  0
 18 27  1  0  0  0  0
 25 36  1  0  0  0  0
 25 37  1  0  0  0  0
 48 50  1  0  0  0  0
  7 12  1  0  0  0  0
 38 43  1  0  0  0  0
 17 26  1  0  0  0  0
M  END
$$$$

  -OEChem-05262214473D

 53 52  0     1  0  0  0  0  0999 V2000
   -1.0338   -5.6785    0.1476 C   0  0  0  0  0  0  0  0  0  0  0  0
   -2.0514   -5.7797    0.8227 O   0  0  0  0  0  0  0  0  0  0  0  0
   -0.6558   -6.7819   -0.7841 C   0  0  0  0  0  0  0  0  0  0  0  0
   -0.0111   -7.5354   -0.3038 H   0  0  0  0  0  0  0  0  0  0  0  0
   -1.5317   -7.3401   -1.1520 H   0  0  0  0  0  0  0  0  0  0  0  0
   -0.1109   -6.4687   -1.6890 H   0  0  0  0  0  0  0  0  0  0  0  0
   -0.1543   -4.6083    0.1480 N   0  0  0  0  0  0  0  0  0  0  0  0
   -0.3302   -3.4398    0.9696 C   0  0  2  0  0  0  0  0  0  0  0  0
    0.2328   -2.2439    0.2131 C   0  0  0  0  0  0  0  0  0  0  0  0
    1.2097   -2.3192   -0.5294 O   0  0  0  0  0  0  0  0  0  0  0  0
    0.3557   -3.6024    2.3171 C   0  0  0  0  0  0  0  0  0  0  0  0
    0.6584   -4.6506   -0.4643 H   0  0  0  0  0  0  0  0  0  0  0  0
   -1.4091   -3.3101    1.1082 H   0  0  0  0  0  0  0  0  0  0  0  0
    1.4375   -3.7336    2.1985 H   0  0  0  0  0  0  0  0  0  0  0  0
    0.1969   -2.7243    2.9517 H   0  0  0  0  0  0  0  0  0  0  0  0
   -0.0294   -4.4803    2.8470 H   0  0  0  0  0  0  0  0  0  0  0  0
   -0.4616   -1.0893    0.5050 N   0  0  0  0  0  0  0  0  0  0  0  0
   -0.0884    0.2050   -0.0621 C   0  0  2  0  0  0  0  0  0  0  0  0
    0.5952    1.0119    1.0381 C   0  0  0  0  0  0  0  0  0  0  0  0
    1.0408    2.1439    0.8606 O   0  0  0  0  0  0  0  0  0  0  0  0
   -1.3047    0.9834   -0.5856 C   0  0  0  0  0  0  0  0  0  0  0  0
   -1.9541    0.3412   -1.8158 C   0  0  0  0  0  0  0  0  0  0  0  0
   -3.1437    1.1689   -2.3099 C   0  0  0  0  0  0  0  0  0  0  0  0
   -3.8059    0.5152   -3.5216 C   0  0  0  0  0  0  0  0  0  0  0  0
   -4.9493    1.3058   -3.9615 N   0  0  0  0  0  0  0  0  0  0  0  0
   -1.2794   -1.1113    1.0935 H   0  0  0  0  0  0  0  0  0  0  0  0
    0.6248    0.0355   -0.8777 H   0  0  0  0  0  0  0  0  0  0  0  0
   -0.9943    2.0049   -0.8421 H   0  0  0  0  0  0  0  0  0  0  0  0
   -2.0528    1.0884    0.2119 H   0  0  0  0  0  0  0  0  0  0  0  0
   -2.2979   -0.6714   -1.5764 H   0  0  0  0  0  0  0  0  0  0  0  0
   -1.2115    0.2525   -2.6179 H   0  0  0  0  0  0  0  0  0  0  0  0
   -3.8747    1.2764   -1.4986 H   0  0  0  0  0  0  0  0  0  0  0  0
   -2.8028    2.1781   -2.5735 H   0  0  0  0  0  0  0  0  0  0  0  0
   -4.1400   -0.4975   -3.2707 H   0  0  0  0  0  0  0  0  0  0  0  0
   -3.0890    0.4356   -4.3456 H   0  0  0  0  0  0  0  0  0  0  0  0
   -5.0462    2.0829   -3.3505 H   0  0  0  0  0  0  0  0  0  0  0  0
   -4.7786    1.6118   -4.8909 H   0  0  0  0  0  0  0  0  0  0  0  0
    0.6677    0.3091    2.2330 N   0  0  0  0  0  0  0  0  0  0  0  0
    1.2868    0.8380    3.4271 C   0  0  2  0  0  0  0  0  0  0  0  0
    1.8999   -0.3263    4.1940 C   0  0  0  0  0  0  0  0  0  0  0  0
    1.4020   -1.4499    4.2184 O   0  0  0  0  0  0  0  0  0  0  0  0
    0.2803    1.5858    4.2875 C   0  0  0  0  0  0  0  0  0  0  0  0
    0.2625   -0.6205    2.2890 H   0  0  0  0  0  0  0  0  0  0  0  0
    2.0805    1.5173    3.0975 H   0  0  0  0  0  0  0  0  0  0  0  0
   -0.5226    0.9214    4.6271 H   0  0  0  0  0  0  0  0  0  0  0  0
    0.7568    2.0102    5.1774 H   0  0  0  0  0  0  0  0  0  0  0  0
   -0.1814    2.4043    3.7248 H   0  0  0  0  0  0  0  0  0  0  0  0
    3.0450    0.0480    4.8831 N   0  0  0  0  0  0  0  0  0  0  0  0
    3.7859   -0.8674    5.7193 C   0  0  0  0  0  0  0  0  0  0  0  0
    3.4087    0.9901    4.7736 H   0  0  0  0  0  0  0  0  0  0  0  0
    3.4248   -0.7922    6.7557 H   0  0  0  0  0  0  0  0  0  0  0  0
    3.6420   -1.8952    5.3548 H   0  0  0  0  0  0  0  0  0  0  0  0
    4.8553   -0.6121    5.6843 H   0  0  0  0  0  0  0  0  0  0  0  0
  1  3  1  0  0  0  0
  1  7  1  0  0  0  0
  1  2  2  0  0  0  0
 39 40  1  0  0  0  0
 40 48  1  0  0  0  0
 40 41  2  0  0  0  0
  8  9  1  0  0  0  0
  9 17  1  0  0  0  0
  9 10  2  0  0  0  0
 18 19  1  0  0  0  0
 19 38  1  0  0  0  0
 19 20  2  0  0  0  0
 39 42  1  0  0  0  0
  8 11  1  0  0  0  0
 48 49  1  0  0  0  0
 22 23  1  0  0  0  0
 21 22  1  0  0  0  0
 23 24  1  0  0  0  0
 18 21  1  0  0  0  0
 24 25  1  0  0  0  0
 38 39  1  0  0  0  0
  7  8  1  0  0  0  0
 17 18  1  0  0  0  0
  3  4  1  0  0  0  0
  3  5  1  0  0  0  0
  3  6  1  0  0  0  0
 42 45  1  0  0  0  0
 42 46  1  0  0  0  0
 42 47  1  0  0  0  0
 11 14  1  0  0  0  0
 11 15  1  0  0  0  0
 11 16  1  0  0  0  0
 49 51  1  0  0  0  0
 49 52  1  0  0  0  0
 49 53  1  0  0  0  0
 22 30  1  0  0  0  0
 22 31  1  0  0  0  0
 23 32  1  0  0  0  0
 23 33  1  0  0  0  0
 21 28  1  0  0  0  0
 21 29  1  0  0  0  0
 24 34  1  0  0  0  0
 24 35  1  0  0  0  0
 39 44  1  0  0  0  0
  8 13  1  0  0  0  0
 18 27  1  0  0  0  0
 25 36  1  0  0  0  0
 25 37  1  0  0  0  0
 48 50  1  0  0  0  0
  7 12  1  0  0  0  0
 38 43  1  0  0  0  0
 17 26  1  0  0  0  0
M  END
$$$$

  -OEChem-05262214473D

 53 52  0     1  0  0  0  0  0999 V2000
   -1.0338   -5.6785    0.1476 C   0  0  0  0  0  0  0  0  0  0  0  0
   -2.0514   -5.7797    0.8227 O   0  0  0  0  0  0  0  0  0  0  0  0
   -0.6558   -6.7819   -0.7841 C   0  0  0  0  0  0  0  0  0  0  0  0
   -0.0111   -7.5354   -0.3038 H   0  0  0  0  0  0  0  0  0  0  0  0
   -1.5317   -7.3401   -1.1520 H   0  0  0  0  0  0  0  0  0  0  0  0
   -0.1109   -6.4687   -1.6890 H   0  0  0  0  0  0  0  0  0  0  0  0
   -0.1543   -4.6083    0.1480 N   0  0  0  0  0  0  0  0  0  0  0  0
   -0.3302   -3.4398    0.9696 C   0  0  2  0  0  0  0  0  0  0  0  0
    0.2328   -2.2439    0.2131 C   0  0  0  0  0  0  0  0  0  0  0  0
    1.2097   -2.3192   -0.5294 O   0  0  0  0  0  0  0  0  0  0  0  0
    0.3557   -3.6024    2.3171 C   0  0  0  0  0  0  0  0  0  0  0  0
    0.6584   -4.6506   -0.4643 H   0  0  0  0  0  0  0  0  0  0  0  0
   -1.4091   -3.3101    1.1082 H   0  0  0  0  0  0  0  0  0  0  0  0
    1.4375   -3.7336    2.1985 H   0  0  0  0  0  0  0  0  0  0  0  0
    0.1969   -2.7243    2.9517 H   0  0  0  0  0  0  0  0  0  0  0  0
   -0.0294   -4.4803    2.8470 H   0  0  0  0  0  0  0  0  0  0  0  0
   -0.4616   -1.0893    0.5050 N   0  0  0  0  0  0  0  0  0  0  0  0
   -0.0884    0.2050   -0.0621 C   0  0  2  0  0  0  0  0  0  0  0  0
    0.5952    1.0119    1.0381 C   0  0  0  0  0  0  0  0  0  0  0  0
    0.8003    2.2211    0.9534 O   0  0  0  0  0  0  0  0  0  0  0  0
   -1.3047    0.9834   -0.5856 C   0  0  0  0  0  0  0  0  0  0  0  0
   -1.9541    0.3412   -1.8158 C   0  0  0  0  0  0  0  0  0  0  0  0
   -3.1437    1.1689   -2.3099 C   0  0  0  0  0  0  0  0  0  0  0  0
   -3.8059    0.5152   -3.5216 C   0  0  0  0  0  0  0  0  0  0  0  0
   -4.9493    1.3058   -3.9615 N   0  0  0  0  0  0  0  0  0  0  0  0
   -1.2794   -1.1113    1.0935 H   0  0  0  0  0  0  0  0  0  0  0  0
    0.6248    0.0355   -0.8777 H   0  0  0  0  0  0  0  0  0  0  0  0
   -0.9943    2.0049   -0.8421 H   0  0  0  0  0  0  0  0  0  0  0  0
   -2.0528    1.0884    0.2119 H   0  0  0  0  0  0  0  0  0  0  0  0
   -2.2979   -0.6714   -1.5764 H   0  0  0  0  0  0  0  0  0  0  0  0
   -1.2115    0.2525   -2.6179 H   0  0  0  0  0  0  0  0  0  0  0  0
   -3.8747    1.2764   -1.4986 H   0  0  0  0  0  0  0  0  0  0  0  0
   -2.8028    2.1781   -2.5735 H   0  0  0  0  0  0  0  0  0  0  0  0
   -4.1400   -0.4975   -3.2707 H   0  0  0  0  0  0  0  0  0  0  0  0
   -3.0890    0.4356   -4.3456 H   0  0  0  0  0  0  0  0  0  0  0  0
   -5.0462    2.0829   -3.3505 H   0  0  0  0  0  0  0  0  0  0  0  0
   -4.7786    1.6118   -4.8909 H   0  0  0  0  0  0  0  0  0  0  0  0
    0.9679    0.2175    2.1137 N   0  0  0  0  0  0  0  0  0  0  0  0
    1.6522    0.7309    3.2785 C   0  0  2  0  0  0  0  0  0  0  0  0
    2.5699   -0.3643    3.8057 C   0  0  0  0  0  0  0  0  0  0  0  0
    2.2897   -1.5598    3.7474 O   0  0  0  0  0  0  0  0  0  0  0  0
    0.6668    1.1759    4.3479 C   0  0  0  0  0  0  0  0  0  0  0  0
    0.7479   -0.7740    2.0999 H   0  0  0  0  0  0  0  0  0  0  0  0
    2.2543    1.5820    2.9420 H   0  0  0  0  0  0  0  0  0  0  0  0
    0.0546    0.3365    4.6974 H   0  0  0  0  0  0  0  0  0  0  0  0
    1.1862    1.5910    5.2180 H   0  0  0  0  0  0  0  0  0  0  0  0
   -0.0116    1.9424    3.9580 H   0  0  0  0  0  0  0  0  0  0  0  0
    3.7188    0.1527    4.3877 N   0  0  0  0  0  0  0  0  0  0  0  0
    4.7265   -0.6820    4.9990 C   0  0  0  0  0  0  0  0  0  0  0  0
    3.8882    1.1537    4.3556 H   0  0  0  0  0  0  0  0  0  0  0  0
    4.5152   -0.7857    6.0735 H   0  0  0  0  0  0  0  0  0  0  0  0
    4.7162   -1.6751    4.5259 H   0  0  0  0  0  0  0  0  0  0  0  0
    5.7161   -0.2213    4.8629 H   0  0  0  0  0  0  0  0  0  0  0  0
  1  3  1  0  0  0  0
  1  7  1  0  0  0  0
  1  2  2  0  0  0  0
 39 40  1  0  0  0  0
 40 48  1  0  0  0  0
 40 41  2  0  0  0  0
  8  9  1  0  0  0  0
  9 17  1  0  0  0  0
  9 10  2  0  0  0  0
 18 19  1  0  0  0  0
 19 38  1  0  0  0  0
 19 20  2  0  0  0  0
 39 42  1  0  0  0  0
  8 11  1  0  0  0  0
 48 49  1  0  0  0  0
 22 23  1  0  0  0  0
 21 22  1  0  0  0  0
 23 24  1  0  0  0  0
 18 21  1  0  0  0  0
 24 25  1  0  0  0  0
 38 39  1  0  0  0  0
  7  8  1  0  0  0  0
 17 18  1  0  0  0  0
  3  4  1  0  0  0  0
  3  5  1  0  0  0  0
  3  6  1  0  0  0  0
 42 45  1  0  0  0  0
 42 46  1  0  0  0  0
 42 47  1  0  0  0  0
 11 14  1  0  0  0  0
 11 15  1  0  0  0  0
 11 16  1  0  0  0  0
 49 51  1  0  0  0  0
 49 52  1  0  0  0  0
 49 53  1  0  0  0  0
 22 30  1  0  0  0  0
 22 31  1  0  0  0  0
 23 32  1  0  0  0  0
 23 33  1  0  0  0  0
 21 28  1  0  0  0  0
 21 29  1  0  0  0  0
 24 34  1  0  0  0  0
 24 35  1  0  0  0  0
 39 44  1  0  0  0  0
  8 13  1  0  0  0  0
 18 27  1  0  0  0  0
 25 36  1  0  0  0  0
 25 37  1  0  0  0  0
 48 50  1  0  0  0  0
  7 12  1  0  0  0  0
 38 43  1  0  0  0  0
 17 26  1  0  0  0  0
M  END
$$$$

  -OEChem-05262214473D

 53 52  0     1  0  0  0  0  0999 V2000
   -1.0338   -5.6785    0.1476 C   0  0  0  0  0  0  0  0  0  0  0  0
   -2.0514   -5.7797    0.8227 O   0  0  0  0  0  0  0  0  0  0  0  0
   -0.6558   -6.7819   -0.7841 C   0  0  0  0  0  0  0  0  0  0  0  0
   -0.0111   -7.5354   -0.3038 H   0  0  0  0  0  0  0  0  0  0  0  0
   -1.5317   -7.3401   -1.1520 H   0  0  0  0  0  0  0  0  0  0  0  0
   -0.1109   -6.4687   -1.6890 H   0  0  0  0  0  0  0  0  0  0  0  0
   -0.1543   -4.6083    0.1480 N   0  0  0  0  0  0  0  0  0  0  0  0
   -0.3302   -3.4398    0.9696 C   0  0  2  0  0  0  0  0  0  0  0  0
    0.2328   -2.2439    0.2131 C   0  0  0  0  0  0  0  0  0  0  0  0
    1.2097   -2.3192   -0.5294 O   0  0  0  0  0  0  0  0  0  0  0  0
    0.3557   -3.6024    2.3171 C   0  0  0  0  0  0  0  0  0  0  0  0
    0.6584   -4.6506   -0.4643 H   0  0  0  0  0  0  0  0  0  0  0  0
   -1.4091   -3.3101    1.1082 H   0  0  0  0  0  0  0  0  0  0  0  0
    1.4375   -3.7336    2.1985 H   0  0  0  0  0  0  0  0  0  0  0  0
    0.1969   -2.7243    2.9517 H   0  0  0  0  0  0  0  0  0  0  0  0
   -0.0294   -4.4803    2.8470 H   0  0  0  0  0  0  0  0  0  0  0  0
   -0.4616   -1.0893    0.5050 N   0  0  0  0  0  0  0  0  0  0  0  0
   -0.0884    0.2050   -0.0621 C   0  0  2  0  0  0  0  0  0  0  0  0
    0.5952    1.0119    1.0381 C   0  0  0  0  0  0  0  0  0  0  0  0
    0.5663    2.2401    1.0848 O   0  0  0  0  0  0  0  0  0  0  0  0
   -1.3047    0.9834   -0.5856 C   0  0  0  0  0  0  0  0  0  0  0  0
   -1.9541    0.3412   -1.8158 C   0  0  0  0  0  0  0  0  0  0  0  0
   -3.1437    1.1689   -2.3099 C   0  0  0  0  0  0  0  0  0  0  0  0
   -3.8059    0.5152   -3.5216 C   0  0  0  0  0  0  0  0  0  0  0  0
   -4.9493    1.3058   -3.9615 N   0  0  0  0  0  0  0  0  0  0  0  0
   -1.2794   -1.1113    1.0935 H   0  0  0  0  0  0  0  0  0  0  0  0
    0.6248    0.0355   -0.8777 H   0  0  0  0  0  0  0  0  0  0  0  0
   -0.9943    2.0049   -0.8421 H   0  0  0  0  0  0  0  0  0  0  0  0
   -2.0528    1.0884    0.2119 H   0  0  0  0  0  0  0  0  0  0  0  0
   -2.2979   -0.6714   -1.5764 H   0  0  0  0  0  0  0  0  0  0  0  0
   -1.2115    0.2525   -2.6179 H   0  0  0  0  0  0  0  0  0  0  0  0
   -3.8747    1.2764   -1.4986 H   0  0  0  0  0  0  0  0  0  0  0  0
   -2.8028    2.1781   -2.5735 H   0  0  0  0  0  0  0  0  0  0  0  0
   -4.1400   -0.4975   -3.2707 H   0  0  0  0  0  0  0  0  0  0  0  0
   -3.0890    0.4356   -4.3456 H   0  0  0  0  0  0  0  0  0  0  0  0
   -5.0462    2.0829   -3.3505 H   0  0  0  0  0  0  0  0  0  0  0  0
   -4.7786    1.6118   -4.8909 H   0  0  0  0  0  0  0  0  0  0  0  0
    1.2586    0.1988    1.9468 N   0  0  0  0  0  0  0  0  0  0  0  0
    2.0048    0.7129    3.0726 C   0  0  2  0  0  0  0  0  0  0  0  0
    3.1709   -0.2311    3.3345 C   0  0  0  0  0  0  0  0  0  0  0  0
    3.1032   -1.4457    3.1583 O   0  0  0  0  0  0  0  0  0  0  0  0
    1.1249    0.8451    4.3059 C   0  0  0  0  0  0  0  0  0  0  0  0
    1.2195   -0.8097    1.8331 H   0  0  0  0  0  0  0  0  0  0  0  0
    2.3888    1.6950    2.7756 H   0  0  0  0  0  0  0  0  0  0  0  0
    0.7309   -0.1289    4.6185 H   0  0  0  0  0  0  0  0  0  0  0  0
    1.6846    1.2615    5.1499 H   0  0  0  0  0  0  0  0  0  0  0  0
    0.2705    1.5008    4.1066 H   0  0  0  0  0  0  0  0  0  0  0  0
    4.2823    0.4370    3.8291 N   0  0  0  0  0  0  0  0  0  0  0  0
    5.5020   -0.2440    4.1959 C   0  0  0  0  0  0  0  0  0  0  0  0
    4.2636    1.4497    3.9053 H   0  0  0  0  0  0  0  0  0  0  0  0
    5.4738   -0.4968    5.2661 H   0  0  0  0  0  0  0  0  0  0  0  0
    5.5994   -1.1659    3.6039 H   0  0  0  0  0  0  0  0  0  0  0  0
    6.3622    0.4121    3.9969 H   0  0  0  0  0  0  0  0  0  0  0  0
  1  3  1  0  0  0  0
  1  7  1  0  0  0  0
  1  2  2  0  0  0  0
 39 40  1  0  0  0  0
 40 48  1  0  0  0  0
 40 41  2  0  0  0  0
  8  9  1  0  0  0  0
  9 17  1  0  0  0  0
  9 10  2  0  0  0  0
 18 19  1  0  0  0  0
 19 38  1  0  0  0  0
 19 20  2  0  0  0  0
 39 42  1  0  0  0  0
  8 11  1  0  0  0  0
 48 49  1  0  0  0  0
 22 23  1  0  0  0  0
 21 22  1  0  0  0  0
 23 24  1  0  0  0  0
 18 21  1  0  0  0  0
 24 25  1  0  0  0  0
 38 39  1  0  0  0  0
  7  8  1  0  0  0  0
 17 18  1  0  0  0  0
  3  4  1  0  0  0  0
  3  5  1  0  0  0  0
  3  6  1  0  0  0  0
 42 45  1  0  0  0  0
 42 46  1  0  0  0  0
 42 47  1  0  0  0  0
 11 14  1  0  0  0  0
 11 15  1  0  0  0  0
 11 16  1  0  0  0  0
 49 51  1  0  0  0  0
 49 52  1  0  0  0  0
 49 53  1  0  0  0  0
 22 30  1  0  0  0  0
 22 31  1  0  0  0  0
 23 32  1  0  0  0  0
 23 33  1  0  0  0  0
 21 28  1  0  0  0  0
 21 29  1  0  0  0  0
 24 34  1  0  0  0  0
 24 35  1  0  0  0  0
 39 44  1  0  0  0  0
  8 13  1  0  0  0  0
 18 27  1  0  0  0  0
 25 36  1  0  0  0  0
 25 37  1  0  0  0  0
 48 50  1  0  0  0  0
  7 12  1  0  0  0  0
 38 43  1  0  0  0  0
 17 26  1  0  0  0  0
M  END
$$$$

  -OEChem-05262214473D

 53 52  0     1  0  0  0  0  0999 V2000
   -1.0338   -5.6785    0.1476 C   0  0  0  0  0  0  0  0  0  0  0  0
   -2.0514   -5.7797    0.8227 O   0  0  0  0  0  0  0  0  0  0  0  0
   -0.6558   -6.7819   -0.7841 C   0  0  0  0  0  0  0  0  0  0  0  0
   -0.0111   -7.5354   -0.3038 H   0  0  0  0  0  0  0  0  0  0  0  0
   -1.5317   -7.3401   -1.1520 H   0  0  0  0  0  0  0  0  0  0  0  0
   -0.1109   -6.4687   -1.6890 H   0  0  0  0  0  0  0  0  0  0  0  0
   -0.1543   -4.6083    0.1480 N   0  0  0  0  0  0  0  0  0  0  0  0
   -0.3302   -3.4398    0.9696 C   0  0  2  0  0  0  0  0  0  0  0  0
    0.2328   -2.2439    0.2131 C   0  0  0  0  0  0  0  0  0  0  0  0
    1.2097   -2.3192   -0.5294 O   0  0  0  0  0  0  0  0  0  0  0  0
    0.3557   -3.6024    2.3171 C   0  0  0  0  0  0  0  0  0  0  0  0
    0.6584   -4.6506   -0.4643 H   0  0  0  0  0  0  0  0  0  0  0  0
   -1.4091   -3.3101    1.1082 H   0  0  0  0  0  0  0  0  0  0  0  0
    1.4375   -3.7336    2.1985 H   0  0  0  0  0  0  0  0  0  0  0  0
    0.1969   -2.7243    2.9517 H   0  0  0  0  0  0  0  0  0  0  0  0
   -0.0294   -4.4803    2.8470 H   0  0  0  0  0  0  0  0  0  0  0  0
   -0.4616   -1.0893    0.5050 N   0  0  0  0  0  0  0  0  0  0  0  0
   -0.0884    0.2050   -0.0621 C   0  0  2  0  0  0  0  0  0  0  0  0
    0.5952    1.0119    1.0381 C   0  0  0  0  0  0  0  0  0  0  0  0
    0.3547    2.1995    1.2461 O   0  0  0  0  0  0  0  0  0  0  0  0
   -1.3047    0.9834   -0.5856 C   0  0  0  0  0  0  0  0  0  0  0  0
   -1.9541    0.3412   -1.8158 C   0  0  0  0  0  0  0  0  0  0  0  0
   -3.1437    1.1689   -2.3099 C   0  0  0  0  0  0  0  0  0  0  0  0
   -3.8059    0.5152   -3.5216 C   0  0  0  0  0  0  0  0  0  0  0  0
   -4.9493    1.3058   -3.9615 N   0  0  0  0  0  0  0  0  0  0  0  0
   -1.2794   -1.1113    1.0935 H   0  0  0  0  0  0  0  0  0  0  0  0
    0.6248    0.0355   -0.8777 H   0  0  0  0  0  0  0  0  0  0  0  0
   -0.9943    2.0049   -0.8421 H   0  0  0  0  0  0  0  0  0  0  0  0
   -2.0528    1.0884    0.2119 H   0  0  0  0  0  0  0  0  0  0  0  0
   -2.2979   -0.6714   -1.5764 H   0  0  0  0  0  0  0  0  0  0  0  0
   -1.2115    0.2525   -2.6179 H   0  0  0  0  0  0  0  0  0  0  0  0
   -3.8747    1.2764   -1.4986 H   0  0  0  0  0  0  0  0  0  0  0  0
   -2.8028    2.1781   -2.5735 H   0  0  0  0  0  0  0  0  0  0  0  0
   -4.1400   -0.4975   -3.2707 H   0  0  0  0  0  0  0  0  0  0  0  0
   -3.0890    0.4356   -4.3456 H   0  0  0  0  0  0  0  0  0  0  0  0
   -5.0462    2.0829   -3.3505 H   0  0  0  0  0  0  0  0  0  0  0  0
   -4.7786    1.6118   -4.8909 H   0  0  0  0  0  0  0  0  0  0  0  0
    1.5200    0.2543    1.7436 N   0  0  0  0  0  0  0  0  0  0  0  0
    2.3206    0.7852    2.8234 C   0  0  2  0  0  0  0  0  0  0  0  0
    3.6622    0.0645    2.8126 C   0  0  0  0  0  0  0  0  0  0  0  0
    3.7871   -1.1154    2.4912 O   0  0  0  0  0  0  0  0  0  0  0  0
    1.6234    0.6158    4.1643 C   0  0  0  0  0  0  0  0  0  0  0  0
    1.6453   -0.7253    1.5067 H   0  0  0  0  0  0  0  0  0  0  0  0
    2.4749    1.8485    2.6096 H   0  0  0  0  0  0  0  0  0  0  0  0
    1.4602   -0.4431    4.3958 H   0  0  0  0  0  0  0  0  0  0  0  0
    2.2183    1.0441    4.9777 H   0  0  0  0  0  0  0  0  0  0  0  0
    0.6457    1.1096    4.1603 H   0  0  0  0  0  0  0  0  0  0  0  0
    4.6972    0.8816    3.2453 N   0  0  0  0  0  0  0  0  0  0  0  0
    6.0594    0.4170    3.3649 C   0  0  0  0  0  0  0  0  0  0  0  0
    4.5094    1.8580    3.4532 H   0  0  0  0  0  0  0  0  0  0  0  0
    6.2353    0.0546    4.3885 H   0  0  0  0  0  0  0  0  0  0  0  0
    6.2312   -0.4024    2.6514 H   0  0  0  0  0  0  0  0  0  0  0  0
    6.7497    1.2449    3.1455 H   0  0  0  0  0  0  0  0  0  0  0  0
  1  3  1  0  0  0  0
  1  7  1  0  0  0  0
  1  2  2  0  0  0  0
 39 40  1  0  0  0  0
 40 48  1  0  0  0  0
 40 41  2  0  0  0  0
  8  9  1  0  0  0  0
  9 17  1  0  0  0  0
  9 10  2  0  0  0  0
 18 19  1  0  0  0  0
 19 38  1  0  0  0  0
 19 20  2  0  0  0  0
 39 42  1  0  0  0  0
  8 11  1  0  0  0  0
 48 49  1  0  0  0  0
 22 23  1  0  0  0  0
 21 22  1  0  0  0  0
 23 24  1  0  0  0  0
 18 21  1  0  0  0  0
 24 25  1  0  0  0  0
 38 39  1  0  0  0  0
  7  8  1  0  0  0  0
 17 18  1  0  0  0  0
  3  4  1  0  0  0  0
  3  5  1  0  0  0  0
  3  6  1  0  0  0  0
 42 45  1  0  0  0  0
 42 46  1  0  0  0  0
 42 47  1  0  0  0  0
 11 14  1  0  0  0  0
 11 15  1  0  0  0  0
 11 16  1  0  0  0  0
 49 51  1  0  0  0  0
 49 52  1  0  0  0  0
 49 53  1  0  0  0  0
 22 30  1  0  0  0  0
 22 31  1  0  0  0  0
 23 32  1  0  0  0  0
 23 33  1  0  0  0  0
 21 28  1  0  0  0  0
 21 29  1  0  0  0  0
 24 34  1  0  0  0  0
 24 35  1  0  0  0  0
 39 44  1  0  0  0  0
  8 13  1  0  0  0  0
 18 27  1  0  0  0  0
 25 36  1  0  0  0  0
 25 37  1  0  0  0  0
 48 50  1  0  0  0  0
  7 12  1  0  0  0  0
 38 43  1  0  0  0  0
 17 26  1  0  0  0  0
M  END
$$$$

  -OEChem-05262214473D

 53 52  0     1  0  0  0  0  0999 V2000
   -1.0338   -5.6785    0.1476 C   0  0  0  0  0  0  0  0  0  0  0  0
   -2.0514   -5.7797    0.8227 O   0  0  0  0  0  0  0  0  0  0  0  0
   -0.6558   -6.7819   -0.7841 C   0  0  0  0  0  0  0  0  0  0  0  0
   -0.0111   -7.5354   -0.3038 H   0  0  0  0  0  0  0  0  0  0  0  0
   -1.5317   -7.3401   -1.1520 H   0  0  0  0  0  0  0  0  0  0  0  0
   -0.1109   -6.4687   -1.6890 H   0  0  0  0  0  0  0  0  0  0  0  0
   -0.1543   -4.6083    0.1480 N   0  0  0  0  0  0  0  0  0  0  0  0
   -0.3302   -3.4398    0.9696 C   0  0  2  0  0  0  0  0  0  0  0  0
    0.2328   -2.2439    0.2131 C   0  0  0  0  0  0  0  0  0  0  0  0
    1.2097   -2.3192   -0.5294 O   0  0  0  0  0  0  0  0  0  0  0  0
    0.3557   -3.6024    2.3171 C   0  0  0  0  0  0  0  0  0  0  0  0
    0.6584   -4.6506   -0.4643 H   0  0  0  0  0  0  0  0  0  0  0  0
   -1.4091   -3.3101    1.1082 H   0  0  0  0  0  0  0  0  0  0  0  0
    1.4375   -3.7336    2.1985 H   0  0  0  0  0  0  0  0  0  0  0  0
    0.1969   -2.7243    2.9517 H   0  0  0  0  0  0  0  0  0  0  0  0
   -0.0294   -4.4803    2.8470 H   0  0  0  0  0  0  0  0  0  0  0  0
   -0.4616   -1.0893    0.5050 N   0  0  0  0  0  0  0  0  0  0  0  0
   -0.0884    0.2050   -0.0621 C   0  0  2  0  0  0  0  0  0  0  0  0
    0.5952    1.0119    1.0381 C   0  0  0  0  0  0  0  0  0  0  0  0
    0.1800    2.1021    1.4261 O   0  0  0  0  0  0  0  0  0  0  0  0
   -1.3047    0.9834   -0.5856 C   0  0  0  0  0  0  0  0  0  0  0  0
   -1.9541    0.3412   -1.8158 C   0  0  0  0  0  0  0  0  0  0  0  0
   -3.1437    1.1689   -2.3099 C   0  0  0  0  0  0  0  0  0  0  0  0
   -3.8059    0.5152   -3.5216 C   0  0  0  0  0  0  0  0  0  0  0  0
   -4.9493    1.3058   -3.9615 N   0  0  0  0  0  0  0  0  0  0  0  0
   -1.2794   -1.1113    1.0935 H   0  0  0  0  0  0  0  0  0  0  0  0
    0.6248    0.0355   -0.8777 H   0  0  0  0  0  0  0  0  0  0  0  0
   -0.9943    2.0049   -0.8421 H   0  0  0  0  0  0  0  0  0  0  0  0
   -2.0528    1.0884    0.2119 H   0  0  0  0  0  0  0  0  0  0  0  0
   -2.2979   -0.6714   -1.5764 H   0  0  0  0  0  0  0  0  0  0  0  0
   -1.2115    0.2525   -2.6179 H   0  0  0  0  0  0  0  0  0  0  0  0
   -3.8747    1.2764   -1.4986 H   0  0  0  0  0  0  0  0  0  0  0  0
   -2.8028    2.1781   -2.5735 H   0  0  0  0  0  0  0  0  0  0  0  0
   -4.1400   -0.4975   -3.2707 H   0  0  0  0  0  0  0  0  0  0  0  0
   -3.0890    0.4356   -4.3456 H   0  0  0  0  0  0  0  0  0  0  0  0
   -5.0462    2.0829   -3.3505 H   0  0  0  0  0  0  0  0  0  0  0  0
   -4.7786    1.6118   -4.8909 H   0  0  0  0  0  0  0  0  0  0  0  0
    1.7344    0.3803    1.5181 N   0  0  0  0  0  0  0  0  0  0  0  0
    2.5780    0.9429    2.5479 C   0  0  2  0  0  0  0  0  0  0  0  0
    4.0101    0.5021    2.2755 C   0  0  0  0  0  0  0  0  0  0  0  0
    4.2948   -0.5914    1.7915 O   0  0  0  0  0  0  0  0  0  0  0  0
    2.1283    0.5039    3.9327 C   0  0  0  0  0  0  0  0  0  0  0  0
    1.9961   -0.5265    1.1429 H   0  0  0  0  0  0  0  0  0  0  0  0
    2.5066    2.0321    2.4552 H   0  0  0  0  0  0  0  0  0  0  0  0
    2.1928   -0.5846    4.0444 H   0  0  0  0  0  0  0  0  0  0  0  0
    2.7508    0.9537    4.7132 H   0  0  0  0  0  0  0  0  0  0  0  0
    1.0884    0.7956    4.1155 H   0  0  0  0  0  0  0  0  0  0  0  0
    4.9350    1.4561    2.6762 N   0  0  0  0  0  0  0  0  0  0  0  0
    6.3608    1.2558    2.5625 C   0  0  0  0  0  0  0  0  0  0  0  0
    4.6088    2.3505    3.0302 H   0  0  0  0  0  0  0  0  0  0  0  0
    6.7479    0.8312    3.5005 H   0  0  0  0  0  0  0  0  0  0  0  0
    6.5687    0.5634    1.7335 H   0  0  0  0  0  0  0  0  0  0  0  0
    6.8520    2.2203    2.3666 H   0  0  0  0  0  0  0  0  0  0  0  0
  1  3  1  0  0  0  0
  1  7  1  0  0  0  0
  1  2  2  0  0  0  0
 39 40  1  0  0  0  0
 40 48  1  0  0  0  0
 40 41  2  0  0  0  0
  8  9  1  0  0  0  0
  9 17  1  0  0  0  0
  9 10  2  0  0  0  0
 18 19  1  0  0  0  0
 19 38  1  0  0  0  0
 19 20  2  0  0  0  0
 39 42  1  0  0  0  0
  8 11  1  0  0  0  0
 48 49  1  0  0  0  0
 22 23  1  0  0  0  0
 21 22  1  0  0  0  0
 23 24  1  0  0  0  0
 18 21  1  0  0  0  0
 24 25  1  0  0  0  0
 38 39  1  0  0  0  0
  7  8  1  0  0  0  0
 17 18  1  0  0  0  0
  3  4  1  0  0  0  0
  3  5  1  0  0  0  0
  3  6  1  0  0  0  0
 42 45  1  0  0  0  0
 42 46  1  0  0  0  0
 42 47  1  0  0  0  0
 11 14  1  0  0  0  0
 11 15  1  0  0  0  0
 11 16  1  0  0  0  0
 49 51  1  0  0  0  0
 49 52  1  0  0  0  0
 49 53  1  0  0  0  0
 22 30  1  0  0  0  0
 22 31  1  0  0  0  0
 23 32  1  0  0  0  0
 23 33  1  0  0  0  0
 21 28  1  0  0  0  0
 21 29  1  0  0  0  0
 24 34  1  0  0  0  0
 24 35  1  0  0  0  0
 39 44  1  0  0  0  0
  8 13  1  0  0  0  0
 18 27  1  0  0  0  0
 25 36  1  0  0  0  0
 25 37  1  0  0  0  0
 48 50  1  0  0  0  0
  7 12  1  0  0  0  0
 38 43  1  0  0  0  0
 17 26  1  0  0  0  0
M  END
$$$$

  -OEChem-05262214473D

 53 52  0     1  0  0  0  0  0999 V2000
   -1.0338   -5.6785    0.1476 C   0  0  0  0  0  0  0  0  0  0  0  0
   -2.0514   -5.7797    0.8227 O   0  0  0  0  0  0  0  0  0  0  0  0
   -0.6558   -6.7819   -0.7841 C   0  0  0  0  0  0  0  0  0  0  0  0
   -0.0111   -7.5354   -0.3038 H   0  0  0  0  0  0  0  0  0  0  0  0
   -1.5317   -7.3401   -1.1520 H   0  0  0  0  0  0  0  0  0  0  0  0
   -0.1109   -6.4687   -1.6890 H   0  0  0  0  0  0  0  0  0  0  0  0
   -0.1543   -4.6083    0.1480 N   0  0  0  0  0  0  0  0  0  0  0  0
   -0.3302   -3.4398    0.9696 C   0  0  2  0  0  0  0  0  0  0  0  0
    0.2328   -2.2439    0.2131 C   0  0  0  0  0  0  0  0  0  0  0  0
    1.2097   -2.3192   -0.5294 O   0  0  0  0  0  0  0  0  0  0  0  0
    0.3557   -3.6024    2.3171 C   0  0  0  0  0  0  0  0  0  0  0  0
    0.6584   -4.6506   -0.4643 H   0  0  0  0  0  0  0  0  0  0  0  0
   -1.4091   -3.3101    1.1082 H   0  0  0  0  0  0  0  0  0  0  0  0
    1.4375   -3.7336    2.1985 H   0  0  0  0  0  0  0  0  0  0  0  0
    0.1969   -2.7243    2.9517 H   0  0  0  0  0  0  0  0  0  0  0  0
   -0.0294   -4.4803    2.8470 H   0  0  0  0  0  0  0  0  0  0  0  0
   -0.4616   -1.0893    0.5050 N   0  0  0  0  0  0  0  0  0  0  0  0
   -0.0884    0.2050   -0.0621 C   0  0  2  0  0  0  0  0  0  0  0  0
    0.5952    1.0119    1.0381 C   0  0  0  0  0  0  0  0  0  0  0  0
    0.0540    1.9545    1.6125 O   0  0  0  0  0  0  0  0  0  0  0  0
   -1.3047    0.9834   -0.5856 C   0  0  0  0  0  0  0  0  0  0  0  0
   -1.9541    0.3412   -1.8158 C   0  0  0  0  0  0  0  0  0  0  0  0
   -3.1437    1.1689   -2.3099 C   0  0  0  0  0  0  0  0  0  0  0  0
   -3.8059    0.5152   -3.5216 C   0  0  0  0  0  0  0  0  0  0  0  0
   -4.9493    1.3058   -3.9615 N   0  0  0  0  0  0  0  0  0  0  0  0
   -1.2794   -1.1113    1.0935 H   0  0  0  0  0  0  0  0  0  0  0  0
    0.6248    0.0355   -0.8777 H   0  0  0  0  0  0  0  0  0  0  0  0
   -0.9943    2.0049   -0.8421 H   0  0  0  0  0  0  0  0  0  0  0  0
   -2.0528    1.0884    0.2119 H   0  0  0  0  0  0  0  0  0  0  0  0
   -2.2979   -0.6714   -1.5764 H   0  0  0  0  0  0  0  0  0  0  0  0
   -1.2115    0.2525   -2.6179 H   0  0  0  0  0  0  0  0  0  0  0  0
   -3.8747    1.2764   -1.4986 H   0  0  0  0  0  0  0  0  0  0  0  0
   -2.8028    2.1781   -2.5735 H   0  0  0  0  0  0  0  0  0  0  0  0
   -4.1400   -0.4975   -3.2707 H   0  0  0  0  0  0  0  0  0  0  0  0
   -3.0890    0.4356   -4.3456 H   0  0  0  0  0  0  0  0  0  0  0  0
   -5.0462    2.0829   -3.3505 H   0  0  0  0  0  0  0  0  0  0  0  0
   -4.7786    1.6118   -4.8909 H   0  0  0  0  0  0  0  0  0  0  0  0
    1.8870    0.5682    1.2854 N   0  0  0  0  0  0  0  0  0  0  0  0
    2.7595    1.1752    2.2648 C   0  0  2  0  0  0  0  0  0  0  0  0
    4.1911    1.0520    1.7598 C   0  0  0  0  0  0  0  0  0  0  0  0
    4.5917    0.0906    1.1069 O   0  0  0  0  0  0  0  0  0  0  0  0
    2.6052    0.5168    3.6269 C   0  0  0  0  0  0  0  0  0  0  0  0
    2.2481   -0.2268    0.7666 H   0  0  0  0  0  0  0  0  0  0  0  0
    2.4819    2.2333    2.3230 H   0  0  0  0  0  0  0  0  0  0  0  0
    2.8788   -0.5439    3.5883 H   0  0  0  0  0  0  0  0  0  0  0  0
    3.2458    0.9964    4.3743 H   0  0  0  0  0  0  0  0  0  0  0  0
    1.5686    0.5801    3.9752 H   0  0  0  0  0  0  0  0  0  0  0  0
    4.9797    2.1214    2.1606 N   0  0  0  0  0  0  0  0  0  0  0  0
    6.3856    2.2153    1.8435 C   0  0  0  0  0  0  0  0  0  0  0  0
    4.5550    2.8939    2.6652 H   0  0  0  0  0  0  0  0  0  0  0  0
    6.9767    1.7799    2.6627 H   0  0  0  0  0  0  0  0  0  0  0  0
    6.5889    1.6656    0.9126 H   0  0  0  0  0  0  0  0  0  0  0  0
    6.6622    3.2719    1.7134 H   0  0  0  0  0  0  0  0  0  0  0  0
  1  3  1  0  0  0  0
  1  7  1  0  0  0  0
  1  2  2  0  0  0  0
 39 40  1  0  0  0  0
 40 48  1  0  0  0  0
 40 41  2  0  0  0  0
  8  9  1  0  0  0  0
  9 17  1  0  0  0  0
  9 10  2  0  0  0  0
 18 19  1  0  0  0  0
 19 38  1  0  0  0  0
 19 20  2  0  0  0  0
 39 42  1  0  0  0  0
  8 11  1  0  0  0  0
 48 49  1  0  0  0  0
 22 23  1  0  0  0  0
 21 22  1  0  0  0  0
 23 24  1  0  0  0  0
 18 21  1  0  0  0  0
 24 25  1  0  0  0  0
 38 39  1  0  0  0  0
  7  8  1  0  0  0  0
 17 18  1  0  0  0  0
  3  4  1  0  0  0  0
  3  5  1  0  0  0  0
  3  6  1  0  0  0  0
 42 45  1  0  0  0  0
 42 46  1  0  0  0  0
 42 47  1  0  0  0  0
 11 14  1  0  0  0  0
 11 15  1  0  0  0  0
 11 16  1  0  0  0  0
 49 51  1  0  0  0  0
 49 52  1  0  0  0  0
 49 53  1  0  0  0  0
 22 30  1  0  0  0  0
 22 31  1  0  0  0  0
 23 32  1  0  0  0  0
 23 33  1  0  0  0  0
 21 28  1  0  0  0  0
 21 29  1  0  0  0  0
 24 34  1  0  0  0  0
 24 35  1  0  0  0  0
 39 44  1  0  0  0  0
  8 13  1  0  0  0  0
 18 27  1  0  0  0  0
 25 36  1  0  0  0  0
 25 37  1  0  0  0  0
 48 50  1  0  0  0  0
  7 12  1  0  0  0  0
 38 43  1  0  0  0  0
 17 26  1  0  0  0  0
M  END
$$$$

  -OEChem-05262214473D

 53 52  0     1  0  0  0  0  0999 V2000
   -1.0338   -5.6785    0.1476 C   0  0  0  0  0  0  0  0  0  0  0  0
   -2.0514   -5.7797    0.8227 O   0  0  0  0  0  0  0  0  0  0  0  0
   -0.6558   -6.7819   -0.7841 C   0  0  0  0  0  0  0  0  0  0  0  0
   -0.0111   -7.5354   -0.3038 H   0  0  0  0  0  0  0  0  0  0  0  0
   -1.5317   -7.3401   -1.1520 H   0  0  0  0  0  0  0  0  0  0  0  0
   -0.1109   -6.4687   -1.6890 H   0  0  0  0  0  0  0  0  0  0  0  0
   -0.1543   -4.6083    0.1480 N   0  0  0  0  0  0  0  0  0  0  0  0
   -0.3302   -3.4398    0.9696 C   0  0  2  0  0  0  0  0  0  0  0  0
    0.2328   -2.2439    0.2131 C   0  0  0  0  0  0  0  0  0  0  0  0
    1.2097   -2.3192   -0.5294 O   0  0  0  0  0  0  0  0  0  0  0  0
    0.3557   -3.6024    2.3171 C   0  0  0  0  0  0  0  0  0  0  0  0
    0.6584   -4.6506   -0.4643 H   0  0  0  0  0  0  0  0  0  0  0  0
   -1.4091   -3.3101    1.1082 H   0  0  0  0  0  0  0  0  0  0  0  0
    1.4375   -3.7336    2.1985 H   0  0  0  0  0  0  0  0  0  0  0  0
    0.1969   -2.7243    2.9517 H   0  0  0  0  0  0  0  0  0  0  0  0
   -0.0294   -4.4803    2.8470 H   0  0  0  0  0  0  0  0  0  0  0  0
   -0.4616   -1.0893    0.5050 N   0  0  0  0  0  0  0  0  0  0  0  0
   -0.0884    0.2050   -0.0621 C   0  0  2  0  0  0  0  0  0  0  0  0
    0.5952    1.0119    1.0381 C   0  0  0  0  0  0  0  0  0  0  0  0
   -0.0147    1.7669    1.7928 O   0  0  0  0  0  0  0  0  0  0  0  0
   -1.3047    0.9834   -0.5856 C   0  0  0  0  0  0  0  0  0  0  0  0
   -1.9541    0.3412   -1.8158 C   0  0  0  0  0  0  0  0  0  0  0  0
   -3.1437    1.1689   -2.3099 C   0  0  0  0  0  0  0  0  0  0  0  0
   -3.8059    0.5152   -3.5216 C   0  0  0  0  0  0  0  0  0  0  0  0
   -4.9493    1.3058   -3.9615 N   0  0  0  0  0  0  0  0  0  0  0  0
   -1.2794   -1.1113    1.0935 H   0  0  0  0  0  0  0  0  0  0  0  0
    0.6248    0.0355   -0.8777 H   0  0  0  0  0  0  0  0  0  0  0  0
   -0.9943    2.0049   -0.8421 H   0  0  0  0  0  0  0  0  0  0  0  0
   -2.0528    1.0884    0.2119 H   0  0  0  0  0  0  0  0  0  0  0  0
   -2.2979   -0.6714   -1.5764 H   0  0  0  0  0  0  0  0  0  0  0  0
   -1.2115    0.2525   -2.6179 H   0  0  0  0  0  0  0  0  0  0  0  0
   -3.8747    1.2764   -1.4986 H   0  0  0  0  0  0  0  0  0  0  0  0
   -2.8028    2.1781   -2.5735 H   0  0  0  0  0  0  0  0  0  0  0  0
   -4.1400   -0.4975   -3.2707 H   0  0  0  0  0  0  0  0  0  0  0  0
   -3.0890    0.4356   -4.3456 H   0  0  0  0  0  0  0  0  0  0  0  0
   -5.0462    2.0829   -3.3505 H   0  0  0  0  0  0  0  0  0  0  0  0
   -4.7786    1.6118   -4.8909 H   0  0  0  0  0  0  0  0  0  0  0  0
    1.9676    0.8051    1.0616 N   0  0  0  0  0  0  0  0  0  0  0  0
    2.8528    1.4662    1.9934 C   0  0  2  0  0  0  0  0  0  0  0  0
    4.1926    1.6767    1.3007 C   0  0  0  0  0  0  0  0  0  0  0  0
    4.6575    0.8841    0.4841 O   0  0  0  0  0  0  0  0  0  0  0  0
    3.0215    0.6537    3.2678 C   0  0  0  0  0  0  0  0  0  0  0  0
    2.3841    0.1533    0.4033 H   0  0  0  0  0  0  0  0  0  0  0  0
    2.4025    2.4383    2.2221 H   0  0  0  0  0  0  0  0  0  0  0  0
    3.4714   -0.3237    3.0587 H   0  0  0  0  0  0  0  0  0  0  0  0
    3.6696    1.1693    3.9842 H   0  0  0  0  0  0  0  0  0  0  0  0
    2.0534    0.4779    3.7490 H   0  0  0  0  0  0  0  0  0  0  0  0
    4.8281    2.8321    1.7336 N   0  0  0  0  0  0  0  0  0  0  0  0
    6.1321    3.2300    1.2569 C   0  0  0  0  0  0  0  0  0  0  0  0
    4.3517    3.4511    2.3829 H   0  0  0  0  0  0  0  0  0  0  0  0
    6.9059    2.8361    1.9322 H   0  0  0  0  0  0  0  0  0  0  0  0
    6.2904    2.8293    0.2447 H   0  0  0  0  0  0  0  0  0  0  0  0
    6.1933    4.3280    1.2303 H   0  0  0  0  0  0  0  0  0  0  0  0
  1  3  1  0  0  0  0
  1  7  1  0  0  0  0
  1  2  2  0  0  0  0
 39 40  1  0  0  0  0
 40 48  1  0  0  0  0
 40 41  2  0  0  0  0
  8  9  1  0  0  0  0
  9 17  1  0  0  0  0
  9 10  2  0  0  0  0
 18 19  1  0  0  0  0
 19 38  1  0  0  0  0
 19 20  2  0  0  0  0
 39 42  1  0  0  0  0
  8 11  1  0  0  0  0
 48 49  1  0  0  0  0
 22 23  1  0  0  0  0
 21 22  1  0  0  0  0
 23 24  1  0  0  0  0
 18 21  1  0  0  0  0
 24 25  1  0  0  0  0
 38 39  1  0  0  0  0
  7  8  1  0  0  0  0
 17 18  1  0  0  0  0
  3  4  1  0  0  0  0
  3  5  1  0  0  0  0
  3  6  1  0  0  0  0
 42 45  1  0  0  0  0
 42 46  1  0  0  0  0
 42 47  1  0  0  0  0
 11 14  1  0  0  0  0
 11 15  1  0  0  0  0
 11 16  1  0  0  0  0
 49 51  1  0  0  0  0
 49 52  1  0  0  0  0
 49 53  1  0  0  0  0
 22 30  1  0  0  0  0
 22 31  1  0  0  0  0
 23 32  1  0  0  0  0
 23 33  1  0  0  0  0
 21 28  1  0  0  0  0
 21 29  1  0  0  0  0
 24 34  1  0  0  0  0
 24 35  1  0  0  0  0
 39 44  1  0  0  0  0
  8 13  1  0  0  0  0
 18 27  1  0  0  0  0
 25 36  1  0  0  0  0
 25 37  1  0  0  0  0
 48 50  1  0  0  0  0
  7 12  1  0  0  0  0
 38 43  1  0  0  0  0
 17 26  1  0  0  0  0
M  END
$$$$

  -OEChem-05262214473D

 53 52  0     1  0  0  0  0  0999 V2000
   -1.0338   -5.6785    0.1476 C   0  0  0  0  0  0  0  0  0  0  0  0
   -2.0514   -5.7797    0.8227 O   0  0  0  0  0  0  0  0  0  0  0  0
   -0.6558   -6.7819   -0.7841 C   0  0  0  0  0  0  0  0  0  0  0  0
   -0.0111   -7.5354   -0.3038 H   0  0  0  0  0  0  0  0  0  0  0  0
   -1.5317   -7.3401   -1.1520 H   0  0  0  0  0  0  0  0  0  0  0  0
   -0.1109   -6.4687   -1.6890 H   0  0  0  0  0  0  0  0  0  0  0  0
   -0.1543   -4.6083    0.1480 N   0  0  0  0  0  0  0  0  0  0  0  0
   -0.3302   -3.4398    0.9696 C   0  0  2  0  0  0  0  0  0  0  0  0
    0.2328   -2.2439    0.2131 C   0  0  0  0  0  0  0  0  0  0  0  0
    1.2097   -2.3192   -0.5294 O   0  0  0  0  0  0  0  0  0  0  0  0
    0.3557   -3.6024    2.3171 C   0  0  0  0  0  0  0  0  0  0  0  0
    0.6584   -4.6506   -0.4643 H   0  0  0  0  0  0  0  0  0  0  0  0
   -1.4091   -3.3101    1.1082 H   0  0  0  0  0  0  0  0  0  0  0  0
    1.4375   -3.7336    2.1985 H   0  0  0  0  0  0  0  0  0  0  0  0
    0.1969   -2.7243    2.9517 H   0  0  0  0  0  0  0  0  0  0  0  0
   -0.0294   -4.4803    2.8470 H   0  0  0  0  0  0  0  0  0  0  0  0
   -0.4616   -1.0893    0.5050 N   0  0  0  0  0  0  0  0  0  0  0  0
   -0.0884    0.2050   -0.0621 C   0  0  2  0  0  0  0  0  0  0  0  0
    0.5952    1.0119    1.0381 C   0  0  0  0  0  0  0  0  0  0  0  0
   -0.0213    1.5519    1.9545 O   0  0  0  0  0  0  0  0  0  0  0  0
   -1.3047    0.9834   -0.5856 C   0  0  0  0  0  0  0  0  0  0  0  0
   -1.9541    0.3412   -1.8158 C   0  0  0  0  0  0  0  0  0  0  0  0
   -3.1437    1.1689   -2.3099 C   0  0  0  0  0  0  0  0  0  0  0  0
   -3.8059    0.5152   -3.5216 C   0  0  0  0  0  0  0  0  0  0  0  0
   -4.9493    1.3058   -3.9615 N   0  0  0  0  0  0  0  0  0  0  0  0
   -1.2794   -1.1113    1.0935 H   0  0  0  0  0  0  0  0  0  0  0  0
    0.6248    0.0355   -0.8777 H   0  0  0  0  0  0  0  0  0  0  0  0
   -0.9943    2.0049   -0.8421 H   0  0  0  0  0  0  0  0  0  0  0  0
   -2.0528    1.0884    0.2119 H   0  0  0  0  0  0  0  0  0  0  0  0
   -2.2979   -0.6714   -1.5764 H   0  0  0  0  0  0  0  0  0  0  0  0
   -1.2115    0.2525   -2.6179 H   0  0  0  0  0  0  0  0  0  0  0  0
   -3.8747    1.2764   -1.4986 H   0  0  0  0  0  0  0  0  0  0  0  0
   -2.8028    2.1781   -2.5735 H   0  0  0  0  0  0  0  0  0  0  0  0
   -4.1400   -0.4975   -3.2707 H   0  0  0  0  0  0  0  0  0  0  0  0
   -3.0890    0.4356   -4.3456 H   0  0  0  0  0  0  0  0  0  0  0  0
   -5.0462    2.0829   -3.3505 H   0  0  0  0  0  0  0  0  0  0  0  0
   -4.7786    1.6118   -4.8909 H   0  0  0  0  0  0  0  0  0  0  0  0
    1.9706    1.0749    0.8619 N   0  0  0  0  0  0  0  0  0  0  0  0
    2.8514    1.7962    1.7523 C   0  0  2  0  0  0  0  0  0  0  0  0
    4.0148    2.3337    0.9294 C   0  0  0  0  0  0  0  0  0  0  0  0
    4.4877    1.7351   -0.0345 O   0  0  0  0  0  0  0  0  0  0  0  0
    3.3490    0.9053    2.8798 C   0  0  0  0  0  0  0  0  0  0  0  0
    2.3948    0.5880    0.0779 H   0  0  0  0  0  0  0  0  0  0  0  0
    2.2736    2.6332    2.1592 H   0  0  0  0  0  0  0  0  0  0  0  0
    3.9302    0.0610    2.4915 H   0  0  0  0  0  0  0  0  0  0  0  0
    3.9933    1.4606    3.5694 H   0  0  0  0  0  0  0  0  0  0  0  0
    2.5098    0.4957    3.4523 H   0  0  0  0  0  0  0  0  0  0  0  0
    4.4907    3.5399    1.4242 N   0  0  0  0  0  0  0  0  0  0  0  0
    5.6176    4.2309    0.8425 C   0  0  0  0  0  0  0  0  0  0  0  0
    4.0127    3.9840    2.2027 H   0  0  0  0  0  0  0  0  0  0  0  0
    6.5405    3.9277    1.3586 H   0  0  0  0  0  0  0  0  0  0  0  0
    5.6935    3.9751   -0.2246 H   0  0  0  0  0  0  0  0  0  0  0  0
    5.4772    5.3166    0.9502 H   0  0  0  0  0  0  0  0  0  0  0  0
  1  3  1  0  0  0  0
  1  7  1  0  0  0  0
  1  2  2  0  0  0  0
 39 40  1  0  0  0  0
 40 48  1  0  0  0  0
 40 41  2  0  0  0  0
  8  9  1  0  0  0  0
  9 17  1  0  0  0  0
  9 10  2  0  0  0  0
 18 19  1  0  0  0  0
 19 38  1  0  0  0  0
 19 20  2  0  0  0  0
 39 42  1  0  0  0  0
  8 11  1  0  0  0  0
 48 49  1  0  0  0  0
 22 23  1  0  0  0  0
 21 22  1  0  0  0  0
 23 24  1  0  0  0  0
 18 21  1  0  0  0  0
 24 25  1  0  0  0  0
 38 39  1  0  0  0  0
  7  8  1  0  0  0  0
 17 18  1  0  0  0  0
  3  4  1  0  0  0  0
  3  5  1  0  0  0  0
  3  6  1  0  0  0  0
 42 45  1  0  0  0  0
 42 46  1  0  0  0  0
 42 47  1  0  0  0  0
 11 14  1  0  0  0  0
 11 15  1  0  0  0  0
 11 16  1  0  0  0  0
 49 51  1  0  0  0  0
 49 52  1  0  0  0  0
 49 53  1  0  0  0  0
 22 30  1  0  0  0  0
 22 31  1  0  0  0  0
 23 32  1  0  0  0  0
 23 33  1  0  0  0  0
 21 28  1  0  0  0  0
 21 29  1  0  0  0  0
 24 34  1  0  0  0  0
 24 35  1  0  0  0  0
 39 44  1  0  0  0  0
  8 13  1  0  0  0  0
 18 27  1  0  0  0  0
 25 36  1  0  0  0  0
 25 37  1  0  0  0  0
 48 50  1  0  0  0  0
  7 12  1  0  0  0  0
 38 43  1  0  0  0  0
 17 26  1  0  0  0  0
M  END
$$$$

  -OEChem-05262214473D

 53 52  0     1  0  0  0  0  0999 V2000
   -1.0338   -5.6785    0.1476 C   0  0  0  0  0  0  0  0  0  0  0  0
   -2.0514   -5.7797    0.8227 O   0  0  0  0  0  0  0  0  0  0  0  0
   -0.6558   -6.7819   -0.7841 C   0  0  0  0  0  0  0  0  0  0  0  0
   -0.0111   -7.5354   -0.3038 H   0  0  0  0  0  0  0  0  0  0  0  0
   -1.5317   -7.3401   -1.1520 H   0  0  0  0  0  0  0  0  0  0  0  0
   -0.1109   -6.4687   -1.6890 H   0  0  0  0  0  0  0  0  0  0  0  0
   -0.1543   -4.6083    0.1480 N   0  0  0  0  0  0  0  0  0  0  0  0
   -0.3302   -3.4398    0.9696 C   0  0  2  0  0  0  0  0  0  0  0  0
    0.2328   -2.2439    0.2131 C   0  0  0  0  0  0  0  0  0  0  0  0
    1.2097   -2.3192   -0.5294 O   0  0  0  0  0  0  0  0  0  0  0  0
    0.3557   -3.6024    2.3171 C   0  0  0  0  0  0  0  0  0  0  0  0
    0.6584   -4.6506   -0.4643 H   0  0  0  0  0  0  0  0  0  0  0  0
   -1.4091   -3.3101    1.1082 H   0  0  0  0  0  0  0  0  0  0  0  0
    1.4375   -3.7336    2.1985 H   0  0  0  0  0  0  0  0  0  0  0  0
    0.1969   -2.7243    2.9517 H   0  0  0  0  0  0  0  0  0  0  0  0
   -0.0294   -4.4803    2.8470 H   0  0  0  0  0  0  0  0  0  0  0  0
   -0.4616   -1.0893    0.5050 N   0  0  0  0  0  0  0  0  0  0  0  0
   -0.0884    0.2050   -0.0621 C   0  0  2  0  0  0  0  0  0  0  0  0
    0.5952    1.0119    1.0381 C   0  0  0  0  0  0  0  0  0  0  0  0
    0.0346    1.3243    2.0867 O   0  0  0  0  0  0  0  0  0  0  0  0
   -1.3047    0.9834   -0.5856 C   0  0  0  0  0  0  0  0  0  0  0  0
   -1.9541    0.3412   -1.8158 C   0  0  0  0  0  0  0  0  0  0  0  0
   -3.1437    1.1689   -2.3099 C   0  0  0  0  0  0  0  0  0  0  0  0
   -3.8059    0.5152   -3.5216 C   0  0  0  0  0  0  0  0  0  0  0  0
   -4.9493    1.3058   -3.9615 N   0  0  0  0  0  0  0  0  0  0  0  0
   -1.2794   -1.1113    1.0935 H   0  0  0  0  0  0  0  0  0  0  0  0
    0.6248    0.0355   -0.8777 H   0  0  0  0  0  0  0  0  0  0  0  0
   -0.9943    2.0049   -0.8421 H   0  0  0  0  0  0  0  0  0  0  0  0
   -2.0528    1.0884    0.2119 H   0  0  0  0  0  0  0  0  0  0  0  0
   -2.2979   -0.6714   -1.5764 H   0  0  0  0  0  0  0  0  0  0  0  0
   -1.2115    0.2525   -2.6179 H   0  0  0  0  0  0  0  0  0  0  0  0
   -3.8747    1.2764   -1.4986 H   0  0  0  0  0  0  0  0  0  0  0  0
   -2.8028    2.1781   -2.5735 H   0  0  0  0  0  0  0  0  0  0  0  0
   -4.1400   -0.4975   -3.2707 H   0  0  0  0  0  0  0  0  0  0  0  0
   -3.0890    0.4356   -4.3456 H   0  0  0  0  0  0  0  0  0  0  0  0
   -5.0462    2.0829   -3.3505 H   0  0  0  0  0  0  0  0  0  0  0  0
   -4.7786    1.6118   -4.8909 H   0  0  0  0  0  0  0  0  0  0  0  0
    1.8959    1.3593    0.6998 N   0  0  0  0  0  0  0  0  0  0  0  0
    2.7555    2.1426    1.5578 C   0  0  2  0  0  0  0  0  0  0  0  0
    3.6696    2.9781    0.6713 C   0  0  0  0  0  0  0  0  0  0  0  0
    4.0940    2.5855   -0.4135 O   0  0  0  0  0  0  0  0  0  0  0  0
    3.5653    1.2544    2.4895 C   0  0  0  0  0  0  0  0  0  0  0  0
    2.2795    1.0476   -0.1874 H   0  0  0  0  0  0  0  0  0  0  0  0
    2.1042    2.8047    2.1387 H   0  0  0  0  0  0  0  0  0  0  0  0
    4.2240    0.5839    1.9255 H   0  0  0  0  0  0  0  0  0  0  0  0
    4.1949    1.8505    3.1583 H   0  0  0  0  0  0  0  0  0  0  0  0
    2.9067    0.6326    3.1053 H   0  0  0  0  0  0  0  0  0  0  0  0
    3.9904    4.1964    1.2537 N   0  0  0  0  0  0  0  0  0  0  0  0
    4.8772    5.1498    0.6288 C   0  0  0  0  0  0  0  0  0  0  0  0
    3.5612    4.4565    2.1368 H   0  0  0  0  0  0  0  0  0  0  0  0
    5.9054    4.9806    0.9812 H   0  0  0  0  0  0  0  0  0  0  0  0
    4.8389    5.0248   -0.4634 H   0  0  0  0  0  0  0  0  0  0  0  0
    4.5627    6.1704    0.8923 H   0  0  0  0  0  0  0  0  0  0  0  0
  1  3  1  0  0  0  0
  1  7  1  0  0  0  0
  1  2  2  0  0  0  0
 39 40  1  0  0  0  0
 40 48  1  0  0  0  0
 40 41  2  0  0  0  0
  8  9  1  0  0  0  0
  9 17  1  0  0  0  0
  9 10  2  0  0  0  0
 18 19  1  0  0  0  0
 19 38  1  0  0  0  0
 19 20  2  0  0  0  0
 39 42  1  0  0  0  0
  8 11  1  0  0  0  0
 48 49  1  0  0  0  0
 22 23  1  0  0  0  0
 21 22  1  0  0  0  0
 23 24  1  0  0  0  0
 18 21  1  0  0  0  0
 24 25  1  0  0  0  0
 38 39  1  0  0  0  0
  7  8  1  0  0  0  0
 17 18  1  0  0  0  0
  3  4  1  0  0  0  0
  3  5  1  0  0  0  0
  3  6  1  0  0  0  0
 42 45  1  0  0  0  0
 42 46  1  0  0  0  0
 42 47  1  0  0  0  0
 11 14  1  0  0  0  0
 11 15  1  0  0  0  0
 11 16  1  0  0  0  0
 49 51  1  0  0  0  0
 49 52  1  0  0  0  0
 49 53  1  0  0  0  0
 22 30  1  0  0  0  0
 22 31  1  0  0  0  0
 23 32  1  0  0  0  0
 23 33  1  0  0  0  0
 21 28  1  0  0  0  0
 21 29  1  0  0  0  0
 24 34  1  0  0  0  0
 24 35  1  0  0  0  0
 39 44  1  0  0  0  0
  8 13  1  0  0  0  0
 18 27  1  0  0  0  0
 25 36  1  0  0  0  0
 25 37  1  0  0  0  0
 48 50  1  0  0  0  0
  7 12  1  0  0  0  0
 38 43  1  0  0  0  0
 17 26  1  0  0  0  0
M  END
$$$$

  -OEChem-05262214473D

 53 52  0     1  0  0  0  0  0999 V2000
   -1.0338   -5.6785    0.1476 C   0  0  0  0  0  0  0  0  0  0  0  0
   -2.0514   -5.7797    0.8227 O   0  0  0  0  0  0  0  0  0  0  0  0
   -0.6558   -6.7819   -0.7841 C   0  0  0  0  0  0  0  0  0  0  0  0
   -0.0111   -7.5354   -0.3038 H   0  0  0  0  0  0  0  0  0  0  0  0
   -1.5317   -7.3401   -1.1520 H   0  0  0  0  0  0  0  0  0  0  0  0
   -0.1109   -6.4687   -1.6890 H   0  0  0  0  0  0  0  0  0  0  0  0
   -0.1543   -4.6083    0.1480 N   0  0  0  0  0  0  0  0  0  0  0  0
   -0.3302   -3.4398    0.9696 C   0  0  2  0  0  0  0  0  0  0  0  0
    0.2328   -2.2439    0.2131 C   0  0  0  0  0  0  0  0  0  0  0  0
    1.2097   -2.3192   -0.5294 O   0  0  0  0  0  0  0  0  0  0  0  0
    0.3557   -3.6024    2.3171 C   0  0  0  0  0  0  0  0  0  0  0  0
    0.6584   -4.6506   -0.4643 H   0  0  0  0  0  0  0  0  0  0  0  0
   -1.4091   -3.3101    1.1082 H   0  0  0  0  0  0  0  0  0  0  0  0
    1.4375   -3.7336    2.1985 H   0  0  0  0  0  0  0  0  0  0  0  0
    0.1969   -2.7243    2.9517 H   0  0  0  0  0  0  0  0  0  0  0  0
   -0.0294   -4.4803    2.8470 H   0  0  0  0  0  0  0  0  0  0  0  0
   -0.4616   -1.0893    0.5050 N   0  0  0  0  0  0  0  0  0  0  0  0
   -0.0884    0.2050   -0.0621 C   0  0  2  0  0  0  0  0  0  0  0  0
    0.5952    1.0119    1.0381 C   0  0  0  0  0  0  0  0  0  0  0  0
    0.1491    1.0996    2.1804 O   0  0  0  0  0  0  0  0  0  0  0  0
   -1.3047    0.9834   -0.5856 C   0  0  0  0  0  0  0  0  0  0  0  0
   -1.9541    0.3412   -1.8158 C   0  0  0  0  0  0  0  0  0  0  0  0
   -3.1437    1.1689   -2.3099 C   0  0  0  0  0  0  0  0  0  0  0  0
   -3.8059    0.5152   -3.5216 C   0  0  0  0  0  0  0  0  0  0  0  0
   -4.9493    1.3058   -3.9615 N   0  0  0  0  0  0  0  0  0  0  0  0
   -1.2794   -1.1113    1.0935 H   0  0  0  0  0  0  0  0  0  0  0  0
    0.6248    0.0355   -0.8777 H   0  0  0  0  0  0  0  0  0  0  0  0
   -0.9943    2.0049   -0.8421 H   0  0  0  0  0  0  0  0  0  0  0  0
   -2.0528    1.0884    0.2119 H   0  0  0  0  0  0  0  0  0  0  0  0
   -2.2979   -0.6714   -1.5764 H   0  0  0  0  0  0  0  0  0  0  0  0
   -1.2115    0.2525   -2.6179 H   0  0  0  0  0  0  0  0  0  0  0  0
   -3.8747    1.2764   -1.4986 H   0  0  0  0  0  0  0  0  0  0  0  0
   -2.8028    2.1781   -2.5735 H   0  0  0  0  0  0  0  0  0  0  0  0
   -4.1400   -0.4975   -3.2707 H   0  0  0  0  0  0  0  0  0  0  0  0
   -3.0890    0.4356   -4.3456 H   0  0  0  0  0  0  0  0  0  0  0  0
   -5.0462    2.0829   -3.3505 H   0  0  0  0  0  0  0  0  0  0  0  0
   -4.7786    1.6118   -4.8909 H   0  0  0  0  0  0  0  0  0  0  0  0
    1.7484    1.6388    0.5865 N   0  0  0  0  0  0  0  0  0  0  0  0
    2.5716    2.4819    1.4233 C   0  0  2  0  0  0  0  0  0  0  0  0
    3.1806    3.5661    0.5440 C   0  0  0  0  0  0  0  0  0  0  0  0
    3.5032    3.3775   -0.6271 O   0  0  0  0  0  0  0  0  0  0  0  0
    3.6557    1.6772    2.1232 C   0  0  0  0  0  0  0  0  0  0  0  0
    2.0460    1.5008   -0.3747 H   0  0  0  0  0  0  0  0  0  0  0  0
    1.9057    2.9411    2.1619 H   0  0  0  0  0  0  0  0  0  0  0  0
    4.3328    1.2095    1.3992 H   0  0  0  0  0  0  0  0  0  0  0  0
    4.2605    2.3124    2.7788 H   0  0  0  0  0  0  0  0  0  0  0  0
    3.2171    0.8790    2.7318 H   0  0  0  0  0  0  0  0  0  0  0  0
    3.3612    4.7570    1.2335 N   0  0  0  0  0  0  0  0  0  0  0  0
    3.9613    5.9239    0.6301 C   0  0  0  0  0  0  0  0  0  0  0  0
    3.0279    4.8362    2.1897 H   0  0  0  0  0  0  0  0  0  0  0  0
    5.0438    5.9227    0.8256 H   0  0  0  0  0  0  0  0  0  0  0  0
    3.7849    5.9070   -0.4555 H   0  0  0  0  0  0  0  0  0  0  0  0
    3.5121    6.8311    1.0605 H   0  0  0  0  0  0  0  0  0  0  0  0
  1  3  1  0  0  0  0
  1  7  1  0  0  0  0
  1  2  2  0  0  0  0
 39 40  1  0  0  0  0
 40 48  1  0  0  0  0
 40 41  2  0  0  0  0
  8  9  1  0  0  0  0
  9 17  1  0  0  0  0
  9 10  2  0  0  0  0
 18 19  1  0  0  0  0
 19 38  1  0  0  0  0
 19 20  2  0  0  0  0
 39 42  1  0  0  0  0
  8 11  1  0  0  0  0
 48 49  1  0  0  0  0
 22 23  1  0  0  0  0
 21 22  1  0  0  0  0
 23 24  1  0  0  0  0
 18 21  1  0  0  0  0
 24 25  1  0  0  0  0
 38 39  1  0  0  0  0
  7  8  1  0  0  0  0
 17 18  1  0  0  0  0
  3  4  1  0  0  0  0
  3  5  1  0  0  0  0
  3  6  1  0  0  0  0
 42 45  1  0  0  0  0
 42 46  1  0  0  0  0
 42 47  1  0  0  0  0
 11 14  1  0  0  0  0
 11 15  1  0  0  0  0
 11 16  1  0  0  0  0
 49 51  1  0  0  0  0
 49 52  1  0  0  0  0
 49 53  1  0  0  0  0
 22 30  1  0  0  0  0
 22 31  1  0  0  0  0
 23 32  1  0  0  0  0
 23 33  1  0  0  0  0
 21 28  1  0  0  0  0
 21 29  1  0  0  0  0
 24 34  1  0  0  0  0
 24 35  1  0  0  0  0
 39 44  1  0  0  0  0
  8 13  1  0  0  0  0
 18 27  1  0  0  0  0
 25 36  1  0  0  0  0
 25 37  1  0  0  0  0
 48 50  1  0  0  0  0
  7 12  1  0  0  0  0
 38 43  1  0  0  0  0
 17 26  1  0  0  0  0
M  END
$$$$

  -OEChem-05262214473D

 53 52  0     1  0  0  0  0  0999 V2000
   -1.0338   -5.6785    0.1476 C   0  0  0  0  0  0  0  0  0  0  0  0
   -2.0514   -5.7797    0.8227 O   0  0  0  0  0  0  0  0  0  0  0  0
   -0.6558   -6.7819   -0.7841 C   0  0  0  0  0  0  0  0  0  0  0  0
   -0.0111   -7.5354   -0.3038 H   0  0  0  0  0  0  0  0  0  0  0  0
   -1.5317   -7.3401   -1.1520 H   0  0  0  0  0  0  0  0  0  0  0  0
   -0.1109   -6.4687   -1.6890 H   0  0  0  0  0  0  0  0  0  0  0  0
   -0.1543   -4.6083    0.1480 N   0  0  0  0  0  0  0  0  0  0  0  0
   -0.3302   -3.4398    0.9696 C   0  0  2  0  0  0  0  0  0  0  0  0
    0.2328   -2.2439    0.2131 C   0  0  0  0  0  0  0  0  0  0  0  0
    1.2097   -2.3192   -0.5294 O   0  0  0  0  0  0  0  0  0  0  0  0
    0.3557   -3.6024    2.3171 C   0  0  0  0  0  0  0  0  0  0  0  0
    0.6584   -4.6506   -0.4643 H   0  0  0  0  0  0  0  0  0  0  0  0
   -1.4091   -3.3101    1.1082 H   0  0  0  0  0  0  0  0  0  0  0  0
    1.4375   -3.7336    2.1985 H   0  0  0  0  0  0  0  0  0  0  0  0
    0.1969   -2.7243    2.9517 H   0  0  0  0  0  0  0  0  0  0  0  0
   -0.0294   -4.4803    2.8470 H   0  0  0  0  0  0  0  0  0  0  0  0
   -0.4616   -1.0893    0.5050 N   0  0  0  0  0  0  0  0  0  0  0  0
   -0.0884    0.2050   -0.0621 C   0  0  2  0  0  0  0  0  0  0  0  0
    0.5952    1.0119    1.0381 C   0  0  0  0  0  0  0  0  0  0  0  0
    0.3145    0.8930    2.2292 O   0  0  0  0  0  0  0  0  0  0  0  0
   -1.3047    0.9834   -0.5856 C   0  0  0  0  0  0  0  0  0  0  0  0
   -1.9541    0.3412   -1.8158 C   0  0  0  0  0  0  0  0  0  0  0  0
   -3.1437    1.1689   -2.3099 C   0  0  0  0  0  0  0  0  0  0  0  0
   -3.8059    0.5152   -3.5216 C   0  0  0  0  0  0  0  0  0  0  0  0
   -4.9493    1.3058   -3.9615 N   0  0  0  0  0  0  0  0  0  0  0  0
   -1.2794   -1.1113    1.0935 H   0  0  0  0  0  0  0  0  0  0  0  0
    0.6248    0.0355   -0.8777 H   0  0  0  0  0  0  0  0  0  0  0  0
   -0.9943    2.0049   -0.8421 H   0  0  0  0  0  0  0  0  0  0  0  0
   -2.0528    1.0884    0.2119 H   0  0  0  0  0  0  0  0  0  0  0  0
   -2.2979   -0.6714   -1.5764 H   0  0  0  0  0  0  0  0  0  0  0  0
   -1.2115    0.2525   -2.6179 H   0  0  0  0  0  0  0  0  0  0  0  0
   -3.8747    1.2764   -1.4986 H   0  0  0  0  0  0  0  0  0  0  0  0
   -2.8028    2.1781   -2.5735 H   0  0  0  0  0  0  0  0  0  0  0  0
   -4.1400   -0.4975   -3.2707 H   0  0  0  0  0  0  0  0  0  0  0  0
   -3.0890    0.4356   -4.3456 H   0  0  0  0  0  0  0  0  0  0  0  0
   -5.0462    2.0829   -3.3505 H   0  0  0  0  0  0  0  0  0  0  0  0
   -4.7786    1.6118   -4.8909 H   0  0  0  0  0  0  0  0  0  0  0  0
    1.5383    1.8944    0.5296 N   0  0  0  0  0  0  0  0  0  0  0  0
    2.3123    2.7909    1.3578 C   0  0  2  0  0  0  0  0  0  0  0  0
    2.5811    4.0576    0.5560 C   0  0  0  0  0  0  0  0  0  0  0  0
    2.7554    4.0569   -0.6608 O   0  0  0  0  0  0  0  0  0  0  0  0
    3.6140    2.1450    1.8061 C   0  0  0  0  0  0  0  0  0  0  0  0
    1.7103    1.9166   -0.4711 H   0  0  0  0  0  0  0  0  0  0  0  0
    1.6917    3.0332    2.2274 H   0  0  0  0  0  0  0  0  0  0  0  0
    4.2491    1.8951    0.9484 H   0  0  0  0  0  0  0  0  0  0  0  0
    4.1859    2.8148    2.4567 H   0  0  0  0  0  0  0  0  0  0  0  0
    3.4198    1.2183    2.3570 H   0  0  0  0  0  0  0  0  0  0  0  0
    2.6461    5.1834    1.3651 N   0  0  0  0  0  0  0  0  0  0  0  0
    2.9324    6.5006    0.8465 C   0  0  0  0  0  0  0  0  0  0  0  0
    2.4491    5.0973    2.3578 H   0  0  0  0  0  0  0  0  0  0  0  0
    4.0145    6.6901    0.9024 H   0  0  0  0  0  0  0  0  0  0  0  0
    2.6032    6.5615   -0.2013 H   0  0  0  0  0  0  0  0  0  0  0  0
    2.3971    7.2538    1.4434 H   0  0  0  0  0  0  0  0  0  0  0  0
  1  3  1  0  0  0  0
  1  7  1  0  0  0  0
  1  2  2  0  0  0  0
 39 40  1  0  0  0  0
 40 48  1  0  0  0  0
 40 41  2  0  0  0  0
  8  9  1  0  0  0  0
  9 17  1  0  0  0  0
  9 10  2  0  0  0  0
 18 19  1  0  0  0  0
 19 38  1  0  0  0  0
 19 20  2  0  0  0  0
 39 42  1  0  0  0  0
  8 11  1  0  0  0  0
 48 49  1  0  0  0  0
 22 23  1  0  0  0  0
 21 22  1  0  0  0  0
 23 24  1  0  0  0  0
 18 21  1  0  0  0  0
 24 25  1  0  0  0  0
 38 39  1  0  0  0  0
  7  8  1  0  0  0  0
 17 18  1  0  0  0  0
  3  4  1  0  0  0  0
  3  5  1  0  0  0  0
  3  6  1  0  0  0  0
 42 45  1  0  0  0  0
 42 46  1  0  0  0  0
 42 47  1  0  0  0  0
 11 14  1  0  0  0  0
 11 15  1  0  0  0  0
 11 16  1  0  0  0  0
 49 51  1  0  0  0  0
 49 52  1  0  0  0  0
 49 53  1  0  0  0  0
 22 30  1  0  0  0  0
 22 31  1  0  0  0  0
 23 32  1  0  0  0  0
 23 33  1  0  0  0  0
 21 28  1  0  0  0  0
 21 29  1  0  0  0  0
 24 34  1  0  0  0  0
 24 35  1  0  0  0  0
 39 44  1  0  0  0  0
  8 13  1  0  0  0  0
 18 27  1  0  0  0  0
 25 36  1  0  0  0  0
 25 37  1  0  0  0  0
 48 50  1  0  0  0  0
  7 12  1  0  0  0  0
 38 43  1  0  0  0  0
 17 26  1  0  0  0  0
M  END
$$$$

  -OEChem-05262214473D

 53 52  0     1  0  0  0  0  0999 V2000
   -1.0338   -5.6785    0.1476 C   0  0  0  0  0  0  0  0  0  0  0  0
   -2.0514   -5.7797    0.8227 O   0  0  0  0  0  0  0  0  0  0  0  0
   -0.6558   -6.7819   -0.7841 C   0  0  0  0  0  0  0  0  0  0  0  0
   -0.0111   -7.5354   -0.3038 H   0  0  0  0  0  0  0  0  0  0  0  0
   -1.5317   -7.3401   -1.1520 H   0  0  0  0  0  0  0  0  0  0  0  0
   -0.1109   -6.4687   -1.6890 H   0  0  0  0  0  0  0  0  0  0  0  0
   -0.1543   -4.6083    0.1480 N   0  0  0  0  0  0  0  0  0  0  0  0
   -0.3302   -3.4398    0.9696 C   0  0  2  0  0  0  0  0  0  0  0  0
    0.2328   -2.2439    0.2131 C   0  0  0  0  0  0  0  0  0  0  0  0
    1.2097   -2.3192   -0.5294 O   0  0  0  0  0  0  0  0  0  0  0  0
    0.3557   -3.6024    2.3171 C   0  0  0  0  0  0  0  0  0  0  0  0
    0.6584   -4.6506   -0.4643 H   0  0  0  0  0  0  0  0  0  0  0  0
   -1.4091   -3.3101    1.1082 H   0  0  0  0  0  0  0  0  0  0  0  0
    1.4375   -3.7336    2.1985 H   0  0  0  0  0  0  0  0  0  0  0  0
    0.1969   -2.7243    2.9517 H   0  0  0  0  0  0  0  0  0  0  0  0
   -0.0294   -4.4803    2.8470 H   0  0  0  0  0  0  0  0  0  0  0  0
   -0.4616   -1.0893    0.5050 N   0  0  0  0  0  0  0  0  0  0  0  0
   -0.0884    0.2050   -0.0621 C   0  0  2  0  0  0  0  0  0  0  0  0
    0.5952    1.0119    1.0381 C   0  0  0  0  0  0  0  0  0  0  0  0
    0.5194    0.7186    2.2297 O   0  0  0  0  0  0  0  0  0  0  0  0
   -1.3047    0.9834   -0.5856 C   0  0  0  0  0  0  0  0  0  0  0  0
   -1.9541    0.3412   -1.8158 C   0  0  0  0  0  0  0  0  0  0  0  0
   -3.1437    1.1689   -2.3099 C   0  0  0  0  0  0  0  0  0  0  0  0
   -3.8059    0.5152   -3.5216 C   0  0  0  0  0  0  0  0  0  0  0  0
   -4.9493    1.3058   -3.9615 N   0  0  0  0  0  0  0  0  0  0  0  0
   -1.2794   -1.1113    1.0935 H   0  0  0  0  0  0  0  0  0  0  0  0
    0.6248    0.0355   -0.8777 H   0  0  0  0  0  0  0  0  0  0  0  0
   -0.9943    2.0049   -0.8421 H   0  0  0  0  0  0  0  0  0  0  0  0
   -2.0528    1.0884    0.2119 H   0  0  0  0  0  0  0  0  0  0  0  0
   -2.2979   -0.6714   -1.5764 H   0  0  0  0  0  0  0  0  0  0  0  0
   -1.2115    0.2525   -2.6179 H   0  0  0  0  0  0  0  0  0  0  0  0
   -3.8747    1.2764   -1.4986 H   0  0  0  0  0  0  0  0  0  0  0  0
   -2.8028    2.1781   -2.5735 H   0  0  0  0  0  0  0  0  0  0  0  0
   -4.1400   -0.4975   -3.2707 H   0  0  0  0  0  0  0  0  0  0  0  0
   -3.0890    0.4356   -4.3456 H   0  0  0  0  0  0  0  0  0  0  0  0
   -5.0462    2.0829   -3.3505 H   0  0  0  0  0  0  0  0  0  0  0  0
   -4.7786    1.6118   -4.8909 H   0  0  0  0  0  0  0  0  0  0  0  0
    1.2799    2.1086    0.5330 N   0  0  0  0  0  0  0  0  0  0  0  0
    1.9952    3.0486    1.3659 C   0  0  2  0  0  0  0  0  0  0  0  0
    1.9119    4.4190    0.7067 C   0  0  0  0  0  0  0  0  0  0  0  0
    1.9018    4.5776   -0.5122 O   0  0  0  0  0  0  0  0  0  0  0  0
    3.4430    2.6258    1.5598 C   0  0  0  0  0  0  0  0  0  0  0  0
    1.2953    2.2669   -0.4701 H   0  0  0  0  0  0  0  0  0  0  0  0
    1.4768    3.0746    2.3305 H   0  0  0  0  0  0  0  0  0  0  0  0
    3.9786    2.5939    0.6040 H   0  0  0  0  0  0  0  0  0  0  0  0
    3.9759    3.3235    2.2142 H   0  0  0  0  0  0  0  0  0  0  0  0
    3.5010    1.6274    2.0066 H   0  0  0  0  0  0  0  0  0  0  0  0
    1.8939    5.4465    1.6395 N   0  0  0  0  0  0  0  0  0  0  0  0
    1.8605    6.8406    1.2632 C   0  0  0  0  0  0  0  0  0  0  0  0
    1.8643    5.2221    2.6297 H   0  0  0  0  0  0  0  0  0  0  0  0
    2.8876    7.2303    1.2065 H   0  0  0  0  0  0  0  0  0  0  0  0
    1.3745    6.9438    0.2818 H   0  0  0  0  0  0  0  0  0  0  0  0
    1.2935    7.4096    2.0148 H   0  0  0  0  0  0  0  0  0  0  0  0
  1  3  1  0  0  0  0
  1  7  1  0  0  0  0
  1  2  2  0  0  0  0
 39 40  1  0  0  0  0
 40 48  1  0  0  0  0
 40 41  2  0  0  0  0
  8  9  1  0  0  0  0
  9 17  1  0  0  0  0
  9 10  2  0  0  0  0
 18 19  1  0  0  0  0
 19 38  1  0  0  0  0
 19 20  2  0  0  0  0
 39 42  1  0  0  0  0
  8 11  1  0  0  0  0
 48 49  1  0  0  0  0
 22 23  1  0  0  0  0
 21 22  1  0  0  0  0
 23 24  1  0  0  0  0
 18 21  1  0  0  0  0
 24 25  1  0  0  0  0
 38 39  1  0  0  0  0
  7  8  1  0  0  0  0
 17 18  1  0  0  0  0
  3  4  1  0  0  0  0
  3  5  1  0  0  0  0
  3  6  1  0  0  0  0
 42 45  1  0  0  0  0
 42 46  1  0  0  0  0
 42 47  1  0  0  0  0
 11 14  1  0  0  0  0
 11 15  1  0  0  0  0
 11 16  1  0  0  0  0
 49 51  1  0  0  0  0
 49 52  1  0  0  0  0
 49 53  1  0  0  0  0
 22 30  1  0  0  0  0
 22 31  1  0  0  0  0
 23 32  1  0  0  0  0
 23 33  1  0  0  0  0
 21 28  1  0  0  0  0
 21 29  1  0  0  0  0
 24 34  1  0  0  0  0
 24 35  1  0  0  0  0
 39 44  1  0  0  0  0
  8 13  1  0  0  0  0
 18 27  1  0  0  0  0
 25 36  1  0  0  0  0
 25 37  1  0  0  0  0
 48 50  1  0  0  0  0
  7 12  1  0  0  0  0
 38 43  1  0  0  0  0
 17 26  1  0  0  0  0
M  END
$$$$

  -OEChem-05262214473D

 53 52  0     1  0  0  0  0  0999 V2000
   -1.0338   -5.6785    0.1476 C   0  0  0  0  0  0  0  0  0  0  0  0
   -2.0514   -5.7797    0.8227 O   0  0  0  0  0  0  0  0  0  0  0  0
   -0.6558   -6.7819   -0.7841 C   0  0  0  0  0  0  0  0  0  0  0  0
   -0.0111   -7.5354   -0.3038 H   0  0  0  0  0  0  0  0  0  0  0  0
   -1.5317   -7.3401   -1.1520 H   0  0  0  0  0  0  0  0  0  0  0  0
   -0.1109   -6.4687   -1.6890 H   0  0  0  0  0  0  0  0  0  0  0  0
   -0.1543   -4.6083    0.1480 N   0  0  0  0  0  0  0  0  0  0  0  0
   -0.3302   -3.4398    0.9696 C   0  0  2  0  0  0  0  0  0  0  0  0
    0.2328   -2.2439    0.2131 C   0  0  0  0  0  0  0  0  0  0  0  0
    1.2097   -2.3192   -0.5294 O   0  0  0  0  0  0  0  0  0  0  0  0
    0.3557   -3.6024    2.3171 C   0  0  0  0  0  0  0  0  0  0  0  0
    0.6584   -4.6506   -0.4643 H   0  0  0  0  0  0  0  0  0  0  0  0
   -1.4091   -3.3101    1.1082 H   0  0  0  0  0  0  0  0  0  0  0  0
    1.4375   -3.7336    2.1985 H   0  0  0  0  0  0  0  0  0  0  0  0
    0.1969   -2.7243    2.9517 H   0  0  0  0  0  0  0  0  0  0  0  0
   -0.0294   -4.4803    2.8470 H   0  0  0  0  0  0  0  0  0  0  0  0
   -0.4616   -1.0893    0.5050 N   0  0  0  0  0  0  0  0  0  0  0  0
   -0.0884    0.2050   -0.0621 C   0  0  2  0  0  0  0  0  0  0  0  0
    0.9092    0.8570    0.8912 C   0  0  0  0  0  0  0  0  0  0  0  0
    1.2715    0.3333    1.9428 O   0  0  0  0  0  0  0  0  0  0  0  0
   -1.3000    1.1312   -0.2452 C   0  0  0  0  0  0  0  0  0  0  0  0
   -2.2760    0.6496   -1.3237 C   0  0  0  0  0  0  0  0  0  0  0  0
   -3.4497    1.6199   -1.4819 C   0  0  0  0  0  0  0  0  0  0  0  0
   -4.4353    1.1268   -2.5400 C   0  0  0  0  0  0  0  0  0  0  0  0
   -5.5561    2.0518   -2.6582 N   0  0  0  0  0  0  0  0  0  0  0  0
   -1.2794   -1.1113    1.0935 H   0  0  0  0  0  0  0  0  0  0  0  0
    0.3995    0.0341   -1.0292 H   0  0  0  0  0  0  0  0  0  0  0  0
   -0.9469    2.1364   -0.5109 H   0  0  0  0  0  0  0  0  0  0  0  0
   -1.8329    1.2427    0.7089 H   0  0  0  0  0  0  0  0  0  0  0  0
   -2.6643   -0.3423   -1.0664 H   0  0  0  0  0  0  0  0  0  0  0  0
   -1.7477    0.5552   -2.2801 H   0  0  0  0  0  0  0  0  0  0  0  0
   -3.9626    1.7314   -0.5182 H   0  0  0  0  0  0  0  0  0  0  0  0
   -3.0701    2.6107   -1.7622 H   0  0  0  0  0  0  0  0  0  0  0  0
   -4.8115    0.1330   -2.2737 H   0  0  0  0  0  0  0  0  0  0  0  0
   -3.9358    1.0453   -3.5112 H   0  0  0  0  0  0  0  0  0  0  0  0
   -5.4279    2.7846   -2.0000 H   0  0  0  0  0  0  0  0  0  0  0  0
   -5.5676    2.4120   -3.5837 H   0  0  0  0  0  0  0  0  0  0  0  0
    1.3281    2.1005    0.4386 N   0  0  0  0  0  0  0  0  0  0  0  0
    2.2554    2.9373    1.1657 C   0  0  2  0  0  0  0  0  0  0  0  0
    1.8918    4.3906    0.8918 C   0  0  0  0  0  0  0  0  0  0  0  0
    1.4446    4.7786   -0.1855 O   0  0  0  0  0  0  0  0  0  0  0  0
    3.6932    2.6511    0.7611 C   0  0  0  0  0  0  0  0  0  0  0  0
    0.9812    2.4496   -0.4498 H   0  0  0  0  0  0  0  0  0  0  0  0
    2.1117    2.7185    2.2295 H   0  0  0  0  0  0  0  0  0  0  0  0
    3.8563    2.8645   -0.3015 H   0  0  0  0  0  0  0  0  0  0  0  0
    4.3961    3.2656    1.3333 H   0  0  0  0  0  0  0  0  0  0  0  0
    3.9437    1.5985    0.9311 H   0  0  0  0  0  0  0  0  0  0  0  0
    2.1659    5.2107    1.9774 N   0  0  0  0  0  0  0  0  0  0  0  0
    1.9481    6.6382    1.9507 C   0  0  0  0  0  0  0  0  0  0  0  0
    2.4976    4.7980    2.8442 H   0  0  0  0  0  0  0  0  0  0  0  0
    2.8728    7.1450    1.6374 H   0  0  0  0  0  0  0  0  0  0  0  0
    1.1425    6.8729    1.2394 H   0  0  0  0  0  0  0  0  0  0  0  0
    1.6628    6.9843    2.9551 H   0  0  0  0  0  0  0  0  0  0  0  0
  1  3  1  0  0  0  0
  1  7  1  0  0  0  0
  1  2  2  0  0  0  0
 39 40  1  0  0  0  0
 40 48  1  0  0  0  0
 40 41  2  0  0  0  0
  8  9  1  0  0  0  0
  9 17  1  0  0  0  0
  9 10  2  0  0  0  0
 18 19  1  0  0  0  0
 19 38  1  0  0  0  0
 19 20  2  0  0  0  0
 39 42  1  0  0  0  0
  8 11  1  0  0  0  0
 48 49  1  0  0  0  0
 22 23  1  0  0  0  0
 21 22  1  0  0  0  0
 23 24  1  0  0  0  0
 18 21  1  0  0  0  0
 24 25  1  0  0  0  0
 38 39  1  0  0  0  0
  7  8  1  0  0  0  0
 17 18  1  0  0  0  0
  3  4  1  0  0  0  0
  3  5  1  0  0  0  0
  3  6  1  0  0  0  0
 42 45  1  0  0  0  0
 42 46  1  0  0  0  0
 42 47  1  0  0  0  0
 11 14  1  0  0  0  0
 11 15  1  0  0  0  0
 11 16  1  0  0  0  0
 49 51  1  0  0  0  0
 49 52  1  0  0  0  0
 49 53  1  0  0  0  0
 22 30  1  0  0  0  0
 22 31  1  0  0  0  0
 23 32  1  0  0  0  0
 23 33  1  0  0  0  0
 21 28  1  0  0  0  0
 21 29  1  0  0  0  0
 24 34  1  0  0  0  0
 24 35  1  0  0  0  0
 39 44  1  0  0  0  0
  8 13  1  0  0  0  0
 18 27  1  0  0  0  0
 25 36  1  0  0  0  0
 25 37  1  0  0  0  0
 48 50  1  0  0  0  0
  7 12  1  0  0  0  0
 38 43  1  0  0  0  0
 17 26  1  0  0  0  0
M  END
$$$$

  -OEChem-05262214473D

 53 52  0     1  0  0  0  0  0999 V2000
   -1.0338   -5.6785    0.1476 C   0  0  0  0  0  0  0  0  0  0  0  0
   -2.0514   -5.7797    0.8227 O   0  0  0  0  0  0  0  0  0  0  0  0
   -0.6558   -6.7819   -0.7841 C   0  0  0  0  0  0  0  0  0  0  0  0
   -0.0111   -7.5354   -0.3038 H   0  0  0  0  0  0  0  0  0  0  0  0
   -1.5317   -7.3401   -1.1520 H   0  0  0  0  0  0  0  0  0  0  0  0
   -0.1109   -6.4687   -1.6890 H   0  0  0  0  0  0  0  0  0  0  0  0
   -0.1543   -4.6083    0.1480 N   0  0  0  0  0  0  0  0  0  0  0  0
   -0.3302   -3.4398    0.9696 C   0  0  2  0  0  0  0  0  0  0  0  0
    0.2328   -2.2439    0.2131 C   0  0  0  0  0  0  0  0  0  0  0  0
    1.2097   -2.3192   -0.5294 O   0  0  0  0  0  0  0  0  0  0  0  0
    0.3557   -3.6024    2.3171 C   0  0  0  0  0  0  0  0  0  0  0  0
    0.6584   -4.6506   -0.4643 H   0  0  0  0  0  0  0  0  0  0  0  0
   -1.4091   -3.3101    1.1082 H   0  0  0  0  0  0  0  0  0  0  0  0
    1.4375   -3.7336    2.1985 H   0  0  0  0  0  0  0  0  0  0  0  0
    0.1969   -2.7243    2.9517 H   0  0  0  0  0  0  0  0  0  0  0  0
   -0.0294   -4.4803    2.8470 H   0  0  0  0  0  0  0  0  0  0  0  0
   -0.4616   -1.0893    0.5050 N   0  0  0  0  0  0  0  0  0  0  0  0
   -0.0884    0.2050   -0.0621 C   0  0  2  0  0  0  0  0  0  0  0  0
    0.9092    0.8570    0.8912 C   0  0  0  0  0  0  0  0  0  0  0  0
    1.4750    0.2415    1.7926 O   0  0  0  0  0  0  0  0  0  0  0  0
   -1.3000    1.1312   -0.2452 C   0  0  0  0  0  0  0  0  0  0  0  0
   -2.2760    0.6496   -1.3237 C   0  0  0  0  0  0  0  0  0  0  0  0
   -3.4497    1.6199   -1.4819 C   0  0  0  0  0  0  0  0  0  0  0  0
   -4.4353    1.1268   -2.5400 C   0  0  0  0  0  0  0  0  0  0  0  0
   -5.5561    2.0518   -2.6582 N   0  0  0  0  0  0  0  0  0  0  0  0
   -1.2794   -1.1113    1.0935 H   0  0  0  0  0  0  0  0  0  0  0  0
    0.3995    0.0341   -1.0292 H   0  0  0  0  0  0  0  0  0  0  0  0
   -0.9469    2.1364   -0.5109 H   0  0  0  0  0  0  0  0  0  0  0  0
   -1.8329    1.2427    0.7089 H   0  0  0  0  0  0  0  0  0  0  0  0
   -2.6643   -0.3423   -1.0664 H   0  0  0  0  0  0  0  0  0  0  0  0
   -1.7477    0.5552   -2.2801 H   0  0  0  0  0  0  0  0  0  0  0  0
   -3.9626    1.7314   -0.5182 H   0  0  0  0  0  0  0  0  0  0  0  0
   -3.0701    2.6107   -1.7622 H   0  0  0  0  0  0  0  0  0  0  0  0
   -4.8115    0.1330   -2.2737 H   0  0  0  0  0  0  0  0  0  0  0  0
   -3.9358    1.0453   -3.5112 H   0  0  0  0  0  0  0  0  0  0  0  0
   -5.4279    2.7846   -2.0000 H   0  0  0  0  0  0  0  0  0  0  0  0
   -5.5676    2.4120   -3.5837 H   0  0  0  0  0  0  0  0  0  0  0  0
    1.0743    2.2101    0.6292 N   0  0  0  0  0  0  0  0  0  0  0  0
    1.9468    3.0658    1.4008 C   0  0  2  0  0  0  0  0  0  0  0  0
    1.3350    4.4603    1.4268 C   0  0  0  0  0  0  0  0  0  0  0  0
    0.7034    4.9334    0.4843 O   0  0  0  0  0  0  0  0  0  0  0  0
    3.3496    3.0986    0.8146 C   0  0  0  0  0  0  0  0  0  0  0  0
    0.5705    2.6322   -0.1450 H   0  0  0  0  0  0  0  0  0  0  0  0
    1.9715    2.6583    2.4173 H   0  0  0  0  0  0  0  0  0  0  0  0
    3.3449    3.5041   -0.2037 H   0  0  0  0  0  0  0  0  0  0  0  0
    4.0166    3.7246    1.4165 H   0  0  0  0  0  0  0  0  0  0  0  0
    3.7766    2.0909    0.7691 H   0  0  0  0  0  0  0  0  0  0  0  0
    1.6141    5.1307    2.6095 N   0  0  0  0  0  0  0  0  0  0  0  0
    1.1801    6.4855    2.8589 C   0  0  0  0  0  0  0  0  0  0  0  0
    2.1100    4.6475    3.3527 H   0  0  0  0  0  0  0  0  0  0  0  0
    1.9706    7.1865    2.5531 H   0  0  0  0  0  0  0  0  0  0  0  0
    0.2659    6.6895    2.2821 H   0  0  0  0  0  0  0  0  0  0  0  0
    0.9726    6.6123    3.9317 H   0  0  0  0  0  0  0  0  0  0  0  0
  1  3  1  0  0  0  0
  1  7  1  0  0  0  0
  1  2  2  0  0  0  0
 39 40  1  0  0  0  0
 40 48  1  0  0  0  0
 40 41  2  0  0  0  0
  8  9  1  0  0  0  0
  9 17  1  0  0  0  0
  9 10  2  0  0  0  0
 18 19  1  0  0  0  0
 19 38  1  0  0  0  0
 19 20  2  0  0  0  0
 39 42  1  0  0  0  0
  8 11  1  0  0  0  0
 48 49  1  0  0  0  0
 22 23  1  0  0  0  0
 21 22  1  0  0  0  0
 23 24  1  0  0  0  0
 18 21  1  0  0  0  0
 24 25  1  0  0  0  0
 38 39  1  0  0  0  0
  7  8  1  0  0  0  0
 17 18  1  0  0  0  0
  3  4  1  0  0  0  0
  3  5  1  0  0  0  0
  3  6  1  0  0  0  0
 42 45  1  0  0  0  0
 42 46  1  0  0  0  0
 42 47  1  0  0  0  0
 11 14  1  0  0  0  0
 11 15  1  0  0  0  0
 11 16  1  0  0  0  0
 49 51  1  0  0  0  0
 49 52  1  0  0  0  0
 49 53  1  0  0  0  0
 22 30  1  0  0  0  0
 22 31  1  0  0  0  0
 23 32  1  0  0  0  0
 23 33  1  0  0  0  0
 21 28  1  0  0  0  0
 21 29  1  0  0  0  0
 24 34  1  0  0  0  0
 24 35  1  0  0  0  0
 39 44  1  0  0  0  0
  8 13  1  0  0  0  0
 18 27  1  0  0  0  0
 25 36  1  0  0  0  0
 25 37  1  0  0  0  0
 48 50  1  0  0  0  0
  7 12  1  0  0  0  0
 38 43  1  0  0  0  0
 17 26  1  0  0  0  0
M  END
$$$$

  -OEChem-05262214473D

 53 52  0     1  0  0  0  0  0999 V2000
   -1.0338   -5.6785    0.1476 C   0  0  0  0  0  0  0  0  0  0  0  0
   -2.0514   -5.7797    0.8227 O   0  0  0  0  0  0  0  0  0  0  0  0
   -0.6558   -6.7819   -0.7841 C   0  0  0  0  0  0  0  0  0  0  0  0
   -0.0111   -7.5354   -0.3038 H   0  0  0  0  0  0  0  0  0  0  0  0
   -1.5317   -7.3401   -1.1520 H   0  0  0  0  0  0  0  0  0  0  0  0
   -0.1109   -6.4687   -1.6890 H   0  0  0  0  0  0  0  0  0  0  0  0
   -0.1543   -4.6083    0.1480 N   0  0  0  0  0  0  0  0  0  0  0  0
   -0.3302   -3.4398    0.9696 C   0  0  2  0  0  0  0  0  0  0  0  0
    0.2328   -2.2439    0.2131 C   0  0  0  0  0  0  0  0  0  0  0  0
    1.2097   -2.3192   -0.5294 O   0  0  0  0  0  0  0  0  0  0  0  0
    0.3557   -3.6024    2.3171 C   0  0  0  0  0  0  0  0  0  0  0  0
    0.6584   -4.6506   -0.4643 H   0  0  0  0  0  0  0  0  0  0  0  0
   -1.4091   -3.3101    1.1082 H   0  0  0  0  0  0  0  0  0  0  0  0
    1.4375   -3.7336    2.1985 H   0  0  0  0  0  0  0  0  0  0  0  0
    0.1969   -2.7243    2.9517 H   0  0  0  0  0  0  0  0  0  0  0  0
   -0.0294   -4.4803    2.8470 H   0  0  0  0  0  0  0  0  0  0  0  0
   -0.4616   -1.0893    0.5050 N   0  0  0  0  0  0  0  0  0  0  0  0
   -0.0884    0.2050   -0.0621 C   0  0  2  0  0  0  0  0  0  0  0  0
    0.9092    0.8570    0.8912 C   0  0  0  0  0  0  0  0  0  0  0  0
    1.6698    0.2112    1.6094 O   0  0  0  0  0  0  0  0  0  0  0  0
   -1.3000    1.1312   -0.2452 C   0  0  0  0  0  0  0  0  0  0  0  0
   -2.2760    0.6496   -1.3237 C   0  0  0  0  0  0  0  0  0  0  0  0
   -3.4497    1.6199   -1.4819 C   0  0  0  0  0  0  0  0  0  0  0  0
   -4.4353    1.1268   -2.5400 C   0  0  0  0  0  0  0  0  0  0  0  0
   -5.5561    2.0518   -2.6582 N   0  0  0  0  0  0  0  0  0  0  0  0
   -1.2794   -1.1113    1.0935 H   0  0  0  0  0  0  0  0  0  0  0  0
    0.3995    0.0341   -1.0292 H   0  0  0  0  0  0  0  0  0  0  0  0
   -0.9469    2.1364   -0.5109 H   0  0  0  0  0  0  0  0  0  0  0  0
   -1.8329    1.2427    0.7089 H   0  0  0  0  0  0  0  0  0  0  0  0
   -2.6643   -0.3423   -1.0664 H   0  0  0  0  0  0  0  0  0  0  0  0
   -1.7477    0.5552   -2.2801 H   0  0  0  0  0  0  0  0  0  0  0  0
   -3.9626    1.7314   -0.5182 H   0  0  0  0  0  0  0  0  0  0  0  0
   -3.0701    2.6107   -1.7622 H   0  0  0  0  0  0  0  0  0  0  0  0
   -4.8115    0.1330   -2.2737 H   0  0  0  0  0  0  0  0  0  0  0  0
   -3.9358    1.0453   -3.5112 H   0  0  0  0  0  0  0  0  0  0  0  0
   -5.4279    2.7846   -2.0000 H   0  0  0  0  0  0  0  0  0  0  0  0
   -5.5676    2.4120   -3.5837 H   0  0  0  0  0  0  0  0  0  0  0  0
    0.8326    2.2426    0.8600 N   0  0  0  0  0  0  0  0  0  0  0  0
    1.6538    3.1004    1.6837 C   0  0  2  0  0  0  0  0  0  0  0  0
    0.8451    4.3471    2.0169 C   0  0  0  0  0  0  0  0  0  0  0  0
    0.0365    4.8497    1.2394 O   0  0  0  0  0  0  0  0  0  0  0  0
    2.9514    3.4662    0.9800 C   0  0  0  0  0  0  0  0  0  0  0  0
    0.1780    2.6907    0.2257 H   0  0  0  0  0  0  0  0  0  0  0  0
    1.8667    2.5456    2.6040 H   0  0  0  0  0  0  0  0  0  0  0  0
    2.7583    4.0226    0.0555 H   0  0  0  0  0  0  0  0  0  0  0  0
    3.5850    4.0926    1.6165 H   0  0  0  0  0  0  0  0  0  0  0  0
    3.5177    2.5670    0.7145 H   0  0  0  0  0  0  0  0  0  0  0  0
    1.1640    4.8572    3.2676 N   0  0  0  0  0  0  0  0  0  0  0  0
    0.5633    6.0600    3.7953 C   0  0  0  0  0  0  0  0  0  0  0  0
    1.8162    4.3534    3.8613 H   0  0  0  0  0  0  0  0  0  0  0  0
    1.1936    6.9259    3.5444 H   0  0  0  0  0  0  0  0  0  0  0  0
   -0.4359    6.1943    3.3552 H   0  0  0  0  0  0  0  0  0  0  0  0
    0.4741    5.9760    4.8884 H   0  0  0  0  0  0  0  0  0  0  0  0
  1  3  1  0  0  0  0
  1  7  1  0  0  0  0
  1  2  2  0  0  0  0
 39 40  1  0  0  0  0
 40 48  1  0  0  0  0
 40 41  2  0  0  0  0
  8  9  1  0  0  0  0
  9 17  1  0  0  0  0
  9 10  2  0  0  0  0
 18 19  1  0  0  0  0
 19 38  1  0  0  0  0
 19 20  2  0  0  0  0
 39 42  1  0  0  0  0
  8 11  1  0  0  0  0
 48 49  1  0  0  0  0
 22 23  1  0  0  0  0
 21 22  1  0  0  0  0
 23 24  1  0  0  0  0
 18 21  1  0  0  0  0
 24 25  1  0  0  0  0
 38 39  1  0  0  0  0
  7  8  1  0  0  0  0
 17 18  1  0  0  0  0
  3  4  1  0  0  0  0
  3  5  1  0  0  0  0
  3  6  1  0  0  0  0
 42 45  1  0  0  0  0
 42 46  1  0  0  0  0
 42 47  1  0  0  0  0
 11 14  1  0  0  0  0
 11 15  1  0  0  0  0
 11 16  1  0  0  0  0
 49 51  1  0  0  0  0
 49 52  1  0  0  0  0
 49 53  1  0  0  0  0
 22 30  1  0  0  0  0
 22 31  1  0  0  0  0
 23 32  1  0  0  0  0
 23 33  1  0  0  0  0
 21 28  1  0  0  0  0
 21 29  1  0  0  0  0
 24 34  1  0  0  0  0
 24 35  1  0  0  0  0
 39 44  1  0  0  0  0
  8 13  1  0  0  0  0
 18 27  1  0  0  0  0
 25 36  1  0  0  0  0
 25 37  1  0  0  0  0
 48 50  1  0  0  0  0
  7 12  1  0  0  0  0
 38 43  1  0  0  0  0
 17 26  1  0  0  0  0
M  END
$$$$

  -OEChem-05262214473D

 53 52  0     1  0  0  0  0  0999 V2000
   -1.0338   -5.6785    0.1476 C   0  0  0  0  0  0  0  0  0  0  0  0
   -2.0514   -5.7797    0.8227 O   0  0  0  0  0  0  0  0  0  0  0  0
   -0.6558   -6.7819   -0.7841 C   0  0  0  0  0  0  0  0  0  0  0  0
   -0.0111   -7.5354   -0.3038 H   0  0  0  0  0  0  0  0  0  0  0  0
   -1.5317   -7.3401   -1.1520 H   0  0  0  0  0  0  0  0  0  0  0  0
   -0.1109   -6.4687   -1.6890 H   0  0  0  0  0  0  0  0  0  0  0  0
   -0.1543   -4.6083    0.1480 N   0  0  0  0  0  0  0  0  0  0  0  0
   -0.3302   -3.4398    0.9696 C   0  0  2  0  0  0  0  0  0  0  0  0
    0.2328   -2.2439    0.2131 C   0  0  0  0  0  0  0  0  0  0  0  0
    1.2097   -2.3192   -0.5294 O   0  0  0  0  0  0  0  0  0  0  0  0
    0.3557   -3.6024    2.3171 C   0  0  0  0  0  0  0  0  0  0  0  0
    0.6584   -4.6506   -0.4643 H   0  0  0  0  0  0  0  0  0  0  0  0
   -1.4091   -3.3101    1.1082 H   0  0  0  0  0  0  0  0  0  0  0  0
    1.4375   -3.7336    2.1985 H   0  0  0  0  0  0  0  0  0  0  0  0
    0.1969   -2.7243    2.9517 H   0  0  0  0  0  0  0  0  0  0  0  0
   -0.0294   -4.4803    2.8470 H   0  0  0  0  0  0  0  0  0  0  0  0
   -0.4616   -1.0893    0.5050 N   0  0  0  0  0  0  0  0  0  0  0  0
   -0.0884    0.2050   -0.0621 C   0  0  2  0  0  0  0  0  0  0  0  0
    0.9092    0.8570    0.8912 C   0  0  0  0  0  0  0  0  0  0  0  0
    1.8427    0.2445    1.4059 O   0  0  0  0  0  0  0  0  0  0  0  0
   -1.3000    1.1312   -0.2452 C   0  0  0  0  0  0  0  0  0  0  0  0
   -2.2760    0.6496   -1.3237 C   0  0  0  0  0  0  0  0  0  0  0  0
   -3.4497    1.6199   -1.4819 C   0  0  0  0  0  0  0  0  0  0  0  0
   -4.4353    1.1268   -2.5400 C   0  0  0  0  0  0  0  0  0  0  0  0
   -5.5561    2.0518   -2.6582 N   0  0  0  0  0  0  0  0  0  0  0  0
   -1.2794   -1.1113    1.0935 H   0  0  0  0  0  0  0  0  0  0  0  0
    0.3995    0.0341   -1.0292 H   0  0  0  0  0  0  0  0  0  0  0  0
   -0.9469    2.1364   -0.5109 H   0  0  0  0  0  0  0  0  0  0  0  0
   -1.8329    1.2427    0.7089 H   0  0  0  0  0  0  0  0  0  0  0  0
   -2.6643   -0.3423   -1.0664 H   0  0  0  0  0  0  0  0  0  0  0  0
   -1.7477    0.5552   -2.2801 H   0  0  0  0  0  0  0  0  0  0  0  0
   -3.9626    1.7314   -0.5182 H   0  0  0  0  0  0  0  0  0  0  0  0
   -3.0701    2.6107   -1.7622 H   0  0  0  0  0  0  0  0  0  0  0  0
   -4.8115    0.1330   -2.2737 H   0  0  0  0  0  0  0  0  0  0  0  0
   -3.9358    1.0453   -3.5112 H   0  0  0  0  0  0  0  0  0  0  0  0
   -5.4279    2.7846   -2.0000 H   0  0  0  0  0  0  0  0  0  0  0  0
   -5.5676    2.4120   -3.5837 H   0  0  0  0  0  0  0  0  0  0  0  0
    0.6194    2.1959    1.1150 N   0  0  0  0  0  0  0  0  0  0  0  0
    1.3966    3.0385    1.9952 C   0  0  2  0  0  0  0  0  0  0  0  0
    0.4554    4.0587    2.6219 C   0  0  0  0  0  0  0  0  0  0  0  0
   -0.5107    4.5334    2.0283 O   0  0  0  0  0  0  0  0  0  0  0  0
    2.5256    3.7289    1.2459 C   0  0  0  0  0  0  0  0  0  0  0  0
   -0.1696    2.6210    0.6371 H   0  0  0  0  0  0  0  0  0  0  0  0
    1.8043    2.3883    2.7769 H   0  0  0  0  0  0  0  0  0  0  0  0
    2.1365    4.3847    0.4585 H   0  0  0  0  0  0  0  0  0  0  0  0
    3.1307    4.3445    1.9196 H   0  0  0  0  0  0  0  0  0  0  0  0
    3.1846    2.9942    0.7709 H   0  0  0  0  0  0  0  0  0  0  0  0
    0.8461    4.4090    3.9067 N   0  0  0  0  0  0  0  0  0  0  0  0
    0.1398    5.3910    4.6960 C   0  0  0  0  0  0  0  0  0  0  0  0
    1.6362    3.9358    4.3352 H   0  0  0  0  0  0  0  0  0  0  0  0
    0.5949    6.3808    4.5437 H   0  0  0  0  0  0  0  0  0  0  0  0
   -0.9151    5.4209    4.3855 H   0  0  0  0  0  0  0  0  0  0  0  0
    0.2013    5.1190    5.7600 H   0  0  0  0  0  0  0  0  0  0  0  0
  1  3  1  0  0  0  0
  1  7  1  0  0  0  0
  1  2  2  0  0  0  0
 39 40  1  0  0  0  0
 40 48  1  0  0  0  0
 40 41  2  0  0  0  0
  8  9  1  0  0  0  0
  9 17  1  0  0  0  0
  9 10  2  0  0  0  0
 18 19  1  0  0  0  0
 19 38  1  0  0  0  0
 19 20  2  0  0  0  0
 39 42  1  0  0  0  0
  8 11  1  0  0  0  0
 48 49  1  0  0  0  0
 22 23  1  0  0  0  0
 21 22  1  0  0  0  0
 23 24  1  0  0  0  0
 18 21  1  0  0  0  0
 24 25  1  0  0  0  0
 38 39  1  0  0  0  0
  7  8  1  0  0  0  0
 17 18  1  0  0  0  0
  3  4  1  0  0  0  0
  3  5  1  0  0  0  0
  3  6  1  0  0  0  0
 42 45  1  0  0  0  0
 42 46  1  0  0  0  0
 42 47  1  0  0  0  0
 11 14  1  0  0  0  0
 11 15  1  0  0  0  0
 11 16  1  0  0  0  0
 49 51  1  0  0  0  0
 49 52  1  0  0  0  0
 49 53  1  0  0  0  0
 22 30  1  0  0  0  0
 22 31  1  0  0  0  0
 23 32  1  0  0  0  0
 23 33  1  0  0  0  0
 21 28  1  0  0  0  0
 21 29  1  0  0  0  0
 24 34  1  0  0  0  0
 24 35  1  0  0  0  0
 39 44  1  0  0  0  0
  8 13  1  0  0  0  0
 18 27  1  0  0  0  0
 25 36  1  0  0  0  0
 25 37  1  0  0  0  0
 48 50  1  0  0  0  0
  7 12  1  0  0  0  0
 38 43  1  0  0  0  0
 17 26  1  0  0  0  0
M  END
$$$$

  -OEChem-05262214473D

 53 52  0     1  0  0  0  0  0999 V2000
   -1.0338   -5.6785    0.1476 C   0  0  0  0  0  0  0  0  0  0  0  0
   -2.0514   -5.7797    0.8227 O   0  0  0  0  0  0  0  0  0  0  0  0
   -0.6558   -6.7819   -0.7841 C   0  0  0  0  0  0  0  0  0  0  0  0
   -0.0111   -7.5354   -0.3038 H   0  0  0  0  0  0  0  0  0  0  0  0
   -1.5317   -7.3401   -1.1520 H   0  0  0  0  0  0  0  0  0  0  0  0
   -0.1109   -6.4687   -1.6890 H   0  0  0  0  0  0  0  0  0  0  0  0
   -0.1543   -4.6083    0.1480 N   0  0  0  0  0  0  0  0  0  0  0  0
   -0.3302   -3.4398    0.9696 C   0  0  2  0  0  0  0  0  0  0  0  0
    0.2328   -2.2439    0.2131 C   0  0  0  0  0  0  0  0  0  0  0  0
    1.2097   -2.3192   -0.5294 O   0  0  0  0  0  0  0  0  0  0  0  0
    0.3557   -3.6024    2.3171 C   0  0  0  0  0  0  0  0  0  0  0  0
    0.6584   -4.6506   -0.4643 H   0  0  0  0  0  0  0  0  0  0  0  0
   -1.4091   -3.3101    1.1082 H   0  0  0  0  0  0  0  0  0  0  0  0
    1.4375   -3.7336    2.1985 H   0  0  0  0  0  0  0  0  0  0  0  0
    0.1969   -2.7243    2.9517 H   0  0  0  0  0  0  0  0  0  0  0  0
   -0.0294   -4.4803    2.8470 H   0  0  0  0  0  0  0  0  0  0  0  0
   -0.4616   -1.0893    0.5050 N   0  0  0  0  0  0  0  0  0  0  0  0
   -0.0884    0.2050   -0.0621 C   0  0  2  0  0  0  0  0  0  0  0  0
    0.9092    0.8570    0.8912 C   0  0  0  0  0  0  0  0  0  0  0  0
    1.9817    0.3389    1.1957 O   0  0  0  0  0  0  0  0  0  0  0  0
   -1.3000    1.1312   -0.2452 C   0  0  0  0  0  0  0  0  0  0  0  0
   -2.2760    0.6496   -1.3237 C   0  0  0  0  0  0  0  0  0  0  0  0
   -3.4497    1.6199   -1.4819 C   0  0  0  0  0  0  0  0  0  0  0  0
   -4.4353    1.1268   -2.5400 C   0  0  0  0  0  0  0  0  0  0  0  0
   -5.5561    2.0518   -2.6582 N   0  0  0  0  0  0  0  0  0  0  0  0
   -1.2794   -1.1113    1.0935 H   0  0  0  0  0  0  0  0  0  0  0  0
    0.3995    0.0341   -1.0292 H   0  0  0  0  0  0  0  0  0  0  0  0
   -0.9469    2.1364   -0.5109 H   0  0  0  0  0  0  0  0  0  0  0  0
   -1.8329    1.2427    0.7089 H   0  0  0  0  0  0  0  0  0  0  0  0
   -2.6643   -0.3423   -1.0664 H   0  0  0  0  0  0  0  0  0  0  0  0
   -1.7477    0.5552   -2.2801 H   0  0  0  0  0  0  0  0  0  0  0  0
   -3.9626    1.7314   -0.5182 H   0  0  0  0  0  0  0  0  0  0  0  0
   -3.0701    2.6107   -1.7622 H   0  0  0  0  0  0  0  0  0  0  0  0
   -4.8115    0.1330   -2.2737 H   0  0  0  0  0  0  0  0  0  0  0  0
   -3.9358    1.0453   -3.5112 H   0  0  0  0  0  0  0  0  0  0  0  0
   -5.4279    2.7846   -2.0000 H   0  0  0  0  0  0  0  0  0  0  0  0
   -5.5676    2.4120   -3.5837 H   0  0  0  0  0  0  0  0  0  0  0  0
    0.4492    2.0731    1.3771 N   0  0  0  0  0  0  0  0  0  0  0  0
    1.1926    2.8844    2.3141 C   0  0  2  0  0  0  0  0  0  0  0  0
    0.1925    3.6147    3.2006 C   0  0  0  0  0  0  0  0  0  0  0  0
   -0.9009    4.0059    2.7973 O   0  0  0  0  0  0  0  0  0  0  0  0
    2.1012    3.8688    1.5943 C   0  0  0  0  0  0  0  0  0  0  0  0
   -0.4486    2.4278    1.0612 H   0  0  0  0  0  0  0  0  0  0  0  0
    1.7885    2.1970    2.9242 H   0  0  0  0  0  0  0  0  0  0  0  0
    1.5219    4.5658    0.9778 H   0  0  0  0  0  0  0  0  0  0  0  0
    2.6847    4.4630    2.3053 H   0  0  0  0  0  0  0  0  0  0  0  0
    2.8000    3.3435    0.9345 H   0  0  0  0  0  0  0  0  0  0  0  0
    0.6822    3.8165    4.4834 N   0  0  0  0  0  0  0  0  0  0  0  0
   -0.0615    4.5238    5.4996 C   0  0  0  0  0  0  0  0  0  0  0  0
    1.5822    3.4231    4.7423 H   0  0  0  0  0  0  0  0  0  0  0  0
    0.2152    5.5884    5.4829 H   0  0  0  0  0  0  0  0  0  0  0  0
   -1.1389    4.4220    5.3028 H   0  0  0  0  0  0  0  0  0  0  0  0
    0.1726    4.0997    6.4871 H   0  0  0  0  0  0  0  0  0  0  0  0
  1  3  1  0  0  0  0
  1  7  1  0  0  0  0
  1  2  2  0  0  0  0
 39 40  1  0  0  0  0
 40 48  1  0  0  0  0
 40 41  2  0  0  0  0
  8  9  1  0  0  0  0
  9 17  1  0  0  0  0
  9 10  2  0  0  0  0
 18 19  1  0  0  0  0
 19 38  1  0  0  0  0
 19 20  2  0  0  0  0
 39 42  1  0  0  0  0
  8 11  1  0  0  0  0
 48 49  1  0  0  0  0
 22 23  1  0  0  0  0
 21 22  1  0  0  0  0
 23 24  1  0  0  0  0
 18 21  1  0  0  0  0
 24 25  1  0  0  0  0
 38 39  1  0  0  0  0
  7  8  1  0  0  0  0
 17 18  1  0  0  0  0
  3  4  1  0  0  0  0
  3  5  1  0  0  0  0
  3  6  1  0  0  0  0
 42 45  1  0  0  0  0
 42 46  1  0  0  0  0
 42 47  1  0  0  0  0
 11 14  1  0  0  0  0
 11 15  1  0  0  0  0
 11 16  1  0  0  0  0
 49 51  1  0  0  0  0
 49 52  1  0  0  0  0
 49 53  1  0  0  0  0
 22 30  1  0  0  0  0
 22 31  1  0  0  0  0
 23 32  1  0  0  0  0
 23 33  1  0  0  0  0
 21 28  1  0  0  0  0
 21 29  1  0  0  0  0
 24 34  1  0  0  0  0
 24 35  1  0  0  0  0
 39 44  1  0  0  0  0
  8 13  1  0  0  0  0
 18 27  1  0  0  0  0
 25 36  1  0  0  0  0
 25 37  1  0  0  0  0
 48 50  1  0  0  0  0
  7 12  1  0  0  0  0
 38 43  1  0  0  0  0
 17 26  1  0  0  0  0
M  END
$$$$

  -OEChem-05262214473D

 53 52  0     1  0  0  0  0  0999 V2000
   -1.0338   -5.6785    0.1476 C   0  0  0  0  0  0  0  0  0  0  0  0
   -2.0514   -5.7797    0.8227 O   0  0  0  0  0  0  0  0  0  0  0  0
   -0.6558   -6.7819   -0.7841 C   0  0  0  0  0  0  0  0  0  0  0  0
   -0.0111   -7.5354   -0.3038 H   0  0  0  0  0  0  0  0  0  0  0  0
   -1.5317   -7.3401   -1.1520 H   0  0  0  0  0  0  0  0  0  0  0  0
   -0.1109   -6.4687   -1.6890 H   0  0  0  0  0  0  0  0  0  0  0  0
   -0.1543   -4.6083    0.1480 N   0  0  0  0  0  0  0  0  0  0  0  0
   -0.3302   -3.4398    0.9696 C   0  0  2  0  0  0  0  0  0  0  0  0
    0.2328   -2.2439    0.2131 C   0  0  0  0  0  0  0  0  0  0  0  0
    1.2097   -2.3192   -0.5294 O   0  0  0  0  0  0  0  0  0  0  0  0
    0.3557   -3.6024    2.3171 C   0  0  0  0  0  0  0  0  0  0  0  0
    0.6584   -4.6506   -0.4643 H   0  0  0  0  0  0  0  0  0  0  0  0
   -1.4091   -3.3101    1.1082 H   0  0  0  0  0  0  0  0  0  0  0  0
    1.4375   -3.7336    2.1985 H   0  0  0  0  0  0  0  0  0  0  0  0
    0.1969   -2.7243    2.9517 H   0  0  0  0  0  0  0  0  0  0  0  0
   -0.0294   -4.4803    2.8470 H   0  0  0  0  0  0  0  0  0  0  0  0
   -0.4616   -1.0893    0.5050 N   0  0  0  0  0  0  0  0  0  0  0  0
   -0.0884    0.2050   -0.0621 C   0  0  2  0  0  0  0  0  0  0  0  0
    0.9092    0.8570    0.8912 C   0  0  0  0  0  0  0  0  0  0  0  0
    2.0775    0.4882    0.9934 O   0  0  0  0  0  0  0  0  0  0  0  0
   -1.3000    1.1312   -0.2452 C   0  0  0  0  0  0  0  0  0  0  0  0
   -2.2760    0.6496   -1.3237 C   0  0  0  0  0  0  0  0  0  0  0  0
   -3.4497    1.6199   -1.4819 C   0  0  0  0  0  0  0  0  0  0  0  0
   -4.4353    1.1268   -2.5400 C   0  0  0  0  0  0  0  0  0  0  0  0
   -5.5561    2.0518   -2.6582 N   0  0  0  0  0  0  0  0  0  0  0  0
   -1.2794   -1.1113    1.0935 H   0  0  0  0  0  0  0  0  0  0  0  0
    0.3995    0.0341   -1.0292 H   0  0  0  0  0  0  0  0  0  0  0  0
   -0.9469    2.1364   -0.5109 H   0  0  0  0  0  0  0  0  0  0  0  0
   -1.8329    1.2427    0.7089 H   0  0  0  0  0  0  0  0  0  0  0  0
   -2.6643   -0.3423   -1.0664 H   0  0  0  0  0  0  0  0  0  0  0  0
   -1.7477    0.5552   -2.2801 H   0  0  0  0  0  0  0  0  0  0  0  0
   -3.9626    1.7314   -0.5182 H   0  0  0  0  0  0  0  0  0  0  0  0
   -3.0701    2.6107   -1.7622 H   0  0  0  0  0  0  0  0  0  0  0  0
   -4.8115    0.1330   -2.2737 H   0  0  0  0  0  0  0  0  0  0  0  0
   -3.9358    1.0453   -3.5112 H   0  0  0  0  0  0  0  0  0  0  0  0
   -5.4279    2.7846   -2.0000 H   0  0  0  0  0  0  0  0  0  0  0  0
   -5.5676    2.4120   -3.5837 H   0  0  0  0  0  0  0  0  0  0  0  0
    0.3336    1.8827    1.6283 N   0  0  0  0  0  0  0  0  0  0  0  0
    1.0557    2.6487    2.6185 C   0  0  2  0  0  0  0  0  0  0  0  0
    0.0743    3.0455    3.7135 C   0  0  0  0  0  0  0  0  0  0  0  0
   -1.1074    3.3031    3.4940 O   0  0  0  0  0  0  0  0  0  0  0  0
    1.7071    3.8764    2.0014 C   0  0  0  0  0  0  0  0  0  0  0  0
   -0.6400    2.1244    1.4689 H   0  0  0  0  0  0  0  0  0  0  0  0
    1.8205    1.9847    3.0359 H   0  0  0  0  0  0  0  0  0  0  0  0
    0.9563    4.5535    1.5780 H   0  0  0  0  0  0  0  0  0  0  0  0
    2.2774    4.4401    2.7471 H   0  0  0  0  0  0  0  0  0  0  0  0
    2.3902    3.5910    1.1941 H   0  0  0  0  0  0  0  0  0  0  0  0
    0.6835    3.1201    4.9583 N   0  0  0  0  0  0  0  0  0  0  0  0
   -0.0269    3.5178    6.1513 C   0  0  0  0  0  0  0  0  0  0  0  0
    1.6580    2.8504    5.0547 H   0  0  0  0  0  0  0  0  0  0  0  0
    0.0804    4.6027    6.2981 H   0  0  0  0  0  0  0  0  0  0  0  0
   -1.0923    3.2659    6.0447 H   0  0  0  0  0  0  0  0  0  0  0  0
    0.3901    2.9874    7.0201 H   0  0  0  0  0  0  0  0  0  0  0  0
  1  3  1  0  0  0  0
  1  7  1  0  0  0  0
  1  2  2  0  0  0  0
 39 40  1  0  0  0  0
 40 48  1  0  0  0  0
 40 41  2  0  0  0  0
  8  9  1  0  0  0  0
  9 17  1  0  0  0  0
  9 10  2  0  0  0  0
 18 19  1  0  0  0  0
 19 38  1  0  0  0  0
 19 20  2  0  0  0  0
 39 42  1  0  0  0  0
  8 11  1  0  0  0  0
 48 49  1  0  0  0  0
 22 23  1  0  0  0  0
 21 22  1  0  0  0  0
 23 24  1  0  0  0  0
 18 21  1  0  0  0  0
 24 25  1  0  0  0  0
 38 39  1  0  0  0  0
  7  8  1  0  0  0  0
 17 18  1  0  0  0  0
  3  4  1  0  0  0  0
  3  5  1  0  0  0  0
  3  6  1  0  0  0  0
 42 45  1  0  0  0  0
 42 46  1  0  0  0  0
 42 47  1  0  0  0  0
 11 14  1  0  0  0  0
 11 15  1  0  0  0  0
 11 16  1  0  0  0  0
 49 51  1  0  0  0  0
 49 52  1  0  0  0  0
 49 53  1  0  0  0  0
 22 30  1  0  0  0  0
 22 31  1  0  0  0  0
 23 32  1  0  0  0  0
 23 33  1  0  0  0  0
 21 28  1  0  0  0  0
 21 29  1  0  0  0  0
 24 34  1  0  0  0  0
 24 35  1  0  0  0  0
 39 44  1  0  0  0  0
  8 13  1  0  0  0  0
 18 27  1  0  0  0  0
 25 36  1  0  0  0  0
 25 37  1  0  0  0  0
 48 50  1  0  0  0  0
  7 12  1  0  0  0  0
 38 43  1  0  0  0  0
 17 26  1  0  0  0  0
M  END
$$$$

  -OEChem-05262214473D

 53 52  0     1  0  0  0  0  0999 V2000
   -1.0338   -5.6785    0.1476 C   0  0  0  0  0  0  0  0  0  0  0  0
   -2.0514   -5.7797    0.8227 O   0  0  0  0  0  0  0  0  0  0  0  0
   -0.6558   -6.7819   -0.7841 C   0  0  0  0  0  0  0  0  0  0  0  0
   -0.0111   -7.5354   -0.3038 H   0  0  0  0  0  0  0  0  0  0  0  0
   -1.5317   -7.3401   -1.1520 H   0  0  0  0  0  0  0  0  0  0  0  0
   -0.1109   -6.4687   -1.6890 H   0  0  0  0  0  0  0  0  0  0  0  0
   -0.1543   -4.6083    0.1480 N   0  0  0  0  0  0  0  0  0  0  0  0
   -0.3302   -3.4398    0.9696 C   0  0  2  0  0  0  0  0  0  0  0  0
    0.2328   -2.2439    0.2131 C   0  0  0  0  0  0  0  0  0  0  0  0
    1.2097   -2.3192   -0.5294 O   0  0  0  0  0  0  0  0  0  0  0  0
    0.3557   -3.6024    2.3171 C   0  0  0  0  0  0  0  0  0  0  0  0
    0.6584   -4.6506   -0.4643 H   0  0  0  0  0  0  0  0  0  0  0  0
   -1.4091   -3.3101    1.1082 H   0  0  0  0  0  0  0  0  0  0  0  0
    1.4375   -3.7336    2.1985 H   0  0  0  0  0  0  0  0  0  0  0  0
    0.1969   -2.7243    2.9517 H   0  0  0  0  0  0  0  0  0  0  0  0
   -0.0294   -4.4803    2.8470 H   0  0  0  0  0  0  0  0  0  0  0  0
   -0.4616   -1.0893    0.5050 N   0  0  0  0  0  0  0  0  0  0  0  0
   -0.0884    0.2050   -0.0621 C   0  0  2  0  0  0  0  0  0  0  0  0
    0.9092    0.8570    0.8912 C   0  0  0  0  0  0  0  0  0  0  0  0
    2.1236    0.6821    0.8126 O   0  0  0  0  0  0  0  0  0  0  0  0
   -1.3000    1.1312   -0.2452 C   0  0  0  0  0  0  0  0  0  0  0  0
   -2.2760    0.6496   -1.3237 C   0  0  0  0  0  0  0  0  0  0  0  0
   -3.4497    1.6199   -1.4819 C   0  0  0  0  0  0  0  0  0  0  0  0
   -4.4353    1.1268   -2.5400 C   0  0  0  0  0  0  0  0  0  0  0  0
   -5.5561    2.0518   -2.6582 N   0  0  0  0  0  0  0  0  0  0  0  0
   -1.2794   -1.1113    1.0935 H   0  0  0  0  0  0  0  0  0  0  0  0
    0.3995    0.0341   -1.0292 H   0  0  0  0  0  0  0  0  0  0  0  0
   -0.9469    2.1364   -0.5109 H   0  0  0  0  0  0  0  0  0  0  0  0
   -1.8329    1.2427    0.7089 H   0  0  0  0  0  0  0  0  0  0  0  0
   -2.6643   -0.3423   -1.0664 H   0  0  0  0  0  0  0  0  0  0  0  0
   -1.7477    0.5552   -2.2801 H   0  0  0  0  0  0  0  0  0  0  0  0
   -3.9626    1.7314   -0.5182 H   0  0  0  0  0  0  0  0  0  0  0  0
   -3.0701    2.6107   -1.7622 H   0  0  0  0  0  0  0  0  0  0  0  0
   -4.8115    0.1330   -2.2737 H   0  0  0  0  0  0  0  0  0  0  0  0
   -3.9358    1.0453   -3.5112 H   0  0  0  0  0  0  0  0  0  0  0  0
   -5.4279    2.7846   -2.0000 H   0  0  0  0  0  0  0  0  0  0  0  0
   -5.5676    2.4120   -3.5837 H   0  0  0  0  0  0  0  0  0  0  0  0
    0.2805    1.6376    1.8514 N   0  0  0  0  0  0  0  0  0  0  0  0
    0.9952    2.3473    2.8879 C   0  0  2  0  0  0  0  0  0  0  0  0
    0.1089    2.3898    4.1257 C   0  0  0  0  0  0  0  0  0  0  0  0
   -1.1163    2.4731    4.0709 O   0  0  0  0  0  0  0  0  0  0  0  0
    1.3703    3.7512    2.4395 C   0  0  0  0  0  0  0  0  0  0  0  0
   -0.7307    1.7314    1.8326 H   0  0  0  0  0  0  0  0  0  0  0  0
    1.8981    1.7660    3.1043 H   0  0  0  0  0  0  0  0  0  0  0  0
    0.4784    4.3487    2.2182 H   0  0  0  0  0  0  0  0  0  0  0  0
    1.9365    4.2774    3.2151 H   0  0  0  0  0  0  0  0  0  0  0  0
    1.9830    3.7199    1.5321 H   0  0  0  0  0  0  0  0  0  0  0  0
    0.8498    2.3673    5.2991 N   0  0  0  0  0  0  0  0  0  0  0  0
    0.2413    2.4413    6.6069 C   0  0  0  0  0  0  0  0  0  0  0  0
    1.8583    2.2565    5.2512 H   0  0  0  0  0  0  0  0  0  0  0  0
    0.1996    3.4909    6.9336 H   0  0  0  0  0  0  0  0  0  0  0  0
   -0.7783    2.0311    6.5605 H   0  0  0  0  0  0  0  0  0  0  0  0
    0.8390    1.8580    7.3228 H   0  0  0  0  0  0  0  0  0  0  0  0
  1  3  1  0  0  0  0
  1  7  1  0  0  0  0
  1  2  2  0  0  0  0
 39 40  1  0  0  0  0
 40 48  1  0  0  0  0
 40 41  2  0  0  0  0
  8  9  1  0  0  0  0
  9 17  1  0  0  0  0
  9 10  2  0  0  0  0
 18 19  1  0  0  0  0
 19 38  1  0  0  0  0
 19 20  2  0  0  0  0
 39 42  1  0  0  0  0
  8 11  1  0  0  0  0
 48 49  1  0  0  0  0
 22 23  1  0  0  0  0
 21 22  1  0  0  0  0
 23 24  1  0  0  0  0
 18 21  1  0  0  0  0
 24 25  1  0  0  0  0
 38 39  1  0  0  0  0
  7  8  1  0  0  0  0
 17 18  1  0  0  0  0
  3  4  1  0  0  0  0
  3  5  1  0  0  0  0
  3  6  1  0  0  0  0
 42 45  1  0  0  0  0
 42 46  1  0  0  0  0
 42 47  1  0  0  0  0
 11 14  1  0  0  0  0
 11 15  1  0  0  0  0
 11 16  1  0  0  0  0
 49 51  1  0  0  0  0
 49 52  1  0  0  0  0
 49 53  1  0  0  0  0
 22 30  1  0  0  0  0
 22 31  1  0  0  0  0
 23 32  1  0  0  0  0
 23 33  1  0  0  0  0
 21 28  1  0  0  0  0
 21 29  1  0  0  0  0
 24 34  1  0  0  0  0
 24 35  1  0  0  0  0
 39 44  1  0  0  0  0
  8 13  1  0  0  0  0
 18 27  1  0  0  0  0
 25 36  1  0  0  0  0
 25 37  1  0  0  0  0
 48 50  1  0  0  0  0
  7 12  1  0  0  0  0
 38 43  1  0  0  0  0
 17 26  1  0  0  0  0
M  END
$$$$

  -OEChem-05262214473D

 53 52  0     1  0  0  0  0  0999 V2000
   -1.0338   -5.6785    0.1476 C   0  0  0  0  0  0  0  0  0  0  0  0
   -2.0514   -5.7797    0.8227 O   0  0  0  0  0  0  0  0  0  0  0  0
   -0.6558   -6.7819   -0.7841 C   0  0  0  0  0  0  0  0  0  0  0  0
   -0.0111   -7.5354   -0.3038 H   0  0  0  0  0  0  0  0  0  0  0  0
   -1.5317   -7.3401   -1.1520 H   0  0  0  0  0  0  0  0  0  0  0  0
   -0.1109   -6.4687   -1.6890 H   0  0  0  0  0  0  0  0  0  0  0  0
   -0.1543   -4.6083    0.1480 N   0  0  0  0  0  0  0  0  0  0  0  0
   -0.3302   -3.4398    0.9696 C   0  0  2  0  0  0  0  0  0  0  0  0
    0.2328   -2.2439    0.2131 C   0  0  0  0  0  0  0  0  0  0  0  0
    1.2097   -2.3192   -0.5294 O   0  0  0  0  0  0  0  0  0  0  0  0
    0.3557   -3.6024    2.3171 C   0  0  0  0  0  0  0  0  0  0  0  0
    0.6584   -4.6506   -0.4643 H   0  0  0  0  0  0  0  0  0  0  0  0
   -1.4091   -3.3101    1.1082 H   0  0  0  0  0  0  0  0  0  0  0  0
    1.4375   -3.7336    2.1985 H   0  0  0  0  0  0  0  0  0  0  0  0
    0.1969   -2.7243    2.9517 H   0  0  0  0  0  0  0  0  0  0  0  0
   -0.0294   -4.4803    2.8470 H   0  0  0  0  0  0  0  0  0  0  0  0
   -0.4616   -1.0893    0.5050 N   0  0  0  0  0  0  0  0  0  0  0  0
   -0.0884    0.2050   -0.0621 C   0  0  2  0  0  0  0  0  0  0  0  0
    0.9092    0.8570    0.8912 C   0  0  0  0  0  0  0  0  0  0  0  0
    2.1167    0.9075    0.6657 O   0  0  0  0  0  0  0  0  0  0  0  0
   -1.3000    1.1312   -0.2452 C   0  0  0  0  0  0  0  0  0  0  0  0
   -2.2760    0.6496   -1.3237 C   0  0  0  0  0  0  0  0  0  0  0  0
   -3.4497    1.6199   -1.4819 C   0  0  0  0  0  0  0  0  0  0  0  0
   -4.4353    1.1268   -2.5400 C   0  0  0  0  0  0  0  0  0  0  0  0
   -5.5561    2.0518   -2.6582 N   0  0  0  0  0  0  0  0  0  0  0  0
   -1.2794   -1.1113    1.0935 H   0  0  0  0  0  0  0  0  0  0  0  0
    0.3995    0.0341   -1.0292 H   0  0  0  0  0  0  0  0  0  0  0  0
   -0.9469    2.1364   -0.5109 H   0  0  0  0  0  0  0  0  0  0  0  0
   -1.8329    1.2427    0.7089 H   0  0  0  0  0  0  0  0  0  0  0  0
   -2.6643   -0.3423   -1.0664 H   0  0  0  0  0  0  0  0  0  0  0  0
   -1.7477    0.5552   -2.2801 H   0  0  0  0  0  0  0  0  0  0  0  0
   -3.9626    1.7314   -0.5182 H   0  0  0  0  0  0  0  0  0  0  0  0
   -3.0701    2.6107   -1.7622 H   0  0  0  0  0  0  0  0  0  0  0  0
   -4.8115    0.1330   -2.2737 H   0  0  0  0  0  0  0  0  0  0  0  0
   -3.9358    1.0453   -3.5112 H   0  0  0  0  0  0  0  0  0  0  0  0
   -5.4279    2.7846   -2.0000 H   0  0  0  0  0  0  0  0  0  0  0  0
   -5.5676    2.4120   -3.5837 H   0  0  0  0  0  0  0  0  0  0  0  0
    0.2935    1.3545    2.0314 N   0  0  0  0  0  0  0  0  0  0  0  0
    1.0153    2.0009    3.1038 C   0  0  2  0  0  0  0  0  0  0  0  0
    0.2939    1.6923    4.4091 C   0  0  0  0  0  0  0  0  0  0  0  0
   -0.9269    1.5723    4.4888 O   0  0  0  0  0  0  0  0  0  0  0  0
    1.1137    3.5017    2.8788 C   0  0  0  0  0  0  0  0  0  0  0  0
   -0.7145    1.2756    2.1274 H   0  0  0  0  0  0  0  0  0  0  0  0
    2.0160    1.5557    3.1248 H   0  0  0  0  0  0  0  0  0  0  0  0
    0.1207    3.9653    2.8547 H   0  0  0  0  0  0  0  0  0  0  0  0
    1.6853    3.9860    3.6773 H   0  0  0  0  0  0  0  0  0  0  0  0
    1.6062    3.7213    1.9254 H   0  0  0  0  0  0  0  0  0  0  0  0
    1.1698    1.6094    5.4825 N   0  0  0  0  0  0  0  0  0  0  0  0
    0.7248    1.3678    6.8351 C   0  0  0  0  0  0  0  0  0  0  0  0
    2.1696    1.6820    5.3184 H   0  0  0  0  0  0  0  0  0  0  0  0
    0.5649    2.3287    7.3462 H   0  0  0  0  0  0  0  0  0  0  0  0
   -0.2183    0.8019    6.8151 H   0  0  0  0  0  0  0  0  0  0  0  0
    1.4887    0.7885    7.3744 H   0  0  0  0  0  0  0  0  0  0  0  0
  1  3  1  0  0  0  0
  1  7  1  0  0  0  0
  1  2  2  0  0  0  0
 39 40  1  0  0  0  0
 40 48  1  0  0  0  0
 40 41  2  0  0  0  0
  8  9  1  0  0  0  0
  9 17  1  0  0  0  0
  9 10  2  0  0  0  0
 18 19  1  0  0  0  0
 19 38  1  0  0  0  0
 19 20  2  0  0  0  0
 39 42  1  0  0  0  0
  8 11  1  0  0  0  0
 48 49  1  0  0  0  0
 22 23  1  0  0  0  0
 21 22  1  0  0  0  0
 23 24  1  0  0  0  0
 18 21  1  0  0  0  0
 24 25  1  0  0  0  0
 38 39  1  0  0  0  0
  7  8  1  0  0  0  0
 17 18  1  0  0  0  0
  3  4  1  0  0  0  0
  3  5  1  0  0  0  0
  3  6  1  0  0  0  0
 42 45  1  0  0  0  0
 42 46  1  0  0  0  0
 42 47  1  0  0  0  0
 11 14  1  0  0  0  0
 11 15  1  0  0  0  0
 11 16  1  0  0  0  0
 49 51  1  0  0  0  0
 49 52  1  0  0  0  0
 49 53  1  0  0  0  0
 22 30  1  0  0  0  0
 22 31  1  0  0  0  0
 23 32  1  0  0  0  0
 23 33  1  0  0  0  0
 21 28  1  0  0  0  0
 21 29  1  0  0  0  0
 24 34  1  0  0  0  0
 24 35  1  0  0  0  0
 39 44  1  0  0  0  0
  8 13  1  0  0  0  0
 18 27  1  0  0  0  0
 25 36  1  0  0  0  0
 25 37  1  0  0  0  0
 48 50  1  0  0  0  0
  7 12  1  0  0  0  0
 38 43  1  0  0  0  0
 17 26  1  0  0  0  0
M  END
$$$$

  -OEChem-05262214473D

 53 52  0     1  0  0  0  0  0999 V2000
   -1.0338   -5.6785    0.1476 C   0  0  0  0  0  0  0  0  0  0  0  0
   -2.0514   -5.7797    0.8227 O   0  0  0  0  0  0  0  0  0  0  0  0
   -0.6558   -6.7819   -0.7841 C   0  0  0  0  0  0  0  0  0  0  0  0
   -0.0111   -7.5354   -0.3038 H   0  0  0  0  0  0  0  0  0  0  0  0
   -1.5317   -7.3401   -1.1520 H   0  0  0  0  0  0  0  0  0  0  0  0
   -0.1109   -6.4687   -1.6890 H   0  0  0  0  0  0  0  0  0  0  0  0
   -0.1543   -4.6083    0.1480 N   0  0  0  0  0  0  0  0  0  0  0  0
   -0.3302   -3.4398    0.9696 C   0  0  2  0  0  0  0  0  0  0  0  0
    0.2328   -2.2439    0.2131 C   0  0  0  0  0  0  0  0  0  0  0  0
    1.2097   -2.3192   -0.5294 O   0  0  0  0  0  0  0  0  0  0  0  0
    0.3557   -3.6024    2.3171 C   0  0  0  0  0  0  0  0  0  0  0  0
    0.6584   -4.6506   -0.4643 H   0  0  0  0  0  0  0  0  0  0  0  0
   -1.4091   -3.3101    1.1082 H   0  0  0  0  0  0  0  0  0  0  0  0
    1.4375   -3.7336    2.1985 H   0  0  0  0  0  0  0  0  0  0  0  0
    0.1969   -2.7243    2.9517 H   0  0  0  0  0  0  0  0  0  0  0  0
   -0.0294   -4.4803    2.8470 H   0  0  0  0  0  0  0  0  0  0  0  0
   -0.4616   -1.0893    0.5050 N   0  0  0  0  0  0  0  0  0  0  0  0
   -0.0884    0.2050   -0.0621 C   0  0  2  0  0  0  0  0  0  0  0  0
    0.9092    0.8570    0.8912 C   0  0  0  0  0  0  0  0  0  0  0  0
    2.0574    1.1489    0.5627 O   0  0  0  0  0  0  0  0  0  0  0  0
   -1.3000    1.1312   -0.2452 C   0  0  0  0  0  0  0  0  0  0  0  0
   -2.2760    0.6496   -1.3237 C   0  0  0  0  0  0  0  0  0  0  0  0
   -3.4497    1.6199   -1.4819 C   0  0  0  0  0  0  0  0  0  0  0  0
   -4.4353    1.1268   -2.5400 C   0  0  0  0  0  0  0  0  0  0  0  0
   -5.5561    2.0518   -2.6582 N   0  0  0  0  0  0  0  0  0  0  0  0
   -1.2794   -1.1113    1.0935 H   0  0  0  0  0  0  0  0  0  0  0  0
    0.3995    0.0341   -1.0292 H   0  0  0  0  0  0  0  0  0  0  0  0
   -0.9469    2.1364   -0.5109 H   0  0  0  0  0  0  0  0  0  0  0  0
   -1.8329    1.2427    0.7089 H   0  0  0  0  0  0  0  0  0  0  0  0
   -2.6643   -0.3423   -1.0664 H   0  0  0  0  0  0  0  0  0  0  0  0
   -1.7477    0.5552   -2.2801 H   0  0  0  0  0  0  0  0  0  0  0  0
   -3.9626    1.7314   -0.5182 H   0  0  0  0  0  0  0  0  0  0  0  0
   -3.0701    2.6107   -1.7622 H   0  0  0  0  0  0  0  0  0  0  0  0
   -4.8115    0.1330   -2.2737 H   0  0  0  0  0  0  0  0  0  0  0  0
   -3.9358    1.0453   -3.5112 H   0  0  0  0  0  0  0  0  0  0  0  0
   -5.4279    2.7846   -2.0000 H   0  0  0  0  0  0  0  0  0  0  0  0
   -5.5676    2.4120   -3.5837 H   0  0  0  0  0  0  0  0  0  0  0  0
    0.3717    1.0527    2.1559 N   0  0  0  0  0  0  0  0  0  0  0  0
    1.1146    1.6330    3.2515 C   0  0  2  0  0  0  0  0  0  0  0  0
    0.6167    1.0005    4.5444 C   0  0  0  0  0  0  0  0  0  0  0  0
   -0.5521    0.6621    4.7190 O   0  0  0  0  0  0  0  0  0  0  0  0
    0.9546    3.1448    3.2892 C   0  0  0  0  0  0  0  0  0  0  0  0
   -0.5927    0.7881    2.3333 H   0  0  0  0  0  0  0  0  0  0  0  0
    2.1661    1.3681    3.0960 H   0  0  0  0  0  0  0  0  0  0  0  0
   -0.0925    3.4294    3.4442 H   0  0  0  0  0  0  0  0  0  0  0  0
    1.5408    3.5857    4.1022 H   0  0  0  0  0  0  0  0  0  0  0  0
    1.2855    3.5953    2.3472 H   0  0  0  0  0  0  0  0  0  0  0  0
    1.6218    0.8981    5.4961 N   0  0  0  0  0  0  0  0  0  0  0  0
    1.3905    0.3705    6.8205 C   0  0  0  0  0  0  0  0  0  0  0  0
    2.5705    1.1661    5.2516 H   0  0  0  0  0  0  0  0  0  0  0  0
    1.1511    1.1954    7.5077 H   0  0  0  0  0  0  0  0  0  0  0  0
    0.5495   -0.3379    6.7912 H   0  0  0  0  0  0  0  0  0  0  0  0
    2.2948   -0.1483    7.1715 H   0  0  0  0  0  0  0  0  0  0  0  0
  1  3  1  0  0  0  0
  1  7  1  0  0  0  0
  1  2  2  0  0  0  0
 39 40  1  0  0  0  0
 40 48  1  0  0  0  0
 40 41  2  0  0  0  0
  8  9  1  0  0  0  0
  9 17  1  0  0  0  0
  9 10  2  0  0  0  0
 18 19  1  0  0  0  0
 19 38  1  0  0  0  0
 19 20  2  0  0  0  0
 39 42  1  0  0  0  0
  8 11  1  0  0  0  0
 48 49  1  0  0  0  0
 22 23  1  0  0  0  0
 21 22  1  0  0  0  0
 23 24  1  0  0  0  0
 18 21  1  0  0  0  0
 24 25  1  0  0  0  0
 38 39  1  0  0  0  0
  7  8  1  0  0  0  0
 17 18  1  0  0  0  0
  3  4  1  0  0  0  0
  3  5  1  0  0  0  0
  3  6  1  0  0  0  0
 42 45  1  0  0  0  0
 42 46  1  0  0  0  0
 42 47  1  0  0  0  0
 11 14  1  0  0  0  0
 11 15  1  0  0  0  0
 11 16  1  0  0  0  0
 49 51  1  0  0  0  0
 49 52  1  0  0  0  0
 49 53  1  0  0  0  0
 22 30  1  0  0  0  0
 22 31  1  0  0  0  0
 23 32  1  0  0  0  0
 23 33  1  0  0  0  0
 21 28  1  0  0  0  0
 21 29  1  0  0  0  0
 24 34  1  0  0  0  0
 24 35  1  0  0  0  0
 39 44  1  0  0  0  0
  8 13  1  0  0  0  0
 18 27  1  0  0  0  0
 25 36  1  0  0  0  0
 25 37  1  0  0  0  0
 48 50  1  0  0  0  0
  7 12  1  0  0  0  0
 38 43  1  0  0  0  0
 17 26  1  0  0  0  0
M  END
$$$$

  -OEChem-05262214473D

 53 52  0     1  0  0  0  0  0999 V2000
   -1.0338   -5.6785    0.1476 C   0  0  0  0  0  0  0  0  0  0  0  0
   -2.0514   -5.7797    0.8227 O   0  0  0  0  0  0  0  0  0  0  0  0
   -0.6558   -6.7819   -0.7841 C   0  0  0  0  0  0  0  0  0  0  0  0
   -0.0111   -7.5354   -0.3038 H   0  0  0  0  0  0  0  0  0  0  0  0
   -1.5317   -7.3401   -1.1520 H   0  0  0  0  0  0  0  0  0  0  0  0
   -0.1109   -6.4687   -1.6890 H   0  0  0  0  0  0  0  0  0  0  0  0
   -0.1543   -4.6083    0.1480 N   0  0  0  0  0  0  0  0  0  0  0  0
   -0.3302   -3.4398    0.9696 C   0  0  2  0  0  0  0  0  0  0  0  0
    0.2328   -2.2439    0.2131 C   0  0  0  0  0  0  0  0  0  0  0  0
    1.2097   -2.3192   -0.5294 O   0  0  0  0  0  0  0  0  0  0  0  0
    0.3557   -3.6024    2.3171 C   0  0  0  0  0  0  0  0  0  0  0  0
    0.6584   -4.6506   -0.4643 H   0  0  0  0  0  0  0  0  0  0  0  0
   -1.4091   -3.3101    1.1082 H   0  0  0  0  0  0  0  0  0  0  0  0
    1.4375   -3.7336    2.1985 H   0  0  0  0  0  0  0  0  0  0  0  0
    0.1969   -2.7243    2.9517 H   0  0  0  0  0  0  0  0  0  0  0  0
   -0.0294   -4.4803    2.8470 H   0  0  0  0  0  0  0  0  0  0  0  0
   -0.4616   -1.0893    0.5050 N   0  0  0  0  0  0  0  0  0  0  0  0
   -0.0884    0.2050   -0.0621 C   0  0  2  0  0  0  0  0  0  0  0  0
    0.9092    0.8570    0.8912 C   0  0  0  0  0  0  0  0  0  0  0  0
    1.9496    1.3899    0.5106 O   0  0  0  0  0  0  0  0  0  0  0  0
   -1.3000    1.1312   -0.2452 C   0  0  0  0  0  0  0  0  0  0  0  0
   -2.2760    0.6496   -1.3237 C   0  0  0  0  0  0  0  0  0  0  0  0
   -3.4497    1.6199   -1.4819 C   0  0  0  0  0  0  0  0  0  0  0  0
   -4.4353    1.1268   -2.5400 C   0  0  0  0  0  0  0  0  0  0  0  0
   -5.5561    2.0518   -2.6582 N   0  0  0  0  0  0  0  0  0  0  0  0
   -1.2794   -1.1113    1.0935 H   0  0  0  0  0  0  0  0  0  0  0  0
    0.3995    0.0341   -1.0292 H   0  0  0  0  0  0  0  0  0  0  0  0
   -0.9469    2.1364   -0.5109 H   0  0  0  0  0  0  0  0  0  0  0  0
   -1.8329    1.2427    0.7089 H   0  0  0  0  0  0  0  0  0  0  0  0
   -2.6643   -0.3423   -1.0664 H   0  0  0  0  0  0  0  0  0  0  0  0
   -1.7477    0.5552   -2.2801 H   0  0  0  0  0  0  0  0  0  0  0  0
   -3.9626    1.7314   -0.5182 H   0  0  0  0  0  0  0  0  0  0  0  0
   -3.0701    2.6107   -1.7622 H   0  0  0  0  0  0  0  0  0  0  0  0
   -4.8115    0.1330   -2.2737 H   0  0  0  0  0  0  0  0  0  0  0  0
   -3.9358    1.0453   -3.5112 H   0  0  0  0  0  0  0  0  0  0  0  0
   -5.4279    2.7846   -2.0000 H   0  0  0  0  0  0  0  0  0  0  0  0
   -5.5676    2.4120   -3.5837 H   0  0  0  0  0  0  0  0  0  0  0  0
    0.5099    0.7528    2.2165 N   0  0  0  0  0  0  0  0  0  0  0  0
    1.2863    1.2686    3.3209 C   0  0  2  0  0  0  0  0  0  0  0  0
    1.0553    0.3616    4.5224 C   0  0  0  0  0  0  0  0  0  0  0  0
   -0.0174   -0.1954    4.7459 O   0  0  0  0  0  0  0  0  0  0  0  0
    0.9041    2.7050    3.6428 C   0  0  0  0  0  0  0  0  0  0  0  0
   -0.3734    0.3020    2.4362 H   0  0  0  0  0  0  0  0  0  0  0  0
    2.3382    1.2161    3.0198 H   0  0  0  0  0  0  0  0  0  0  0  0
   -0.1465    2.7775    3.9466 H   0  0  0  0  0  0  0  0  0  0  0  0
    1.5130    3.1037    4.4609 H   0  0  0  0  0  0  0  0  0  0  0  0
    1.0427    3.3504    2.7687 H   0  0  0  0  0  0  0  0  0  0  0  0
    2.1748    0.2817    5.3388 N   0  0  0  0  0  0  0  0  0  0  0  0
    2.1932   -0.4828    6.5641 C   0  0  0  0  0  0  0  0  0  0  0  0
    3.0339    0.7438    5.0556 H   0  0  0  0  0  0  0  0  0  0  0  0
    1.9186    0.1681    7.4072 H   0  0  0  0  0  0  0  0  0  0  0  0
    1.4728   -1.3107    6.4903 H   0  0  0  0  0  0  0  0  0  0  0  0
    3.2025   -0.8885    6.7278 H   0  0  0  0  0  0  0  0  0  0  0  0
  1  3  1  0  0  0  0
  1  7  1  0  0  0  0
  1  2  2  0  0  0  0
 39 40  1  0  0  0  0
 40 48  1  0  0  0  0
 40 41  2  0  0  0  0
  8  9  1  0  0  0  0
  9 17  1  0  0  0  0
  9 10  2  0  0  0  0
 18 19  1  0  0  0  0
 19 38  1  0  0  0  0
 19 20  2  0  0  0  0
 39 42  1  0  0  0  0
  8 11  1  0  0  0  0
 48 49  1  0  0  0  0
 22 23  1  0  0  0  0
 21 22  1  0  0  0  0
 23 24  1  0  0  0  0
 18 21  1  0  0  0  0
 24 25  1  0  0  0  0
 38 39  1  0  0  0  0
  7  8  1  0  0  0  0
 17 18  1  0  0  0  0
  3  4  1  0  0  0  0
  3  5  1  0  0  0  0
  3  6  1  0  0  0  0
 42 45  1  0  0  0  0
 42 46  1  0  0  0  0
 42 47  1  0  0  0  0
 11 14  1  0  0  0  0
 11 15  1  0  0  0  0
 11 16  1  0  0  0  0
 49 51  1  0  0  0  0
 49 52  1  0  0  0  0
 49 53  1  0  0  0  0
 22 30  1  0  0  0  0
 22 31  1  0  0  0  0
 23 32  1  0  0  0  0
 23 33  1  0  0  0  0
 21 28  1  0  0  0  0
 21 29  1  0  0  0  0
 24 34  1  0  0  0  0
 24 35  1  0  0  0  0
 39 44  1  0  0  0  0
  8 13  1  0  0  0  0
 18 27  1  0  0  0  0
 25 36  1  0  0  0  0
 25 37  1  0  0  0  0
 48 50  1  0  0  0  0
  7 12  1  0  0  0  0
 38 43  1  0  0  0  0
 17 26  1  0  0  0  0
M  END
$$$$

  -OEChem-05262214473D

 53 52  0     1  0  0  0  0  0999 V2000
   -1.0338   -5.6785    0.1476 C   0  0  0  0  0  0  0  0  0  0  0  0
   -2.0514   -5.7797    0.8227 O   0  0  0  0  0  0  0  0  0  0  0  0
   -0.6558   -6.7819   -0.7841 C   0  0  0  0  0  0  0  0  0  0  0  0
   -0.0111   -7.5354   -0.3038 H   0  0  0  0  0  0  0  0  0  0  0  0
   -1.5317   -7.3401   -1.1520 H   0  0  0  0  0  0  0  0  0  0  0  0
   -0.1109   -6.4687   -1.6890 H   0  0  0  0  0  0  0  0  0  0  0  0
   -0.1543   -4.6083    0.1480 N   0  0  0  0  0  0  0  0  0  0  0  0
   -0.3302   -3.4398    0.9696 C   0  0  2  0  0  0  0  0  0  0  0  0
    0.2328   -2.2439    0.2131 C   0  0  0  0  0  0  0  0  0  0  0  0
    1.2097   -2.3192   -0.5294 O   0  0  0  0  0  0  0  0  0  0  0  0
    0.3557   -3.6024    2.3171 C   0  0  0  0  0  0  0  0  0  0  0  0
    0.6584   -4.6506   -0.4643 H   0  0  0  0  0  0  0  0  0  0  0  0
   -1.4091   -3.3101    1.1082 H   0  0  0  0  0  0  0  0  0  0  0  0
    1.4375   -3.7336    2.1985 H   0  0  0  0  0  0  0  0  0  0  0  0
    0.1969   -2.7243    2.9517 H   0  0  0  0  0  0  0  0  0  0  0  0
   -0.0294   -4.4803    2.8470 H   0  0  0  0  0  0  0  0  0  0  0  0
   -0.4616   -1.0893    0.5050 N   0  0  0  0  0  0  0  0  0  0  0  0
   -0.0884    0.2050   -0.0621 C   0  0  2  0  0  0  0  0  0  0  0  0
    0.9092    0.8570    0.8912 C   0  0  0  0  0  0  0  0  0  0  0  0
    1.8009    1.6141    0.5129 O   0  0  0  0  0  0  0  0  0  0  0  0
   -1.3000    1.1312   -0.2452 C   0  0  0  0  0  0  0  0  0  0  0  0
   -2.2760    0.6496   -1.3237 C   0  0  0  0  0  0  0  0  0  0  0  0
   -3.4497    1.6199   -1.4819 C   0  0  0  0  0  0  0  0  0  0  0  0
   -4.4353    1.1268   -2.5400 C   0  0  0  0  0  0  0  0  0  0  0  0
   -5.5561    2.0518   -2.6582 N   0  0  0  0  0  0  0  0  0  0  0  0
   -1.2794   -1.1113    1.0935 H   0  0  0  0  0  0  0  0  0  0  0  0
    0.3995    0.0341   -1.0292 H   0  0  0  0  0  0  0  0  0  0  0  0
   -0.9469    2.1364   -0.5109 H   0  0  0  0  0  0  0  0  0  0  0  0
   -1.8329    1.2427    0.7089 H   0  0  0  0  0  0  0  0  0  0  0  0
   -2.6643   -0.3423   -1.0664 H   0  0  0  0  0  0  0  0  0  0  0  0
   -1.7477    0.5552   -2.2801 H   0  0  0  0  0  0  0  0  0  0  0  0
   -3.9626    1.7314   -0.5182 H   0  0  0  0  0  0  0  0  0  0  0  0
   -3.0701    2.6107   -1.7622 H   0  0  0  0  0  0  0  0  0  0  0  0
   -4.8115    0.1330   -2.2737 H   0  0  0  0  0  0  0  0  0  0  0  0
   -3.9358    1.0453   -3.5112 H   0  0  0  0  0  0  0  0  0  0  0  0
   -5.4279    2.7846   -2.0000 H   0  0  0  0  0  0  0  0  0  0  0  0
   -5.5676    2.4120   -3.5837 H   0  0  0  0  0  0  0  0  0  0  0  0
    0.6985    0.4752    2.2090 N   0  0  0  0  0  0  0  0  0  0  0  0
    1.5188    0.9328    3.3074 C   0  0  2  0  0  0  0  0  0  0  0  0
    1.5799   -0.1809    4.3445 C   0  0  0  0  0  0  0  0  0  0  0  0
    0.6406   -0.9418    4.5678 O   0  0  0  0  0  0  0  0  0  0  0  0
    0.9656    2.2121    3.9156 C   0  0  0  0  0  0  0  0  0  0  0  0
   -0.0716   -0.1494    2.4291 H   0  0  0  0  0  0  0  0  0  0  0  0
    2.5207    1.1100    2.9015 H   0  0  0  0  0  0  0  0  0  0  0  0
   -0.0378    2.0542    4.3275 H   0  0  0  0  0  0  0  0  0  0  0  0
    1.6037    2.5730    4.7289 H   0  0  0  0  0  0  0  0  0  0  0  0
    0.8944    3.0032    3.1613 H   0  0  0  0  0  0  0  0  0  0  0  0
    2.7913   -0.1976    5.0216 N   0  0  0  0  0  0  0  0  0  0  0  0
    3.0782   -1.1338    6.0832 C   0  0  0  0  0  0  0  0  0  0  0  0
    3.5280    0.4440    4.7435 H   0  0  0  0  0  0  0  0  0  0  0  0
    2.8148   -0.6830    7.0514 H   0  0  0  0  0  0  0  0  0  0  0  0
    2.4886   -2.0502    5.9331 H   0  0  0  0  0  0  0  0  0  0  0  0
    4.1499   -1.3816    6.0737 H   0  0  0  0  0  0  0  0  0  0  0  0
  1  3  1  0  0  0  0
  1  7  1  0  0  0  0
  1  2  2  0  0  0  0
 39 40  1  0  0  0  0
 40 48  1  0  0  0  0
 40 41  2  0  0  0  0
  8  9  1  0  0  0  0
  9 17  1  0  0  0  0
  9 10  2  0  0  0  0
 18 19  1  0  0  0  0
 19 38  1  0  0  0  0
 19 20  2  0  0  0  0
 39 42  1  0  0  0  0
  8 11  1  0  0  0  0
 48 49  1  0  0  0  0
 22 23  1  0  0  0  0
 21 22  1  0  0  0  0
 23 24  1  0  0  0  0
 18 21  1  0  0  0  0
 24 25  1  0  0  0  0
 38 39  1  0  0  0  0
  7  8  1  0  0  0  0
 17 18  1  0  0  0  0
  3  4  1  0  0  0  0
  3  5  1  0  0  0  0
  3  6  1  0  0  0  0
 42 45  1  0  0  0  0
 42 46  1  0  0  0  0
 42 47  1  0  0  0  0
 11 14  1  0  0  0  0
 11 15  1  0  0  0  0
 11 16  1  0  0  0  0
 49 51  1  0  0  0  0
 49 52  1  0  0  0  0
 49 53  1  0  0  0  0
 22 30  1  0  0  0  0
 22 31  1  0  0  0  0
 23 32  1  0  0  0  0
 23 33  1  0  0  0  0
 21 28  1  0  0  0  0
 21 29  1  0  0  0  0
 24 34  1  0  0  0  0
 24 35  1  0  0  0  0
 39 44  1  0  0  0  0
  8 13  1  0  0  0  0
 18 27  1  0  0  0  0
 25 36  1  0  0  0  0
 25 37  1  0  0  0  0
 48 50  1  0  0  0  0
  7 12  1  0  0  0  0
 38 43  1  0  0  0  0
 17 26  1  0  0  0  0
M  END
$$$$

  -OEChem-05262214473D

 53 52  0     1  0  0  0  0  0999 V2000
   -1.0338   -5.6785    0.1476 C   0  0  0  0  0  0  0  0  0  0  0  0
   -2.0514   -5.7797    0.8227 O   0  0  0  0  0  0  0  0  0  0  0  0
   -0.6558   -6.7819   -0.7841 C   0  0  0  0  0  0  0  0  0  0  0  0
   -0.0111   -7.5354   -0.3038 H   0  0  0  0  0  0  0  0  0  0  0  0
   -1.5317   -7.3401   -1.1520 H   0  0  0  0  0  0  0  0  0  0  0  0
   -0.1109   -6.4687   -1.6890 H   0  0  0  0  0  0  0  0  0  0  0  0
   -0.1543   -4.6083    0.1480 N   0  0  0  0  0  0  0  0  0  0  0  0
   -0.3302   -3.4398    0.9696 C   0  0  2  0  0  0  0  0  0  0  0  0
    0.2328   -2.2439    0.2131 C   0  0  0  0  0  0  0  0  0  0  0  0
    1.2097   -2.3192   -0.5294 O   0  0  0  0  0  0  0  0  0  0  0  0
    0.3557   -3.6024    2.3171 C   0  0  0  0  0  0  0  0  0  0  0  0
    0.6584   -4.6506   -0.4643 H   0  0  0  0  0  0  0  0  0  0  0  0
   -1.4091   -3.3101    1.1082 H   0  0  0  0  0  0  0  0  0  0  0  0
    1.4375   -3.7336    2.1985 H   0  0  0  0  0  0  0  0  0  0  0  0
    0.1969   -2.7243    2.9517 H   0  0  0  0  0  0  0  0  0  0  0  0
   -0.0294   -4.4803    2.8470 H   0  0  0  0  0  0  0  0  0  0  0  0
   -0.4616   -1.0893    0.5050 N   0  0  0  0  0  0  0  0  0  0  0  0
   -0.0884    0.2050   -0.0621 C   0  0  2  0  0  0  0  0  0  0  0  0
    0.9092    0.8570    0.8912 C   0  0  0  0  0  0  0  0  0  0  0  0
    1.6212    1.8062    0.5696 O   0  0  0  0  0  0  0  0  0  0  0  0
   -1.3000    1.1312   -0.2452 C   0  0  0  0  0  0  0  0  0  0  0  0
   -2.2760    0.6496   -1.3237 C   0  0  0  0  0  0  0  0  0  0  0  0
   -3.4497    1.6199   -1.4819 C   0  0  0  0  0  0  0  0  0  0  0  0
   -4.4353    1.1268   -2.5400 C   0  0  0  0  0  0  0  0  0  0  0  0
   -5.5561    2.0518   -2.6582 N   0  0  0  0  0  0  0  0  0  0  0  0
   -1.2794   -1.1113    1.0935 H   0  0  0  0  0  0  0  0  0  0  0  0
    0.3995    0.0341   -1.0292 H   0  0  0  0  0  0  0  0  0  0  0  0
   -0.9469    2.1364   -0.5109 H   0  0  0  0  0  0  0  0  0  0  0  0
   -1.8329    1.2427    0.7089 H   0  0  0  0  0  0  0  0  0  0  0  0
   -2.6643   -0.3423   -1.0664 H   0  0  0  0  0  0  0  0  0  0  0  0
   -1.7477    0.5552   -2.2801 H   0  0  0  0  0  0  0  0  0  0  0  0
   -3.9626    1.7314   -0.5182 H   0  0  0  0  0  0  0  0  0  0  0  0
   -3.0701    2.6107   -1.7622 H   0  0  0  0  0  0  0  0  0  0  0  0
   -4.8115    0.1330   -2.2737 H   0  0  0  0  0  0  0  0  0  0  0  0
   -3.9358    1.0453   -3.5112 H   0  0  0  0  0  0  0  0  0  0  0  0
   -5.4279    2.7846   -2.0000 H   0  0  0  0  0  0  0  0  0  0  0  0
   -5.5676    2.4120   -3.5837 H   0  0  0  0  0  0  0  0  0  0  0  0
    0.9247    0.2388    2.1339 N   0  0  0  0  0  0  0  0  0  0  0  0
    1.7961    0.6482    3.2118 C   0  0  2  0  0  0  0  0  0  0  0  0
    2.1546   -0.5900    4.0229 C   0  0  0  0  0  0  0  0  0  0  0  0
    1.3773   -1.5263    4.1967 O   0  0  0  0  0  0  0  0  0  0  0  0
    1.1347    1.6999    4.0889 C   0  0  0  0  0  0  0  0  0  0  0  0
    0.2921   -0.5355    2.3126 H   0  0  0  0  0  0  0  0  0  0  0  0
    2.7010    1.0570    2.7491 H   0  0  0  0  0  0  0  0  0  0  0  0
    0.2262    1.3086    4.5611 H   0  0  0  0  0  0  0  0  0  0  0  0
    1.8067    2.0297    4.8880 H   0  0  0  0  0  0  0  0  0  0  0  0
    0.8507    2.5775    3.4982 H   0  0  0  0  0  0  0  0  0  0  0  0
    3.4292   -0.5072    4.5658 N   0  0  0  0  0  0  0  0  0  0  0  0
    3.9851   -1.5382    5.4108 C   0  0  0  0  0  0  0  0  0  0  0  0
    4.0193    0.2871    4.3367 H   0  0  0  0  0  0  0  0  0  0  0  0
    3.7788   -1.3001    6.4647 H   0  0  0  0  0  0  0  0  0  0  0  0
    3.5277   -2.5060    5.1574 H   0  0  0  0  0  0  0  0  0  0  0  0
    5.0724   -1.5942    5.2537 H   0  0  0  0  0  0  0  0  0  0  0  0
  1  3  1  0  0  0  0
  1  7  1  0  0  0  0
  1  2  2  0  0  0  0
 39 40  1  0  0  0  0
 40 48  1  0  0  0  0
 40 41  2  0  0  0  0
  8  9  1  0  0  0  0
  9 17  1  0  0  0  0
  9 10  2  0  0  0  0
 18 19  1  0  0  0  0
 19 38  1  0  0  0  0
 19 20  2  0  0  0  0
 39 42  1  0  0  0  0
  8 11  1  0  0  0  0
 48 49  1  0  0  0  0
 22 23  1  0  0  0  0
 21 22  1  0  0  0  0
 23 24  1  0  0  0  0
 18 21  1  0  0  0  0
 24 25  1  0  0  0  0
 38 39  1  0  0  0  0
  7  8  1  0  0  0  0
 17 18  1  0  0  0  0
  3  4  1  0  0  0  0
  3  5  1  0  0  0  0
  3  6  1  0  0  0  0
 42 45  1  0  0  0  0
 42 46  1  0  0  0  0
 42 47  1  0  0  0  0
 11 14  1  0  0  0  0
 11 15  1  0  0  0  0
 11 16  1  0  0  0  0
 49 51  1  0  0  0  0
 49 52  1  0  0  0  0
 49 53  1  0  0  0  0
 22 30  1  0  0  0  0
 22 31  1  0  0  0  0
 23 32  1  0  0  0  0
 23 33  1  0  0  0  0
 21 28  1  0  0  0  0
 21 29  1  0  0  0  0
 24 34  1  0  0  0  0
 24 35  1  0  0  0  0
 39 44  1  0  0  0  0
  8 13  1  0  0  0  0
 18 27  1  0  0  0  0
 25 36  1  0  0  0  0
 25 37  1  0  0  0  0
 48 50  1  0  0  0  0
  7 12  1  0  0  0  0
 38 43  1  0  0  0  0
 17 26  1  0  0  0  0
M  END
$$$$

  -OEChem-05262214473D

 53 52  0     1  0  0  0  0  0999 V2000
   -1.0338   -5.6785    0.1476 C   0  0  0  0  0  0  0  0  0  0  0  0
   -2.0514   -5.7797    0.8227 O   0  0  0  0  0  0  0  0  0  0  0  0
   -0.6558   -6.7819   -0.7841 C   0  0  0  0  0  0  0  0  0  0  0  0
   -0.0111   -7.5354   -0.3038 H   0  0  0  0  0  0  0  0  0  0  0  0
   -1.5317   -7.3401   -1.1520 H   0  0  0  0  0  0  0  0  0  0  0  0
   -0.1109   -6.4687   -1.6890 H   0  0  0  0  0  0  0  0  0  0  0  0
   -0.1543   -4.6083    0.1480 N   0  0  0  0  0  0  0  0  0  0  0  0
   -0.3302   -3.4398    0.9696 C   0  0  2  0  0  0  0  0  0  0  0  0
    0.2328   -2.2439    0.2131 C   0  0  0  0  0  0  0  0  0  0  0  0
    1.2097   -2.3192   -0.5294 O   0  0  0  0  0  0  0  0  0  0  0  0
    0.3557   -3.6024    2.3171 C   0  0  0  0  0  0  0  0  0  0  0  0
    0.6584   -4.6506   -0.4643 H   0  0  0  0  0  0  0  0  0  0  0  0
   -1.4091   -3.3101    1.1082 H   0  0  0  0  0  0  0  0  0  0  0  0
    1.4375   -3.7336    2.1985 H   0  0  0  0  0  0  0  0  0  0  0  0
    0.1969   -2.7243    2.9517 H   0  0  0  0  0  0  0  0  0  0  0  0
   -0.0294   -4.4803    2.8470 H   0  0  0  0  0  0  0  0  0  0  0  0
   -0.4616   -1.0893    0.5050 N   0  0  0  0  0  0  0  0  0  0  0  0
   -0.0884    0.2050   -0.0621 C   0  0  2  0  0  0  0  0  0  0  0  0
    0.9092    0.8570    0.8912 C   0  0  0  0  0  0  0  0  0  0  0  0
    1.4228    1.9532    0.6767 O   0  0  0  0  0  0  0  0  0  0  0  0
   -1.3000    1.1312   -0.2452 C   0  0  0  0  0  0  0  0  0  0  0  0
   -2.2760    0.6496   -1.3237 C   0  0  0  0  0  0  0  0  0  0  0  0
   -3.4497    1.6199   -1.4819 C   0  0  0  0  0  0  0  0  0  0  0  0
   -4.4353    1.1268   -2.5400 C   0  0  0  0  0  0  0  0  0  0  0  0
   -5.5561    2.0518   -2.6582 N   0  0  0  0  0  0  0  0  0  0  0  0
   -1.2794   -1.1113    1.0935 H   0  0  0  0  0  0  0  0  0  0  0  0
    0.3995    0.0341   -1.0292 H   0  0  0  0  0  0  0  0  0  0  0  0
   -0.9469    2.1364   -0.5109 H   0  0  0  0  0  0  0  0  0  0  0  0
   -1.8329    1.2427    0.7089 H   0  0  0  0  0  0  0  0  0  0  0  0
   -2.6643   -0.3423   -1.0664 H   0  0  0  0  0  0  0  0  0  0  0  0
   -1.7477    0.5552   -2.2801 H   0  0  0  0  0  0  0  0  0  0  0  0
   -3.9626    1.7314   -0.5182 H   0  0  0  0  0  0  0  0  0  0  0  0
   -3.0701    2.6107   -1.7622 H   0  0  0  0  0  0  0  0  0  0  0  0
   -4.8115    0.1330   -2.2737 H   0  0  0  0  0  0  0  0  0  0  0  0
   -3.9358    1.0453   -3.5112 H   0  0  0  0  0  0  0  0  0  0  0  0
   -5.4279    2.7846   -2.0000 H   0  0  0  0  0  0  0  0  0  0  0  0
   -5.5676    2.4120   -3.5837 H   0  0  0  0  0  0  0  0  0  0  0  0
    1.1732    0.0597    1.9964 N   0  0  0  0  0  0  0  0  0  0  0  0
    2.0994    0.4343    3.0406 C   0  0  2  0  0  0  0  0  0  0  0  0
    2.7403   -0.8378    3.5795 C   0  0  0  0  0  0  0  0  0  0  0  0
    2.1422   -1.9089    3.6579 O   0  0  0  0  0  0  0  0  0  0  0  0
    1.4001    1.2031    4.1509 C   0  0  0  0  0  0  0  0  0  0  0  0
    0.6930   -0.8299    2.0944 H   0  0  0  0  0  0  0  0  0  0  0  0
    2.8668    1.0607    2.5729 H   0  0  0  0  0  0  0  0  0  0  0  0
    0.6277    0.5915    4.6314 H   0  0  0  0  0  0  0  0  0  0  0  0
    2.1083    1.5109    4.9273 H   0  0  0  0  0  0  0  0  0  0  0  0
    0.9145    2.1022    3.7564 H   0  0  0  0  0  0  0  0  0  0  0  0
    4.0450   -0.6261    4.0027 N   0  0  0  0  0  0  0  0  0  0  0  0
    4.8521   -1.6685    4.5926 C   0  0  0  0  0  0  0  0  0  0  0  0
    4.4742    0.2838    3.8630 H   0  0  0  0  0  0  0  0  0  0  0  0
    4.7448   -1.6410    5.6870 H   0  0  0  0  0  0  0  0  0  0  0  0
    4.5194   -2.6470    4.2161 H   0  0  0  0  0  0  0  0  0  0  0  0
    5.9071   -1.5116    4.3237 H   0  0  0  0  0  0  0  0  0  0  0  0
  1  3  1  0  0  0  0
  1  7  1  0  0  0  0
  1  2  2  0  0  0  0
 39 40  1  0  0  0  0
 40 48  1  0  0  0  0
 40 41  2  0  0  0  0
  8  9  1  0  0  0  0
  9 17  1  0  0  0  0
  9 10  2  0  0  0  0
 18 19  1  0  0  0  0
 19 38  1  0  0  0  0
 19 20  2  0  0  0  0
 39 42  1  0  0  0  0
  8 11  1  0  0  0  0
 48 49  1  0  0  0  0
 22 23  1  0  0  0  0
 21 22  1  0  0  0  0
 23 24  1  0  0  0  0
 18 21  1  0  0  0  0
 24 25  1  0  0  0  0
 38 39  1  0  0  0  0
  7  8  1  0  0  0  0
 17 18  1  0  0  0  0
  3  4  1  0  0  0  0
  3  5  1  0  0  0  0
  3  6  1  0  0  0  0
 42 45  1  0  0  0  0
 42 46  1  0  0  0  0
 42 47  1  0  0  0  0
 11 14  1  0  0  0  0
 11 15  1  0  0  0  0
 11 16  1  0  0  0  0
 49 51  1  0  0  0  0
 49 52  1  0  0  0  0
 49 53  1  0  0  0  0
 22 30  1  0  0  0  0
 22 31  1  0  0  0  0
 23 32  1  0  0  0  0
 23 33  1  0  0  0  0
 21 28  1  0  0  0  0
 21 29  1  0  0  0  0
 24 34  1  0  0  0  0
 24 35  1  0  0  0  0
 39 44  1  0  0  0  0
  8 13  1  0  0  0  0
 18 27  1  0  0  0  0
 25 36  1  0  0  0  0
 25 37  1  0  0  0  0
 48 50  1  0  0  0  0
  7 12  1  0  0  0  0
 38 43  1  0  0  0  0
 17 26  1  0  0  0  0
M  END
$$$$

  -OEChem-05262214473D

 53 52  0     1  0  0  0  0  0999 V2000
   -1.0338   -5.6785    0.1476 C   0  0  0  0  0  0  0  0  0  0  0  0
   -2.0514   -5.7797    0.8227 O   0  0  0  0  0  0  0  0  0  0  0  0
   -0.6558   -6.7819   -0.7841 C   0  0  0  0  0  0  0  0  0  0  0  0
   -0.0111   -7.5354   -0.3038 H   0  0  0  0  0  0  0  0  0  0  0  0
   -1.5317   -7.3401   -1.1520 H   0  0  0  0  0  0  0  0  0  0  0  0
   -0.1109   -6.4687   -1.6890 H   0  0  0  0  0  0  0  0  0  0  0  0
   -0.1543   -4.6083    0.1480 N   0  0  0  0  0  0  0  0  0  0  0  0
   -0.3302   -3.4398    0.9696 C   0  0  2  0  0  0  0  0  0  0  0  0
    0.2328   -2.2439    0.2131 C   0  0  0  0  0  0  0  0  0  0  0  0
    1.2097   -2.3192   -0.5294 O   0  0  0  0  0  0  0  0  0  0  0  0
    0.3557   -3.6024    2.3171 C   0  0  0  0  0  0  0  0  0  0  0  0
    0.6584   -4.6506   -0.4643 H   0  0  0  0  0  0  0  0  0  0  0  0
   -1.4091   -3.3101    1.1082 H   0  0  0  0  0  0  0  0  0  0  0  0
    1.4375   -3.7336    2.1985 H   0  0  0  0  0  0  0  0  0  0  0  0
    0.1969   -2.7243    2.9517 H   0  0  0  0  0  0  0  0  0  0  0  0
   -0.0294   -4.4803    2.8470 H   0  0  0  0  0  0  0  0  0  0  0  0
   -0.4616   -1.0893    0.5050 N   0  0  0  0  0  0  0  0  0  0  0  0
   -0.0884    0.2050   -0.0621 C   0  0  2  0  0  0  0  0  0  0  0  0
    0.9092    0.8570    0.8912 C   0  0  0  0  0  0  0  0  0  0  0  0
    1.2193    2.0449    0.8269 O   0  0  0  0  0  0  0  0  0  0  0  0
   -1.3000    1.1312   -0.2452 C   0  0  0  0  0  0  0  0  0  0  0  0
   -2.2760    0.6496   -1.3237 C   0  0  0  0  0  0  0  0  0  0  0  0
   -3.4497    1.6199   -1.4819 C   0  0  0  0  0  0  0  0  0  0  0  0
   -4.4353    1.1268   -2.5400 C   0  0  0  0  0  0  0  0  0  0  0  0
   -5.5561    2.0518   -2.6582 N   0  0  0  0  0  0  0  0  0  0  0  0
   -1.2794   -1.1113    1.0935 H   0  0  0  0  0  0  0  0  0  0  0  0
    0.3995    0.0341   -1.0292 H   0  0  0  0  0  0  0  0  0  0  0  0
   -0.9469    2.1364   -0.5109 H   0  0  0  0  0  0  0  0  0  0  0  0
   -1.8329    1.2427    0.7089 H   0  0  0  0  0  0  0  0  0  0  0  0
   -2.6643   -0.3423   -1.0664 H   0  0  0  0  0  0  0  0  0  0  0  0
   -1.7477    0.5552   -2.2801 H   0  0  0  0  0  0  0  0  0  0  0  0
   -3.9626    1.7314   -0.5182 H   0  0  0  0  0  0  0  0  0  0  0  0
   -3.0701    2.6107   -1.7622 H   0  0  0  0  0  0  0  0  0  0  0  0
   -4.8115    0.1330   -2.2737 H   0  0  0  0  0  0  0  0  0  0  0  0
   -3.9358    1.0453   -3.5112 H   0  0  0  0  0  0  0  0  0  0  0  0
   -5.4279    2.7846   -2.0000 H   0  0  0  0  0  0  0  0  0  0  0  0
   -5.5676    2.4120   -3.5837 H   0  0  0  0  0  0  0  0  0  0  0  0
    1.4269   -0.0498    1.8058 N   0  0  0  0  0  0  0  0  0  0  0  0
    2.4081    0.3058    2.8056 C   0  0  2  0  0  0  0  0  0  0  0  0
    3.2971   -0.9075    3.0445 C   0  0  0  0  0  0  0  0  0  0  0  0
    2.8834   -2.0637    2.9881 O   0  0  0  0  0  0  0  0  0  0  0  0
    1.7436    0.7556    4.0974 C   0  0  0  0  0  0  0  0  0  0  0  0
    1.1036   -1.0125    1.7896 H   0  0  0  0  0  0  0  0  0  0  0  0
    3.0070    1.1210    2.3851 H   0  0  0  0  0  0  0  0  0  0  0  0
    1.1391   -0.0480    4.5335 H   0  0  0  0  0  0  0  0  0  0  0  0
    2.4878    1.0518    4.8441 H   0  0  0  0  0  0  0  0  0  0  0  0
    1.0816    1.6097    3.9183 H   0  0  0  0  0  0  0  0  0  0  0  0
    4.5968   -0.5461    3.3706 N   0  0  0  0  0  0  0  0  0  0  0  0
    5.6202   -1.5157    3.6844 C   0  0  0  0  0  0  0  0  0  0  0  0
    4.8617    0.4344    3.3545 H   0  0  0  0  0  0  0  0  0  0  0  0
    5.6470   -1.6826    4.7713 H   0  0  0  0  0  0  0  0  0  0  0  0
    5.3960   -2.4637    3.1734 H   0  0  0  0  0  0  0  0  0  0  0  0
    6.5973   -1.1395    3.3471 H   0  0  0  0  0  0  0  0  0  0  0  0
  1  3  1  0  0  0  0
  1  7  1  0  0  0  0
  1  2  2  0  0  0  0
 39 40  1  0  0  0  0
 40 48  1  0  0  0  0
 40 41  2  0  0  0  0
  8  9  1  0  0  0  0
  9 17  1  0  0  0  0
  9 10  2  0  0  0  0
 18 19  1  0  0  0  0
 19 38  1  0  0  0  0
 19 20  2  0  0  0  0
 39 42  1  0  0  0  0
  8 11  1  0  0  0  0
 48 49  1  0  0  0  0
 22 23  1  0  0  0  0
 21 22  1  0  0  0  0
 23 24  1  0  0  0  0
 18 21  1  0  0  0  0
 24 25  1  0  0  0  0
 38 39  1  0  0  0  0
  7  8  1  0  0  0  0
 17 18  1  0  0  0  0
  3  4  1  0  0  0  0
  3  5  1  0  0  0  0
  3  6  1  0  0  0  0
 42 45  1  0  0  0  0
 42 46  1  0  0  0  0
 42 47  1  0  0  0  0
 11 14  1  0  0  0  0
 11 15  1  0  0  0  0
 11 16  1  0  0  0  0
 49 51  1  0  0  0  0
 49 52  1  0  0  0  0
 49 53  1  0  0  0  0
 22 30  1  0  0  0  0
 22 31  1  0  0  0  0
 23 32  1  0  0  0  0
 23 33  1  0  0  0  0
 21 28  1  0  0  0  0
 21 29  1  0  0  0  0
 24 34  1  0  0  0  0
 24 35  1  0  0  0  0
 39 44  1  0  0  0  0
  8 13  1  0  0  0  0
 18 27  1  0  0  0  0
 25 36  1  0  0  0  0
 25 37  1  0  0  0  0
 48 50  1  0  0  0  0
  7 12  1  0  0  0  0
 38 43  1  0  0  0  0
 17 26  1  0  0  0  0
M  END
$$$$

  -OEChem-05262214473D

 53 52  0     1  0  0  0  0  0999 V2000
   -1.0338   -5.6785    0.1476 C   0  0  0  0  0  0  0  0  0  0  0  0
   -2.0514   -5.7797    0.8227 O   0  0  0  0  0  0  0  0  0  0  0  0
   -0.6558   -6.7819   -0.7841 C   0  0  0  0  0  0  0  0  0  0  0  0
   -0.0111   -7.5354   -0.3038 H   0  0  0  0  0  0  0  0  0  0  0  0
   -1.5317   -7.3401   -1.1520 H   0  0  0  0  0  0  0  0  0  0  0  0
   -0.1109   -6.4687   -1.6890 H   0  0  0  0  0  0  0  0  0  0  0  0
   -0.1543   -4.6083    0.1480 N   0  0  0  0  0  0  0  0  0  0  0  0
   -0.3302   -3.4398    0.9696 C   0  0  2  0  0  0  0  0  0  0  0  0
    0.2328   -2.2439    0.2131 C   0  0  0  0  0  0  0  0  0  0  0  0
    1.2097   -2.3192   -0.5294 O   0  0  0  0  0  0  0  0  0  0  0  0
    0.3557   -3.6024    2.3171 C   0  0  0  0  0  0  0  0  0  0  0  0
    0.6584   -4.6506   -0.4643 H   0  0  0  0  0  0  0  0  0  0  0  0
   -1.4091   -3.3101    1.1082 H   0  0  0  0  0  0  0  0  0  0  0  0
    1.4375   -3.7336    2.1985 H   0  0  0  0  0  0  0  0  0  0  0  0
    0.1969   -2.7243    2.9517 H   0  0  0  0  0  0  0  0  0  0  0  0
   -0.0294   -4.4803    2.8470 H   0  0  0  0  0  0  0  0  0  0  0  0
   -0.4616   -1.0893    0.5050 N   0  0  0  0  0  0  0  0  0  0  0  0
   -0.0884    0.2050   -0.0621 C   0  0  2  0  0  0  0  0  0  0  0  0
    0.9092    0.8570    0.8912 C   0  0  0  0  0  0  0  0  0  0  0  0
    1.0245    2.0752    1.0101 O   0  0  0  0  0  0  0  0  0  0  0  0
   -1.3000    1.1312   -0.2452 C   0  0  0  0  0  0  0  0  0  0  0  0
   -2.2760    0.6496   -1.3237 C   0  0  0  0  0  0  0  0  0  0  0  0
   -3.4497    1.6199   -1.4819 C   0  0  0  0  0  0  0  0  0  0  0  0
   -4.4353    1.1268   -2.5400 C   0  0  0  0  0  0  0  0  0  0  0  0
   -5.5561    2.0518   -2.6582 N   0  0  0  0  0  0  0  0  0  0  0  0
   -1.2794   -1.1113    1.0935 H   0  0  0  0  0  0  0  0  0  0  0  0
    0.3995    0.0341   -1.0292 H   0  0  0  0  0  0  0  0  0  0  0  0
   -0.9469    2.1364   -0.5109 H   0  0  0  0  0  0  0  0  0  0  0  0
   -1.8329    1.2427    0.7089 H   0  0  0  0  0  0  0  0  0  0  0  0
   -2.6643   -0.3423   -1.0664 H   0  0  0  0  0  0  0  0  0  0  0  0
   -1.7477    0.5552   -2.2801 H   0  0  0  0  0  0  0  0  0  0  0  0
   -3.9626    1.7314   -0.5182 H   0  0  0  0  0  0  0  0  0  0  0  0
   -3.0701    2.6107   -1.7622 H   0  0  0  0  0  0  0  0  0  0  0  0
   -4.8115    0.1330   -2.2737 H   0  0  0  0  0  0  0  0  0  0  0  0
   -3.9358    1.0453   -3.5112 H   0  0  0  0  0  0  0  0  0  0  0  0
   -5.4279    2.7846   -2.0000 H   0  0  0  0  0  0  0  0  0  0  0  0
   -5.5676    2.4120   -3.5837 H   0  0  0  0  0  0  0  0  0  0  0  0
    1.6686   -0.0823    1.5751 N   0  0  0  0  0  0  0  0  0  0  0  0
    2.7010    0.2713    2.5227 C   0  0  2  0  0  0  0  0  0  0  0  0
    3.7870   -0.7943    2.4544 C   0  0  0  0  0  0  0  0  0  0  0  0
    3.5503   -1.9801    2.2330 O   0  0  0  0  0  0  0  0  0  0  0  0
    2.1419    0.3880    3.9321 C   0  0  0  0  0  0  0  0  0  0  0  0
    1.4962   -1.0710    1.4189 H   0  0  0  0  0  0  0  0  0  0  0  0
    3.1118    1.2336    2.1984 H   0  0  0  0  0  0  0  0  0  0  0  0
    1.7257   -0.5665    4.2743 H   0  0  0  0  0  0  0  0  0  0  0  0
    2.9194    0.6838    4.6441 H   0  0  0  0  0  0  0  0  0  0  0  0
    1.3405    1.1337    3.9730 H   0  0  0  0  0  0  0  0  0  0  0  0
    5.0469   -0.2726    2.7125 N   0  0  0  0  0  0  0  0  0  0  0  0
    6.2370   -1.0903    2.7480 C   0  0  0  0  0  0  0  0  0  0  0  0
    5.1555    0.7284    2.8459 H   0  0  0  0  0  0  0  0  0  0  0  0
    6.4240   -1.4219    3.7800 H   0  0  0  0  0  0  0  0  0  0  0  0
    6.0978   -1.9684    2.1003 H   0  0  0  0  0  0  0  0  0  0  0  0
    7.0958   -0.5033    2.3904 H   0  0  0  0  0  0  0  0  0  0  0  0
  1  3  1  0  0  0  0
  1  7  1  0  0  0  0
  1  2  2  0  0  0  0
 39 40  1  0  0  0  0
 40 48  1  0  0  0  0
 40 41  2  0  0  0  0
  8  9  1  0  0  0  0
  9 17  1  0  0  0  0
  9 10  2  0  0  0  0
 18 19  1  0  0  0  0
 19 38  1  0  0  0  0
 19 20  2  0  0  0  0
 39 42  1  0  0  0  0
  8 11  1  0  0  0  0
 48 49  1  0  0  0  0
 22 23  1  0  0  0  0
 21 22  1  0  0  0  0
 23 24  1  0  0  0  0
 18 21  1  0  0  0  0
 24 25  1  0  0  0  0
 38 39  1  0  0  0  0
  7  8  1  0  0  0  0
 17 18  1  0  0  0  0
  3  4  1  0  0  0  0
  3  5  1  0  0  0  0
  3  6  1  0  0  0  0
 42 45  1  0  0  0  0
 42 46  1  0  0  0  0
 42 47  1  0  0  0  0
 11 14  1  0  0  0  0
 11 15  1  0  0  0  0
 11 16  1  0  0  0  0
 49 51  1  0  0  0  0
 49 52  1  0  0  0  0
 49 53  1  0  0  0  0
 22 30  1  0  0  0  0
 22 31  1  0  0  0  0
 23 32  1  0  0  0  0
 23 33  1  0  0  0  0
 21 28  1  0  0  0  0
 21 29  1  0  0  0  0
 24 34  1  0  0  0  0
 24 35  1  0  0  0  0
 39 44  1  0  0  0  0
  8 13  1  0  0  0  0
 18 27  1  0  0  0  0
 25 36  1  0  0  0  0
 25 37  1  0  0  0  0
 48 50  1  0  0  0  0
  7 12  1  0  0  0  0
 38 43  1  0  0  0  0
 17 26  1  0  0  0  0
M  END
$$$$

  -OEChem-05262214473D

 53 52  0     1  0  0  0  0  0999 V2000
   -1.0338   -5.6785    0.1476 C   0  0  0  0  0  0  0  0  0  0  0  0
   -2.0514   -5.7797    0.8227 O   0  0  0  0  0  0  0  0  0  0  0  0
   -0.6558   -6.7819   -0.7841 C   0  0  0  0  0  0  0  0  0  0  0  0
   -0.0111   -7.5354   -0.3038 H   0  0  0  0  0  0  0  0  0  0  0  0
   -1.5317   -7.3401   -1.1520 H   0  0  0  0  0  0  0  0  0  0  0  0
   -0.1109   -6.4687   -1.6890 H   0  0  0  0  0  0  0  0  0  0  0  0
   -0.1543   -4.6083    0.1480 N   0  0  0  0  0  0  0  0  0  0  0  0
   -0.3302   -3.4398    0.9696 C   0  0  2  0  0  0  0  0  0  0  0  0
    0.2328   -2.2439    0.2131 C   0  0  0  0  0  0  0  0  0  0  0  0
    1.2097   -2.3192   -0.5294 O   0  0  0  0  0  0  0  0  0  0  0  0
    0.3557   -3.6024    2.3171 C   0  0  0  0  0  0  0  0  0  0  0  0
    0.6584   -4.6506   -0.4643 H   0  0  0  0  0  0  0  0  0  0  0  0
   -1.4091   -3.3101    1.1082 H   0  0  0  0  0  0  0  0  0  0  0  0
    1.4375   -3.7336    2.1985 H   0  0  0  0  0  0  0  0  0  0  0  0
    0.1969   -2.7243    2.9517 H   0  0  0  0  0  0  0  0  0  0  0  0
   -0.0294   -4.4803    2.8470 H   0  0  0  0  0  0  0  0  0  0  0  0
   -0.4616   -1.0893    0.5050 N   0  0  0  0  0  0  0  0  0  0  0  0
   -0.0884    0.2050   -0.0621 C   0  0  2  0  0  0  0  0  0  0  0  0
    0.9092    0.8570    0.8912 C   0  0  0  0  0  0  0  0  0  0  0  0
    0.8516    2.0420    1.2136 O   0  0  0  0  0  0  0  0  0  0  0  0
   -1.3000    1.1312   -0.2452 C   0  0  0  0  0  0  0  0  0  0  0  0
   -2.2760    0.6496   -1.3237 C   0  0  0  0  0  0  0  0  0  0  0  0
   -3.4497    1.6199   -1.4819 C   0  0  0  0  0  0  0  0  0  0  0  0
   -4.4353    1.1268   -2.5400 C   0  0  0  0  0  0  0  0  0  0  0  0
   -5.5561    2.0518   -2.6582 N   0  0  0  0  0  0  0  0  0  0  0  0
   -1.2794   -1.1113    1.0935 H   0  0  0  0  0  0  0  0  0  0  0  0
    0.3995    0.0341   -1.0292 H   0  0  0  0  0  0  0  0  0  0  0  0
   -0.9469    2.1364   -0.5109 H   0  0  0  0  0  0  0  0  0  0  0  0
   -1.8329    1.2427    0.7089 H   0  0  0  0  0  0  0  0  0  0  0  0
   -2.6643   -0.3423   -1.0664 H   0  0  0  0  0  0  0  0  0  0  0  0
   -1.7477    0.5552   -2.2801 H   0  0  0  0  0  0  0  0  0  0  0  0
   -3.9626    1.7314   -0.5182 H   0  0  0  0  0  0  0  0  0  0  0  0
   -3.0701    2.6107   -1.7622 H   0  0  0  0  0  0  0  0  0  0  0  0
   -4.8115    0.1330   -2.2737 H   0  0  0  0  0  0  0  0  0  0  0  0
   -3.9358    1.0453   -3.5112 H   0  0  0  0  0  0  0  0  0  0  0  0
   -5.4279    2.7846   -2.0000 H   0  0  0  0  0  0  0  0  0  0  0  0
   -5.5676    2.4120   -3.5837 H   0  0  0  0  0  0  0  0  0  0  0  0
    1.8819   -0.0356    1.3200 N   0  0  0  0  0  0  0  0  0  0  0  0
    2.9582    0.3331    2.2112 C   0  0  2  0  0  0  0  0  0  0  0  0
    4.1767   -0.5059    1.8494 C   0  0  0  0  0  0  0  0  0  0  0  0
    4.0975   -1.6637    1.4441 O   0  0  0  0  0  0  0  0  0  0  0  0
    2.5677    0.1253    3.6662 C   0  0  0  0  0  0  0  0  0  0  0  0
    1.8437   -1.0013    1.0075 H   0  0  0  0  0  0  0  0  0  0  0  0
    3.1743    1.3909    2.0254 H   0  0  0  0  0  0  0  0  0  0  0  0
    2.3475   -0.9287    3.8713 H   0  0  0  0  0  0  0  0  0  0  0  0
    3.3737    0.4320    4.3410 H   0  0  0  0  0  0  0  0  0  0  0  0
    1.6736    0.7064    3.9166 H   0  0  0  0  0  0  0  0  0  0  0  0
    5.3648    0.1756    2.0734 N   0  0  0  0  0  0  0  0  0  0  0  0
    6.6605   -0.4212    1.8474 C   0  0  0  0  0  0  0  0  0  0  0  0
    5.3356    1.1460    2.3720 H   0  0  0  0  0  0  0  0  0  0  0  0
    7.0227   -0.8768    2.7807 H   0  0  0  0  0  0  0  0  0  0  0  0
    6.5770   -1.1950    1.0700 H   0  0  0  0  0  0  0  0  0  0  0  0
    7.3687    0.3537    1.5188 H   0  0  0  0  0  0  0  0  0  0  0  0
  1  3  1  0  0  0  0
  1  7  1  0  0  0  0
  1  2  2  0  0  0  0
 39 40  1  0  0  0  0
 40 48  1  0  0  0  0
 40 41  2  0  0  0  0
  8  9  1  0  0  0  0
  9 17  1  0  0  0  0
  9 10  2  0  0  0  0
 18 19  1  0  0  0  0
 19 38  1  0  0  0  0
 19 20  2  0  0  0  0
 39 42  1  0  0  0  0
  8 11  1  0  0  0  0
 48 49  1  0  0  0  0
 22 23  1  0  0  0  0
 21 22  1  0  0  0  0
 23 24  1  0  0  0  0
 18 21  1  0  0  0  0
 24 25  1  0  0  0  0
 38 39  1  0  0  0  0
  7  8  1  0  0  0  0
 17 18  1  0  0  0  0
  3  4  1  0  0  0  0
  3  5  1  0  0  0  0
  3  6  1  0  0  0  0
 42 45  1  0  0  0  0
 42 46  1  0  0  0  0
 42 47  1  0  0  0  0
 11 14  1  0  0  0  0
 11 15  1  0  0  0  0
 11 16  1  0  0  0  0
 49 51  1  0  0  0  0
 49 52  1  0  0  0  0
 49 53  1  0  0  0  0
 22 30  1  0  0  0  0
 22 31  1  0  0  0  0
 23 32  1  0  0  0  0
 23 33  1  0  0  0  0
 21 28  1  0  0  0  0
 21 29  1  0  0  0  0
 24 34  1  0  0  0  0
 24 35  1  0  0  0  0
 39 44  1  0  0  0  0
  8 13  1  0  0  0  0
 18 27  1  0  0  0  0
 25 36  1  0  0  0  0
 25 37  1  0  0  0  0
 48 50  1  0  0  0  0
  7 12  1  0  0  0  0
 38 43  1  0  0  0  0
 17 26  1  0  0  0  0
M  END
$$$$

  -OEChem-05262214473D

 53 52  0     1  0  0  0  0  0999 V2000
   -1.0338   -5.6785    0.1476 C   0  0  0  0  0  0  0  0  0  0  0  0
   -2.0514   -5.7797    0.8227 O   0  0  0  0  0  0  0  0  0  0  0  0
   -0.6558   -6.7819   -0.7841 C   0  0  0  0  0  0  0  0  0  0  0  0
   -0.0111   -7.5354   -0.3038 H   0  0  0  0  0  0  0  0  0  0  0  0
   -1.5317   -7.3401   -1.1520 H   0  0  0  0  0  0  0  0  0  0  0  0
   -0.1109   -6.4687   -1.6890 H   0  0  0  0  0  0  0  0  0  0  0  0
   -0.1543   -4.6083    0.1480 N   0  0  0  0  0  0  0  0  0  0  0  0
   -0.3302   -3.4398    0.9696 C   0  0  2  0  0  0  0  0  0  0  0  0
    0.2328   -2.2439    0.2131 C   0  0  0  0  0  0  0  0  0  0  0  0
    1.2097   -2.3192   -0.5294 O   0  0  0  0  0  0  0  0  0  0  0  0
    0.3557   -3.6024    2.3171 C   0  0  0  0  0  0  0  0  0  0  0  0
    0.6584   -4.6506   -0.4643 H   0  0  0  0  0  0  0  0  0  0  0  0
   -1.4091   -3.3101    1.1082 H   0  0  0  0  0  0  0  0  0  0  0  0
    1.4375   -3.7336    2.1985 H   0  0  0  0  0  0  0  0  0  0  0  0
    0.1969   -2.7243    2.9517 H   0  0  0  0  0  0  0  0  0  0  0  0
   -0.0294   -4.4803    2.8470 H   0  0  0  0  0  0  0  0  0  0  0  0
   -0.4616   -1.0893    0.5050 N   0  0  0  0  0  0  0  0  0  0  0  0
   -0.0884    0.2050   -0.0621 C   0  0  2  0  0  0  0  0  0  0  0  0
    0.9092    0.8570    0.8912 C   0  0  0  0  0  0  0  0  0  0  0  0
    0.7126    1.9475    1.4237 O   0  0  0  0  0  0  0  0  0  0  0  0
   -1.3000    1.1312   -0.2452 C   0  0  0  0  0  0  0  0  0  0  0  0
   -2.2760    0.6496   -1.3237 C   0  0  0  0  0  0  0  0  0  0  0  0
   -3.4497    1.6199   -1.4819 C   0  0  0  0  0  0  0  0  0  0  0  0
   -4.4353    1.1268   -2.5400 C   0  0  0  0  0  0  0  0  0  0  0  0
   -5.5561    2.0518   -2.6582 N   0  0  0  0  0  0  0  0  0  0  0  0
   -1.2794   -1.1113    1.0935 H   0  0  0  0  0  0  0  0  0  0  0  0
    0.3995    0.0341   -1.0292 H   0  0  0  0  0  0  0  0  0  0  0  0
   -0.9469    2.1364   -0.5109 H   0  0  0  0  0  0  0  0  0  0  0  0
   -1.8329    1.2427    0.7089 H   0  0  0  0  0  0  0  0  0  0  0  0
   -2.6643   -0.3423   -1.0664 H   0  0  0  0  0  0  0  0  0  0  0  0
   -1.7477    0.5552   -2.2801 H   0  0  0  0  0  0  0  0  0  0  0  0
   -3.9626    1.7314   -0.5182 H   0  0  0  0  0  0  0  0  0  0  0  0
   -3.0701    2.6107   -1.7622 H   0  0  0  0  0  0  0  0  0  0  0  0
   -4.8115    0.1330   -2.2737 H   0  0  0  0  0  0  0  0  0  0  0  0
   -3.9358    1.0453   -3.5112 H   0  0  0  0  0  0  0  0  0  0  0  0
   -5.4279    2.7846   -2.0000 H   0  0  0  0  0  0  0  0  0  0  0  0
   -5.5676    2.4120   -3.5837 H   0  0  0  0  0  0  0  0  0  0  0  0
    2.0521    0.0871    1.0579 N   0  0  0  0  0  0  0  0  0  0  0  0
    3.1623    0.4872    1.8923 C   0  0  2  0  0  0  0  0  0  0  0  0
    4.4396   -0.0619    1.2707 C   0  0  0  0  0  0  0  0  0  0  0  0
    4.4877   -1.1362    0.6751 O   0  0  0  0  0  0  0  0  0  0  0  0
    2.9921   -0.0146    3.3178 C   0  0  0  0  0  0  0  0  0  0  0  0
    2.1227   -0.8081    0.5834 H   0  0  0  0  0  0  0  0  0  0  0  0
    3.1900    1.5822    1.8781 H   0  0  0  0  0  0  0  0  0  0  0  0
    2.9621   -1.1098    3.3520 H   0  0  0  0  0  0  0  0  0  0  0  0
    3.8197    0.3134    3.9553 H   0  0  0  0  0  0  0  0  0  0  0  0
    2.0582    0.3572    3.7530 H   0  0  0  0  0  0  0  0  0  0  0  0
    5.5287    0.7681    1.4967 N   0  0  0  0  0  0  0  0  0  0  0  0
    6.8617    0.4459    1.0438 C   0  0  0  0  0  0  0  0  0  0  0  0
    5.3895    1.6587    1.9649 H   0  0  0  0  0  0  0  0  0  0  0  0
    7.4024   -0.0844    1.8415 H   0  0  0  0  0  0  0  0  0  0  0  0
    6.8009   -0.1962    0.1527 H   0  0  0  0  0  0  0  0  0  0  0  0
    7.3973    1.3731    0.7917 H   0  0  0  0  0  0  0  0  0  0  0  0
  1  3  1  0  0  0  0
  1  7  1  0  0  0  0
  1  2  2  0  0  0  0
 39 40  1  0  0  0  0
 40 48  1  0  0  0  0
 40 41  2  0  0  0  0
  8  9  1  0  0  0  0
  9 17  1  0  0  0  0
  9 10  2  0  0  0  0
 18 19  1  0  0  0  0
 19 38  1  0  0  0  0
 19 20  2  0  0  0  0
 39 42  1  0  0  0  0
  8 11  1  0  0  0  0
 48 49  1  0  0  0  0
 22 23  1  0  0  0  0
 21 22  1  0  0  0  0
 23 24  1  0  0  0  0
 18 21  1  0  0  0  0
 24 25  1  0  0  0  0
 38 39  1  0  0  0  0
  7  8  1  0  0  0  0
 17 18  1  0  0  0  0
  3  4  1  0  0  0  0
  3  5  1  0  0  0  0
  3  6  1  0  0  0  0
 42 45  1  0  0  0  0
 42 46  1  0  0  0  0
 42 47  1  0  0  0  0
 11 14  1  0  0  0  0
 11 15  1  0  0  0  0
 11 16  1  0  0  0  0
 49 51  1  0  0  0  0
 49 52  1  0  0  0  0
 49 53  1  0  0  0  0
 22 30  1  0  0  0  0
 22 31  1  0  0  0  0
 23 32  1  0  0  0  0
 23 33  1  0  0  0  0
 21 28  1  0  0  0  0
 21 29  1  0  0  0  0
 24 34  1  0  0  0  0
 24 35  1  0  0  0  0
 39 44  1  0  0  0  0
  8 13  1  0  0  0  0
 18 27  1  0  0  0  0
 25 36  1  0  0  0  0
 25 37  1  0  0  0  0
 48 50  1  0  0  0  0
  7 12  1  0  0  0  0
 38 43  1  0  0  0  0
 17 26  1  0  0  0  0
M  END
$$$$

  -OEChem-05262214473D

 53 52  0     1  0  0  0  0  0999 V2000
   -1.0338   -5.6785    0.1476 C   0  0  0  0  0  0  0  0  0  0  0  0
   -2.0514   -5.7797    0.8227 O   0  0  0  0  0  0  0  0  0  0  0  0
   -0.6558   -6.7819   -0.7841 C   0  0  0  0  0  0  0  0  0  0  0  0
   -0.0111   -7.5354   -0.3038 H   0  0  0  0  0  0  0  0  0  0  0  0
   -1.5317   -7.3401   -1.1520 H   0  0  0  0  0  0  0  0  0  0  0  0
   -0.1109   -6.4687   -1.6890 H   0  0  0  0  0  0  0  0  0  0  0  0
   -0.1543   -4.6083    0.1480 N   0  0  0  0  0  0  0  0  0  0  0  0
   -0.3302   -3.4398    0.9696 C   0  0  2  0  0  0  0  0  0  0  0  0
    0.2328   -2.2439    0.2131 C   0  0  0  0  0  0  0  0  0  0  0  0
    1.2097   -2.3192   -0.5294 O   0  0  0  0  0  0  0  0  0  0  0  0
    0.3557   -3.6024    2.3171 C   0  0  0  0  0  0  0  0  0  0  0  0
    0.6584   -4.6506   -0.4643 H   0  0  0  0  0  0  0  0  0  0  0  0
   -1.4091   -3.3101    1.1082 H   0  0  0  0  0  0  0  0  0  0  0  0
    1.4375   -3.7336    2.1985 H   0  0  0  0  0  0  0  0  0  0  0  0
    0.1969   -2.7243    2.9517 H   0  0  0  0  0  0  0  0  0  0  0  0
   -0.0294   -4.4803    2.8470 H   0  0  0  0  0  0  0  0  0  0  0  0
   -0.4616   -1.0893    0.5050 N   0  0  0  0  0  0  0  0  0  0  0  0
   -0.0884    0.2050   -0.0621 C   0  0  2  0  0  0  0  0  0  0  0  0
    0.9092    0.8570    0.8912 C   0  0  0  0  0  0  0  0  0  0  0  0
    0.6168    1.7982    1.6261 O   0  0  0  0  0  0  0  0  0  0  0  0
   -1.3000    1.1312   -0.2452 C   0  0  0  0  0  0  0  0  0  0  0  0
   -2.2760    0.6496   -1.3237 C   0  0  0  0  0  0  0  0  0  0  0  0
   -3.4497    1.6199   -1.4819 C   0  0  0  0  0  0  0  0  0  0  0  0
   -4.4353    1.1268   -2.5400 C   0  0  0  0  0  0  0  0  0  0  0  0
   -5.5561    2.0518   -2.6582 N   0  0  0  0  0  0  0  0  0  0  0  0
   -1.2794   -1.1113    1.0935 H   0  0  0  0  0  0  0  0  0  0  0  0
    0.3995    0.0341   -1.0292 H   0  0  0  0  0  0  0  0  0  0  0  0
   -0.9469    2.1364   -0.5109 H   0  0  0  0  0  0  0  0  0  0  0  0
   -1.8329    1.2427    0.7089 H   0  0  0  0  0  0  0  0  0  0  0  0
   -2.6643   -0.3423   -1.0664 H   0  0  0  0  0  0  0  0  0  0  0  0
   -1.7477    0.5552   -2.2801 H   0  0  0  0  0  0  0  0  0  0  0  0
   -3.9626    1.7314   -0.5182 H   0  0  0  0  0  0  0  0  0  0  0  0
   -3.0701    2.6107   -1.7622 H   0  0  0  0  0  0  0  0  0  0  0  0
   -4.8115    0.1330   -2.2737 H   0  0  0  0  0  0  0  0  0  0  0  0
   -3.9358    1.0453   -3.5112 H   0  0  0  0  0  0  0  0  0  0  0  0
   -5.4279    2.7846   -2.0000 H   0  0  0  0  0  0  0  0  0  0  0  0
   -5.5676    2.4120   -3.5837 H   0  0  0  0  0  0  0  0  0  0  0  0
    2.1677    0.2775    0.8067 N   0  0  0  0  0  0  0  0  0  0  0  0
    3.2992    0.7229    1.5878 C   0  0  2  0  0  0  0  0  0  0  0  0
    4.5578    0.5073    0.7578 C   0  0  0  0  0  0  0  0  0  0  0  0
    4.6942   -0.4334   -0.0216 O   0  0  0  0  0  0  0  0  0  0  0  0
    3.3862   -0.0222    2.9106 C   0  0  0  0  0  0  0  0  0  0  0  0
    2.3141   -0.5047    0.1757 H   0  0  0  0  0  0  0  0  0  0  0  0
    3.1580    1.7945    1.7665 H   0  0  0  0  0  0  0  0  0  0  0  0
    3.5277   -1.0975    2.7518 H   0  0  0  0  0  0  0  0  0  0  0  0
    4.2270    0.3363    3.5135 H   0  0  0  0  0  0  0  0  0  0  0  0
    2.4681    0.1097    3.4934 H   0  0  0  0  0  0  0  0  0  0  0  0
    5.5274    1.4645    1.0218 N   0  0  0  0  0  0  0  0  0  0  0  0
    6.8271    1.4520    0.3920 C   0  0  0  0  0  0  0  0  0  0  0  0
    5.3137    2.2315    1.6525 H   0  0  0  0  0  0  0  0  0  0  0  0
    7.5373    0.9013    1.0263 H   0  0  0  0  0  0  0  0  0  0  0  0
    6.7542    0.9600   -0.5892 H   0  0  0  0  0  0  0  0  0  0  0  0
    7.1798    2.4854    0.2587 H   0  0  0  0  0  0  0  0  0  0  0  0
  1  3  1  0  0  0  0
  1  7  1  0  0  0  0
  1  2  2  0  0  0  0
 39 40  1  0  0  0  0
 40 48  1  0  0  0  0
 40 41  2  0  0  0  0
  8  9  1  0  0  0  0
  9 17  1  0  0  0  0
  9 10  2  0  0  0  0
 18 19  1  0  0  0  0
 19 38  1  0  0  0  0
 19 20  2  0  0  0  0
 39 42  1  0  0  0  0
  8 11  1  0  0  0  0
 48 49  1  0  0  0  0
 22 23  1  0  0  0  0
 21 22  1  0  0  0  0
 23 24  1  0  0  0  0
 18 21  1  0  0  0  0
 24 25  1  0  0  0  0
 38 39  1  0  0  0  0
  7  8  1  0  0  0  0
 17 18  1  0  0  0  0
  3  4  1  0  0  0  0
  3  5  1  0  0  0  0
  3  6  1  0  0  0  0
 42 45  1  0  0  0  0
 42 46  1  0  0  0  0
 42 47  1  0  0  0  0
 11 14  1  0  0  0  0
 11 15  1  0  0  0  0
 11 16  1  0  0  0  0
 49 51  1  0  0  0  0
 49 52  1  0  0  0  0
 49 53  1  0  0  0  0
 22 30  1  0  0  0  0
 22 31  1  0  0  0  0
 23 32  1  0  0  0  0
 23 33  1  0  0  0  0
 21 28  1  0  0  0  0
 21 29  1  0  0  0  0
 24 34  1  0  0  0  0
 24 35  1  0  0  0  0
 39 44  1  0  0  0  0
  8 13  1  0  0  0  0
 18 27  1  0  0  0  0
 25 36  1  0  0  0  0
 25 37  1  0  0  0  0
 48 50  1  0  0  0  0
  7 12  1  0  0  0  0
 38 43  1  0  0  0  0
 17 26  1  0  0  0  0
M  END
$$$$

  -OEChem-05262214473D

 53 52  0     1  0  0  0  0  0999 V2000
   -1.0338   -5.6785    0.1476 C   0  0  0  0  0  0  0  0  0  0  0  0
   -2.0514   -5.7797    0.8227 O   0  0  0  0  0  0  0  0  0  0  0  0
   -0.6558   -6.7819   -0.7841 C   0  0  0  0  0  0  0  0  0  0  0  0
   -0.0111   -7.5354   -0.3038 H   0  0  0  0  0  0  0  0  0  0  0  0
   -1.5317   -7.3401   -1.1520 H   0  0  0  0  0  0  0  0  0  0  0  0
   -0.1109   -6.4687   -1.6890 H   0  0  0  0  0  0  0  0  0  0  0  0
   -0.1543   -4.6083    0.1480 N   0  0  0  0  0  0  0  0  0  0  0  0
   -0.3302   -3.4398    0.9696 C   0  0  2  0  0  0  0  0  0  0  0  0
    0.2328   -2.2439    0.2131 C   0  0  0  0  0  0  0  0  0  0  0  0
    1.2097   -2.3192   -0.5294 O   0  0  0  0  0  0  0  0  0  0  0  0
    0.3557   -3.6024    2.3171 C   0  0  0  0  0  0  0  0  0  0  0  0
    0.6584   -4.6506   -0.4643 H   0  0  0  0  0  0  0  0  0  0  0  0
   -1.4091   -3.3101    1.1082 H   0  0  0  0  0  0  0  0  0  0  0  0
    1.4375   -3.7336    2.1985 H   0  0  0  0  0  0  0  0  0  0  0  0
    0.1969   -2.7243    2.9517 H   0  0  0  0  0  0  0  0  0  0  0  0
   -0.0294   -4.4803    2.8470 H   0  0  0  0  0  0  0  0  0  0  0  0
   -0.4616   -1.0893    0.5050 N   0  0  0  0  0  0  0  0  0  0  0  0
   -0.0884    0.2050   -0.0621 C   0  0  2  0  0  0  0  0  0  0  0  0
    0.9092    0.8570    0.8912 C   0  0  0  0  0  0  0  0  0  0  0  0
    0.5708    1.6043    1.8069 O   0  0  0  0  0  0  0  0  0  0  0  0
   -1.3000    1.1312   -0.2452 C   0  0  0  0  0  0  0  0  0  0  0  0
   -2.2760    0.6496   -1.3237 C   0  0  0  0  0  0  0  0  0  0  0  0
   -3.4497    1.6199   -1.4819 C   0  0  0  0  0  0  0  0  0  0  0  0
   -4.4353    1.1268   -2.5400 C   0  0  0  0  0  0  0  0  0  0  0  0
   -5.5561    2.0518   -2.6582 N   0  0  0  0  0  0  0  0  0  0  0  0
   -1.2794   -1.1113    1.0935 H   0  0  0  0  0  0  0  0  0  0  0  0
    0.3995    0.0341   -1.0292 H   0  0  0  0  0  0  0  0  0  0  0  0
   -0.9469    2.1364   -0.5109 H   0  0  0  0  0  0  0  0  0  0  0  0
   -1.8329    1.2427    0.7089 H   0  0  0  0  0  0  0  0  0  0  0  0
   -2.6643   -0.3423   -1.0664 H   0  0  0  0  0  0  0  0  0  0  0  0
   -1.7477    0.5552   -2.2801 H   0  0  0  0  0  0  0  0  0  0  0  0
   -3.9626    1.7314   -0.5182 H   0  0  0  0  0  0  0  0  0  0  0  0
   -3.0701    2.6107   -1.7622 H   0  0  0  0  0  0  0  0  0  0  0  0
   -4.8115    0.1330   -2.2737 H   0  0  0  0  0  0  0  0  0  0  0  0
   -3.9358    1.0453   -3.5112 H   0  0  0  0  0  0  0  0  0  0  0  0
   -5.4279    2.7846   -2.0000 H   0  0  0  0  0  0  0  0  0  0  0  0
   -5.5676    2.4120   -3.5837 H   0  0  0  0  0  0  0  0  0  0  0  0
    2.2208    0.5226    0.5836 N   0  0  0  0  0  0  0  0  0  0  0  0
    3.3597    1.0243    1.3185 C   0  0  2  0  0  0  0  0  0  0  0  0
    4.5232    1.1630    0.3456 C   0  0  0  0  0  0  0  0  0  0  0  0
    4.7031    0.3966   -0.5985 O   0  0  0  0  0  0  0  0  0  0  0  0
    3.7230    0.1030    2.4725 C   0  0  0  0  0  0  0  0  0  0  0  0
    2.4048   -0.1117   -0.1880 H   0  0  0  0  0  0  0  0  0  0  0  0
    3.0804    2.0132    1.6981 H   0  0  0  0  0  0  0  0  0  0  0  0
    4.0056   -0.8927    2.1117 H   0  0  0  0  0  0  0  0  0  0  0  0
    4.5679    0.4990    3.0455 H   0  0  0  0  0  0  0  0  0  0  0  0
    2.8753   -0.0192    3.1554 H   0  0  0  0  0  0  0  0  0  0  0  0
    5.3611    2.2173    0.6810 N   0  0  0  0  0  0  0  0  0  0  0  0
    6.5589    2.5284   -0.0636 C   0  0  0  0  0  0  0  0  0  0  0  0
    5.1134    2.8253    1.4560 H   0  0  0  0  0  0  0  0  0  0  0  0
    7.4180    2.0131    0.3908 H   0  0  0  0  0  0  0  0  0  0  0  0
    6.4402    2.1948   -1.1050 H   0  0  0  0  0  0  0  0  0  0  0  0
    6.7309    3.6147   -0.0439 H   0  0  0  0  0  0  0  0  0  0  0  0
  1  3  1  0  0  0  0
  1  7  1  0  0  0  0
  1  2  2  0  0  0  0
 39 40  1  0  0  0  0
 40 48  1  0  0  0  0
 40 41  2  0  0  0  0
  8  9  1  0  0  0  0
  9 17  1  0  0  0  0
  9 10  2  0  0  0  0
 18 19  1  0  0  0  0
 19 38  1  0  0  0  0
 19 20  2  0  0  0  0
 39 42  1  0  0  0  0
  8 11  1  0  0  0  0
 48 49  1  0  0  0  0
 22 23  1  0  0  0  0
 21 22  1  0  0  0  0
 23 24  1  0  0  0  0
 18 21  1  0  0  0  0
 24 25  1  0  0  0  0
 38 39  1  0  0  0  0
  7  8  1  0  0  0  0
 17 18  1  0  0  0  0
  3  4  1  0  0  0  0
  3  5  1  0  0  0  0
  3  6  1  0  0  0  0
 42 45  1  0  0  0  0
 42 46  1  0  0  0  0
 42 47  1  0  0  0  0
 11 14  1  0  0  0  0
 11 15  1  0  0  0  0
 11 16  1  0  0  0  0
 49 51  1  0  0  0  0
 49 52  1  0  0  0  0
 49 53  1  0  0  0  0
 22 30  1  0  0  0  0
 22 31  1  0  0  0  0
 23 32  1  0  0  0  0
 23 33  1  0  0  0  0
 21 28  1  0  0  0  0
 21 29  1  0  0  0  0
 24 34  1  0  0  0  0
 24 35  1  0  0  0  0
 39 44  1  0  0  0  0
  8 13  1  0  0  0  0
 18 27  1  0  0  0  0
 25 36  1  0  0  0  0
 25 37  1  0  0  0  0
 48 50  1  0  0  0  0
  7 12  1  0  0  0  0
 38 43  1  0  0  0  0
 17 26  1  0  0  0  0
M  END
$$$$

  -OEChem-05262214473D

 53 52  0     1  0  0  0  0  0999 V2000
   -1.0338   -5.6785    0.1476 C   0  0  0  0  0  0  0  0  0  0  0  0
   -2.0514   -5.7797    0.8227 O   0  0  0  0  0  0  0  0  0  0  0  0
   -0.6558   -6.7819   -0.7841 C   0  0  0  0  0  0  0  0  0  0  0  0
   -0.0111   -7.5354   -0.3038 H   0  0  0  0  0  0  0  0  0  0  0  0
   -1.5317   -7.3401   -1.1520 H   0  0  0  0  0  0  0  0  0  0  0  0
   -0.1109   -6.4687   -1.6890 H   0  0  0  0  0  0  0  0  0  0  0  0
   -0.1543   -4.6083    0.1480 N   0  0  0  0  0  0  0  0  0  0  0  0
   -0.3302   -3.4398    0.9696 C   0  0  2  0  0  0  0  0  0  0  0  0
    0.2328   -2.2439    0.2131 C   0  0  0  0  0  0  0  0  0  0  0  0
    1.2097   -2.3192   -0.5294 O   0  0  0  0  0  0  0  0  0  0  0  0
    0.3557   -3.6024    2.3171 C   0  0  0  0  0  0  0  0  0  0  0  0
    0.6584   -4.6506   -0.4643 H   0  0  0  0  0  0  0  0  0  0  0  0
   -1.4091   -3.3101    1.1082 H   0  0  0  0  0  0  0  0  0  0  0  0
    1.4375   -3.7336    2.1985 H   0  0  0  0  0  0  0  0  0  0  0  0
    0.1969   -2.7243    2.9517 H   0  0  0  0  0  0  0  0  0  0  0  0
   -0.0294   -4.4803    2.8470 H   0  0  0  0  0  0  0  0  0  0  0  0
   -0.4616   -1.0893    0.5050 N   0  0  0  0  0  0  0  0  0  0  0  0
   -0.0884    0.2050   -0.0621 C   0  0  2  0  0  0  0  0  0  0  0  0
    0.9092    0.8570    0.8912 C   0  0  0  0  0  0  0  0  0  0  0  0
    0.5776    1.3789    1.9538 O   0  0  0  0  0  0  0  0  0  0  0  0
   -1.3000    1.1312   -0.2452 C   0  0  0  0  0  0  0  0  0  0  0  0
   -2.2760    0.6496   -1.3237 C   0  0  0  0  0  0  0  0  0  0  0  0
   -3.4497    1.6199   -1.4819 C   0  0  0  0  0  0  0  0  0  0  0  0
   -4.4353    1.1268   -2.5400 C   0  0  0  0  0  0  0  0  0  0  0  0
   -5.5561    2.0518   -2.6582 N   0  0  0  0  0  0  0  0  0  0  0  0
   -1.2794   -1.1113    1.0935 H   0  0  0  0  0  0  0  0  0  0  0  0
    0.3995    0.0341   -1.0292 H   0  0  0  0  0  0  0  0  0  0  0  0
   -0.9469    2.1364   -0.5109 H   0  0  0  0  0  0  0  0  0  0  0  0
   -1.8329    1.2427    0.7089 H   0  0  0  0  0  0  0  0  0  0  0  0
   -2.6643   -0.3423   -1.0664 H   0  0  0  0  0  0  0  0  0  0  0  0
   -1.7477    0.5552   -2.2801 H   0  0  0  0  0  0  0  0  0  0  0  0
   -3.9626    1.7314   -0.5182 H   0  0  0  0  0  0  0  0  0  0  0  0
   -3.0701    2.6107   -1.7622 H   0  0  0  0  0  0  0  0  0  0  0  0
   -4.8115    0.1330   -2.2737 H   0  0  0  0  0  0  0  0  0  0  0  0
   -3.9358    1.0453   -3.5112 H   0  0  0  0  0  0  0  0  0  0  0  0
   -5.4279    2.7846   -2.0000 H   0  0  0  0  0  0  0  0  0  0  0  0
   -5.5676    2.4120   -3.5837 H   0  0  0  0  0  0  0  0  0  0  0  0
    2.2078    0.8057    0.4036 N   0  0  0  0  0  0  0  0  0  0  0  0
    3.3396    1.3708    1.1026 C   0  0  2  0  0  0  0  0  0  0  0  0
    4.3382    1.8605    0.0622 C   0  0  0  0  0  0  0  0  0  0  0  0
    4.5137    1.2974   -1.0164 O   0  0  0  0  0  0  0  0  0  0  0  0
    3.9796    0.3526    2.0333 C   0  0  0  0  0  0  0  0  0  0  0  0
    2.3887    0.3441   -0.4828 H   0  0  0  0  0  0  0  0  0  0  0  0
    2.9625    2.2235    1.6776 H   0  0  0  0  0  0  0  0  0  0  0  0
    4.3633   -0.5092    1.4751 H   0  0  0  0  0  0  0  0  0  0  0  0
    4.8192    0.7905    2.5833 H   0  0  0  0  0  0  0  0  0  0  0  0
    3.2521   -0.0207    2.7621 H   0  0  0  0  0  0  0  0  0  0  0  0
    5.0411    2.9752    0.4976 N   0  0  0  0  0  0  0  0  0  0  0  0
    6.0755    3.6019   -0.2918 C   0  0  0  0  0  0  0  0  0  0  0  0
    4.8022    3.3998    1.3888 H   0  0  0  0  0  0  0  0  0  0  0  0
    7.0528    3.1753   -0.0218 H   0  0  0  0  0  0  0  0  0  0  0  0
    5.8803    3.4239   -1.3596 H   0  0  0  0  0  0  0  0  0  0  0  0
    6.0812    4.6843   -0.0955 H   0  0  0  0  0  0  0  0  0  0  0  0
  1  3  1  0  0  0  0
  1  7  1  0  0  0  0
  1  2  2  0  0  0  0
 39 40  1  0  0  0  0
 40 48  1  0  0  0  0
 40 41  2  0  0  0  0
  8  9  1  0  0  0  0
  9 17  1  0  0  0  0
  9 10  2  0  0  0  0
 18 19  1  0  0  0  0
 19 38  1  0  0  0  0
 19 20  2  0  0  0  0
 39 42  1  0  0  0  0
  8 11  1  0  0  0  0
 48 49  1  0  0  0  0
 22 23  1  0  0  0  0
 21 22  1  0  0  0  0
 23 24  1  0  0  0  0
 18 21  1  0  0  0  0
 24 25  1  0  0  0  0
 38 39  1  0  0  0  0
  7  8  1  0  0  0  0
 17 18  1  0  0  0  0
  3  4  1  0  0  0  0
  3  5  1  0  0  0  0
  3  6  1  0  0  0  0
 42 45  1  0  0  0  0
 42 46  1  0  0  0  0
 42 47  1  0  0  0  0
 11 14  1  0  0  0  0
 11 15  1  0  0  0  0
 11 16  1  0  0  0  0
 49 51  1  0  0  0  0
 49 52  1  0  0  0  0
 49 53  1  0  0  0  0
 22 30  1  0  0  0  0
 22 31  1  0  0  0  0
 23 32  1  0  0  0  0
 23 33  1  0  0  0  0
 21 28  1  0  0  0  0
 21 29  1  0  0  0  0
 24 34  1  0  0  0  0
 24 35  1  0  0  0  0
 39 44  1  0  0  0  0
  8 13  1  0  0  0  0
 18 27  1  0  0  0  0
 25 36  1  0  0  0  0
 25 37  1  0  0  0  0
 48 50  1  0  0  0  0
  7 12  1  0  0  0  0
 38 43  1  0  0  0  0
 17 26  1  0  0  0  0
M  END
$$$$

  -OEChem-05262214473D

 53 52  0     1  0  0  0  0  0999 V2000
   -1.0338   -5.6785    0.1476 C   0  0  0  0  0  0  0  0  0  0  0  0
   -2.0514   -5.7797    0.8227 O   0  0  0  0  0  0  0  0  0  0  0  0
   -0.6558   -6.7819   -0.7841 C   0  0  0  0  0  0  0  0  0  0  0  0
   -0.0111   -7.5354   -0.3038 H   0  0  0  0  0  0  0  0  0  0  0  0
   -1.5317   -7.3401   -1.1520 H   0  0  0  0  0  0  0  0  0  0  0  0
   -0.1109   -6.4687   -1.6890 H   0  0  0  0  0  0  0  0  0  0  0  0
   -0.1543   -4.6083    0.1480 N   0  0  0  0  0  0  0  0  0  0  0  0
   -0.3302   -3.4398    0.9696 C   0  0  2  0  0  0  0  0  0  0  0  0
    0.2328   -2.2439    0.2131 C   0  0  0  0  0  0  0  0  0  0  0  0
    1.2097   -2.3192   -0.5294 O   0  0  0  0  0  0  0  0  0  0  0  0
    0.3557   -3.6024    2.3171 C   0  0  0  0  0  0  0  0  0  0  0  0
    0.6584   -4.6506   -0.4643 H   0  0  0  0  0  0  0  0  0  0  0  0
   -1.4091   -3.3101    1.1082 H   0  0  0  0  0  0  0  0  0  0  0  0
    1.4375   -3.7336    2.1985 H   0  0  0  0  0  0  0  0  0  0  0  0
    0.1969   -2.7243    2.9517 H   0  0  0  0  0  0  0  0  0  0  0  0
   -0.0294   -4.4803    2.8470 H   0  0  0  0  0  0  0  0  0  0  0  0
   -0.4616   -1.0893    0.5050 N   0  0  0  0  0  0  0  0  0  0  0  0
   -0.0884    0.2050   -0.0621 C   0  0  2  0  0  0  0  0  0  0  0  0
    0.9092    0.8570    0.8912 C   0  0  0  0  0  0  0  0  0  0  0  0
    0.6370    1.1375    2.0568 O   0  0  0  0  0  0  0  0  0  0  0  0
   -1.3000    1.1312   -0.2452 C   0  0  0  0  0  0  0  0  0  0  0  0
   -2.2760    0.6496   -1.3237 C   0  0  0  0  0  0  0  0  0  0  0  0
   -3.4497    1.6199   -1.4819 C   0  0  0  0  0  0  0  0  0  0  0  0
   -4.4353    1.1268   -2.5400 C   0  0  0  0  0  0  0  0  0  0  0  0
   -5.5561    2.0518   -2.6582 N   0  0  0  0  0  0  0  0  0  0  0  0
   -1.2794   -1.1113    1.0935 H   0  0  0  0  0  0  0  0  0  0  0  0
    0.3995    0.0341   -1.0292 H   0  0  0  0  0  0  0  0  0  0  0  0
   -0.9469    2.1364   -0.5109 H   0  0  0  0  0  0  0  0  0  0  0  0
   -1.8329    1.2427    0.7089 H   0  0  0  0  0  0  0  0  0  0  0  0
   -2.6643   -0.3423   -1.0664 H   0  0  0  0  0  0  0  0  0  0  0  0
   -1.7477    0.5552   -2.2801 H   0  0  0  0  0  0  0  0  0  0  0  0
   -3.9626    1.7314   -0.5182 H   0  0  0  0  0  0  0  0  0  0  0  0
   -3.0701    2.6107   -1.7622 H   0  0  0  0  0  0  0  0  0  0  0  0
   -4.8115    0.1330   -2.2737 H   0  0  0  0  0  0  0  0  0  0  0  0
   -3.9358    1.0453   -3.5112 H   0  0  0  0  0  0  0  0  0  0  0  0
   -5.4279    2.7846   -2.0000 H   0  0  0  0  0  0  0  0  0  0  0  0
   -5.5676    2.4120   -3.5837 H   0  0  0  0  0  0  0  0  0  0  0  0
    2.1295    1.1075    0.2791 N   0  0  0  0  0  0  0  0  0  0  0  0
    3.2403    1.7387    0.9549 C   0  0  2  0  0  0  0  0  0  0  0  0
    4.0153    2.5523   -0.0731 C   0  0  0  0  0  0  0  0  0  0  0  0
    4.1389    2.2076   -1.2466 O   0  0  0  0  0  0  0  0  0  0  0  0
    4.1386    0.7094    1.6229 C   0  0  0  0  0  0  0  0  0  0  0  0
    2.2668    0.8316   -0.6887 H   0  0  0  0  0  0  0  0  0  0  0  0
    2.8124    2.4111    1.7064 H   0  0  0  0  0  0  0  0  0  0  0  0
    4.5765    0.0267    0.8856 H   0  0  0  0  0  0  0  0  0  0  0  0
    4.9636    1.1908    2.1584 H   0  0  0  0  0  0  0  0  0  0  0  0
    3.5728    0.1053    2.3403 H   0  0  0  0  0  0  0  0  0  0  0  0
    4.5891    3.6865    0.4840 N   0  0  0  0  0  0  0  0  0  0  0  0
    5.4097    4.5993   -0.2772 C   0  0  0  0  0  0  0  0  0  0  0  0
    4.4012    3.9158    1.4556 H   0  0  0  0  0  0  0  0  0  0  0  0
    6.4665    4.3086   -0.1833 H   0  0  0  0  0  0  0  0  0  0  0  0
    5.1125    4.5638   -1.3357 H   0  0  0  0  0  0  0  0  0  0  0  0
    5.2751    5.6210    0.1074 H   0  0  0  0  0  0  0  0  0  0  0  0
  1  3  1  0  0  0  0
  1  7  1  0  0  0  0
  1  2  2  0  0  0  0
 39 40  1  0  0  0  0
 40 48  1  0  0  0  0
 40 41  2  0  0  0  0
  8  9  1  0  0  0  0
  9 17  1  0  0  0  0
  9 10  2  0  0  0  0
 18 19  1  0  0  0  0
 19 38  1  0  0  0  0
 19 20  2  0  0  0  0
 39 42  1  0  0  0  0
  8 11  1  0  0  0  0
 48 49  1  0  0  0  0
 22 23  1  0  0  0  0
 21 22  1  0  0  0  0
 23 24  1  0  0  0  0
 18 21  1  0  0  0  0
 24 25  1  0  0  0  0
 38 39  1  0  0  0  0
  7  8  1  0  0  0  0
 17 18  1  0  0  0  0
  3  4  1  0  0  0  0
  3  5  1  0  0  0  0
  3  6  1  0  0  0  0
 42 45  1  0  0  0  0
 42 46  1  0  0  0  0
 42 47  1  0  0  0  0
 11 14  1  0  0  0  0
 11 15  1  0  0  0  0
 11 16  1  0  0  0  0
 49 51  1  0  0  0  0
 49 52  1  0  0  0  0
 49 53  1  0  0  0  0
 22 30  1  0  0  0  0
 22 31  1  0  0  0  0
 23 32  1  0  0  0  0
 23 33  1  0  0  0  0
 21 28  1  0  0  0  0
 21 29  1  0  0  0  0
 24 34  1  0  0  0  0
 24 35  1  0  0  0  0
 39 44  1  0  0  0  0
  8 13  1  0  0  0  0
 18 27  1  0  0  0  0
 25 36  1  0  0  0  0
 25 37  1  0  0  0  0
 48 50  1  0  0  0  0
  7 12  1  0  0  0  0
 38 43  1  0  0  0  0
 17 26  1  0  0  0  0
M  END
$$$$

  -OEChem-05262214473D

 53 52  0     1  0  0  0  0  0999 V2000
   -1.0338   -5.6785    0.1476 C   0  0  0  0  0  0  0  0  0  0  0  0
   -2.0514   -5.7797    0.8227 O   0  0  0  0  0  0  0  0  0  0  0  0
   -0.6558   -6.7819   -0.7841 C   0  0  0  0  0  0  0  0  0  0  0  0
   -0.0111   -7.5354   -0.3038 H   0  0  0  0  0  0  0  0  0  0  0  0
   -1.5317   -7.3401   -1.1520 H   0  0  0  0  0  0  0  0  0  0  0  0
   -0.1109   -6.4687   -1.6890 H   0  0  0  0  0  0  0  0  0  0  0  0
   -0.1543   -4.6083    0.1480 N   0  0  0  0  0  0  0  0  0  0  0  0
   -0.3302   -3.4398    0.9696 C   0  0  2  0  0  0  0  0  0  0  0  0
    0.2328   -2.2439    0.2131 C   0  0  0  0  0  0  0  0  0  0  0  0
    1.2097   -2.3192   -0.5294 O   0  0  0  0  0  0  0  0  0  0  0  0
    0.3557   -3.6024    2.3171 C   0  0  0  0  0  0  0  0  0  0  0  0
    0.6584   -4.6506   -0.4643 H   0  0  0  0  0  0  0  0  0  0  0  0
   -1.4091   -3.3101    1.1082 H   0  0  0  0  0  0  0  0  0  0  0  0
    1.4375   -3.7336    2.1985 H   0  0  0  0  0  0  0  0  0  0  0  0
    0.1969   -2.7243    2.9517 H   0  0  0  0  0  0  0  0  0  0  0  0
   -0.0294   -4.4803    2.8470 H   0  0  0  0  0  0  0  0  0  0  0  0
   -0.4616   -1.0893    0.5050 N   0  0  0  0  0  0  0  0  0  0  0  0
   -0.0884    0.2050   -0.0621 C   0  0  2  0  0  0  0  0  0  0  0  0
    0.9092    0.8570    0.8912 C   0  0  0  0  0  0  0  0  0  0  0  0
    0.7447    0.8965    2.1089 O   0  0  0  0  0  0  0  0  0  0  0  0
   -1.3000    1.1312   -0.2452 C   0  0  0  0  0  0  0  0  0  0  0  0
   -2.2760    0.6496   -1.3237 C   0  0  0  0  0  0  0  0  0  0  0  0
   -3.4497    1.6199   -1.4819 C   0  0  0  0  0  0  0  0  0  0  0  0
   -4.4353    1.1268   -2.5400 C   0  0  0  0  0  0  0  0  0  0  0  0
   -5.5561    2.0518   -2.6582 N   0  0  0  0  0  0  0  0  0  0  0  0
   -1.2794   -1.1113    1.0935 H   0  0  0  0  0  0  0  0  0  0  0  0
    0.3995    0.0341   -1.0292 H   0  0  0  0  0  0  0  0  0  0  0  0
   -0.9469    2.1364   -0.5109 H   0  0  0  0  0  0  0  0  0  0  0  0
   -1.8329    1.2427    0.7089 H   0  0  0  0  0  0  0  0  0  0  0  0
   -2.6643   -0.3423   -1.0664 H   0  0  0  0  0  0  0  0  0  0  0  0
   -1.7477    0.5552   -2.2801 H   0  0  0  0  0  0  0  0  0  0  0  0
   -3.9626    1.7314   -0.5182 H   0  0  0  0  0  0  0  0  0  0  0  0
   -3.0701    2.6107   -1.7622 H   0  0  0  0  0  0  0  0  0  0  0  0
   -4.8115    0.1330   -2.2737 H   0  0  0  0  0  0  0  0  0  0  0  0
   -3.9358    1.0453   -3.5112 H   0  0  0  0  0  0  0  0  0  0  0  0
   -5.4279    2.7846   -2.0000 H   0  0  0  0  0  0  0  0  0  0  0  0
   -5.5676    2.4120   -3.5837 H   0  0  0  0  0  0  0  0  0  0  0  0
    1.9914    1.4075    0.2185 N   0  0  0  0  0  0  0  0  0  0  0  0
    3.0685    2.1030    0.8854 C   0  0  2  0  0  0  0  0  0  0  0  0
    3.5767    3.1912   -0.0511 C   0  0  0  0  0  0  0  0  0  0  0  0
    3.6042    3.0651   -1.2735 O   0  0  0  0  0  0  0  0  0  0  0  0
    4.1891    1.1492    1.2692 C   0  0  0  0  0  0  0  0  0  0  0  0
    2.0475    1.3177   -0.7916 H   0  0  0  0  0  0  0  0  0  0  0  0
    2.6403    2.5631    1.7826 H   0  0  0  0  0  0  0  0  0  0  0  0
    4.6306    0.6785    0.3832 H   0  0  0  0  0  0  0  0  0  0  0  0
    4.9914    1.6727    1.7997 H   0  0  0  0  0  0  0  0  0  0  0  0
    3.8156    0.3503    1.9188 H   0  0  0  0  0  0  0  0  0  0  0  0
    4.0361    4.3029    0.6413 N   0  0  0  0  0  0  0  0  0  0  0  0
    4.6070    5.4526   -0.0208 C   0  0  0  0  0  0  0  0  0  0  0  0
    3.9379    4.3380    1.6516 H   0  0  0  0  0  0  0  0  0  0  0  0
    5.6991    5.3358   -0.0828 H   0  0  0  0  0  0  0  0  0  0  0  0
    4.1892    5.5366   -1.0348 H   0  0  0  0  0  0  0  0  0  0  0  0
    4.3674    6.3612    0.5510 H   0  0  0  0  0  0  0  0  0  0  0  0
  1  3  1  0  0  0  0
  1  7  1  0  0  0  0
  1  2  2  0  0  0  0
 39 40  1  0  0  0  0
 40 48  1  0  0  0  0
 40 41  2  0  0  0  0
  8  9  1  0  0  0  0
  9 17  1  0  0  0  0
  9 10  2  0  0  0  0
 18 19  1  0  0  0  0
 19 38  1  0  0  0  0
 19 20  2  0  0  0  0
 39 42  1  0  0  0  0
  8 11  1  0  0  0  0
 48 49  1  0  0  0  0
 22 23  1  0  0  0  0
 21 22  1  0  0  0  0
 23 24  1  0  0  0  0
 18 21  1  0  0  0  0
 24 25  1  0  0  0  0
 38 39  1  0  0  0  0
  7  8  1  0  0  0  0
 17 18  1  0  0  0  0
  3  4  1  0  0  0  0
  3  5  1  0  0  0  0
  3  6  1  0  0  0  0
 42 45  1  0  0  0  0
 42 46  1  0  0  0  0
 42 47  1  0  0  0  0
 11 14  1  0  0  0  0
 11 15  1  0  0  0  0
 11 16  1  0  0  0  0
 49 51  1  0  0  0  0
 49 52  1  0  0  0  0
 49 53  1  0  0  0  0
 22 30  1  0  0  0  0
 22 31  1  0  0  0  0
 23 32  1  0  0  0  0
 23 33  1  0  0  0  0
 21 28  1  0  0  0  0
 21 29  1  0  0  0  0
 24 34  1  0  0  0  0
 24 35  1  0  0  0  0
 39 44  1  0  0  0  0
  8 13  1  0  0  0  0
 18 27  1  0  0  0  0
 25 36  1  0  0  0  0
 25 37  1  0  0  0  0
 48 50  1  0  0  0  0
  7 12  1  0  0  0  0
 38 43  1  0  0  0  0
 17 26  1  0  0  0  0
M  END
$$$$

  -OEChem-05262214473D

 53 52  0     1  0  0  0  0  0999 V2000
   -1.0338   -5.6785    0.1476 C   0  0  0  0  0  0  0  0  0  0  0  0
   -2.0514   -5.7797    0.8227 O   0  0  0  0  0  0  0  0  0  0  0  0
   -0.6558   -6.7819   -0.7841 C   0  0  0  0  0  0  0  0  0  0  0  0
   -0.0111   -7.5354   -0.3038 H   0  0  0  0  0  0  0  0  0  0  0  0
   -1.5317   -7.3401   -1.1520 H   0  0  0  0  0  0  0  0  0  0  0  0
   -0.1109   -6.4687   -1.6890 H   0  0  0  0  0  0  0  0  0  0  0  0
   -0.1543   -4.6083    0.1480 N   0  0  0  0  0  0  0  0  0  0  0  0
   -0.3302   -3.4398    0.9696 C   0  0  2  0  0  0  0  0  0  0  0  0
    0.2328   -2.2439    0.2131 C   0  0  0  0  0  0  0  0  0  0  0  0
    1.2097   -2.3192   -0.5294 O   0  0  0  0  0  0  0  0  0  0  0  0
    0.3557   -3.6024    2.3171 C   0  0  0  0  0  0  0  0  0  0  0  0
    0.6584   -4.6506   -0.4643 H   0  0  0  0  0  0  0  0  0  0  0  0
   -1.4091   -3.3101    1.1082 H   0  0  0  0  0  0  0  0  0  0  0  0
    1.4375   -3.7336    2.1985 H   0  0  0  0  0  0  0  0  0  0  0  0
    0.1969   -2.7243    2.9517 H   0  0  0  0  0  0  0  0  0  0  0  0
   -0.0294   -4.4803    2.8470 H   0  0  0  0  0  0  0  0  0  0  0  0
   -0.4616   -1.0893    0.5050 N   0  0  0  0  0  0  0  0  0  0  0  0
   -0.0884    0.2050   -0.0621 C   0  0  2  0  0  0  0  0  0  0  0  0
    0.9092    0.8570    0.8912 C   0  0  0  0  0  0  0  0  0  0  0  0
    0.8934    0.6723    2.1066 O   0  0  0  0  0  0  0  0  0  0  0  0
   -1.3000    1.1312   -0.2452 C   0  0  0  0  0  0  0  0  0  0  0  0
   -2.2760    0.6496   -1.3237 C   0  0  0  0  0  0  0  0  0  0  0  0
   -3.4497    1.6199   -1.4819 C   0  0  0  0  0  0  0  0  0  0  0  0
   -4.4353    1.1268   -2.5400 C   0  0  0  0  0  0  0  0  0  0  0  0
   -5.5561    2.0518   -2.6582 N   0  0  0  0  0  0  0  0  0  0  0  0
   -1.2794   -1.1113    1.0935 H   0  0  0  0  0  0  0  0  0  0  0  0
    0.3995    0.0341   -1.0292 H   0  0  0  0  0  0  0  0  0  0  0  0
   -0.9469    2.1364   -0.5109 H   0  0  0  0  0  0  0  0  0  0  0  0
   -1.8329    1.2427    0.7089 H   0  0  0  0  0  0  0  0  0  0  0  0
   -2.6643   -0.3423   -1.0664 H   0  0  0  0  0  0  0  0  0  0  0  0
   -1.7477    0.5552   -2.2801 H   0  0  0  0  0  0  0  0  0  0  0  0
   -3.9626    1.7314   -0.5182 H   0  0  0  0  0  0  0  0  0  0  0  0
   -3.0701    2.6107   -1.7622 H   0  0  0  0  0  0  0  0  0  0  0  0
   -4.8115    0.1330   -2.2737 H   0  0  0  0  0  0  0  0  0  0  0  0
   -3.9358    1.0453   -3.5112 H   0  0  0  0  0  0  0  0  0  0  0  0
   -5.4279    2.7846   -2.0000 H   0  0  0  0  0  0  0  0  0  0  0  0
   -5.5676    2.4120   -3.5837 H   0  0  0  0  0  0  0  0  0  0  0  0
    1.8028    1.6851    0.2260 N   0  0  0  0  0  0  0  0  0  0  0  0
    2.8361    2.4389    0.8990 C   0  0  2  0  0  0  0  0  0  0  0  0
    3.0522    3.7337    0.1268 C   0  0  0  0  0  0  0  0  0  0  0  0
    2.9462    3.8115   -1.0954 O   0  0  0  0  0  0  0  0  0  0  0  0
    4.1277    1.6421    0.9965 C   0  0  0  0  0  0  0  0  0  0  0  0
    1.7457    1.7691   -0.7846 H   0  0  0  0  0  0  0  0  0  0  0  0
    2.4578    2.6692    1.9009 H   0  0  0  0  0  0  0  0  0  0  0  0
    4.5219    1.4019    0.0023 H   0  0  0  0  0  0  0  0  0  0  0  0
    4.9007    2.2034    1.5317 H   0  0  0  0  0  0  0  0  0  0  0  0
    3.9639    0.6974    1.5262 H   0  0  0  0  0  0  0  0  0  0  0  0
    3.4196    4.7822    0.9585 N   0  0  0  0  0  0  0  0  0  0  0  0
    3.7221    6.1036    0.4601 C   0  0  0  0  0  0  0  0  0  0  0  0
    3.4437    4.6378    1.9637 H   0  0  0  0  0  0  0  0  0  0  0  0
    4.8028    6.1870    0.2730 H   0  0  0  0  0  0  0  0  0  0  0  0
    3.1734    6.2761   -0.4776 H   0  0  0  0  0  0  0  0  0  0  0  0
    3.4201    6.8544    1.2051 H   0  0  0  0  0  0  0  0  0  0  0  0
  1  3  1  0  0  0  0
  1  7  1  0  0  0  0
  1  2  2  0  0  0  0
 39 40  1  0  0  0  0
 40 48  1  0  0  0  0
 40 41  2  0  0  0  0
  8  9  1  0  0  0  0
  9 17  1  0  0  0  0
  9 10  2  0  0  0  0
 18 19  1  0  0  0  0
 19 38  1  0  0  0  0
 19 20  2  0  0  0  0
 39 42  1  0  0  0  0
  8 11  1  0  0  0  0
 48 49  1  0  0  0  0
 22 23  1  0  0  0  0
 21 22  1  0  0  0  0
 23 24  1  0  0  0  0
 18 21  1  0  0  0  0
 24 25  1  0  0  0  0
 38 39  1  0  0  0  0
  7  8  1  0  0  0  0
 17 18  1  0  0  0  0
  3  4  1  0  0  0  0
  3  5  1  0  0  0  0
  3  6  1  0  0  0  0
 42 45  1  0  0  0  0
 42 46  1  0  0  0  0
 42 47  1  0  0  0  0
 11 14  1  0  0  0  0
 11 15  1  0  0  0  0
 11 16  1  0  0  0  0
 49 51  1  0  0  0  0
 49 52  1  0  0  0  0
 49 53  1  0  0  0  0
 22 30  1  0  0  0  0
 22 31  1  0  0  0  0
 23 32  1  0  0  0  0
 23 33  1  0  0  0  0
 21 28  1  0  0  0  0
 21 29  1  0  0  0  0
 24 34  1  0  0  0  0
 24 35  1  0  0  0  0
 39 44  1  0  0  0  0
  8 13  1  0  0  0  0
 18 27  1  0  0  0  0
 25 36  1  0  0  0  0
 25 37  1  0  0  0  0
 48 50  1  0  0  0  0
  7 12  1  0  0  0  0
 38 43  1  0  0  0  0
 17 26  1  0  0  0  0
M  END
$$$$

  -OEChem-05262214473D

 53 52  0     1  0  0  0  0  0999 V2000
   -1.0338   -5.6785    0.1476 C   0  0  0  0  0  0  0  0  0  0  0  0
   -2.0514   -5.7797    0.8227 O   0  0  0  0  0  0  0  0  0  0  0  0
   -0.6558   -6.7819   -0.7841 C   0  0  0  0  0  0  0  0  0  0  0  0
   -0.0111   -7.5354   -0.3038 H   0  0  0  0  0  0  0  0  0  0  0  0
   -1.5317   -7.3401   -1.1520 H   0  0  0  0  0  0  0  0  0  0  0  0
   -0.1109   -6.4687   -1.6890 H   0  0  0  0  0  0  0  0  0  0  0  0
   -0.1543   -4.6083    0.1480 N   0  0  0  0  0  0  0  0  0  0  0  0
   -0.3302   -3.4398    0.9696 C   0  0  2  0  0  0  0  0  0  0  0  0
    0.2328   -2.2439    0.2131 C   0  0  0  0  0  0  0  0  0  0  0  0
    1.2097   -2.3192   -0.5294 O   0  0  0  0  0  0  0  0  0  0  0  0
    0.3557   -3.6024    2.3171 C   0  0  0  0  0  0  0  0  0  0  0  0
    0.6584   -4.6506   -0.4643 H   0  0  0  0  0  0  0  0  0  0  0  0
   -1.4091   -3.3101    1.1082 H   0  0  0  0  0  0  0  0  0  0  0  0
    1.4375   -3.7336    2.1985 H   0  0  0  0  0  0  0  0  0  0  0  0
    0.1969   -2.7243    2.9517 H   0  0  0  0  0  0  0  0  0  0  0  0
   -0.0294   -4.4803    2.8470 H   0  0  0  0  0  0  0  0  0  0  0  0
   -0.4616   -1.0893    0.5050 N   0  0  0  0  0  0  0  0  0  0  0  0
   -0.0884    0.2050   -0.0621 C   0  0  2  0  0  0  0  0  0  0  0  0
    0.9092    0.8570    0.8912 C   0  0  0  0  0  0  0  0  0  0  0  0
    1.0731    0.4802    2.0499 O   0  0  0  0  0  0  0  0  0  0  0  0
   -1.3000    1.1312   -0.2452 C   0  0  0  0  0  0  0  0  0  0  0  0
   -2.2760    0.6496   -1.3237 C   0  0  0  0  0  0  0  0  0  0  0  0
   -3.4497    1.6199   -1.4819 C   0  0  0  0  0  0  0  0  0  0  0  0
   -4.4353    1.1268   -2.5400 C   0  0  0  0  0  0  0  0  0  0  0  0
   -5.5561    2.0518   -2.6582 N   0  0  0  0  0  0  0  0  0  0  0  0
   -1.2794   -1.1113    1.0935 H   0  0  0  0  0  0  0  0  0  0  0  0
    0.3995    0.0341   -1.0292 H   0  0  0  0  0  0  0  0  0  0  0  0
   -0.9469    2.1364   -0.5109 H   0  0  0  0  0  0  0  0  0  0  0  0
   -1.8329    1.2427    0.7089 H   0  0  0  0  0  0  0  0  0  0  0  0
   -2.6643   -0.3423   -1.0664 H   0  0  0  0  0  0  0  0  0  0  0  0
   -1.7477    0.5552   -2.2801 H   0  0  0  0  0  0  0  0  0  0  0  0
   -3.9626    1.7314   -0.5182 H   0  0  0  0  0  0  0  0  0  0  0  0
   -3.0701    2.6107   -1.7622 H   0  0  0  0  0  0  0  0  0  0  0  0
   -4.8115    0.1330   -2.2737 H   0  0  0  0  0  0  0  0  0  0  0  0
   -3.9358    1.0453   -3.5112 H   0  0  0  0  0  0  0  0  0  0  0  0
   -5.4279    2.7846   -2.0000 H   0  0  0  0  0  0  0  0  0  0  0  0
   -5.5676    2.4120   -3.5837 H   0  0  0  0  0  0  0  0  0  0  0  0
    1.5765    1.9215    0.3011 N   0  0  0  0  0  0  0  0  0  0  0  0
    2.5587    2.7234    0.9946 C   0  0  2  0  0  0  0  0  0  0  0  0
    2.4775    4.1428    0.4484 C   0  0  0  0  0  0  0  0  0  0  0  0
    2.2095    4.3960   -0.7243 O   0  0  0  0  0  0  0  0  0  0  0  0
    3.9586    2.1544    0.8232 C   0  0  0  0  0  0  0  0  0  0  0  0
    1.3820    2.1552   -0.6680 H   0  0  0  0  0  0  0  0  0  0  0  0
    2.2775    2.7222    2.0533 H   0  0  0  0  0  0  0  0  0  0  0  0
    4.2578    2.1475   -0.2313 H   0  0  0  0  0  0  0  0  0  0  0  0
    4.6977    2.7467    1.3726 H   0  0  0  0  0  0  0  0  0  0  0  0
    4.0076    1.1232    1.1893 H   0  0  0  0  0  0  0  0  0  0  0  0
    2.7817    5.0918    1.4143 N   0  0  0  0  0  0  0  0  0  0  0  0
    2.8152    6.5080    1.1325 C   0  0  0  0  0  0  0  0  0  0  0  0
    2.9525    4.7947    2.3705 H   0  0  0  0  0  0  0  0  0  0  0  0
    3.8389    6.8040    0.8597 H   0  0  0  0  0  0  0  0  0  0  0  0
    2.1342    6.7319    0.2981 H   0  0  0  0  0  0  0  0  0  0  0  0
    2.4975    7.0669    2.0251 H   0  0  0  0  0  0  0  0  0  0  0  0
  1  3  1  0  0  0  0
  1  7  1  0  0  0  0
  1  2  2  0  0  0  0
 39 40  1  0  0  0  0
 40 48  1  0  0  0  0
 40 41  2  0  0  0  0
  8  9  1  0  0  0  0
  9 17  1  0  0  0  0
  9 10  2  0  0  0  0
 18 19  1  0  0  0  0
 19 38  1  0  0  0  0
 19 20  2  0  0  0  0
 39 42  1  0  0  0  0
  8 11  1  0  0  0  0
 48 49  1  0  0  0  0
 22 23  1  0  0  0  0
 21 22  1  0  0  0  0
 23 24  1  0  0  0  0
 18 21  1  0  0  0  0
 24 25  1  0  0  0  0
 38 39  1  0  0  0  0
  7  8  1  0  0  0  0
 17 18  1  0  0  0  0
  3  4  1  0  0  0  0
  3  5  1  0  0  0  0
  3  6  1  0  0  0  0
 42 45  1  0  0  0  0
 42 46  1  0  0  0  0
 42 47  1  0  0  0  0
 11 14  1  0  0  0  0
 11 15  1  0  0  0  0
 11 16  1  0  0  0  0
 49 51  1  0  0  0  0
 49 52  1  0  0  0  0
 49 53  1  0  0  0  0
 22 30  1  0  0  0  0
 22 31  1  0  0  0  0
 23 32  1  0  0  0  0
 23 33  1  0  0  0  0
 21 28  1  0  0  0  0
 21 29  1  0  0  0  0
 24 34  1  0  0  0  0
 24 35  1  0  0  0  0
 39 44  1  0  0  0  0
  8 13  1  0  0  0  0
 18 27  1  0  0  0  0
 25 36  1  0  0  0  0
 25 37  1  0  0  0  0
 48 50  1  0  0  0  0
  7 12  1  0  0  0  0
 38 43  1  0  0  0  0
 17 26  1  0  0  0  0
M  END
$$$$

  -OEChem-05262214473D

 53 52  0     1  0  0  0  0  0999 V2000
   -1.0338   -5.6785    0.1476 C   0  0  0  0  0  0  0  0  0  0  0  0
   -2.0514   -5.7797    0.8227 O   0  0  0  0  0  0  0  0  0  0  0  0
   -0.6558   -6.7819   -0.7841 C   0  0  0  0  0  0  0  0  0  0  0  0
   -0.0111   -7.5354   -0.3038 H   0  0  0  0  0  0  0  0  0  0  0  0
   -1.5317   -7.3401   -1.1520 H   0  0  0  0  0  0  0  0  0  0  0  0
   -0.1109   -6.4687   -1.6890 H   0  0  0  0  0  0  0  0  0  0  0  0
   -0.1543   -4.6083    0.1480 N   0  0  0  0  0  0  0  0  0  0  0  0
   -0.3302   -3.4398    0.9696 C   0  0  2  0  0  0  0  0  0  0  0  0
    0.2328   -2.2439    0.2131 C   0  0  0  0  0  0  0  0  0  0  0  0
    1.2097   -2.3192   -0.5294 O   0  0  0  0  0  0  0  0  0  0  0  0
    0.3557   -3.6024    2.3171 C   0  0  0  0  0  0  0  0  0  0  0  0
    0.6584   -4.6506   -0.4643 H   0  0  0  0  0  0  0  0  0  0  0  0
   -1.4091   -3.3101    1.1082 H   0  0  0  0  0  0  0  0  0  0  0  0
    1.4375   -3.7336    2.1985 H   0  0  0  0  0  0  0  0  0  0  0  0
    0.1969   -2.7243    2.9517 H   0  0  0  0  0  0  0  0  0  0  0  0
   -0.0294   -4.4803    2.8470 H   0  0  0  0  0  0  0  0  0  0  0  0
   -0.4616   -1.0893    0.5050 N   0  0  0  0  0  0  0  0  0  0  0  0
   -0.0884    0.2050   -0.0621 C   0  0  2  0  0  0  0  0  0  0  0  0
    1.1632    0.6855    0.6670 C   0  0  0  0  0  0  0  0  0  0  0  0
    1.6948    0.0502    1.5755 O   0  0  0  0  0  0  0  0  0  0  0  0
   -1.2026    1.2510    0.0923 C   0  0  0  0  0  0  0  0  0  0  0  0
   -2.4431    0.9473   -0.7542 C   0  0  0  0  0  0  0  0  0  0  0  0
   -3.5103    2.0316   -0.5820 C   0  0  0  0  0  0  0  0  0  0  0  0
   -4.7567    1.7158   -1.4071 C   0  0  0  0  0  0  0  0  0  0  0  0
   -5.7685    2.7471   -1.2109 N   0  0  0  0  0  0  0  0  0  0  0  0
   -1.2794   -1.1113    1.0935 H   0  0  0  0  0  0  0  0  0  0  0  0
    0.1471    0.0653   -1.1240 H   0  0  0  0  0  0  0  0  0  0  0  0
   -0.8121    2.2367   -0.1932 H   0  0  0  0  0  0  0  0  0  0  0  0
   -1.4910    1.3368    1.1487 H   0  0  0  0  0  0  0  0  0  0  0  0
   -2.8682   -0.0213   -0.4679 H   0  0  0  0  0  0  0  0  0  0  0  0
   -2.1579    0.8790   -1.8109 H   0  0  0  0  0  0  0  0  0  0  0  0
   -3.7772    2.1148    0.4791 H   0  0  0  0  0  0  0  0  0  0  0  0
   -3.0990    3.0017   -0.8886 H   0  0  0  0  0  0  0  0  0  0  0  0
   -5.1683    0.7435   -1.1151 H   0  0  0  0  0  0  0  0  0  0  0  0
   -4.5013    1.6642   -2.4708 H   0  0  0  0  0  0  0  0  0  0  0  0
   -5.4165    3.4114   -0.5618 H   0  0  0  0  0  0  0  0  0  0  0  0
   -5.9497    3.1778   -2.0874 H   0  0  0  0  0  0  0  0  0  0  0  0
    1.6010    1.9163    0.1978 N   0  0  0  0  0  0  0  0  0  0  0  0
    2.7535    2.6044    0.7337 C   0  0  2  0  0  0  0  0  0  0  0  0
    2.4967    4.1021    0.6313 C   0  0  0  0  0  0  0  0  0  0  0  0
    1.8624    4.6125   -0.2897 O   0  0  0  0  0  0  0  0  0  0  0  0
    4.0231    2.2185   -0.0092 C   0  0  0  0  0  0  0  0  0  0  0  0
    1.1022    2.3641   -0.5653 H   0  0  0  0  0  0  0  0  0  0  0  0
    2.8309    2.3178    1.7881 H   0  0  0  0  0  0  0  0  0  0  0  0
    3.9642    2.4978   -1.0674 H   0  0  0  0  0  0  0  0  0  0  0  0
    4.8993    2.7187    0.4164 H   0  0  0  0  0  0  0  0  0  0  0  0
    4.1902    1.1371    0.0403 H   0  0  0  0  0  0  0  0  0  0  0  0
    3.0959    4.8062    1.6663 N   0  0  0  0  0  0  0  0  0  0  0  0
    3.0334    6.2455    1.7687 C   0  0  0  0  0  0  0  0  0  0  0  0
    3.5681    4.2984    2.4085 H   0  0  0  0  0  0  0  0  0  0  0  0
    3.9127    6.6872    1.2769 H   0  0  0  0  0  0  0  0  0  0  0  0
    2.1182    6.6085    1.2781 H   0  0  0  0  0  0  0  0  0  0  0  0
    3.0214    6.5374    2.8292 H   0  0  0  0  0  0  0  0  0  0  0  0
  1  3  1  0  0  0  0
  1  7  1  0  0  0  0
  1  2  2  0  0  0  0
 39 40  1  0  0  0  0
 40 48  1  0  0  0  0
 40 41  2  0  0  0  0
  8  9  1  0  0  0  0
  9 17  1  0  0  0  0
  9 10  2  0  0  0  0
 18 19  1  0  0  0  0
 19 38  1  0  0  0  0
 19 20  2  0  0  0  0
 39 42  1  0  0  0  0
  8 11  1  0  0  0  0
 48 49  1  0  0  0  0
 22 23  1  0  0  0  0
 21 22  1  0  0  0  0
 23 24  1  0  0  0  0
 18 21  1  0  0  0  0
 24 25  1  0  0  0  0
 38 39  1  0  0  0  0
  7  8  1  0  0  0  0
 17 18  1  0  0  0  0
  3  4  1  0  0  0  0
  3  5  1  0  0  0  0
  3  6  1  0  0  0  0
 42 45  1  0  0  0  0
 42 46  1  0  0  0  0
 42 47  1  0  0  0  0
 11 14  1  0  0  0  0
 11 15  1  0  0  0  0
 11 16  1  0  0  0  0
 49 51  1  0  0  0  0
 49 52  1  0  0  0  0
 49 53  1  0  0  0  0
 22 30  1  0  0  0  0
 22 31  1  0  0  0  0
 23 32  1  0  0  0  0
 23 33  1  0  0  0  0
 21 28  1  0  0  0  0
 21 29  1  0  0  0  0
 24 34  1  0  0  0  0
 24 35  1  0  0  0  0
 39 44  1  0  0  0  0
  8 13  1  0  0  0  0
 18 27  1  0  0  0  0
 25 36  1  0  0  0  0
 25 37  1  0  0  0  0
 48 50  1  0  0  0  0
  7 12  1  0  0  0  0
 38 43  1  0  0  0  0
 17 26  1  0  0  0  0
M  END
$$$$

  -OEChem-05262214473D

 53 52  0     1  0  0  0  0  0999 V2000
   -1.0338   -5.6785    0.1476 C   0  0  0  0  0  0  0  0  0  0  0  0
   -2.0514   -5.7797    0.8227 O   0  0  0  0  0  0  0  0  0  0  0  0
   -0.6558   -6.7819   -0.7841 C   0  0  0  0  0  0  0  0  0  0  0  0
   -0.0111   -7.5354   -0.3038 H   0  0  0  0  0  0  0  0  0  0  0  0
   -1.5317   -7.3401   -1.1520 H   0  0  0  0  0  0  0  0  0  0  0  0
   -0.1109   -6.4687   -1.6890 H   0  0  0  0  0  0  0  0  0  0  0  0
   -0.1543   -4.6083    0.1480 N   0  0  0  0  0  0  0  0  0  0  0  0
   -0.3302   -3.4398    0.9696 C   0  0  2  0  0  0  0  0  0  0  0  0
    0.2328   -2.2439    0.2131 C   0  0  0  0  0  0  0  0  0  0  0  0
    1.2097   -2.3192   -0.5294 O   0  0  0  0  0  0  0  0  0  0  0  0
    0.3557   -3.6024    2.3171 C   0  0  0  0  0  0  0  0  0  0  0  0
    0.6584   -4.6506   -0.4643 H   0  0  0  0  0  0  0  0  0  0  0  0
   -1.4091   -3.3101    1.1082 H   0  0  0  0  0  0  0  0  0  0  0  0
    1.4375   -3.7336    2.1985 H   0  0  0  0  0  0  0  0  0  0  0  0
    0.1969   -2.7243    2.9517 H   0  0  0  0  0  0  0  0  0  0  0  0
   -0.0294   -4.4803    2.8470 H   0  0  0  0  0  0  0  0  0  0  0  0
   -0.4616   -1.0893    0.5050 N   0  0  0  0  0  0  0  0  0  0  0  0
   -0.0884    0.2050   -0.0621 C   0  0  2  0  0  0  0  0  0  0  0  0
    1.1632    0.6855    0.6670 C   0  0  0  0  0  0  0  0  0  0  0  0
    1.8480   -0.0480    1.3773 O   0  0  0  0  0  0  0  0  0  0  0  0
   -1.2026    1.2510    0.0923 C   0  0  0  0  0  0  0  0  0  0  0  0
   -2.4431    0.9473   -0.7542 C   0  0  0  0  0  0  0  0  0  0  0  0
   -3.5103    2.0316   -0.5820 C   0  0  0  0  0  0  0  0  0  0  0  0
   -4.7567    1.7158   -1.4071 C   0  0  0  0  0  0  0  0  0  0  0  0
   -5.7685    2.7471   -1.2109 N   0  0  0  0  0  0  0  0  0  0  0  0
   -1.2794   -1.1113    1.0935 H   0  0  0  0  0  0  0  0  0  0  0  0
    0.1471    0.0653   -1.1240 H   0  0  0  0  0  0  0  0  0  0  0  0
   -0.8121    2.2367   -0.1932 H   0  0  0  0  0  0  0  0  0  0  0  0
   -1.4910    1.3368    1.1487 H   0  0  0  0  0  0  0  0  0  0  0  0
   -2.8682   -0.0213   -0.4679 H   0  0  0  0  0  0  0  0  0  0  0  0
   -2.1579    0.8790   -1.8109 H   0  0  0  0  0  0  0  0  0  0  0  0
   -3.7772    2.1148    0.4791 H   0  0  0  0  0  0  0  0  0  0  0  0
   -3.0990    3.0017   -0.8886 H   0  0  0  0  0  0  0  0  0  0  0  0
   -5.1683    0.7435   -1.1151 H   0  0  0  0  0  0  0  0  0  0  0  0
   -4.5013    1.6642   -2.4708 H   0  0  0  0  0  0  0  0  0  0  0  0
   -5.4165    3.4114   -0.5618 H   0  0  0  0  0  0  0  0  0  0  0  0
   -5.9497    3.1778   -2.0874 H   0  0  0  0  0  0  0  0  0  0  0  0
    1.4102    2.0337    0.4479 N   0  0  0  0  0  0  0  0  0  0  0  0
    2.5216    2.7423    1.0407 C   0  0  2  0  0  0  0  0  0  0  0  0
    2.0860    4.1812    1.2841 C   0  0  0  0  0  0  0  0  0  0  0  0
    1.3128    4.7827    0.5415 O   0  0  0  0  0  0  0  0  0  0  0  0
    3.7510    2.6904    0.1470 C   0  0  0  0  0  0  0  0  0  0  0  0
    0.7932    2.5598   -0.1639 H   0  0  0  0  0  0  0  0  0  0  0  0
    2.7311    2.2563    1.9998 H   0  0  0  0  0  0  0  0  0  0  0  0
    3.5603    3.1725   -0.8187 H   0  0  0  0  0  0  0  0  0  0  0  0
    4.6003    3.2031    0.6104 H   0  0  0  0  0  0  0  0  0  0  0  0
    4.0452    1.6540   -0.0513 H   0  0  0  0  0  0  0  0  0  0  0  0
    2.6958    4.7288    2.4041 N   0  0  0  0  0  0  0  0  0  0  0  0
    2.4784    6.0944    2.8209 C   0  0  0  0  0  0  0  0  0  0  0  0
    3.2915    4.1453    2.9842 H   0  0  0  0  0  0  0  0  0  0  0  0
    3.2505    6.7408    2.3782 H   0  0  0  0  0  0  0  0  0  0  0  0
    1.4852    6.4266    2.4845 H   0  0  0  0  0  0  0  0  0  0  0  0
    2.5335    6.1561    3.9178 H   0  0  0  0  0  0  0  0  0  0  0  0
  1  3  1  0  0  0  0
  1  7  1  0  0  0  0
  1  2  2  0  0  0  0
 39 40  1  0  0  0  0
 40 48  1  0  0  0  0
 40 41  2  0  0  0  0
  8  9  1  0  0  0  0
  9 17  1  0  0  0  0
  9 10  2  0  0  0  0
 18 19  1  0  0  0  0
 19 38  1  0  0  0  0
 19 20  2  0  0  0  0
 39 42  1  0  0  0  0
  8 11  1  0  0  0  0
 48 49  1  0  0  0  0
 22 23  1  0  0  0  0
 21 22  1  0  0  0  0
 23 24  1  0  0  0  0
 18 21  1  0  0  0  0
 24 25  1  0  0  0  0
 38 39  1  0  0  0  0
  7  8  1  0  0  0  0
 17 18  1  0  0  0  0
  3  4  1  0  0  0  0
  3  5  1  0  0  0  0
  3  6  1  0  0  0  0
 42 45  1  0  0  0  0
 42 46  1  0  0  0  0
 42 47  1  0  0  0  0
 11 14  1  0  0  0  0
 11 15  1  0  0  0  0
 11 16  1  0  0  0  0
 49 51  1  0  0  0  0
 49 52  1  0  0  0  0
 49 53  1  0  0  0  0
 22 30  1  0  0  0  0
 22 31  1  0  0  0  0
 23 32  1  0  0  0  0
 23 33  1  0  0  0  0
 21 28  1  0  0  0  0
 21 29  1  0  0  0  0
 24 34  1  0  0  0  0
 24 35  1  0  0  0  0
 39 44  1  0  0  0  0
  8 13  1  0  0  0  0
 18 27  1  0  0  0  0
 25 36  1  0  0  0  0
 25 37  1  0  0  0  0
 48 50  1  0  0  0  0
  7 12  1  0  0  0  0
 38 43  1  0  0  0  0
 17 26  1  0  0  0  0
M  END
$$$$

  -OEChem-05262214473D

 53 52  0     1  0  0  0  0  0999 V2000
   -1.0338   -5.6785    0.1476 C   0  0  0  0  0  0  0  0  0  0  0  0
   -2.0514   -5.7797    0.8227 O   0  0  0  0  0  0  0  0  0  0  0  0
   -0.6558   -6.7819   -0.7841 C   0  0  0  0  0  0  0  0  0  0  0  0
   -0.0111   -7.5354   -0.3038 H   0  0  0  0  0  0  0  0  0  0  0  0
   -1.5317   -7.3401   -1.1520 H   0  0  0  0  0  0  0  0  0  0  0  0
   -0.1109   -6.4687   -1.6890 H   0  0  0  0  0  0  0  0  0  0  0  0
   -0.1543   -4.6083    0.1480 N   0  0  0  0  0  0  0  0  0  0  0  0
   -0.3302   -3.4398    0.9696 C   0  0  2  0  0  0  0  0  0  0  0  0
    0.2328   -2.2439    0.2131 C   0  0  0  0  0  0  0  0  0  0  0  0
    1.2097   -2.3192   -0.5294 O   0  0  0  0  0  0  0  0  0  0  0  0
    0.3557   -3.6024    2.3171 C   0  0  0  0  0  0  0  0  0  0  0  0
    0.6584   -4.6506   -0.4643 H   0  0  0  0  0  0  0  0  0  0  0  0
   -1.4091   -3.3101    1.1082 H   0  0  0  0  0  0  0  0  0  0  0  0
    1.4375   -3.7336    2.1985 H   0  0  0  0  0  0  0  0  0  0  0  0
    0.1969   -2.7243    2.9517 H   0  0  0  0  0  0  0  0  0  0  0  0
   -0.0294   -4.4803    2.8470 H   0  0  0  0  0  0  0  0  0  0  0  0
   -0.4616   -1.0893    0.5050 N   0  0  0  0  0  0  0  0  0  0  0  0
   -0.0884    0.2050   -0.0621 C   0  0  2  0  0  0  0  0  0  0  0  0
    1.1632    0.6855    0.6670 C   0  0  0  0  0  0  0  0  0  0  0  0
    1.9920   -0.0819    1.1525 O   0  0  0  0  0  0  0  0  0  0  0  0
   -1.2026    1.2510    0.0923 C   0  0  0  0  0  0  0  0  0  0  0  0
   -2.4431    0.9473   -0.7542 C   0  0  0  0  0  0  0  0  0  0  0  0
   -3.5103    2.0316   -0.5820 C   0  0  0  0  0  0  0  0  0  0  0  0
   -4.7567    1.7158   -1.4071 C   0  0  0  0  0  0  0  0  0  0  0  0
   -5.7685    2.7471   -1.2109 N   0  0  0  0  0  0  0  0  0  0  0  0
   -1.2794   -1.1113    1.0935 H   0  0  0  0  0  0  0  0  0  0  0  0
    0.1471    0.0653   -1.1240 H   0  0  0  0  0  0  0  0  0  0  0  0
   -0.8121    2.2367   -0.1932 H   0  0  0  0  0  0  0  0  0  0  0  0
   -1.4910    1.3368    1.1487 H   0  0  0  0  0  0  0  0  0  0  0  0
   -2.8682   -0.0213   -0.4679 H   0  0  0  0  0  0  0  0  0  0  0  0
   -2.1579    0.8790   -1.8109 H   0  0  0  0  0  0  0  0  0  0  0  0
   -3.7772    2.1148    0.4791 H   0  0  0  0  0  0  0  0  0  0  0  0
   -3.0990    3.0017   -0.8886 H   0  0  0  0  0  0  0  0  0  0  0  0
   -5.1683    0.7435   -1.1151 H   0  0  0  0  0  0  0  0  0  0  0  0
   -4.5013    1.6642   -2.4708 H   0  0  0  0  0  0  0  0  0  0  0  0
   -5.4165    3.4114   -0.5618 H   0  0  0  0  0  0  0  0  0  0  0  0
   -5.9497    3.1778   -2.0874 H   0  0  0  0  0  0  0  0  0  0  0  0
    1.2318    2.0705    0.7299 N   0  0  0  0  0  0  0  0  0  0  0  0
    2.3057    2.7817    1.3854 C   0  0  2  0  0  0  0  0  0  0  0  0
    1.7327    4.0684    1.9649 C   0  0  0  0  0  0  0  0  0  0  0  0
    0.8286    4.7028    1.4253 O   0  0  0  0  0  0  0  0  0  0  0  0
    3.4425    3.0793    0.4202 C   0  0  0  0  0  0  0  0  0  0  0  0
    0.5033    2.6253    0.2906 H   0  0  0  0  0  0  0  0  0  0  0  0
    2.6596    2.1397    2.1994 H   0  0  0  0  0  0  0  0  0  0  0  0
    3.1069    3.7214   -0.4023 H   0  0  0  0  0  0  0  0  0  0  0  0
    4.2674    3.5929    0.9250 H   0  0  0  0  0  0  0  0  0  0  0  0
    3.8336    2.1549   -0.0182 H   0  0  0  0  0  0  0  0  0  0  0  0
    2.3790    4.4479    3.1330 N   0  0  0  0  0  0  0  0  0  0  0  0
    2.0467    5.6565    3.8505 C   0  0  0  0  0  0  0  0  0  0  0  0
    3.0901    3.8411    3.5304 H   0  0  0  0  0  0  0  0  0  0  0  0
    2.6940    6.4770    3.5073 H   0  0  0  0  0  0  0  0  0  0  0  0
    0.9945    5.9166    3.6628 H   0  0  0  0  0  0  0  0  0  0  0  0
    2.1982    5.4963    4.9282 H   0  0  0  0  0  0  0  0  0  0  0  0
  1  3  1  0  0  0  0
  1  7  1  0  0  0  0
  1  2  2  0  0  0  0
 39 40  1  0  0  0  0
 40 48  1  0  0  0  0
 40 41  2  0  0  0  0
  8  9  1  0  0  0  0
  9 17  1  0  0  0  0
  9 10  2  0  0  0  0
 18 19  1  0  0  0  0
 19 38  1  0  0  0  0
 19 20  2  0  0  0  0
 39 42  1  0  0  0  0
  8 11  1  0  0  0  0
 48 49  1  0  0  0  0
 22 23  1  0  0  0  0
 21 22  1  0  0  0  0
 23 24  1  0  0  0  0
 18 21  1  0  0  0  0
 24 25  1  0  0  0  0
 38 39  1  0  0  0  0
  7  8  1  0  0  0  0
 17 18  1  0  0  0  0
  3  4  1  0  0  0  0
  3  5  1  0  0  0  0
  3  6  1  0  0  0  0
 42 45  1  0  0  0  0
 42 46  1  0  0  0  0
 42 47  1  0  0  0  0
 11 14  1  0  0  0  0
 11 15  1  0  0  0  0
 11 16  1  0  0  0  0
 49 51  1  0  0  0  0
 49 52  1  0  0  0  0
 49 53  1  0  0  0  0
 22 30  1  0  0  0  0
 22 31  1  0  0  0  0
 23 32  1  0  0  0  0
 23 33  1  0  0  0  0
 21 28  1  0  0  0  0
 21 29  1  0  0  0  0
 24 34  1  0  0  0  0
 24 35  1  0  0  0  0
 39 44  1  0  0  0  0
  8 13  1  0  0  0  0
 18 27  1  0  0  0  0
 25 36  1  0  0  0  0
 25 37  1  0  0  0  0
 48 50  1  0  0  0  0
  7 12  1  0  0  0  0
 38 43  1  0  0  0  0
 17 26  1  0  0  0  0
M  END
$$$$

  -OEChem-05262214473D

 53 52  0     1  0  0  0  0  0999 V2000
   -1.0338   -5.6785    0.1476 C   0  0  0  0  0  0  0  0  0  0  0  0
   -2.0514   -5.7797    0.8227 O   0  0  0  0  0  0  0  0  0  0  0  0
   -0.6558   -6.7819   -0.7841 C   0  0  0  0  0  0  0  0  0  0  0  0
   -0.0111   -7.5354   -0.3038 H   0  0  0  0  0  0  0  0  0  0  0  0
   -1.5317   -7.3401   -1.1520 H   0  0  0  0  0  0  0  0  0  0  0  0
   -0.1109   -6.4687   -1.6890 H   0  0  0  0  0  0  0  0  0  0  0  0
   -0.1543   -4.6083    0.1480 N   0  0  0  0  0  0  0  0  0  0  0  0
   -0.3302   -3.4398    0.9696 C   0  0  2  0  0  0  0  0  0  0  0  0
    0.2328   -2.2439    0.2131 C   0  0  0  0  0  0  0  0  0  0  0  0
    1.2097   -2.3192   -0.5294 O   0  0  0  0  0  0  0  0  0  0  0  0
    0.3557   -3.6024    2.3171 C   0  0  0  0  0  0  0  0  0  0  0  0
    0.6584   -4.6506   -0.4643 H   0  0  0  0  0  0  0  0  0  0  0  0
   -1.4091   -3.3101    1.1082 H   0  0  0  0  0  0  0  0  0  0  0  0
    1.4375   -3.7336    2.1985 H   0  0  0  0  0  0  0  0  0  0  0  0
    0.1969   -2.7243    2.9517 H   0  0  0  0  0  0  0  0  0  0  0  0
   -0.0294   -4.4803    2.8470 H   0  0  0  0  0  0  0  0  0  0  0  0
   -0.4616   -1.0893    0.5050 N   0  0  0  0  0  0  0  0  0  0  0  0
   -0.0884    0.2050   -0.0621 C   0  0  2  0  0  0  0  0  0  0  0  0
    1.1632    0.6855    0.6670 C   0  0  0  0  0  0  0  0  0  0  0  0
    2.1169   -0.0491    0.9164 O   0  0  0  0  0  0  0  0  0  0  0  0
   -1.2026    1.2510    0.0923 C   0  0  0  0  0  0  0  0  0  0  0  0
   -2.4431    0.9473   -0.7542 C   0  0  0  0  0  0  0  0  0  0  0  0
   -3.5103    2.0316   -0.5820 C   0  0  0  0  0  0  0  0  0  0  0  0
   -4.7567    1.7158   -1.4071 C   0  0  0  0  0  0  0  0  0  0  0  0
   -5.7685    2.7471   -1.2109 N   0  0  0  0  0  0  0  0  0  0  0  0
   -1.2794   -1.1113    1.0935 H   0  0  0  0  0  0  0  0  0  0  0  0
    0.1471    0.0653   -1.1240 H   0  0  0  0  0  0  0  0  0  0  0  0
   -0.8121    2.2367   -0.1932 H   0  0  0  0  0  0  0  0  0  0  0  0
   -1.4910    1.3368    1.1487 H   0  0  0  0  0  0  0  0  0  0  0  0
   -2.8682   -0.0213   -0.4679 H   0  0  0  0  0  0  0  0  0  0  0  0
   -2.1579    0.8790   -1.8109 H   0  0  0  0  0  0  0  0  0  0  0  0
   -3.7772    2.1148    0.4791 H   0  0  0  0  0  0  0  0  0  0  0  0
   -3.0990    3.0017   -0.8886 H   0  0  0  0  0  0  0  0  0  0  0  0
   -5.1683    0.7435   -1.1151 H   0  0  0  0  0  0  0  0  0  0  0  0
   -4.5013    1.6642   -2.4708 H   0  0  0  0  0  0  0  0  0  0  0  0
   -5.4165    3.4114   -0.5618 H   0  0  0  0  0  0  0  0  0  0  0  0
   -5.9497    3.1778   -2.0874 H   0  0  0  0  0  0  0  0  0  0  0  0
    1.0779    2.0240    1.0246 N   0  0  0  0  0  0  0  0  0  0  0  0
    2.1203    2.7199    1.7444 C   0  0  2  0  0  0  0  0  0  0  0  0
    1.4609    3.7711    2.6273 C   0  0  0  0  0  0  0  0  0  0  0  0
    0.4428    4.3781    2.3014 O   0  0  0  0  0  0  0  0  0  0  0  0
    3.1187    3.3589    0.7917 C   0  0  0  0  0  0  0  0  0  0  0  0
    0.2521    2.5563    0.7672 H   0  0  0  0  0  0  0  0  0  0  0  0
    2.6212    1.9759    2.3733 H   0  0  0  0  0  0  0  0  0  0  0  0
    2.6351    4.1072    0.1533 H   0  0  0  0  0  0  0  0  0  0  0  0
    3.9233    3.8614    1.3387 H   0  0  0  0  0  0  0  0  0  0  0  0
    3.5701    2.6054    0.1373 H   0  0  0  0  0  0  0  0  0  0  0  0
    2.1672    3.9827    3.8031 N   0  0  0  0  0  0  0  0  0  0  0  0
    1.7678    4.9615    4.7872 C   0  0  0  0  0  0  0  0  0  0  0  0
    2.9777    3.4064    4.0097 H   0  0  0  0  0  0  0  0  0  0  0  0
    2.2810    5.9137    4.5873 H   0  0  0  0  0  0  0  0  0  0  0  0
    0.6796    5.1131    4.7327 H   0  0  0  0  0  0  0  0  0  0  0  0
    2.0382    4.6031    5.7914 H   0  0  0  0  0  0  0  0  0  0  0  0
  1  3  1  0  0  0  0
  1  7  1  0  0  0  0
  1  2  2  0  0  0  0
 39 40  1  0  0  0  0
 40 48  1  0  0  0  0
 40 41  2  0  0  0  0
  8  9  1  0  0  0  0
  9 17  1  0  0  0  0
  9 10  2  0  0  0  0
 18 19  1  0  0  0  0
 19 38  1  0  0  0  0
 19 20  2  0  0  0  0
 39 42  1  0  0  0  0
  8 11  1  0  0  0  0
 48 49  1  0  0  0  0
 22 23  1  0  0  0  0
 21 22  1  0  0  0  0
 23 24  1  0  0  0  0
 18 21  1  0  0  0  0
 24 25  1  0  0  0  0
 38 39  1  0  0  0  0
  7  8  1  0  0  0  0
 17 18  1  0  0  0  0
  3  4  1  0  0  0  0
  3  5  1  0  0  0  0
  3  6  1  0  0  0  0
 42 45  1  0  0  0  0
 42 46  1  0  0  0  0
 42 47  1  0  0  0  0
 11 14  1  0  0  0  0
 11 15  1  0  0  0  0
 11 16  1  0  0  0  0
 49 51  1  0  0  0  0
 49 52  1  0  0  0  0
 49 53  1  0  0  0  0
 22 30  1  0  0  0  0
 22 31  1  0  0  0  0
 23 32  1  0  0  0  0
 23 33  1  0  0  0  0
 21 28  1  0  0  0  0
 21 29  1  0  0  0  0
 24 34  1  0  0  0  0
 24 35  1  0  0  0  0
 39 44  1  0  0  0  0
  8 13  1  0  0  0  0
 18 27  1  0  0  0  0
 25 36  1  0  0  0  0
 25 37  1  0  0  0  0
 48 50  1  0  0  0  0
  7 12  1  0  0  0  0
 38 43  1  0  0  0  0
 17 26  1  0  0  0  0
M  END
$$$$

  -OEChem-05262214473D

 53 52  0     1  0  0  0  0  0999 V2000
   -1.0338   -5.6785    0.1476 C   0  0  0  0  0  0  0  0  0  0  0  0
   -2.0514   -5.7797    0.8227 O   0  0  0  0  0  0  0  0  0  0  0  0
   -0.6558   -6.7819   -0.7841 C   0  0  0  0  0  0  0  0  0  0  0  0
   -0.0111   -7.5354   -0.3038 H   0  0  0  0  0  0  0  0  0  0  0  0
   -1.5317   -7.3401   -1.1520 H   0  0  0  0  0  0  0  0  0  0  0  0
   -0.1109   -6.4687   -1.6890 H   0  0  0  0  0  0  0  0  0  0  0  0
   -0.1543   -4.6083    0.1480 N   0  0  0  0  0  0  0  0  0  0  0  0
   -0.3302   -3.4398    0.9696 C   0  0  2  0  0  0  0  0  0  0  0  0
    0.2328   -2.2439    0.2131 C   0  0  0  0  0  0  0  0  0  0  0  0
    1.2097   -2.3192   -0.5294 O   0  0  0  0  0  0  0  0  0  0  0  0
    0.3557   -3.6024    2.3171 C   0  0  0  0  0  0  0  0  0  0  0  0
    0.6584   -4.6506   -0.4643 H   0  0  0  0  0  0  0  0  0  0  0  0
   -1.4091   -3.3101    1.1082 H   0  0  0  0  0  0  0  0  0  0  0  0
    1.4375   -3.7336    2.1985 H   0  0  0  0  0  0  0  0  0  0  0  0
    0.1969   -2.7243    2.9517 H   0  0  0  0  0  0  0  0  0  0  0  0
   -0.0294   -4.4803    2.8470 H   0  0  0  0  0  0  0  0  0  0  0  0
   -0.4616   -1.0893    0.5050 N   0  0  0  0  0  0  0  0  0  0  0  0
   -0.0884    0.2050   -0.0621 C   0  0  2  0  0  0  0  0  0  0  0  0
    1.1632    0.6855    0.6670 C   0  0  0  0  0  0  0  0  0  0  0  0
    2.2143    0.0482    0.6852 O   0  0  0  0  0  0  0  0  0  0  0  0
   -1.2026    1.2510    0.0923 C   0  0  0  0  0  0  0  0  0  0  0  0
   -2.4431    0.9473   -0.7542 C   0  0  0  0  0  0  0  0  0  0  0  0
   -3.5103    2.0316   -0.5820 C   0  0  0  0  0  0  0  0  0  0  0  0
   -4.7567    1.7158   -1.4071 C   0  0  0  0  0  0  0  0  0  0  0  0
   -5.7685    2.7471   -1.2109 N   0  0  0  0  0  0  0  0  0  0  0  0
   -1.2794   -1.1113    1.0935 H   0  0  0  0  0  0  0  0  0  0  0  0
    0.1471    0.0653   -1.1240 H   0  0  0  0  0  0  0  0  0  0  0  0
   -0.8121    2.2367   -0.1932 H   0  0  0  0  0  0  0  0  0  0  0  0
   -1.4910    1.3368    1.1487 H   0  0  0  0  0  0  0  0  0  0  0  0
   -2.8682   -0.0213   -0.4679 H   0  0  0  0  0  0  0  0  0  0  0  0
   -2.1579    0.8790   -1.8109 H   0  0  0  0  0  0  0  0  0  0  0  0
   -3.7772    2.1148    0.4791 H   0  0  0  0  0  0  0  0  0  0  0  0
   -3.0990    3.0017   -0.8886 H   0  0  0  0  0  0  0  0  0  0  0  0
   -5.1683    0.7435   -1.1151 H   0  0  0  0  0  0  0  0  0  0  0  0
   -4.5013    1.6642   -2.4708 H   0  0  0  0  0  0  0  0  0  0  0  0
   -5.4165    3.4114   -0.5618 H   0  0  0  0  0  0  0  0  0  0  0  0
   -5.9497    3.1778   -2.0874 H   0  0  0  0  0  0  0  0  0  0  0  0
    0.9590    1.8976    1.3120 N   0  0  0  0  0  0  0  0  0  0  0  0
    1.9781    2.5611    2.0931 C   0  0  2  0  0  0  0  0  0  0  0  0
    1.2890    3.3098    3.2263 C   0  0  0  0  0  0  0  0  0  0  0  0
    0.1817    3.8308    3.1102 O   0  0  0  0  0  0  0  0  0  0  0  0
    2.8016    3.5100    1.2364 C   0  0  0  0  0  0  0  0  0  0  0  0
    0.0569    2.3575    1.2333 H   0  0  0  0  0  0  0  0  0  0  0  0
    2.6185    1.7760    2.5096 H   0  0  0  0  0  0  0  0  0  0  0  0
    2.1769    4.3036    0.8103 H   0  0  0  0  0  0  0  0  0  0  0  0
    3.5914    3.9904    1.8233 H   0  0  0  0  0  0  0  0  0  0  0  0
    3.2724    2.9750    0.4045 H   0  0  0  0  0  0  0  0  0  0  0  0
    2.0747    3.3649    4.3690 N   0  0  0  0  0  0  0  0  0  0  0  0
    1.6606    4.0569    5.5672 C   0  0  0  0  0  0  0  0  0  0  0  0
    2.9619    2.8708    4.3897 H   0  0  0  0  0  0  0  0  0  0  0  0
    2.0398    5.0892    5.5446 H   0  0  0  0  0  0  0  0  0  0  0  0
    0.5620    4.0711    5.6212 H   0  0  0  0  0  0  0  0  0  0  0  0
    2.0644    3.5373    6.4487 H   0  0  0  0  0  0  0  0  0  0  0  0
  1  3  1  0  0  0  0
  1  7  1  0  0  0  0
  1  2  2  0  0  0  0
 39 40  1  0  0  0  0
 40 48  1  0  0  0  0
 40 41  2  0  0  0  0
  8  9  1  0  0  0  0
  9 17  1  0  0  0  0
  9 10  2  0  0  0  0
 18 19  1  0  0  0  0
 19 38  1  0  0  0  0
 19 20  2  0  0  0  0
 39 42  1  0  0  0  0
  8 11  1  0  0  0  0
 48 49  1  0  0  0  0
 22 23  1  0  0  0  0
 21 22  1  0  0  0  0
 23 24  1  0  0  0  0
 18 21  1  0  0  0  0
 24 25  1  0  0  0  0
 38 39  1  0  0  0  0
  7  8  1  0  0  0  0
 17 18  1  0  0  0  0
  3  4  1  0  0  0  0
  3  5  1  0  0  0  0
  3  6  1  0  0  0  0
 42 45  1  0  0  0  0
 42 46  1  0  0  0  0
 42 47  1  0  0  0  0
 11 14  1  0  0  0  0
 11 15  1  0  0  0  0
 11 16  1  0  0  0  0
 49 51  1  0  0  0  0
 49 52  1  0  0  0  0
 49 53  1  0  0  0  0
 22 30  1  0  0  0  0
 22 31  1  0  0  0  0
 23 32  1  0  0  0  0
 23 33  1  0  0  0  0
 21 28  1  0  0  0  0
 21 29  1  0  0  0  0
 24 34  1  0  0  0  0
 24 35  1  0  0  0  0
 39 44  1  0  0  0  0
  8 13  1  0  0  0  0
 18 27  1  0  0  0  0
 25 36  1  0  0  0  0
 25 37  1  0  0  0  0
 48 50  1  0  0  0  0
  7 12  1  0  0  0  0
 38 43  1  0  0  0  0
 17 26  1  0  0  0  0
M  END
$$$$

  -OEChem-05262214473D

 53 52  0     1  0  0  0  0  0999 V2000
   -1.0338   -5.6785    0.1476 C   0  0  0  0  0  0  0  0  0  0  0  0
   -2.0514   -5.7797    0.8227 O   0  0  0  0  0  0  0  0  0  0  0  0
   -0.6558   -6.7819   -0.7841 C   0  0  0  0  0  0  0  0  0  0  0  0
   -0.0111   -7.5354   -0.3038 H   0  0  0  0  0  0  0  0  0  0  0  0
   -1.5317   -7.3401   -1.1520 H   0  0  0  0  0  0  0  0  0  0  0  0
   -0.1109   -6.4687   -1.6890 H   0  0  0  0  0  0  0  0  0  0  0  0
   -0.1543   -4.6083    0.1480 N   0  0  0  0  0  0  0  0  0  0  0  0
   -0.3302   -3.4398    0.9696 C   0  0  2  0  0  0  0  0  0  0  0  0
    0.2328   -2.2439    0.2131 C   0  0  0  0  0  0  0  0  0  0  0  0
    1.2097   -2.3192   -0.5294 O   0  0  0  0  0  0  0  0  0  0  0  0
    0.3557   -3.6024    2.3171 C   0  0  0  0  0  0  0  0  0  0  0  0
    0.6584   -4.6506   -0.4643 H   0  0  0  0  0  0  0  0  0  0  0  0
   -1.4091   -3.3101    1.1082 H   0  0  0  0  0  0  0  0  0  0  0  0
    1.4375   -3.7336    2.1985 H   0  0  0  0  0  0  0  0  0  0  0  0
    0.1969   -2.7243    2.9517 H   0  0  0  0  0  0  0  0  0  0  0  0
   -0.0294   -4.4803    2.8470 H   0  0  0  0  0  0  0  0  0  0  0  0
   -0.4616   -1.0893    0.5050 N   0  0  0  0  0  0  0  0  0  0  0  0
   -0.0884    0.2050   -0.0621 C   0  0  2  0  0  0  0  0  0  0  0  0
    1.1632    0.6855    0.6670 C   0  0  0  0  0  0  0  0  0  0  0  0
    2.2775    0.2032    0.4745 O   0  0  0  0  0  0  0  0  0  0  0  0
   -1.2026    1.2510    0.0923 C   0  0  0  0  0  0  0  0  0  0  0  0
   -2.4431    0.9473   -0.7542 C   0  0  0  0  0  0  0  0  0  0  0  0
   -3.5103    2.0316   -0.5820 C   0  0  0  0  0  0  0  0  0  0  0  0
   -4.7567    1.7158   -1.4071 C   0  0  0  0  0  0  0  0  0  0  0  0
   -5.7685    2.7471   -1.2109 N   0  0  0  0  0  0  0  0  0  0  0  0
   -1.2794   -1.1113    1.0935 H   0  0  0  0  0  0  0  0  0  0  0  0
    0.1471    0.0653   -1.1240 H   0  0  0  0  0  0  0  0  0  0  0  0
   -0.8121    2.2367   -0.1932 H   0  0  0  0  0  0  0  0  0  0  0  0
   -1.4910    1.3368    1.1487 H   0  0  0  0  0  0  0  0  0  0  0  0
   -2.8682   -0.0213   -0.4679 H   0  0  0  0  0  0  0  0  0  0  0  0
   -2.1579    0.8790   -1.8109 H   0  0  0  0  0  0  0  0  0  0  0  0
   -3.7772    2.1148    0.4791 H   0  0  0  0  0  0  0  0  0  0  0  0
   -3.0990    3.0017   -0.8886 H   0  0  0  0  0  0  0  0  0  0  0  0
   -5.1683    0.7435   -1.1151 H   0  0  0  0  0  0  0  0  0  0  0  0
   -4.5013    1.6642   -2.4708 H   0  0  0  0  0  0  0  0  0  0  0  0
   -5.4165    3.4114   -0.5618 H   0  0  0  0  0  0  0  0  0  0  0  0
   -5.9497    3.1778   -2.0874 H   0  0  0  0  0  0  0  0  0  0  0  0
    0.8833    1.6998    1.5724 N   0  0  0  0  0  0  0  0  0  0  0  0
    1.8888    2.3161    2.4078 C   0  0  2  0  0  0  0  0  0  0  0  0
    1.2289    2.7158    3.7209 C   0  0  0  0  0  0  0  0  0  0  0  0
    0.0631    3.0982    3.7966 O   0  0  0  0  0  0  0  0  0  0  0  0
    2.5129    3.5224    1.7238 C   0  0  0  0  0  0  0  0  0  0  0  0
   -0.0691    2.0423    1.6573 H   0  0  0  0  0  0  0  0  0  0  0  0
    2.6518    1.5536    2.5991 H   0  0  0  0  0  0  0  0  0  0  0  0
    1.7636    4.2971    1.5240 H   0  0  0  0  0  0  0  0  0  0  0  0
    3.2944    3.9711    2.3459 H   0  0  0  0  0  0  0  0  0  0  0  0
    2.9610    3.2385    0.7654 H   0  0  0  0  0  0  0  0  0  0  0  0
    2.1078    2.6365    4.7920 N   0  0  0  0  0  0  0  0  0  0  0  0
    1.7326    3.0043    6.1373 C   0  0  0  0  0  0  0  0  0  0  0  0
    3.0439    2.2709    4.6443 H   0  0  0  0  0  0  0  0  0  0  0  0
    1.9868    4.0599    6.3139 H   0  0  0  0  0  0  0  0  0  0  0  0
    0.6497    2.8613    6.2679 H   0  0  0  0  0  0  0  0  0  0  0  0
    2.2751    2.3716    6.8552 H   0  0  0  0  0  0  0  0  0  0  0  0
  1  3  1  0  0  0  0
  1  7  1  0  0  0  0
  1  2  2  0  0  0  0
 39 40  1  0  0  0  0
 40 48  1  0  0  0  0
 40 41  2  0  0  0  0
  8  9  1  0  0  0  0
  9 17  1  0  0  0  0
  9 10  2  0  0  0  0
 18 19  1  0  0  0  0
 19 38  1  0  0  0  0
 19 20  2  0  0  0  0
 39 42  1  0  0  0  0
  8 11  1  0  0  0  0
 48 49  1  0  0  0  0
 22 23  1  0  0  0  0
 21 22  1  0  0  0  0
 23 24  1  0  0  0  0
 18 21  1  0  0  0  0
 24 25  1  0  0  0  0
 38 39  1  0  0  0  0
  7  8  1  0  0  0  0
 17 18  1  0  0  0  0
  3  4  1  0  0  0  0
  3  5  1  0  0  0  0
  3  6  1  0  0  0  0
 42 45  1  0  0  0  0
 42 46  1  0  0  0  0
 42 47  1  0  0  0  0
 11 14  1  0  0  0  0
 11 15  1  0  0  0  0
 11 16  1  0  0  0  0
 49 51  1  0  0  0  0
 49 52  1  0  0  0  0
 49 53  1  0  0  0  0
 22 30  1  0  0  0  0
 22 31  1  0  0  0  0
 23 32  1  0  0  0  0
 23 33  1  0  0  0  0
 21 28  1  0  0  0  0
 21 29  1  0  0  0  0
 24 34  1  0  0  0  0
 24 35  1  0  0  0  0
 39 44  1  0  0  0  0
  8 13  1  0  0  0  0
 18 27  1  0  0  0  0
 25 36  1  0  0  0  0
 25 37  1  0  0  0  0
 48 50  1  0  0  0  0
  7 12  1  0  0  0  0
 38 43  1  0  0  0  0
 17 26  1  0  0  0  0
M  END
$$$$

  -OEChem-05262214473D

 53 52  0     1  0  0  0  0  0999 V2000
   -1.0338   -5.6785    0.1476 C   0  0  0  0  0  0  0  0  0  0  0  0
   -2.0514   -5.7797    0.8227 O   0  0  0  0  0  0  0  0  0  0  0  0
   -0.6558   -6.7819   -0.7841 C   0  0  0  0  0  0  0  0  0  0  0  0
   -0.0111   -7.5354   -0.3038 H   0  0  0  0  0  0  0  0  0  0  0  0
   -1.5317   -7.3401   -1.1520 H   0  0  0  0  0  0  0  0  0  0  0  0
   -0.1109   -6.4687   -1.6890 H   0  0  0  0  0  0  0  0  0  0  0  0
   -0.1543   -4.6083    0.1480 N   0  0  0  0  0  0  0  0  0  0  0  0
   -0.3302   -3.4398    0.9696 C   0  0  2  0  0  0  0  0  0  0  0  0
    0.2328   -2.2439    0.2131 C   0  0  0  0  0  0  0  0  0  0  0  0
    1.2097   -2.3192   -0.5294 O   0  0  0  0  0  0  0  0  0  0  0  0
    0.3557   -3.6024    2.3171 C   0  0  0  0  0  0  0  0  0  0  0  0
    0.6584   -4.6506   -0.4643 H   0  0  0  0  0  0  0  0  0  0  0  0
   -1.4091   -3.3101    1.1082 H   0  0  0  0  0  0  0  0  0  0  0  0
    1.4375   -3.7336    2.1985 H   0  0  0  0  0  0  0  0  0  0  0  0
    0.1969   -2.7243    2.9517 H   0  0  0  0  0  0  0  0  0  0  0  0
   -0.0294   -4.4803    2.8470 H   0  0  0  0  0  0  0  0  0  0  0  0
   -0.4616   -1.0893    0.5050 N   0  0  0  0  0  0  0  0  0  0  0  0
   -0.0884    0.2050   -0.0621 C   0  0  2  0  0  0  0  0  0  0  0  0
    1.1632    0.6855    0.6670 C   0  0  0  0  0  0  0  0  0  0  0  0
    2.3022    0.4055    0.2988 O   0  0  0  0  0  0  0  0  0  0  0  0
   -1.2026    1.2510    0.0923 C   0  0  0  0  0  0  0  0  0  0  0  0
   -2.4431    0.9473   -0.7542 C   0  0  0  0  0  0  0  0  0  0  0  0
   -3.5103    2.0316   -0.5820 C   0  0  0  0  0  0  0  0  0  0  0  0
   -4.7567    1.7158   -1.4071 C   0  0  0  0  0  0  0  0  0  0  0  0
   -5.7685    2.7471   -1.2109 N   0  0  0  0  0  0  0  0  0  0  0  0
   -1.2794   -1.1113    1.0935 H   0  0  0  0  0  0  0  0  0  0  0  0
    0.1471    0.0653   -1.1240 H   0  0  0  0  0  0  0  0  0  0  0  0
   -0.8121    2.2367   -0.1932 H   0  0  0  0  0  0  0  0  0  0  0  0
   -1.4910    1.3368    1.1487 H   0  0  0  0  0  0  0  0  0  0  0  0
   -2.8682   -0.0213   -0.4679 H   0  0  0  0  0  0  0  0  0  0  0  0
   -2.1579    0.8790   -1.8109 H   0  0  0  0  0  0  0  0  0  0  0  0
   -3.7772    2.1148    0.4791 H   0  0  0  0  0  0  0  0  0  0  0  0
   -3.0990    3.0017   -0.8886 H   0  0  0  0  0  0  0  0  0  0  0  0
   -5.1683    0.7435   -1.1151 H   0  0  0  0  0  0  0  0  0  0  0  0
   -4.5013    1.6642   -2.4708 H   0  0  0  0  0  0  0  0  0  0  0  0
   -5.4165    3.4114   -0.5618 H   0  0  0  0  0  0  0  0  0  0  0  0
   -5.9497    3.1778   -2.0874 H   0  0  0  0  0  0  0  0  0  0  0  0
    0.8557    1.4440    1.7882 N   0  0  0  0  0  0  0  0  0  0  0  0
    1.8585    2.0016    2.6670 C   0  0  2  0  0  0  0  0  0  0  0  0
    1.2846    2.0296    4.0775 C   0  0  0  0  0  0  0  0  0  0  0  0
    0.0950    2.2301    4.3137 O   0  0  0  0  0  0  0  0  0  0  0  0
    2.2722    3.3953    2.2207 C   0  0  0  0  0  0  0  0  0  0  0  0
   -0.1173    1.6324    2.0101 H   0  0  0  0  0  0  0  0  0  0  0  0
    2.7187    1.3240    2.6355 H   0  0  0  0  0  0  0  0  0  0  0  0
    1.4234    4.0883    2.2457 H   0  0  0  0  0  0  0  0  0  0  0  0
    3.0524    3.8048    2.8708 H   0  0  0  0  0  0  0  0  0  0  0  0
    2.6571    3.3779    1.1953 H   0  0  0  0  0  0  0  0  0  0  0  0
    2.2644    1.8474    5.0433 N   0  0  0  0  0  0  0  0  0  0  0  0
    1.9787    1.8755    6.4588 C   0  0  0  0  0  0  0  0  0  0  0  0
    3.2180    1.6476    4.7562 H   0  0  0  0  0  0  0  0  0  0  0  0
    2.1256    2.8957    6.8428 H   0  0  0  0  0  0  0  0  0  0  0  0
    0.9367    1.5664    6.6286 H   0  0  0  0  0  0  0  0  0  0  0  0
    2.6559    1.1853    6.9832 H   0  0  0  0  0  0  0  0  0  0  0  0
  1  3  1  0  0  0  0
  1  7  1  0  0  0  0
  1  2  2  0  0  0  0
 39 40  1  0  0  0  0
 40 48  1  0  0  0  0
 40 41  2  0  0  0  0
  8  9  1  0  0  0  0
  9 17  1  0  0  0  0
  9 10  2  0  0  0  0
 18 19  1  0  0  0  0
 19 38  1  0  0  0  0
 19 20  2  0  0  0  0
 39 42  1  0  0  0  0
  8 11  1  0  0  0  0
 48 49  1  0  0  0  0
 22 23  1  0  0  0  0
 21 22  1  0  0  0  0
 23 24  1  0  0  0  0
 18 21  1  0  0  0  0
 24 25  1  0  0  0  0
 38 39  1  0  0  0  0
  7  8  1  0  0  0  0
 17 18  1  0  0  0  0
  3  4  1  0  0  0  0
  3  5  1  0  0  0  0
  3  6  1  0  0  0  0
 42 45  1  0  0  0  0
 42 46  1  0  0  0  0
 42 47  1  0  0  0  0
 11 14  1  0  0  0  0
 11 15  1  0  0  0  0
 11 16  1  0  0  0  0
 49 51  1  0  0  0  0
 49 52  1  0  0  0  0
 49 53  1  0  0  0  0
 22 30  1  0  0  0  0
 22 31  1  0  0  0  0
 23 32  1  0  0  0  0
 23 33  1  0  0  0  0
 21 28  1  0  0  0  0
 21 29  1  0  0  0  0
 24 34  1  0  0  0  0
 24 35  1  0  0  0  0
 39 44  1  0  0  0  0
  8 13  1  0  0  0  0
 18 27  1  0  0  0  0
 25 36  1  0  0  0  0
 25 37  1  0  0  0  0
 48 50  1  0  0  0  0
  7 12  1  0  0  0  0
 38 43  1  0  0  0  0
 17 26  1  0  0  0  0
M  END
$$$$

  -OEChem-05262214473D

 53 52  0     1  0  0  0  0  0999 V2000
   -1.0338   -5.6785    0.1476 C   0  0  0  0  0  0  0  0  0  0  0  0
   -2.0514   -5.7797    0.8227 O   0  0  0  0  0  0  0  0  0  0  0  0
   -0.6558   -6.7819   -0.7841 C   0  0  0  0  0  0  0  0  0  0  0  0
   -0.0111   -7.5354   -0.3038 H   0  0  0  0  0  0  0  0  0  0  0  0
   -1.5317   -7.3401   -1.1520 H   0  0  0  0  0  0  0  0  0  0  0  0
   -0.1109   -6.4687   -1.6890 H   0  0  0  0  0  0  0  0  0  0  0  0
   -0.1543   -4.6083    0.1480 N   0  0  0  0  0  0  0  0  0  0  0  0
   -0.3302   -3.4398    0.9696 C   0  0  2  0  0  0  0  0  0  0  0  0
    0.2328   -2.2439    0.2131 C   0  0  0  0  0  0  0  0  0  0  0  0
    1.2097   -2.3192   -0.5294 O   0  0  0  0  0  0  0  0  0  0  0  0
    0.3557   -3.6024    2.3171 C   0  0  0  0  0  0  0  0  0  0  0  0
    0.6584   -4.6506   -0.4643 H   0  0  0  0  0  0  0  0  0  0  0  0
   -1.4091   -3.3101    1.1082 H   0  0  0  0  0  0  0  0  0  0  0  0
    1.4375   -3.7336    2.1985 H   0  0  0  0  0  0  0  0  0  0  0  0
    0.1969   -2.7243    2.9517 H   0  0  0  0  0  0  0  0  0  0  0  0
   -0.0294   -4.4803    2.8470 H   0  0  0  0  0  0  0  0  0  0  0  0
   -0.4616   -1.0893    0.5050 N   0  0  0  0  0  0  0  0  0  0  0  0
   -0.0884    0.2050   -0.0621 C   0  0  2  0  0  0  0  0  0  0  0  0
    1.1632    0.6855    0.6670 C   0  0  0  0  0  0  0  0  0  0  0  0
    2.2868    0.6413    0.1700 O   0  0  0  0  0  0  0  0  0  0  0  0
   -1.2026    1.2510    0.0923 C   0  0  0  0  0  0  0  0  0  0  0  0
   -2.4431    0.9473   -0.7542 C   0  0  0  0  0  0  0  0  0  0  0  0
   -3.5103    2.0316   -0.5820 C   0  0  0  0  0  0  0  0  0  0  0  0
   -4.7567    1.7158   -1.4071 C   0  0  0  0  0  0  0  0  0  0  0  0
   -5.7685    2.7471   -1.2109 N   0  0  0  0  0  0  0  0  0  0  0  0
   -1.2794   -1.1113    1.0935 H   0  0  0  0  0  0  0  0  0  0  0  0
    0.1471    0.0653   -1.1240 H   0  0  0  0  0  0  0  0  0  0  0  0
   -0.8121    2.2367   -0.1932 H   0  0  0  0  0  0  0  0  0  0  0  0
   -1.4910    1.3368    1.1487 H   0  0  0  0  0  0  0  0  0  0  0  0
   -2.8682   -0.0213   -0.4679 H   0  0  0  0  0  0  0  0  0  0  0  0
   -2.1579    0.8790   -1.8109 H   0  0  0  0  0  0  0  0  0  0  0  0
   -3.7772    2.1148    0.4791 H   0  0  0  0  0  0  0  0  0  0  0  0
   -3.0990    3.0017   -0.8886 H   0  0  0  0  0  0  0  0  0  0  0  0
   -5.1683    0.7435   -1.1151 H   0  0  0  0  0  0  0  0  0  0  0  0
   -4.5013    1.6642   -2.4708 H   0  0  0  0  0  0  0  0  0  0  0  0
   -5.4165    3.4114   -0.5618 H   0  0  0  0  0  0  0  0  0  0  0  0
   -5.9497    3.1778   -2.0874 H   0  0  0  0  0  0  0  0  0  0  0  0
    0.8784    1.1478    1.9445 N   0  0  0  0  0  0  0  0  0  0  0  0
    1.8893    1.6390    2.8531 C   0  0  2  0  0  0  0  0  0  0  0  0
    1.4523    1.2981    4.2717 C   0  0  0  0  0  0  0  0  0  0  0  0
    0.2754    1.2859    4.6264 O   0  0  0  0  0  0  0  0  0  0  0  0
    2.0959    3.1372    2.6934 C   0  0  0  0  0  0  0  0  0  0  0  0
   -0.0844    1.1555    2.2679 H   0  0  0  0  0  0  0  0  0  0  0  0
    2.8147    1.1027    2.6166 H   0  0  0  0  0  0  0  0  0  0  0  0
    1.1793    3.6913    2.9262 H   0  0  0  0  0  0  0  0  0  0  0  0
    2.8821    3.5028    3.3622 H   0  0  0  0  0  0  0  0  0  0  0  0
    2.3812    3.3837    1.6650 H   0  0  0  0  0  0  0  0  0  0  0  0
    2.5337    1.0511    5.1058 N   0  0  0  0  0  0  0  0  0  0  0  0
    2.3822    0.7473    6.5096 C   0  0  0  0  0  0  0  0  0  0  0  0
    3.4724    1.0432    4.7178 H   0  0  0  0  0  0  0  0  0  0  0  0
    2.4467    1.6761    7.0953 H   0  0  0  0  0  0  0  0  0  0  0  0
    1.4035    0.2745    6.6787 H   0  0  0  0  0  0  0  0  0  0  0  0
    3.1809    0.0594    6.8241 H   0  0  0  0  0  0  0  0  0  0  0  0
  1  3  1  0  0  0  0
  1  7  1  0  0  0  0
  1  2  2  0  0  0  0
 39 40  1  0  0  0  0
 40 48  1  0  0  0  0
 40 41  2  0  0  0  0
  8  9  1  0  0  0  0
  9 17  1  0  0  0  0
  9 10  2  0  0  0  0
 18 19  1  0  0  0  0
 19 38  1  0  0  0  0
 19 20  2  0  0  0  0
 39 42  1  0  0  0  0
  8 11  1  0  0  0  0
 48 49  1  0  0  0  0
 22 23  1  0  0  0  0
 21 22  1  0  0  0  0
 23 24  1  0  0  0  0
 18 21  1  0  0  0  0
 24 25  1  0  0  0  0
 38 39  1  0  0  0  0
  7  8  1  0  0  0  0
 17 18  1  0  0  0  0
  3  4  1  0  0  0  0
  3  5  1  0  0  0  0
  3  6  1  0  0  0  0
 42 45  1  0  0  0  0
 42 46  1  0  0  0  0
 42 47  1  0  0  0  0
 11 14  1  0  0  0  0
 11 15  1  0  0  0  0
 11 16  1  0  0  0  0
 49 51  1  0  0  0  0
 49 52  1  0  0  0  0
 49 53  1  0  0  0  0
 22 30  1  0  0  0  0
 22 31  1  0  0  0  0
 23 32  1  0  0  0  0
 23 33  1  0  0  0  0
 21 28  1  0  0  0  0
 21 29  1  0  0  0  0
 24 34  1  0  0  0  0
 24 35  1  0  0  0  0
 39 44  1  0  0  0  0
  8 13  1  0  0  0  0
 18 27  1  0  0  0  0
 25 36  1  0  0  0  0
 25 37  1  0  0  0  0
 48 50  1  0  0  0  0
  7 12  1  0  0  0  0
 38 43  1  0  0  0  0
 17 26  1  0  0  0  0
M  END
$$$$

  -OEChem-05262214473D

 53 52  0     1  0  0  0  0  0999 V2000
   -1.0338   -5.6785    0.1476 C   0  0  0  0  0  0  0  0  0  0  0  0
   -2.0514   -5.7797    0.8227 O   0  0  0  0  0  0  0  0  0  0  0  0
   -0.6558   -6.7819   -0.7841 C   0  0  0  0  0  0  0  0  0  0  0  0
   -0.0111   -7.5354   -0.3038 H   0  0  0  0  0  0  0  0  0  0  0  0
   -1.5317   -7.3401   -1.1520 H   0  0  0  0  0  0  0  0  0  0  0  0
   -0.1109   -6.4687   -1.6890 H   0  0  0  0  0  0  0  0  0  0  0  0
   -0.1543   -4.6083    0.1480 N   0  0  0  0  0  0  0  0  0  0  0  0
   -0.3302   -3.4398    0.9696 C   0  0  2  0  0  0  0  0  0  0  0  0
    0.2328   -2.2439    0.2131 C   0  0  0  0  0  0  0  0  0  0  0  0
    1.2097   -2.3192   -0.5294 O   0  0  0  0  0  0  0  0  0  0  0  0
    0.3557   -3.6024    2.3171 C   0  0  0  0  0  0  0  0  0  0  0  0
    0.6584   -4.6506   -0.4643 H   0  0  0  0  0  0  0  0  0  0  0  0
   -1.4091   -3.3101    1.1082 H   0  0  0  0  0  0  0  0  0  0  0  0
    1.4375   -3.7336    2.1985 H   0  0  0  0  0  0  0  0  0  0  0  0
    0.1969   -2.7243    2.9517 H   0  0  0  0  0  0  0  0  0  0  0  0
   -0.0294   -4.4803    2.8470 H   0  0  0  0  0  0  0  0  0  0  0  0
   -0.4616   -1.0893    0.5050 N   0  0  0  0  0  0  0  0  0  0  0  0
   -0.0884    0.2050   -0.0621 C   0  0  2  0  0  0  0  0  0  0  0  0
    1.1632    0.6855    0.6670 C   0  0  0  0  0  0  0  0  0  0  0  0
    2.2322    0.8944    0.0969 O   0  0  0  0  0  0  0  0  0  0  0  0
   -1.2026    1.2510    0.0923 C   0  0  0  0  0  0  0  0  0  0  0  0
   -2.4431    0.9473   -0.7542 C   0  0  0  0  0  0  0  0  0  0  0  0
   -3.5103    2.0316   -0.5820 C   0  0  0  0  0  0  0  0  0  0  0  0
   -4.7567    1.7158   -1.4071 C   0  0  0  0  0  0  0  0  0  0  0  0
   -5.7685    2.7471   -1.2109 N   0  0  0  0  0  0  0  0  0  0  0  0
   -1.2794   -1.1113    1.0935 H   0  0  0  0  0  0  0  0  0  0  0  0
    0.1471    0.0653   -1.1240 H   0  0  0  0  0  0  0  0  0  0  0  0
   -0.8121    2.2367   -0.1932 H   0  0  0  0  0  0  0  0  0  0  0  0
   -1.4910    1.3368    1.1487 H   0  0  0  0  0  0  0  0  0  0  0  0
   -2.8682   -0.0213   -0.4679 H   0  0  0  0  0  0  0  0  0  0  0  0
   -2.1579    0.8790   -1.8109 H   0  0  0  0  0  0  0  0  0  0  0  0
   -3.7772    2.1148    0.4791 H   0  0  0  0  0  0  0  0  0  0  0  0
   -3.0990    3.0017   -0.8886 H   0  0  0  0  0  0  0  0  0  0  0  0
   -5.1683    0.7435   -1.1151 H   0  0  0  0  0  0  0  0  0  0  0  0
   -4.5013    1.6642   -2.4708 H   0  0  0  0  0  0  0  0  0  0  0  0
   -5.4165    3.4114   -0.5618 H   0  0  0  0  0  0  0  0  0  0  0  0
   -5.9497    3.1778   -2.0874 H   0  0  0  0  0  0  0  0  0  0  0  0
    0.9496    0.8313    2.0308 N   0  0  0  0  0  0  0  0  0  0  0  0
    1.9790    1.2531    2.9535 C   0  0  2  0  0  0  0  0  0  0  0  0
    1.7206    0.5709    4.2904 C   0  0  0  0  0  0  0  0  0  0  0  0
    0.5918    0.3297    4.7133 O   0  0  0  0  0  0  0  0  0  0  0  0
    1.9961    2.7658    3.1095 C   0  0  0  0  0  0  0  0  0  0  0  0
    0.0274    0.6442    2.4130 H   0  0  0  0  0  0  0  0  0  0  0  0
    2.9332    0.9048    2.5435 H   0  0  0  0  0  0  0  0  0  0  0  0
    1.0481    3.1332    3.5191 H   0  0  0  0  0  0  0  0  0  0  0  0
    2.7949    3.0858    3.7867 H   0  0  0  0  0  0  0  0  0  0  0  0
    2.1524    3.2556    2.1423 H   0  0  0  0  0  0  0  0  0  0  0  0
    2.8974    0.3020    4.9751 N   0  0  0  0  0  0  0  0  0  0  0  0
    2.9156   -0.3033    6.2863 C   0  0  0  0  0  0  0  0  0  0  0  0
    3.7897    0.4991    4.5317 H   0  0  0  0  0  0  0  0  0  0  0  0
    2.9282    0.4842    7.0542 H   0  0  0  0  0  0  0  0  0  0  0  0
    2.0181   -0.9263    6.4149 H   0  0  0  0  0  0  0  0  0  0  0  0
    3.8142   -0.9294    6.3886 H   0  0  0  0  0  0  0  0  0  0  0  0
  1  3  1  0  0  0  0
  1  7  1  0  0  0  0
  1  2  2  0  0  0  0
 39 40  1  0  0  0  0
 40 48  1  0  0  0  0
 40 41  2  0  0  0  0
  8  9  1  0  0  0  0
  9 17  1  0  0  0  0
  9 10  2  0  0  0  0
 18 19  1  0  0  0  0
 19 38  1  0  0  0  0
 19 20  2  0  0  0  0
 39 42  1  0  0  0  0
  8 11  1  0  0  0  0
 48 49  1  0  0  0  0
 22 23  1  0  0  0  0
 21 22  1  0  0  0  0
 23 24  1  0  0  0  0
 18 21  1  0  0  0  0
 24 25  1  0  0  0  0
 38 39  1  0  0  0  0
  7  8  1  0  0  0  0
 17 18  1  0  0  0  0
  3  4  1  0  0  0  0
  3  5  1  0  0  0  0
  3  6  1  0  0  0  0
 42 45  1  0  0  0  0
 42 46  1  0  0  0  0
 42 47  1  0  0  0  0
 11 14  1  0  0  0  0
 11 15  1  0  0  0  0
 11 16  1  0  0  0  0
 49 51  1  0  0  0  0
 49 52  1  0  0  0  0
 49 53  1  0  0  0  0
 22 30  1  0  0  0  0
 22 31  1  0  0  0  0
 23 32  1  0  0  0  0
 23 33  1  0  0  0  0
 21 28  1  0  0  0  0
 21 29  1  0  0  0  0
 24 34  1  0  0  0  0
 24 35  1  0  0  0  0
 39 44  1  0  0  0  0
  8 13  1  0  0  0  0
 18 27  1  0  0  0  0
 25 36  1  0  0  0  0
 25 37  1  0  0  0  0
 48 50  1  0  0  0  0
  7 12  1  0  0  0  0
 38 43  1  0  0  0  0
 17 26  1  0  0  0  0
M  END
$$$$

  -OEChem-05262214473D

 53 52  0     1  0  0  0  0  0999 V2000
   -1.0338   -5.6785    0.1476 C   0  0  0  0  0  0  0  0  0  0  0  0
   -2.0514   -5.7797    0.8227 O   0  0  0  0  0  0  0  0  0  0  0  0
   -0.6558   -6.7819   -0.7841 C   0  0  0  0  0  0  0  0  0  0  0  0
   -0.0111   -7.5354   -0.3038 H   0  0  0  0  0  0  0  0  0  0  0  0
   -1.5317   -7.3401   -1.1520 H   0  0  0  0  0  0  0  0  0  0  0  0
   -0.1109   -6.4687   -1.6890 H   0  0  0  0  0  0  0  0  0  0  0  0
   -0.1543   -4.6083    0.1480 N   0  0  0  0  0  0  0  0  0  0  0  0
   -0.3302   -3.4398    0.9696 C   0  0  2  0  0  0  0  0  0  0  0  0
    0.2328   -2.2439    0.2131 C   0  0  0  0  0  0  0  0  0  0  0  0
    1.2097   -2.3192   -0.5294 O   0  0  0  0  0  0  0  0  0  0  0  0
    0.3557   -3.6024    2.3171 C   0  0  0  0  0  0  0  0  0  0  0  0
    0.6584   -4.6506   -0.4643 H   0  0  0  0  0  0  0  0  0  0  0  0
   -1.4091   -3.3101    1.1082 H   0  0  0  0  0  0  0  0  0  0  0  0
    1.4375   -3.7336    2.1985 H   0  0  0  0  0  0  0  0  0  0  0  0
    0.1969   -2.7243    2.9517 H   0  0  0  0  0  0  0  0  0  0  0  0
   -0.0294   -4.4803    2.8470 H   0  0  0  0  0  0  0  0  0  0  0  0
   -0.4616   -1.0893    0.5050 N   0  0  0  0  0  0  0  0  0  0  0  0
   -0.0884    0.2050   -0.0621 C   0  0  2  0  0  0  0  0  0  0  0  0
    1.1632    0.6855    0.6670 C   0  0  0  0  0  0  0  0  0  0  0  0
    2.1422    1.1477    0.0844 O   0  0  0  0  0  0  0  0  0  0  0  0
   -1.2026    1.2510    0.0923 C   0  0  0  0  0  0  0  0  0  0  0  0
   -2.4431    0.9473   -0.7542 C   0  0  0  0  0  0  0  0  0  0  0  0
   -3.5103    2.0316   -0.5820 C   0  0  0  0  0  0  0  0  0  0  0  0
   -4.7567    1.7158   -1.4071 C   0  0  0  0  0  0  0  0  0  0  0  0
   -5.7685    2.7471   -1.2109 N   0  0  0  0  0  0  0  0  0  0  0  0
   -1.2794   -1.1113    1.0935 H   0  0  0  0  0  0  0  0  0  0  0  0
    0.1471    0.0653   -1.1240 H   0  0  0  0  0  0  0  0  0  0  0  0
   -0.8121    2.2367   -0.1932 H   0  0  0  0  0  0  0  0  0  0  0  0
   -1.4910    1.3368    1.1487 H   0  0  0  0  0  0  0  0  0  0  0  0
   -2.8682   -0.0213   -0.4679 H   0  0  0  0  0  0  0  0  0  0  0  0
   -2.1579    0.8790   -1.8109 H   0  0  0  0  0  0  0  0  0  0  0  0
   -3.7772    2.1148    0.4791 H   0  0  0  0  0  0  0  0  0  0  0  0
   -3.0990    3.0017   -0.8886 H   0  0  0  0  0  0  0  0  0  0  0  0
   -5.1683    0.7435   -1.1151 H   0  0  0  0  0  0  0  0  0  0  0  0
   -4.5013    1.6642   -2.4708 H   0  0  0  0  0  0  0  0  0  0  0  0
   -5.4165    3.4114   -0.5618 H   0  0  0  0  0  0  0  0  0  0  0  0
   -5.9497    3.1778   -2.0874 H   0  0  0  0  0  0  0  0  0  0  0  0
    1.0646    0.5160    2.0412 N   0  0  0  0  0  0  0  0  0  0  0  0
    2.1215    0.8702    2.9611 C   0  0  2  0  0  0  0  0  0  0  0  0
    2.0712   -0.1023    4.1322 C   0  0  0  0  0  0  0  0  0  0  0  0
    1.0228   -0.5731    4.5685 O   0  0  0  0  0  0  0  0  0  0  0  0
    1.9795    2.3063    3.4407 C   0  0  0  0  0  0  0  0  0  0  0  0
    0.2104    0.1334    2.4355 H   0  0  0  0  0  0  0  0  0  0  0  0
    3.0663    0.7439    2.4212 H   0  0  0  0  0  0  0  0  0  0  0  0
    1.0387    2.4521    3.9840 H   0  0  0  0  0  0  0  0  0  0  0  0
    2.7968    2.5821    4.1152 H   0  0  0  0  0  0  0  0  0  0  0  0
    1.9860    3.0021    2.5948 H   0  0  0  0  0  0  0  0  0  0  0  0
    3.3307   -0.3489    4.6603 N   0  0  0  0  0  0  0  0  0  0  0  0
    3.5426   -1.2048    5.8042 C   0  0  0  0  0  0  0  0  0  0  0  0
    4.1484    0.0522    4.2106 H   0  0  0  0  0  0  0  0  0  0  0  0
    3.5374   -0.5988    6.7222 H   0  0  0  0  0  0  0  0  0  0  0  0
    2.7389   -1.9541    5.8552 H   0  0  0  0  0  0  0  0  0  0  0  0
    4.5128   -1.7138    5.7064 H   0  0  0  0  0  0  0  0  0  0  0  0
  1  3  1  0  0  0  0
  1  7  1  0  0  0  0
  1  2  2  0  0  0  0
 39 40  1  0  0  0  0
 40 48  1  0  0  0  0
 40 41  2  0  0  0  0
  8  9  1  0  0  0  0
  9 17  1  0  0  0  0
  9 10  2  0  0  0  0
 18 19  1  0  0  0  0
 19 38  1  0  0  0  0
 19 20  2  0  0  0  0
 39 42  1  0  0  0  0
  8 11  1  0  0  0  0
 48 49  1  0  0  0  0
 22 23  1  0  0  0  0
 21 22  1  0  0  0  0
 23 24  1  0  0  0  0
 18 21  1  0  0  0  0
 24 25  1  0  0  0  0
 38 39  1  0  0  0  0
  7  8  1  0  0  0  0
 17 18  1  0  0  0  0
  3  4  1  0  0  0  0
  3  5  1  0  0  0  0
  3  6  1  0  0  0  0
 42 45  1  0  0  0  0
 42 46  1  0  0  0  0
 42 47  1  0  0  0  0
 11 14  1  0  0  0  0
 11 15  1  0  0  0  0
 11 16  1  0  0  0  0
 49 51  1  0  0  0  0
 49 52  1  0  0  0  0
 49 53  1  0  0  0  0
 22 30  1  0  0  0  0
 22 31  1  0  0  0  0
 23 32  1  0  0  0  0
 23 33  1  0  0  0  0
 21 28  1  0  0  0  0
 21 29  1  0  0  0  0
 24 34  1  0  0  0  0
 24 35  1  0  0  0  0
 39 44  1  0  0  0  0
  8 13  1  0  0  0  0
 18 27  1  0  0  0  0
 25 36  1  0  0  0  0
 25 37  1  0  0  0  0
 48 50  1  0  0  0  0
  7 12  1  0  0  0  0
 38 43  1  0  0  0  0
 17 26  1  0  0  0  0
M  END
$$$$

  -OEChem-05262214473D

 53 52  0     1  0  0  0  0  0999 V2000
   -1.0338   -5.6785    0.1476 C   0  0  0  0  0  0  0  0  0  0  0  0
   -2.0514   -5.7797    0.8227 O   0  0  0  0  0  0  0  0  0  0  0  0
   -0.6558   -6.7819   -0.7841 C   0  0  0  0  0  0  0  0  0  0  0  0
   -0.0111   -7.5354   -0.3038 H   0  0  0  0  0  0  0  0  0  0  0  0
   -1.5317   -7.3401   -1.1520 H   0  0  0  0  0  0  0  0  0  0  0  0
   -0.1109   -6.4687   -1.6890 H   0  0  0  0  0  0  0  0  0  0  0  0
   -0.1543   -4.6083    0.1480 N   0  0  0  0  0  0  0  0  0  0  0  0
   -0.3302   -3.4398    0.9696 C   0  0  2  0  0  0  0  0  0  0  0  0
    0.2328   -2.2439    0.2131 C   0  0  0  0  0  0  0  0  0  0  0  0
    1.2097   -2.3192   -0.5294 O   0  0  0  0  0  0  0  0  0  0  0  0
    0.3557   -3.6024    2.3171 C   0  0  0  0  0  0  0  0  0  0  0  0
    0.6584   -4.6506   -0.4643 H   0  0  0  0  0  0  0  0  0  0  0  0
   -1.4091   -3.3101    1.1082 H   0  0  0  0  0  0  0  0  0  0  0  0
    1.4375   -3.7336    2.1985 H   0  0  0  0  0  0  0  0  0  0  0  0
    0.1969   -2.7243    2.9517 H   0  0  0  0  0  0  0  0  0  0  0  0
   -0.0294   -4.4803    2.8470 H   0  0  0  0  0  0  0  0  0  0  0  0
   -0.4616   -1.0893    0.5050 N   0  0  0  0  0  0  0  0  0  0  0  0
   -0.0884    0.2050   -0.0621 C   0  0  2  0  0  0  0  0  0  0  0  0
    1.1632    0.6855    0.6670 C   0  0  0  0  0  0  0  0  0  0  0  0
    2.0229    1.3839    0.1335 O   0  0  0  0  0  0  0  0  0  0  0  0
   -1.2026    1.2510    0.0923 C   0  0  0  0  0  0  0  0  0  0  0  0
   -2.4431    0.9473   -0.7542 C   0  0  0  0  0  0  0  0  0  0  0  0
   -3.5103    2.0316   -0.5820 C   0  0  0  0  0  0  0  0  0  0  0  0
   -4.7567    1.7158   -1.4071 C   0  0  0  0  0  0  0  0  0  0  0  0
   -5.7685    2.7471   -1.2109 N   0  0  0  0  0  0  0  0  0  0  0  0
   -1.2794   -1.1113    1.0935 H   0  0  0  0  0  0  0  0  0  0  0  0
    0.1471    0.0653   -1.1240 H   0  0  0  0  0  0  0  0  0  0  0  0
   -0.8121    2.2367   -0.1932 H   0  0  0  0  0  0  0  0  0  0  0  0
   -1.4910    1.3368    1.1487 H   0  0  0  0  0  0  0  0  0  0  0  0
   -2.8682   -0.0213   -0.4679 H   0  0  0  0  0  0  0  0  0  0  0  0
   -2.1579    0.8790   -1.8109 H   0  0  0  0  0  0  0  0  0  0  0  0
   -3.7772    2.1148    0.4791 H   0  0  0  0  0  0  0  0  0  0  0  0
   -3.0990    3.0017   -0.8886 H   0  0  0  0  0  0  0  0  0  0  0  0
   -5.1683    0.7435   -1.1151 H   0  0  0  0  0  0  0  0  0  0  0  0
   -4.5013    1.6642   -2.4708 H   0  0  0  0  0  0  0  0  0  0  0  0
   -5.4165    3.4114   -0.5618 H   0  0  0  0  0  0  0  0  0  0  0  0
   -5.9497    3.1778   -2.0874 H   0  0  0  0  0  0  0  0  0  0  0  0
    1.2155    0.2235    1.9749 N   0  0  0  0  0  0  0  0  0  0  0  0
    2.3072    0.5163    2.8757 C   0  0  2  0  0  0  0  0  0  0  0  0
    2.4802   -0.6756    3.8080 C   0  0  0  0  0  0  0  0  0  0  0  0
    1.5390   -1.3612    4.2018 O   0  0  0  0  0  0  0  0  0  0  0  0
    2.0473    1.7902    3.6645 C   0  0  0  0  0  0  0  0  0  0  0  0
    0.4521   -0.3422    2.3339 H   0  0  0  0  0  0  0  0  0  0  0  0
    3.2047    0.6308    2.2581 H   0  0  0  0  0  0  0  0  0  0  0  0
    1.1518    1.6944    4.2893 H   0  0  0  0  0  0  0  0  0  0  0  0
    2.8878    2.0260    4.3255 H   0  0  0  0  0  0  0  0  0  0  0  0
    1.8936    2.6407    2.9916 H   0  0  0  0  0  0  0  0  0  0  0  0
    3.8041   -0.8571    4.1828 N   0  0  0  0  0  0  0  0  0  0  0  0
    4.2203   -1.8957    5.0961 C   0  0  0  0  0  0  0  0  0  0  0  0
    4.5239   -0.2669    3.7763 H   0  0  0  0  0  0  0  0  0  0  0  0
    4.2327   -1.4991    6.1220 H   0  0  0  0  0  0  0  0  0  0  0  0
    3.5165   -2.7390    5.0376 H   0  0  0  0  0  0  0  0  0  0  0  0
    5.2290   -2.2403    4.8241 H   0  0  0  0  0  0  0  0  0  0  0  0
  1  3  1  0  0  0  0
  1  7  1  0  0  0  0
  1  2  2  0  0  0  0
 39 40  1  0  0  0  0
 40 48  1  0  0  0  0
 40 41  2  0  0  0  0
  8  9  1  0  0  0  0
  9 17  1  0  0  0  0
  9 10  2  0  0  0  0
 18 19  1  0  0  0  0
 19 38  1  0  0  0  0
 19 20  2  0  0  0  0
 39 42  1  0  0  0  0
  8 11  1  0  0  0  0
 48 49  1  0  0  0  0
 22 23  1  0  0  0  0
 21 22  1  0  0  0  0
 23 24  1  0  0  0  0
 18 21  1  0  0  0  0
 24 25  1  0  0  0  0
 38 39  1  0  0  0  0
  7  8  1  0  0  0  0
 17 18  1  0  0  0  0
  3  4  1  0  0  0  0
  3  5  1  0  0  0  0
  3  6  1  0  0  0  0
 42 45  1  0  0  0  0
 42 46  1  0  0  0  0
 42 47  1  0  0  0  0
 11 14  1  0  0  0  0
 11 15  1  0  0  0  0
 11 16  1  0  0  0  0
 49 51  1  0  0  0  0
 49 52  1  0  0  0  0
 49 53  1  0  0  0  0
 22 30  1  0  0  0  0
 22 31  1  0  0  0  0
 23 32  1  0  0  0  0
 23 33  1  0  0  0  0
 21 28  1  0  0  0  0
 21 29  1  0  0  0  0
 24 34  1  0  0  0  0
 24 35  1  0  0  0  0
 39 44  1  0  0  0  0
  8 13  1  0  0  0  0
 18 27  1  0  0  0  0
 25 36  1  0  0  0  0
 25 37  1  0  0  0  0
 48 50  1  0  0  0  0
  7 12  1  0  0  0  0
 38 43  1  0  0  0  0
 17 26  1  0  0  0  0
M  END
$$$$

  -OEChem-05262214473D

 53 52  0     1  0  0  0  0  0999 V2000
   -1.0338   -5.6785    0.1476 C   0  0  0  0  0  0  0  0  0  0  0  0
   -2.0514   -5.7797    0.8227 O   0  0  0  0  0  0  0  0  0  0  0  0
   -0.6558   -6.7819   -0.7841 C   0  0  0  0  0  0  0  0  0  0  0  0
   -0.0111   -7.5354   -0.3038 H   0  0  0  0  0  0  0  0  0  0  0  0
   -1.5317   -7.3401   -1.1520 H   0  0  0  0  0  0  0  0  0  0  0  0
   -0.1109   -6.4687   -1.6890 H   0  0  0  0  0  0  0  0  0  0  0  0
   -0.1543   -4.6083    0.1480 N   0  0  0  0  0  0  0  0  0  0  0  0
   -0.3302   -3.4398    0.9696 C   0  0  2  0  0  0  0  0  0  0  0  0
    0.2328   -2.2439    0.2131 C   0  0  0  0  0  0  0  0  0  0  0  0
    1.2097   -2.3192   -0.5294 O   0  0  0  0  0  0  0  0  0  0  0  0
    0.3557   -3.6024    2.3171 C   0  0  0  0  0  0  0  0  0  0  0  0
    0.6584   -4.6506   -0.4643 H   0  0  0  0  0  0  0  0  0  0  0  0
   -1.4091   -3.3101    1.1082 H   0  0  0  0  0  0  0  0  0  0  0  0
    1.4375   -3.7336    2.1985 H   0  0  0  0  0  0  0  0  0  0  0  0
    0.1969   -2.7243    2.9517 H   0  0  0  0  0  0  0  0  0  0  0  0
   -0.0294   -4.4803    2.8470 H   0  0  0  0  0  0  0  0  0  0  0  0
   -0.4616   -1.0893    0.5050 N   0  0  0  0  0  0  0  0  0  0  0  0
   -0.0884    0.2050   -0.0621 C   0  0  2  0  0  0  0  0  0  0  0  0
    1.1632    0.6855    0.6670 C   0  0  0  0  0  0  0  0  0  0  0  0
    1.8825    1.5868    0.2408 O   0  0  0  0  0  0  0  0  0  0  0  0
   -1.2026    1.2510    0.0923 C   0  0  0  0  0  0  0  0  0  0  0  0
   -2.4431    0.9473   -0.7542 C   0  0  0  0  0  0  0  0  0  0  0  0
   -3.5103    2.0316   -0.5820 C   0  0  0  0  0  0  0  0  0  0  0  0
   -4.7567    1.7158   -1.4071 C   0  0  0  0  0  0  0  0  0  0  0  0
   -5.7685    2.7471   -1.2109 N   0  0  0  0  0  0  0  0  0  0  0  0
   -1.2794   -1.1113    1.0935 H   0  0  0  0  0  0  0  0  0  0  0  0
    0.1471    0.0653   -1.1240 H   0  0  0  0  0  0  0  0  0  0  0  0
   -0.8121    2.2367   -0.1932 H   0  0  0  0  0  0  0  0  0  0  0  0
   -1.4910    1.3368    1.1487 H   0  0  0  0  0  0  0  0  0  0  0  0
   -2.8682   -0.0213   -0.4679 H   0  0  0  0  0  0  0  0  0  0  0  0
   -2.1579    0.8790   -1.8109 H   0  0  0  0  0  0  0  0  0  0  0  0
   -3.7772    2.1148    0.4791 H   0  0  0  0  0  0  0  0  0  0  0  0
   -3.0990    3.0017   -0.8886 H   0  0  0  0  0  0  0  0  0  0  0  0
   -5.1683    0.7435   -1.1151 H   0  0  0  0  0  0  0  0  0  0  0  0
   -4.5013    1.6642   -2.4708 H   0  0  0  0  0  0  0  0  0  0  0  0
   -5.4165    3.4114   -0.5618 H   0  0  0  0  0  0  0  0  0  0  0  0
   -5.9497    3.1778   -2.0874 H   0  0  0  0  0  0  0  0  0  0  0  0
    1.3920   -0.0263    1.8365 N   0  0  0  0  0  0  0  0  0  0  0  0
    2.5233    0.2155    2.7028 C   0  0  2  0  0  0  0  0  0  0  0  0
    2.9197   -1.1099    3.3398 C   0  0  0  0  0  0  0  0  0  0  0  0
    2.1051   -1.9808    3.6384 O   0  0  0  0  0  0  0  0  0  0  0  0
    2.1948    1.2525    3.7656 C   0  0  0  0  0  0  0  0  0  0  0  0
    0.7362   -0.7501    2.1151 H   0  0  0  0  0  0  0  0  0  0  0  0
    3.3391    0.5734    2.0653 H   0  0  0  0  0  0  0  0  0  0  0  0
    1.3796    0.9116    4.4141 H   0  0  0  0  0  0  0  0  0  0  0  0
    3.0616    1.4555    4.4032 H   0  0  0  0  0  0  0  0  0  0  0  0
    1.8813    2.1960    3.3058 H   0  0  0  0  0  0  0  0  0  0  0  0
    4.2852   -1.1882    3.5750 N   0  0  0  0  0  0  0  0  0  0  0  0
    4.9028   -2.3289    4.2102 C   0  0  0  0  0  0  0  0  0  0  0  0
    4.8907   -0.4365    3.2585 H   0  0  0  0  0  0  0  0  0  0  0  0
    4.9668   -2.1554    5.2945 H   0  0  0  0  0  0  0  0  0  0  0  0
    4.2981   -3.2274    4.0178 H   0  0  0  0  0  0  0  0  0  0  0  0
    5.9139   -2.4730    3.8017 H   0  0  0  0  0  0  0  0  0  0  0  0
  1  3  1  0  0  0  0
  1  7  1  0  0  0  0
  1  2  2  0  0  0  0
 39 40  1  0  0  0  0
 40 48  1  0  0  0  0
 40 41  2  0  0  0  0
  8  9  1  0  0  0  0
  9 17  1  0  0  0  0
  9 10  2  0  0  0  0
 18 19  1  0  0  0  0
 19 38  1  0  0  0  0
 19 20  2  0  0  0  0
 39 42  1  0  0  0  0
  8 11  1  0  0  0  0
 48 49  1  0  0  0  0
 22 23  1  0  0  0  0
 21 22  1  0  0  0  0
 23 24  1  0  0  0  0
 18 21  1  0  0  0  0
 24 25  1  0  0  0  0
 38 39  1  0  0  0  0
  7  8  1  0  0  0  0
 17 18  1  0  0  0  0
  3  4  1  0  0  0  0
  3  5  1  0  0  0  0
  3  6  1  0  0  0  0
 42 45  1  0  0  0  0
 42 46  1  0  0  0  0
 42 47  1  0  0  0  0
 11 14  1  0  0  0  0
 11 15  1  0  0  0  0
 11 16  1  0  0  0  0
 49 51  1  0  0  0  0
 49 52  1  0  0  0  0
 49 53  1  0  0  0  0
 22 30  1  0  0  0  0
 22 31  1  0  0  0  0
 23 32  1  0  0  0  0
 23 33  1  0  0  0  0
 21 28  1  0  0  0  0
 21 29  1  0  0  0  0
 24 34  1  0  0  0  0
 24 35  1  0  0  0  0
 39 44  1  0  0  0  0
  8 13  1  0  0  0  0
 18 27  1  0  0  0  0
 25 36  1  0  0  0  0
 25 37  1  0  0  0  0
 48 50  1  0  0  0  0
  7 12  1  0  0  0  0
 38 43  1  0  0  0  0
 17 26  1  0  0  0  0
M  END
$$$$

  -OEChem-05262214473D

 53 52  0     1  0  0  0  0  0999 V2000
   -1.0338   -5.6785    0.1476 C   0  0  0  0  0  0  0  0  0  0  0  0
   -2.0514   -5.7797    0.8227 O   0  0  0  0  0  0  0  0  0  0  0  0
   -0.6558   -6.7819   -0.7841 C   0  0  0  0  0  0  0  0  0  0  0  0
   -0.0111   -7.5354   -0.3038 H   0  0  0  0  0  0  0  0  0  0  0  0
   -1.5317   -7.3401   -1.1520 H   0  0  0  0  0  0  0  0  0  0  0  0
   -0.1109   -6.4687   -1.6890 H   0  0  0  0  0  0  0  0  0  0  0  0
   -0.1543   -4.6083    0.1480 N   0  0  0  0  0  0  0  0  0  0  0  0
   -0.3302   -3.4398    0.9696 C   0  0  2  0  0  0  0  0  0  0  0  0
    0.2328   -2.2439    0.2131 C   0  0  0  0  0  0  0  0  0  0  0  0
    1.2097   -2.3192   -0.5294 O   0  0  0  0  0  0  0  0  0  0  0  0
    0.3557   -3.6024    2.3171 C   0  0  0  0  0  0  0  0  0  0  0  0
    0.6584   -4.6506   -0.4643 H   0  0  0  0  0  0  0  0  0  0  0  0
   -1.4091   -3.3101    1.1082 H   0  0  0  0  0  0  0  0  0  0  0  0
    1.4375   -3.7336    2.1985 H   0  0  0  0  0  0  0  0  0  0  0  0
    0.1969   -2.7243    2.9517 H   0  0  0  0  0  0  0  0  0  0  0  0
   -0.0294   -4.4803    2.8470 H   0  0  0  0  0  0  0  0  0  0  0  0
   -0.4616   -1.0893    0.5050 N   0  0  0  0  0  0  0  0  0  0  0  0
   -0.0884    0.2050   -0.0621 C   0  0  2  0  0  0  0  0  0  0  0  0
    1.1632    0.6855    0.6670 C   0  0  0  0  0  0  0  0  0  0  0  0
    1.7305    1.7427    0.3989 O   0  0  0  0  0  0  0  0  0  0  0  0
   -1.2026    1.2510    0.0923 C   0  0  0  0  0  0  0  0  0  0  0  0
   -2.4431    0.9473   -0.7542 C   0  0  0  0  0  0  0  0  0  0  0  0
   -3.5103    2.0316   -0.5820 C   0  0  0  0  0  0  0  0  0  0  0  0
   -4.7567    1.7158   -1.4071 C   0  0  0  0  0  0  0  0  0  0  0  0
   -5.7685    2.7471   -1.2109 N   0  0  0  0  0  0  0  0  0  0  0  0
   -1.2794   -1.1113    1.0935 H   0  0  0  0  0  0  0  0  0  0  0  0
    0.1471    0.0653   -1.1240 H   0  0  0  0  0  0  0  0  0  0  0  0
   -0.8121    2.2367   -0.1932 H   0  0  0  0  0  0  0  0  0  0  0  0
   -1.4910    1.3368    1.1487 H   0  0  0  0  0  0  0  0  0  0  0  0
   -2.8682   -0.0213   -0.4679 H   0  0  0  0  0  0  0  0  0  0  0  0
   -2.1579    0.8790   -1.8109 H   0  0  0  0  0  0  0  0  0  0  0  0
   -3.7772    2.1148    0.4791 H   0  0  0  0  0  0  0  0  0  0  0  0
   -3.0990    3.0017   -0.8886 H   0  0  0  0  0  0  0  0  0  0  0  0
   -5.1683    0.7435   -1.1151 H   0  0  0  0  0  0  0  0  0  0  0  0
   -4.5013    1.6642   -2.4708 H   0  0  0  0  0  0  0  0  0  0  0  0
   -5.4165    3.4114   -0.5618 H   0  0  0  0  0  0  0  0  0  0  0  0
   -5.9497    3.1778   -2.0874 H   0  0  0  0  0  0  0  0  0  0  0  0
    1.5821   -0.2163    1.6355 N   0  0  0  0  0  0  0  0  0  0  0  0
    2.7552   -0.0116    2.4545 C   0  0  2  0  0  0  0  0  0  0  0  0
    3.3598   -1.3757    2.7595 C   0  0  0  0  0  0  0  0  0  0  0  0
    2.6827   -2.3896    2.9164 O   0  0  0  0  0  0  0  0  0  0  0  0
    2.4120    0.7300    3.7371 C   0  0  0  0  0  0  0  0  0  0  0  0
    1.0432   -1.0625    1.7940 H   0  0  0  0  0  0  0  0  0  0  0  0
    3.4603    0.5754    1.8559 H   0  0  0  0  0  0  0  0  0  0  0  0
    1.7066    0.1572    4.3500 H   0  0  0  0  0  0  0  0  0  0  0  0
    3.3063    0.9094    4.3430 H   0  0  0  0  0  0  0  0  0  0  0  0
    1.9501    1.6982    3.5158 H   0  0  0  0  0  0  0  0  0  0  0  0
    4.7414   -1.3195    2.8785 N   0  0  0  0  0  0  0  0  0  0  0  0
    5.5433   -2.4749    3.2069 C   0  0  0  0  0  0  0  0  0  0  0  0
    5.2238   -0.4451    2.6925 H   0  0  0  0  0  0  0  0  0  0  0  0
    5.6895   -2.5228    4.2961 H   0  0  0  0  0  0  0  0  0  0  0  0
    5.0304   -3.3861    2.8655 H   0  0  0  0  0  0  0  0  0  0  0  0
    6.5210   -2.3960    2.7090 H   0  0  0  0  0  0  0  0  0  0  0  0
  1  3  1  0  0  0  0
  1  7  1  0  0  0  0
  1  2  2  0  0  0  0
 39 40  1  0  0  0  0
 40 48  1  0  0  0  0
 40 41  2  0  0  0  0
  8  9  1  0  0  0  0
  9 17  1  0  0  0  0
  9 10  2  0  0  0  0
 18 19  1  0  0  0  0
 19 38  1  0  0  0  0
 19 20  2  0  0  0  0
 39 42  1  0  0  0  0
  8 11  1  0  0  0  0
 48 49  1  0  0  0  0
 22 23  1  0  0  0  0
 21 22  1  0  0  0  0
 23 24  1  0  0  0  0
 18 21  1  0  0  0  0
 24 25  1  0  0  0  0
 38 39  1  0  0  0  0
  7  8  1  0  0  0  0
 17 18  1  0  0  0  0
  3  4  1  0  0  0  0
  3  5  1  0  0  0  0
  3  6  1  0  0  0  0
 42 45  1  0  0  0  0
 42 46  1  0  0  0  0
 42 47  1  0  0  0  0
 11 14  1  0  0  0  0
 11 15  1  0  0  0  0
 11 16  1  0  0  0  0
 49 51  1  0  0  0  0
 49 52  1  0  0  0  0
 49 53  1  0  0  0  0
 22 30  1  0  0  0  0
 22 31  1  0  0  0  0
 23 32  1  0  0  0  0
 23 33  1  0  0  0  0
 21 28  1  0  0  0  0
 21 29  1  0  0  0  0
 24 34  1  0  0  0  0
 24 35  1  0  0  0  0
 39 44  1  0  0  0  0
  8 13  1  0  0  0  0
 18 27  1  0  0  0  0
 25 36  1  0  0  0  0
 25 37  1  0  0  0  0
 48 50  1  0  0  0  0
  7 12  1  0  0  0  0
 38 43  1  0  0  0  0
 17 26  1  0  0  0  0
M  END
$$$$

  -OEChem-05262214473D

 53 52  0     1  0  0  0  0  0999 V2000
   -1.0338   -5.6785    0.1476 C   0  0  0  0  0  0  0  0  0  0  0  0
   -2.0514   -5.7797    0.8227 O   0  0  0  0  0  0  0  0  0  0  0  0
   -0.6558   -6.7819   -0.7841 C   0  0  0  0  0  0  0  0  0  0  0  0
   -0.0111   -7.5354   -0.3038 H   0  0  0  0  0  0  0  0  0  0  0  0
   -1.5317   -7.3401   -1.1520 H   0  0  0  0  0  0  0  0  0  0  0  0
   -0.1109   -6.4687   -1.6890 H   0  0  0  0  0  0  0  0  0  0  0  0
   -0.1543   -4.6083    0.1480 N   0  0  0  0  0  0  0  0  0  0  0  0
   -0.3302   -3.4398    0.9696 C   0  0  2  0  0  0  0  0  0  0  0  0
    0.2328   -2.2439    0.2131 C   0  0  0  0  0  0  0  0  0  0  0  0
    1.2097   -2.3192   -0.5294 O   0  0  0  0  0  0  0  0  0  0  0  0
    0.3557   -3.6024    2.3171 C   0  0  0  0  0  0  0  0  0  0  0  0
    0.6584   -4.6506   -0.4643 H   0  0  0  0  0  0  0  0  0  0  0  0
   -1.4091   -3.3101    1.1082 H   0  0  0  0  0  0  0  0  0  0  0  0
    1.4375   -3.7336    2.1985 H   0  0  0  0  0  0  0  0  0  0  0  0
    0.1969   -2.7243    2.9517 H   0  0  0  0  0  0  0  0  0  0  0  0
   -0.0294   -4.4803    2.8470 H   0  0  0  0  0  0  0  0  0  0  0  0
   -0.4616   -1.0893    0.5050 N   0  0  0  0  0  0  0  0  0  0  0  0
   -0.0884    0.2050   -0.0621 C   0  0  2  0  0  0  0  0  0  0  0  0
    1.1632    0.6855    0.6670 C   0  0  0  0  0  0  0  0  0  0  0  0
    1.5773    1.8410    0.5971 O   0  0  0  0  0  0  0  0  0  0  0  0
   -1.2026    1.2510    0.0923 C   0  0  0  0  0  0  0  0  0  0  0  0
   -2.4431    0.9473   -0.7542 C   0  0  0  0  0  0  0  0  0  0  0  0
   -3.5103    2.0316   -0.5820 C   0  0  0  0  0  0  0  0  0  0  0  0
   -4.7567    1.7158   -1.4071 C   0  0  0  0  0  0  0  0  0  0  0  0
   -5.7685    2.7471   -1.2109 N   0  0  0  0  0  0  0  0  0  0  0  0
   -1.2794   -1.1113    1.0935 H   0  0  0  0  0  0  0  0  0  0  0  0
    0.1471    0.0653   -1.1240 H   0  0  0  0  0  0  0  0  0  0  0  0
   -0.8121    2.2367   -0.1932 H   0  0  0  0  0  0  0  0  0  0  0  0
   -1.4910    1.3368    1.1487 H   0  0  0  0  0  0  0  0  0  0  0  0
   -2.8682   -0.0213   -0.4679 H   0  0  0  0  0  0  0  0  0  0  0  0
   -2.1579    0.8790   -1.8109 H   0  0  0  0  0  0  0  0  0  0  0  0
   -3.7772    2.1148    0.4791 H   0  0  0  0  0  0  0  0  0  0  0  0
   -3.0990    3.0017   -0.8886 H   0  0  0  0  0  0  0  0  0  0  0  0
   -5.1683    0.7435   -1.1151 H   0  0  0  0  0  0  0  0  0  0  0  0
   -4.5013    1.6642   -2.4708 H   0  0  0  0  0  0  0  0  0  0  0  0
   -5.4165    3.4114   -0.5618 H   0  0  0  0  0  0  0  0  0  0  0  0
   -5.9497    3.1778   -2.0874 H   0  0  0  0  0  0  0  0  0  0  0  0
    1.7729   -0.3338    1.3854 N   0  0  0  0  0  0  0  0  0  0  0  0
    2.9870   -0.1495    2.1474 C   0  0  2  0  0  0  0  0  0  0  0  0
    3.7705   -1.4549    2.1067 C   0  0  0  0  0  0  0  0  0  0  0  0
    3.2323   -2.5599    2.0853 O   0  0  0  0  0  0  0  0  0  0  0  0
    2.6842    0.2581    3.5809 C   0  0  0  0  0  0  0  0  0  0  0  0
    1.3522   -1.2582    1.3926 H   0  0  0  0  0  0  0  0  0  0  0  0
    3.5601    0.6368    1.6442 H   0  0  0  0  0  0  0  0  0  0  0  0
    2.1105   -0.5175    4.1013 H   0  0  0  0  0  0  0  0  0  0  0  0
    3.6053    0.4250    4.1490 H   0  0  0  0  0  0  0  0  0  0  0  0
    2.0951    1.1812    3.6074 H   0  0  0  0  0  0  0  0  0  0  0  0
    5.1415   -1.2420    2.1407 N   0  0  0  0  0  0  0  0  0  0  0  0
    6.0984   -2.3238    2.1547 C   0  0  0  0  0  0  0  0  0  0  0  0
    5.5004   -0.2921    2.1167 H   0  0  0  0  0  0  0  0  0  0  0  0
    6.3517   -2.5765    3.1948 H   0  0  0  0  0  0  0  0  0  0  0  0
    5.6635   -3.2043    1.6591 H   0  0  0  0  0  0  0  0  0  0  0  0
    7.0089   -2.0147    1.6204 H   0  0  0  0  0  0  0  0  0  0  0  0
  1  3  1  0  0  0  0
  1  7  1  0  0  0  0
  1  2  2  0  0  0  0
 39 40  1  0  0  0  0
 40 48  1  0  0  0  0
 40 41  2  0  0  0  0
  8  9  1  0  0  0  0
  9 17  1  0  0  0  0
  9 10  2  0  0  0  0
 18 19  1  0  0  0  0
 19 38  1  0  0  0  0
 19 20  2  0  0  0  0
 39 42  1  0  0  0  0
  8 11  1  0  0  0  0
 48 49  1  0  0  0  0
 22 23  1  0  0  0  0
 21 22  1  0  0  0  0
 23 24  1  0  0  0  0
 18 21  1  0  0  0  0
 24 25  1  0  0  0  0
 38 39  1  0  0  0  0
  7  8  1  0  0  0  0
 17 18  1  0  0  0  0
  3  4  1  0  0  0  0
  3  5  1  0  0  0  0
  3  6  1  0  0  0  0
 42 45  1  0  0  0  0
 42 46  1  0  0  0  0
 42 47  1  0  0  0  0
 11 14  1  0  0  0  0
 11 15  1  0  0  0  0
 11 16  1  0  0  0  0
 49 51  1  0  0  0  0
 49 52  1  0  0  0  0
 49 53  1  0  0  0  0
 22 30  1  0  0  0  0
 22 31  1  0  0  0  0
 23 32  1  0  0  0  0
 23 33  1  0  0  0  0
 21 28  1  0  0  0  0
 21 29  1  0  0  0  0
 24 34  1  0  0  0  0
 24 35  1  0  0  0  0
 39 44  1  0  0  0  0
  8 13  1  0  0  0  0
 18 27  1  0  0  0  0
 25 36  1  0  0  0  0
 25 37  1  0  0  0  0
 48 50  1  0  0  0  0
  7 12  1  0  0  0  0
 38 43  1  0  0  0  0
 17 26  1  0  0  0  0
M  END
$$$$

  -OEChem-05262214473D

 53 52  0     1  0  0  0  0  0999 V2000
   -1.0338   -5.6785    0.1476 C   0  0  0  0  0  0  0  0  0  0  0  0
   -2.0514   -5.7797    0.8227 O   0  0  0  0  0  0  0  0  0  0  0  0
   -0.6558   -6.7819   -0.7841 C   0  0  0  0  0  0  0  0  0  0  0  0
   -0.0111   -7.5354   -0.3038 H   0  0  0  0  0  0  0  0  0  0  0  0
   -1.5317   -7.3401   -1.1520 H   0  0  0  0  0  0  0  0  0  0  0  0
   -0.1109   -6.4687   -1.6890 H   0  0  0  0  0  0  0  0  0  0  0  0
   -0.1543   -4.6083    0.1480 N   0  0  0  0  0  0  0  0  0  0  0  0
   -0.3302   -3.4398    0.9696 C   0  0  2  0  0  0  0  0  0  0  0  0
    0.2328   -2.2439    0.2131 C   0  0  0  0  0  0  0  0  0  0  0  0
    1.2097   -2.3192   -0.5294 O   0  0  0  0  0  0  0  0  0  0  0  0
    0.3557   -3.6024    2.3171 C   0  0  0  0  0  0  0  0  0  0  0  0
    0.6584   -4.6506   -0.4643 H   0  0  0  0  0  0  0  0  0  0  0  0
   -1.4091   -3.3101    1.1082 H   0  0  0  0  0  0  0  0  0  0  0  0
    1.4375   -3.7336    2.1985 H   0  0  0  0  0  0  0  0  0  0  0  0
    0.1969   -2.7243    2.9517 H   0  0  0  0  0  0  0  0  0  0  0  0
   -0.0294   -4.4803    2.8470 H   0  0  0  0  0  0  0  0  0  0  0  0
   -0.4616   -1.0893    0.5050 N   0  0  0  0  0  0  0  0  0  0  0  0
   -0.0884    0.2050   -0.0621 C   0  0  2  0  0  0  0  0  0  0  0  0
    1.1632    0.6855    0.6670 C   0  0  0  0  0  0  0  0  0  0  0  0
    1.4334    1.8748    0.8219 O   0  0  0  0  0  0  0  0  0  0  0  0
   -1.2026    1.2510    0.0923 C   0  0  0  0  0  0  0  0  0  0  0  0
   -2.4431    0.9473   -0.7542 C   0  0  0  0  0  0  0  0  0  0  0  0
   -3.5103    2.0316   -0.5820 C   0  0  0  0  0  0  0  0  0  0  0  0
   -4.7567    1.7158   -1.4071 C   0  0  0  0  0  0  0  0  0  0  0  0
   -5.7685    2.7471   -1.2109 N   0  0  0  0  0  0  0  0  0  0  0  0
   -1.2794   -1.1113    1.0935 H   0  0  0  0  0  0  0  0  0  0  0  0
    0.1471    0.0653   -1.1240 H   0  0  0  0  0  0  0  0  0  0  0  0
   -0.8121    2.2367   -0.1932 H   0  0  0  0  0  0  0  0  0  0  0  0
   -1.4910    1.3368    1.1487 H   0  0  0  0  0  0  0  0  0  0  0  0
   -2.8682   -0.0213   -0.4679 H   0  0  0  0  0  0  0  0  0  0  0  0
   -2.1579    0.8790   -1.8109 H   0  0  0  0  0  0  0  0  0  0  0  0
   -3.7772    2.1148    0.4791 H   0  0  0  0  0  0  0  0  0  0  0  0
   -3.0990    3.0017   -0.8886 H   0  0  0  0  0  0  0  0  0  0  0  0
   -5.1683    0.7435   -1.1151 H   0  0  0  0  0  0  0  0  0  0  0  0
   -4.5013    1.6642   -2.4708 H   0  0  0  0  0  0  0  0  0  0  0  0
   -5.4165    3.4114   -0.5618 H   0  0  0  0  0  0  0  0  0  0  0  0
   -5.9497    3.1778   -2.0874 H   0  0  0  0  0  0  0  0  0  0  0  0
    1.9513   -0.3705    1.1034 N   0  0  0  0  0  0  0  0  0  0  0  0
    3.2030   -0.1889    1.8027 C   0  0  2  0  0  0  0  0  0  0  0  0
    4.1238   -1.3420    1.4259 C   0  0  0  0  0  0  0  0  0  0  0  0
    3.7165   -2.4799    1.2015 O   0  0  0  0  0  0  0  0  0  0  0  0
    2.9926   -0.1309    3.3077 C   0  0  0  0  0  0  0  0  0  0  0  0
    1.6422   -1.3237    0.9381 H   0  0  0  0  0  0  0  0  0  0  0  0
    3.6316    0.7534    1.4446 H   0  0  0  0  0  0  0  0  0  0  0  0
    2.5638   -1.0664    3.6849 H   0  0  0  0  0  0  0  0  0  0  0  0
    3.9382    0.0353    3.8344 H   0  0  0  0  0  0  0  0  0  0  0  0
    2.3067    0.6804    3.5743 H   0  0  0  0  0  0  0  0  0  0  0  0
    5.4583   -0.9611    1.4118 N   0  0  0  0  0  0  0  0  0  0  0  0
    6.5301   -1.8858    1.1251 C   0  0  0  0  0  0  0  0  0  0  0  0
    5.7018    0.0122    1.5706 H   0  0  0  0  0  0  0  0  0  0  0  0
    6.9083   -2.3127    2.0657 H   0  0  0  0  0  0  0  0  0  0  0  0
    6.1541   -2.6942    0.4808 H   0  0  0  0  0  0  0  0  0  0  0  0
    7.3442   -1.3549    0.6100 H   0  0  0  0  0  0  0  0  0  0  0  0
  1  3  1  0  0  0  0
  1  7  1  0  0  0  0
  1  2  2  0  0  0  0
 39 40  1  0  0  0  0
 40 48  1  0  0  0  0
 40 41  2  0  0  0  0
  8  9  1  0  0  0  0
  9 17  1  0  0  0  0
  9 10  2  0  0  0  0
 18 19  1  0  0  0  0
 19 38  1  0  0  0  0
 19 20  2  0  0  0  0
 39 42  1  0  0  0  0
  8 11  1  0  0  0  0
 48 49  1  0  0  0  0
 22 23  1  0  0  0  0
 21 22  1  0  0  0  0
 23 24  1  0  0  0  0
 18 21  1  0  0  0  0
 24 25  1  0  0  0  0
 38 39  1  0  0  0  0
  7  8  1  0  0  0  0
 17 18  1  0  0  0  0
  3  4  1  0  0  0  0
  3  5  1  0  0  0  0
  3  6  1  0  0  0  0
 42 45  1  0  0  0  0
 42 46  1  0  0  0  0
 42 47  1  0  0  0  0
 11 14  1  0  0  0  0
 11 15  1  0  0  0  0
 11 16  1  0  0  0  0
 49 51  1  0  0  0  0
 49 52  1  0  0  0  0
 49 53  1  0  0  0  0
 22 30  1  0  0  0  0
 22 31  1  0  0  0  0
 23 32  1  0  0  0  0
 23 33  1  0  0  0  0
 21 28  1  0  0  0  0
 21 29  1  0  0  0  0
 24 34  1  0  0  0  0
 24 35  1  0  0  0  0
 39 44  1  0  0  0  0
  8 13  1  0  0  0  0
 18 27  1  0  0  0  0
 25 36  1  0  0  0  0
 25 37  1  0  0  0  0
 48 50  1  0  0  0  0
  7 12  1  0  0  0  0
 38 43  1  0  0  0  0
 17 26  1  0  0  0  0
M  END
$$$$

  -OEChem-05262214473D

 53 52  0     1  0  0  0  0  0999 V2000
   -1.0338   -5.6785    0.1476 C   0  0  0  0  0  0  0  0  0  0  0  0
   -2.0514   -5.7797    0.8227 O   0  0  0  0  0  0  0  0  0  0  0  0
   -0.6558   -6.7819   -0.7841 C   0  0  0  0  0  0  0  0  0  0  0  0
   -0.0111   -7.5354   -0.3038 H   0  0  0  0  0  0  0  0  0  0  0  0
   -1.5317   -7.3401   -1.1520 H   0  0  0  0  0  0  0  0  0  0  0  0
   -0.1109   -6.4687   -1.6890 H   0  0  0  0  0  0  0  0  0  0  0  0
   -0.1543   -4.6083    0.1480 N   0  0  0  0  0  0  0  0  0  0  0  0
   -0.3302   -3.4398    0.9696 C   0  0  2  0  0  0  0  0  0  0  0  0
    0.2328   -2.2439    0.2131 C   0  0  0  0  0  0  0  0  0  0  0  0
    1.2097   -2.3192   -0.5294 O   0  0  0  0  0  0  0  0  0  0  0  0
    0.3557   -3.6024    2.3171 C   0  0  0  0  0  0  0  0  0  0  0  0
    0.6584   -4.6506   -0.4643 H   0  0  0  0  0  0  0  0  0  0  0  0
   -1.4091   -3.3101    1.1082 H   0  0  0  0  0  0  0  0  0  0  0  0
    1.4375   -3.7336    2.1985 H   0  0  0  0  0  0  0  0  0  0  0  0
    0.1969   -2.7243    2.9517 H   0  0  0  0  0  0  0  0  0  0  0  0
   -0.0294   -4.4803    2.8470 H   0  0  0  0  0  0  0  0  0  0  0  0
   -0.4616   -1.0893    0.5050 N   0  0  0  0  0  0  0  0  0  0  0  0
   -0.0884    0.2050   -0.0621 C   0  0  2  0  0  0  0  0  0  0  0  0
    1.1632    0.6855    0.6670 C   0  0  0  0  0  0  0  0  0  0  0  0
    1.3084    1.8420    1.0580 O   0  0  0  0  0  0  0  0  0  0  0  0
   -1.2026    1.2510    0.0923 C   0  0  0  0  0  0  0  0  0  0  0  0
   -2.4431    0.9473   -0.7542 C   0  0  0  0  0  0  0  0  0  0  0  0
   -3.5103    2.0316   -0.5820 C   0  0  0  0  0  0  0  0  0  0  0  0
   -4.7567    1.7158   -1.4071 C   0  0  0  0  0  0  0  0  0  0  0  0
   -5.7685    2.7471   -1.2109 N   0  0  0  0  0  0  0  0  0  0  0  0
   -1.2794   -1.1113    1.0935 H   0  0  0  0  0  0  0  0  0  0  0  0
    0.1471    0.0653   -1.1240 H   0  0  0  0  0  0  0  0  0  0  0  0
   -0.8121    2.2367   -0.1932 H   0  0  0  0  0  0  0  0  0  0  0  0
   -1.4910    1.3368    1.1487 H   0  0  0  0  0  0  0  0  0  0  0  0
   -2.8682   -0.0213   -0.4679 H   0  0  0  0  0  0  0  0  0  0  0  0
   -2.1579    0.8790   -1.8109 H   0  0  0  0  0  0  0  0  0  0  0  0
   -3.7772    2.1148    0.4791 H   0  0  0  0  0  0  0  0  0  0  0  0
   -3.0990    3.0017   -0.8886 H   0  0  0  0  0  0  0  0  0  0  0  0
   -5.1683    0.7435   -1.1151 H   0  0  0  0  0  0  0  0  0  0  0  0
   -4.5013    1.6642   -2.4708 H   0  0  0  0  0  0  0  0  0  0  0  0
   -5.4165    3.4114   -0.5618 H   0  0  0  0  0  0  0  0  0  0  0  0
   -5.9497    3.1778   -2.0874 H   0  0  0  0  0  0  0  0  0  0  0  0
    2.1052   -0.3241    0.8086 N   0  0  0  0  0  0  0  0  0  0  0  0
    3.3884   -0.1271    1.4438 C   0  0  2  0  0  0  0  0  0  0  0  0
    4.3957   -1.0448    0.7634 C   0  0  0  0  0  0  0  0  0  0  0  0
    4.1023   -2.1552    0.3253 O   0  0  0  0  0  0  0  0  0  0  0  0
    3.3164   -0.4104    2.9362 C   0  0  0  0  0  0  0  0  0  0  0  0
    1.8933   -1.2547    0.4615 H   0  0  0  0  0  0  0  0  0  0  0  0
    3.6700    0.9173    1.2707 H   0  0  0  0  0  0  0  0  0  0  0  0
    3.0356   -1.4522    3.1293 H   0  0  0  0  0  0  0  0  0  0  0  0
    4.2823   -0.2332    3.4207 H   0  0  0  0  0  0  0  0  0  0  0  0
    2.5702    0.2298    3.4189 H   0  0  0  0  0  0  0  0  0  0  0  0
    5.6702   -0.4959    0.7417 N   0  0  0  0  0  0  0  0  0  0  0  0
    6.8090   -1.1909    0.1884 C   0  0  0  0  0  0  0  0  0  0  0  0
    5.8142    0.4469    1.0912 H   0  0  0  0  0  0  0  0  0  0  0  0
    7.3212   -1.7493    0.9857 H   0  0  0  0  0  0  0  0  0  0  0  0
    6.4690   -1.8908   -0.5891 H   0  0  0  0  0  0  0  0  0  0  0  0
    7.5042   -0.4617   -0.2532 H   0  0  0  0  0  0  0  0  0  0  0  0
  1  3  1  0  0  0  0
  1  7  1  0  0  0  0
  1  2  2  0  0  0  0
 39 40  1  0  0  0  0
 40 48  1  0  0  0  0
 40 41  2  0  0  0  0
  8  9  1  0  0  0  0
  9 17  1  0  0  0  0
  9 10  2  0  0  0  0
 18 19  1  0  0  0  0
 19 38  1  0  0  0  0
 19 20  2  0  0  0  0
 39 42  1  0  0  0  0
  8 11  1  0  0  0  0
 48 49  1  0  0  0  0
 22 23  1  0  0  0  0
 21 22  1  0  0  0  0
 23 24  1  0  0  0  0
 18 21  1  0  0  0  0
 24 25  1  0  0  0  0
 38 39  1  0  0  0  0
  7  8  1  0  0  0  0
 17 18  1  0  0  0  0
  3  4  1  0  0  0  0
  3  5  1  0  0  0  0
  3  6  1  0  0  0  0
 42 45  1  0  0  0  0
 42 46  1  0  0  0  0
 42 47  1  0  0  0  0
 11 14  1  0  0  0  0
 11 15  1  0  0  0  0
 11 16  1  0  0  0  0
 49 51  1  0  0  0  0
 49 52  1  0  0  0  0
 49 53  1  0  0  0  0
 22 30  1  0  0  0  0
 22 31  1  0  0  0  0
 23 32  1  0  0  0  0
 23 33  1  0  0  0  0
 21 28  1  0  0  0  0
 21 29  1  0  0  0  0
 24 34  1  0  0  0  0
 24 35  1  0  0  0  0
 39 44  1  0  0  0  0
  8 13  1  0  0  0  0
 18 27  1  0  0  0  0
 25 36  1  0  0  0  0
 25 37  1  0  0  0  0
 48 50  1  0  0  0  0
  7 12  1  0  0  0  0
 38 43  1  0  0  0  0
 17 26  1  0  0  0  0
M  END
$$$$

  -OEChem-05262214473D

 53 52  0     1  0  0  0  0  0999 V2000
   -1.0338   -5.6785    0.1476 C   0  0  0  0  0  0  0  0  0  0  0  0
   -2.0514   -5.7797    0.8227 O   0  0  0  0  0  0  0  0  0  0  0  0
   -0.6558   -6.7819   -0.7841 C   0  0  0  0  0  0  0  0  0  0  0  0
   -0.0111   -7.5354   -0.3038 H   0  0  0  0  0  0  0  0  0  0  0  0
   -1.5317   -7.3401   -1.1520 H   0  0  0  0  0  0  0  0  0  0  0  0
   -0.1109   -6.4687   -1.6890 H   0  0  0  0  0  0  0  0  0  0  0  0
   -0.1543   -4.6083    0.1480 N   0  0  0  0  0  0  0  0  0  0  0  0
   -0.3302   -3.4398    0.9696 C   0  0  2  0  0  0  0  0  0  0  0  0
    0.2328   -2.2439    0.2131 C   0  0  0  0  0  0  0  0  0  0  0  0
    1.2097   -2.3192   -0.5294 O   0  0  0  0  0  0  0  0  0  0  0  0
    0.3557   -3.6024    2.3171 C   0  0  0  0  0  0  0  0  0  0  0  0
    0.6584   -4.6506   -0.4643 H   0  0  0  0  0  0  0  0  0  0  0  0
   -1.4091   -3.3101    1.1082 H   0  0  0  0  0  0  0  0  0  0  0  0
    1.4375   -3.7336    2.1985 H   0  0  0  0  0  0  0  0  0  0  0  0
    0.1969   -2.7243    2.9517 H   0  0  0  0  0  0  0  0  0  0  0  0
   -0.0294   -4.4803    2.8470 H   0  0  0  0  0  0  0  0  0  0  0  0
   -0.4616   -1.0893    0.5050 N   0  0  0  0  0  0  0  0  0  0  0  0
   -0.0884    0.2050   -0.0621 C   0  0  2  0  0  0  0  0  0  0  0  0
    1.1632    0.6855    0.6670 C   0  0  0  0  0  0  0  0  0  0  0  0
    1.2110    1.7448    1.2892 O   0  0  0  0  0  0  0  0  0  0  0  0
   -1.2026    1.2510    0.0923 C   0  0  0  0  0  0  0  0  0  0  0  0
   -2.4431    0.9473   -0.7542 C   0  0  0  0  0  0  0  0  0  0  0  0
   -3.5103    2.0316   -0.5820 C   0  0  0  0  0  0  0  0  0  0  0  0
   -4.7567    1.7158   -1.4071 C   0  0  0  0  0  0  0  0  0  0  0  0
   -5.7685    2.7471   -1.2109 N   0  0  0  0  0  0  0  0  0  0  0  0
   -1.2794   -1.1113    1.0935 H   0  0  0  0  0  0  0  0  0  0  0  0
    0.1471    0.0653   -1.1240 H   0  0  0  0  0  0  0  0  0  0  0  0
   -0.8121    2.2367   -0.1932 H   0  0  0  0  0  0  0  0  0  0  0  0
   -1.4910    1.3368    1.1487 H   0  0  0  0  0  0  0  0  0  0  0  0
   -2.8682   -0.0213   -0.4679 H   0  0  0  0  0  0  0  0  0  0  0  0
   -2.1579    0.8790   -1.8109 H   0  0  0  0  0  0  0  0  0  0  0  0
   -3.7772    2.1148    0.4791 H   0  0  0  0  0  0  0  0  0  0  0  0
   -3.0990    3.0017   -0.8886 H   0  0  0  0  0  0  0  0  0  0  0  0
   -5.1683    0.7435   -1.1151 H   0  0  0  0  0  0  0  0  0  0  0  0
   -4.5013    1.6642   -2.4708 H   0  0  0  0  0  0  0  0  0  0  0  0
   -5.4165    3.4114   -0.5618 H   0  0  0  0  0  0  0  0  0  0  0  0
   -5.9497    3.1778   -2.0874 H   0  0  0  0  0  0  0  0  0  0  0  0
    2.2241   -0.1976    0.5213 N   0  0  0  0  0  0  0  0  0  0  0  0
    3.5306    0.0317    1.0950 C   0  0  2  0  0  0  0  0  0  0  0  0
    4.5675   -0.5835    0.1645 C   0  0  0  0  0  0  0  0  0  0  0  0
    4.3634   -1.6079   -0.4835 O   0  0  0  0  0  0  0  0  0  0  0  0
    3.6335   -0.5616    2.4915 C   0  0  0  0  0  0  0  0  0  0  0  0
    2.0885   -1.0559   -0.0046 H   0  0  0  0  0  0  0  0  0  0  0  0
    3.6726    1.1172    1.1344 H   0  0  0  0  0  0  0  0  0  0  0  0
    3.4938   -1.6486    2.4722 H   0  0  0  0  0  0  0  0  0  0  0  0
    4.6142   -0.3622    2.9360 H   0  0  0  0  0  0  0  0  0  0  0  0
    2.8678   -0.1398    3.1516 H   0  0  0  0  0  0  0  0  0  0  0  0
    5.7627    0.1219    0.1758 N   0  0  0  0  0  0  0  0  0  0  0  0
    6.9161   -0.2863   -0.5916 C   0  0  0  0  0  0  0  0  0  0  0  0
    5.8300    0.9824    0.7113 H   0  0  0  0  0  0  0  0  0  0  0  0
    7.5624   -0.9249    0.0284 H   0  0  0  0  0  0  0  0  0  0  0  0
    6.5866   -0.8487   -1.4777 H   0  0  0  0  0  0  0  0  0  0  0  0
    7.4780    0.6040   -0.9105 H   0  0  0  0  0  0  0  0  0  0  0  0
  1  3  1  0  0  0  0
  1  7  1  0  0  0  0
  1  2  2  0  0  0  0
 39 40  1  0  0  0  0
 40 48  1  0  0  0  0
 40 41  2  0  0  0  0
  8  9  1  0  0  0  0
  9 17  1  0  0  0  0
  9 10  2  0  0  0  0
 18 19  1  0  0  0  0
 19 38  1  0  0  0  0
 19 20  2  0  0  0  0
 39 42  1  0  0  0  0
  8 11  1  0  0  0  0
 48 49  1  0  0  0  0
 22 23  1  0  0  0  0
 21 22  1  0  0  0  0
 23 24  1  0  0  0  0
 18 21  1  0  0  0  0
 24 25  1  0  0  0  0
 38 39  1  0  0  0  0
  7  8  1  0  0  0  0
 17 18  1  0  0  0  0
  3  4  1  0  0  0  0
  3  5  1  0  0  0  0
  3  6  1  0  0  0  0
 42 45  1  0  0  0  0
 42 46  1  0  0  0  0
 42 47  1  0  0  0  0
 11 14  1  0  0  0  0
 11 15  1  0  0  0  0
 11 16  1  0  0  0  0
 49 51  1  0  0  0  0
 49 52  1  0  0  0  0
 49 53  1  0  0  0  0
 22 30  1  0  0  0  0
 22 31  1  0  0  0  0
 23 32  1  0  0  0  0
 23 33  1  0  0  0  0
 21 28  1  0  0  0  0
 21 29  1  0  0  0  0
 24 34  1  0  0  0  0
 24 35  1  0  0  0  0
 39 44  1  0  0  0  0
  8 13  1  0  0  0  0
 18 27  1  0  0  0  0
 25 36  1  0  0  0  0
 25 37  1  0  0  0  0
 48 50  1  0  0  0  0
  7 12  1  0  0  0  0
 38 43  1  0  0  0  0
 17 26  1  0  0  0  0
M  END
$$$$

  -OEChem-05262214473D

 53 52  0     1  0  0  0  0  0999 V2000
   -1.0338   -5.6785    0.1476 C   0  0  0  0  0  0  0  0  0  0  0  0
   -2.0514   -5.7797    0.8227 O   0  0  0  0  0  0  0  0  0  0  0  0
   -0.6558   -6.7819   -0.7841 C   0  0  0  0  0  0  0  0  0  0  0  0
   -0.0111   -7.5354   -0.3038 H   0  0  0  0  0  0  0  0  0  0  0  0
   -1.5317   -7.3401   -1.1520 H   0  0  0  0  0  0  0  0  0  0  0  0
   -0.1109   -6.4687   -1.6890 H   0  0  0  0  0  0  0  0  0  0  0  0
   -0.1543   -4.6083    0.1480 N   0  0  0  0  0  0  0  0  0  0  0  0
   -0.3302   -3.4398    0.9696 C   0  0  2  0  0  0  0  0  0  0  0  0
    0.2328   -2.2439    0.2131 C   0  0  0  0  0  0  0  0  0  0  0  0
    1.2097   -2.3192   -0.5294 O   0  0  0  0  0  0  0  0  0  0  0  0
    0.3557   -3.6024    2.3171 C   0  0  0  0  0  0  0  0  0  0  0  0
    0.6584   -4.6506   -0.4643 H   0  0  0  0  0  0  0  0  0  0  0  0
   -1.4091   -3.3101    1.1082 H   0  0  0  0  0  0  0  0  0  0  0  0
    1.4375   -3.7336    2.1985 H   0  0  0  0  0  0  0  0  0  0  0  0
    0.1969   -2.7243    2.9517 H   0  0  0  0  0  0  0  0  0  0  0  0
   -0.0294   -4.4803    2.8470 H   0  0  0  0  0  0  0  0  0  0  0  0
   -0.4616   -1.0893    0.5050 N   0  0  0  0  0  0  0  0  0  0  0  0
   -0.0884    0.2050   -0.0621 C   0  0  2  0  0  0  0  0  0  0  0  0
    1.1632    0.6855    0.6670 C   0  0  0  0  0  0  0  0  0  0  0  0
    1.1478    1.5898    1.4999 O   0  0  0  0  0  0  0  0  0  0  0  0
   -1.2026    1.2510    0.0923 C   0  0  0  0  0  0  0  0  0  0  0  0
   -2.4431    0.9473   -0.7542 C   0  0  0  0  0  0  0  0  0  0  0  0
   -3.5103    2.0316   -0.5820 C   0  0  0  0  0  0  0  0  0  0  0  0
   -4.7567    1.7158   -1.4071 C   0  0  0  0  0  0  0  0  0  0  0  0
   -5.7685    2.7471   -1.2109 N   0  0  0  0  0  0  0  0  0  0  0  0
   -1.2794   -1.1113    1.0935 H   0  0  0  0  0  0  0  0  0  0  0  0
    0.1471    0.0653   -1.1240 H   0  0  0  0  0  0  0  0  0  0  0  0
   -0.8121    2.2367   -0.1932 H   0  0  0  0  0  0  0  0  0  0  0  0
   -1.4910    1.3368    1.1487 H   0  0  0  0  0  0  0  0  0  0  0  0
   -2.8682   -0.0213   -0.4679 H   0  0  0  0  0  0  0  0  0  0  0  0
   -2.1579    0.8790   -1.8109 H   0  0  0  0  0  0  0  0  0  0  0  0
   -3.7772    2.1148    0.4791 H   0  0  0  0  0  0  0  0  0  0  0  0
   -3.0990    3.0017   -0.8886 H   0  0  0  0  0  0  0  0  0  0  0  0
   -5.1683    0.7435   -1.1151 H   0  0  0  0  0  0  0  0  0  0  0  0
   -4.5013    1.6642   -2.4708 H   0  0  0  0  0  0  0  0  0  0  0  0
   -5.4165    3.4114   -0.5618 H   0  0  0  0  0  0  0  0  0  0  0  0
   -5.9497    3.1778   -2.0874 H   0  0  0  0  0  0  0  0  0  0  0  0
    2.2999    0.0002    0.2608 N   0  0  0  0  0  0  0  0  0  0  0  0
    3.6199    0.2767    0.7804 C   0  0  2  0  0  0  0  0  0  0  0  0
    4.6276    0.0105   -0.3301 C   0  0  0  0  0  0  0  0  0  0  0  0
    4.4820   -0.8753   -1.1699 O   0  0  0  0  0  0  0  0  0  0  0  0
    3.9222   -0.5740    2.0041 C   0  0  0  0  0  0  0  0  0  0  0  0
    2.2145   -0.7407   -0.4286 H   0  0  0  0  0  0  0  0  0  0  0  0
    3.6394    1.3395    1.0450 H   0  0  0  0  0  0  0  0  0  0  0  0
    3.9071   -1.6421    1.7585 H   0  0  0  0  0  0  0  0  0  0  0  0
    4.9112   -0.3429    2.4134 H   0  0  0  0  0  0  0  0  0  0  0  0
    3.1793   -0.4033    2.7907 H   0  0  0  0  0  0  0  0  0  0  0  0
    5.7295    0.8502   -0.2472 N   0  0  0  0  0  0  0  0  0  0  0  0
    6.8442    0.7663   -1.1618 C   0  0  0  0  0  0  0  0  0  0  0  0
    5.7480    1.5823    0.4567 H   0  0  0  0  0  0  0  0  0  0  0  0
    7.6154    0.1045   -0.7409 H   0  0  0  0  0  0  0  0  0  0  0  0
    6.4989    0.3610   -2.1243 H   0  0  0  0  0  0  0  0  0  0  0  0
    7.2673    1.7698   -1.3170 H   0  0  0  0  0  0  0  0  0  0  0  0
  1  3  1  0  0  0  0
  1  7  1  0  0  0  0
  1  2  2  0  0  0  0
 39 40  1  0  0  0  0
 40 48  1  0  0  0  0
 40 41  2  0  0  0  0
  8  9  1  0  0  0  0
  9 17  1  0  0  0  0
  9 10  2  0  0  0  0
 18 19  1  0  0  0  0
 19 38  1  0  0  0  0
 19 20  2  0  0  0  0
 39 42  1  0  0  0  0
  8 11  1  0  0  0  0
 48 49  1  0  0  0  0
 22 23  1  0  0  0  0
 21 22  1  0  0  0  0
 23 24  1  0  0  0  0
 18 21  1  0  0  0  0
 24 25  1  0  0  0  0
 38 39  1  0  0  0  0
  7  8  1  0  0  0  0
 17 18  1  0  0  0  0
  3  4  1  0  0  0  0
  3  5  1  0  0  0  0
  3  6  1  0  0  0  0
 42 45  1  0  0  0  0
 42 46  1  0  0  0  0
 42 47  1  0  0  0  0
 11 14  1  0  0  0  0
 11 15  1  0  0  0  0
 11 16  1  0  0  0  0
 49 51  1  0  0  0  0
 49 52  1  0  0  0  0
 49 53  1  0  0  0  0
 22 30  1  0  0  0  0
 22 31  1  0  0  0  0
 23 32  1  0  0  0  0
 23 33  1  0  0  0  0
 21 28  1  0  0  0  0
 21 29  1  0  0  0  0
 24 34  1  0  0  0  0
 24 35  1  0  0  0  0
 39 44  1  0  0  0  0
  8 13  1  0  0  0  0
 18 27  1  0  0  0  0
 25 36  1  0  0  0  0
 25 37  1  0  0  0  0
 48 50  1  0  0  0  0
  7 12  1  0  0  0  0
 38 43  1  0  0  0  0
 17 26  1  0  0  0  0
M  END
$$$$

  -OEChem-05262214473D

 53 52  0     1  0  0  0  0  0999 V2000
   -1.0338   -5.6785    0.1476 C   0  0  0  0  0  0  0  0  0  0  0  0
   -2.0514   -5.7797    0.8227 O   0  0  0  0  0  0  0  0  0  0  0  0
   -0.6558   -6.7819   -0.7841 C   0  0  0  0  0  0  0  0  0  0  0  0
   -0.0111   -7.5354   -0.3038 H   0  0  0  0  0  0  0  0  0  0  0  0
   -1.5317   -7.3401   -1.1520 H   0  0  0  0  0  0  0  0  0  0  0  0
   -0.1109   -6.4687   -1.6890 H   0  0  0  0  0  0  0  0  0  0  0  0
   -0.1543   -4.6083    0.1480 N   0  0  0  0  0  0  0  0  0  0  0  0
   -0.3302   -3.4398    0.9696 C   0  0  2  0  0  0  0  0  0  0  0  0
    0.2328   -2.2439    0.2131 C   0  0  0  0  0  0  0  0  0  0  0  0
    1.2097   -2.3192   -0.5294 O   0  0  0  0  0  0  0  0  0  0  0  0
    0.3557   -3.6024    2.3171 C   0  0  0  0  0  0  0  0  0  0  0  0
    0.6584   -4.6506   -0.4643 H   0  0  0  0  0  0  0  0  0  0  0  0
   -1.4091   -3.3101    1.1082 H   0  0  0  0  0  0  0  0  0  0  0  0
    1.4375   -3.7336    2.1985 H   0  0  0  0  0  0  0  0  0  0  0  0
    0.1969   -2.7243    2.9517 H   0  0  0  0  0  0  0  0  0  0  0  0
   -0.0294   -4.4803    2.8470 H   0  0  0  0  0  0  0  0  0  0  0  0
   -0.4616   -1.0893    0.5050 N   0  0  0  0  0  0  0  0  0  0  0  0
   -0.0884    0.2050   -0.0621 C   0  0  2  0  0  0  0  0  0  0  0  0
    1.1632    0.6855    0.6670 C   0  0  0  0  0  0  0  0  0  0  0  0
    1.1231    1.3875    1.6756 O   0  0  0  0  0  0  0  0  0  0  0  0
   -1.2026    1.2510    0.0923 C   0  0  0  0  0  0  0  0  0  0  0  0
   -2.4431    0.9473   -0.7542 C   0  0  0  0  0  0  0  0  0  0  0  0
   -3.5103    2.0316   -0.5820 C   0  0  0  0  0  0  0  0  0  0  0  0
   -4.7567    1.7158   -1.4071 C   0  0  0  0  0  0  0  0  0  0  0  0
   -5.7685    2.7471   -1.2109 N   0  0  0  0  0  0  0  0  0  0  0  0
   -1.2794   -1.1113    1.0935 H   0  0  0  0  0  0  0  0  0  0  0  0
    0.1471    0.0653   -1.1240 H   0  0  0  0  0  0  0  0  0  0  0  0
   -0.8121    2.2367   -0.1932 H   0  0  0  0  0  0  0  0  0  0  0  0
   -1.4910    1.3368    1.1487 H   0  0  0  0  0  0  0  0  0  0  0  0
   -2.8682   -0.0213   -0.4679 H   0  0  0  0  0  0  0  0  0  0  0  0
   -2.1579    0.8790   -1.8109 H   0  0  0  0  0  0  0  0  0  0  0  0
   -3.7772    2.1148    0.4791 H   0  0  0  0  0  0  0  0  0  0  0  0
   -3.0990    3.0017   -0.8886 H   0  0  0  0  0  0  0  0  0  0  0  0
   -5.1683    0.7435   -1.1151 H   0  0  0  0  0  0  0  0  0  0  0  0
   -4.5013    1.6642   -2.4708 H   0  0  0  0  0  0  0  0  0  0  0  0
   -5.4165    3.4114   -0.5618 H   0  0  0  0  0  0  0  0  0  0  0  0
   -5.9497    3.1778   -2.0874 H   0  0  0  0  0  0  0  0  0  0  0  0
    2.3274    0.2560    0.0451 N   0  0  0  0  0  0  0  0  0  0  0  0
    3.6502    0.5912    0.5211 C   0  0  2  0  0  0  0  0  0  0  0  0
    4.5719    0.6967   -0.6867 C   0  0  0  0  0  0  0  0  0  0  0  0
    4.4500   -0.0073   -1.6870 O   0  0  0  0  0  0  0  0  0  0  0  0
    4.1629   -0.4468    1.5072 C   0  0  0  0  0  0  0  0  0  0  0  0
    2.2627   -0.3308   -0.7814 H   0  0  0  0  0  0  0  0  0  0  0  0
    3.5725    1.5692    1.0085 H   0  0  0  0  0  0  0  0  0  0  0  0
    4.2474   -1.4333    1.0369 H   0  0  0  0  0  0  0  0  0  0  0  0
    5.1532   -0.1766    1.8886 H   0  0  0  0  0  0  0  0  0  0  0  0
    3.4832   -0.5427    2.3608 H   0  0  0  0  0  0  0  0  0  0  0  0
    5.5729    1.6394   -0.4985 N   0  0  0  0  0  0  0  0  0  0  0  0
    6.5981    1.8952   -1.4832 C   0  0  0  0  0  0  0  0  0  0  0  0
    5.5739    2.2057    0.3447 H   0  0  0  0  0  0  0  0  0  0  0  0
    7.4767    1.2686   -1.2698 H   0  0  0  0  0  0  0  0  0  0  0  0
    6.2119    1.6560   -2.4850 H   0  0  0  0  0  0  0  0  0  0  0  0
    6.8865    2.9560   -1.4450 H   0  0  0  0  0  0  0  0  0  0  0  0
  1  3  1  0  0  0  0
  1  7  1  0  0  0  0
  1  2  2  0  0  0  0
 39 40  1  0  0  0  0
 40 48  1  0  0  0  0
 40 41  2  0  0  0  0
  8  9  1  0  0  0  0
  9 17  1  0  0  0  0
  9 10  2  0  0  0  0
 18 19  1  0  0  0  0
 19 38  1  0  0  0  0
 19 20  2  0  0  0  0
 39 42  1  0  0  0  0
  8 11  1  0  0  0  0
 48 49  1  0  0  0  0
 22 23  1  0  0  0  0
 21 22  1  0  0  0  0
 23 24  1  0  0  0  0
 18 21  1  0  0  0  0
 24 25  1  0  0  0  0
 38 39  1  0  0  0  0
  7  8  1  0  0  0  0
 17 18  1  0  0  0  0
  3  4  1  0  0  0  0
  3  5  1  0  0  0  0
  3  6  1  0  0  0  0
 42 45  1  0  0  0  0
 42 46  1  0  0  0  0
 42 47  1  0  0  0  0
 11 14  1  0  0  0  0
 11 15  1  0  0  0  0
 11 16  1  0  0  0  0
 49 51  1  0  0  0  0
 49 52  1  0  0  0  0
 49 53  1  0  0  0  0
 22 30  1  0  0  0  0
 22 31  1  0  0  0  0
 23 32  1  0  0  0  0
 23 33  1  0  0  0  0
 21 28  1  0  0  0  0
 21 29  1  0  0  0  0
 24 34  1  0  0  0  0
 24 35  1  0  0  0  0
 39 44  1  0  0  0  0
  8 13  1  0  0  0  0
 18 27  1  0  0  0  0
 25 36  1  0  0  0  0
 25 37  1  0  0  0  0
 48 50  1  0  0  0  0
  7 12  1  0  0  0  0
 38 43  1  0  0  0  0
 17 26  1  0  0  0  0
M  END
$$$$

  -OEChem-05262214473D

 53 52  0     1  0  0  0  0  0999 V2000
   -1.0338   -5.6785    0.1476 C   0  0  0  0  0  0  0  0  0  0  0  0
   -2.0514   -5.7797    0.8227 O   0  0  0  0  0  0  0  0  0  0  0  0
   -0.6558   -6.7819   -0.7841 C   0  0  0  0  0  0  0  0  0  0  0  0
   -0.0111   -7.5354   -0.3038 H   0  0  0  0  0  0  0  0  0  0  0  0
   -1.5317   -7.3401   -1.1520 H   0  0  0  0  0  0  0  0  0  0  0  0
   -0.1109   -6.4687   -1.6890 H   0  0  0  0  0  0  0  0  0  0  0  0
   -0.1543   -4.6083    0.1480 N   0  0  0  0  0  0  0  0  0  0  0  0
   -0.3302   -3.4398    0.9696 C   0  0  2  0  0  0  0  0  0  0  0  0
    0.2328   -2.2439    0.2131 C   0  0  0  0  0  0  0  0  0  0  0  0
    1.2097   -2.3192   -0.5294 O   0  0  0  0  0  0  0  0  0  0  0  0
    0.3557   -3.6024    2.3171 C   0  0  0  0  0  0  0  0  0  0  0  0
    0.6584   -4.6506   -0.4643 H   0  0  0  0  0  0  0  0  0  0  0  0
   -1.4091   -3.3101    1.1082 H   0  0  0  0  0  0  0  0  0  0  0  0
    1.4375   -3.7336    2.1985 H   0  0  0  0  0  0  0  0  0  0  0  0
    0.1969   -2.7243    2.9517 H   0  0  0  0  0  0  0  0  0  0  0  0
   -0.0294   -4.4803    2.8470 H   0  0  0  0  0  0  0  0  0  0  0  0
   -0.4616   -1.0893    0.5050 N   0  0  0  0  0  0  0  0  0  0  0  0
   -0.0884    0.2050   -0.0621 C   0  0  2  0  0  0  0  0  0  0  0  0
    1.1632    0.6855    0.6670 C   0  0  0  0  0  0  0  0  0  0  0  0
    1.1386    1.1517    1.8044 O   0  0  0  0  0  0  0  0  0  0  0  0
   -1.2026    1.2510    0.0923 C   0  0  0  0  0  0  0  0  0  0  0  0
   -2.4431    0.9473   -0.7542 C   0  0  0  0  0  0  0  0  0  0  0  0
   -3.5103    2.0316   -0.5820 C   0  0  0  0  0  0  0  0  0  0  0  0
   -4.7567    1.7158   -1.4071 C   0  0  0  0  0  0  0  0  0  0  0  0
   -5.7685    2.7471   -1.2109 N   0  0  0  0  0  0  0  0  0  0  0  0
   -1.2794   -1.1113    1.0935 H   0  0  0  0  0  0  0  0  0  0  0  0
    0.1471    0.0653   -1.1240 H   0  0  0  0  0  0  0  0  0  0  0  0
   -0.8121    2.2367   -0.1932 H   0  0  0  0  0  0  0  0  0  0  0  0
   -1.4910    1.3368    1.1487 H   0  0  0  0  0  0  0  0  0  0  0  0
   -2.8682   -0.0213   -0.4679 H   0  0  0  0  0  0  0  0  0  0  0  0
   -2.1579    0.8790   -1.8109 H   0  0  0  0  0  0  0  0  0  0  0  0
   -3.7772    2.1148    0.4791 H   0  0  0  0  0  0  0  0  0  0  0  0
   -3.0990    3.0017   -0.8886 H   0  0  0  0  0  0  0  0  0  0  0  0
   -5.1683    0.7435   -1.1151 H   0  0  0  0  0  0  0  0  0  0  0  0
   -4.5013    1.6642   -2.4708 H   0  0  0  0  0  0  0  0  0  0  0  0
   -5.4165    3.4114   -0.5618 H   0  0  0  0  0  0  0  0  0  0  0  0
   -5.9497    3.1778   -2.0874 H   0  0  0  0  0  0  0  0  0  0  0  0
    2.3047    0.5522   -0.1113 N   0  0  0  0  0  0  0  0  0  0  0  0
    3.6194    0.9538    0.3350 C   0  0  2  0  0  0  0  0  0  0  0  0
    4.4042    1.4283   -0.8809 C   0  0  0  0  0  0  0  0  0  0  0  0
    4.2697    0.9370   -1.9997 O   0  0  0  0  0  0  0  0  0  0  0  0
    4.3392   -0.1887    1.0345 C   0  0  0  0  0  0  0  0  0  0  0  0
    2.2298    0.1461   -1.0392 H   0  0  0  0  0  0  0  0  0  0  0  0
    3.4765    1.7905    1.0274 H   0  0  0  0  0  0  0  0  0  0  0  0
    4.4914   -1.0363    0.3564 H   0  0  0  0  0  0  0  0  0  0  0  0
    5.3235    0.1253    1.3972 H   0  0  0  0  0  0  0  0  0  0  0  0
    3.7591   -0.5485    1.8912 H   0  0  0  0  0  0  0  0  0  0  0  0
    5.3036    2.4357   -0.5610 N   0  0  0  0  0  0  0  0  0  0  0  0
    6.1946    3.0233   -1.5340 C   0  0  0  0  0  0  0  0  0  0  0  0
    5.3195    2.8100    0.3831 H   0  0  0  0  0  0  0  0  0  0  0  0
    7.1556    2.4882   -1.5223 H   0  0  0  0  0  0  0  0  0  0  0  0
    5.7452    2.9478   -2.5352 H   0  0  0  0  0  0  0  0  0  0  0  0
    6.3615    4.0819   -1.2859 H   0  0  0  0  0  0  0  0  0  0  0  0
  1  3  1  0  0  0  0
  1  7  1  0  0  0  0
  1  2  2  0  0  0  0
 39 40  1  0  0  0  0
 40 48  1  0  0  0  0
 40 41  2  0  0  0  0
  8  9  1  0  0  0  0
  9 17  1  0  0  0  0
  9 10  2  0  0  0  0
 18 19  1  0  0  0  0
 19 38  1  0  0  0  0
 19 20  2  0  0  0  0
 39 42  1  0  0  0  0
  8 11  1  0  0  0  0
 48 49  1  0  0  0  0
 22 23  1  0  0  0  0
 21 22  1  0  0  0  0
 23 24  1  0  0  0  0
 18 21  1  0  0  0  0
 24 25  1  0  0  0  0
 38 39  1  0  0  0  0
  7  8  1  0  0  0  0
 17 18  1  0  0  0  0
  3  4  1  0  0  0  0
  3  5  1  0  0  0  0
  3  6  1  0  0  0  0
 42 45  1  0  0  0  0
 42 46  1  0  0  0  0
 42 47  1  0  0  0  0
 11 14  1  0  0  0  0
 11 15  1  0  0  0  0
 11 16  1  0  0  0  0
 49 51  1  0  0  0  0
 49 52  1  0  0  0  0
 49 53  1  0  0  0  0
 22 30  1  0  0  0  0
 22 31  1  0  0  0  0
 23 32  1  0  0  0  0
 23 33  1  0  0  0  0
 21 28  1  0  0  0  0
 21 29  1  0  0  0  0
 24 34  1  0  0  0  0
 24 35  1  0  0  0  0
 39 44  1  0  0  0  0
  8 13  1  0  0  0  0
 18 27  1  0  0  0  0
 25 36  1  0  0  0  0
 25 37  1  0  0  0  0
 48 50  1  0  0  0  0
  7 12  1  0  0  0  0
 38 43  1  0  0  0  0
 17 26  1  0  0  0  0
M  END
$$$$

  -OEChem-05262214473D

 53 52  0     1  0  0  0  0  0999 V2000
   -1.0338   -5.6785    0.1476 C   0  0  0  0  0  0  0  0  0  0  0  0
   -2.0514   -5.7797    0.8227 O   0  0  0  0  0  0  0  0  0  0  0  0
   -0.6558   -6.7819   -0.7841 C   0  0  0  0  0  0  0  0  0  0  0  0
   -0.0111   -7.5354   -0.3038 H   0  0  0  0  0  0  0  0  0  0  0  0
   -1.5317   -7.3401   -1.1520 H   0  0  0  0  0  0  0  0  0  0  0  0
   -0.1109   -6.4687   -1.6890 H   0  0  0  0  0  0  0  0  0  0  0  0
   -0.1543   -4.6083    0.1480 N   0  0  0  0  0  0  0  0  0  0  0  0
   -0.3302   -3.4398    0.9696 C   0  0  2  0  0  0  0  0  0  0  0  0
    0.2328   -2.2439    0.2131 C   0  0  0  0  0  0  0  0  0  0  0  0
    1.2097   -2.3192   -0.5294 O   0  0  0  0  0  0  0  0  0  0  0  0
    0.3557   -3.6024    2.3171 C   0  0  0  0  0  0  0  0  0  0  0  0
    0.6584   -4.6506   -0.4643 H   0  0  0  0  0  0  0  0  0  0  0  0
   -1.4091   -3.3101    1.1082 H   0  0  0  0  0  0  0  0  0  0  0  0
    1.4375   -3.7336    2.1985 H   0  0  0  0  0  0  0  0  0  0  0  0
    0.1969   -2.7243    2.9517 H   0  0  0  0  0  0  0  0  0  0  0  0
   -0.0294   -4.4803    2.8470 H   0  0  0  0  0  0  0  0  0  0  0  0
   -0.4616   -1.0893    0.5050 N   0  0  0  0  0  0  0  0  0  0  0  0
   -0.0884    0.2050   -0.0621 C   0  0  2  0  0  0  0  0  0  0  0  0
    1.1632    0.6855    0.6670 C   0  0  0  0  0  0  0  0  0  0  0  0
    1.1932    0.8986    1.8775 O   0  0  0  0  0  0  0  0  0  0  0  0
   -1.2026    1.2510    0.0923 C   0  0  0  0  0  0  0  0  0  0  0  0
   -2.4431    0.9473   -0.7542 C   0  0  0  0  0  0  0  0  0  0  0  0
   -3.5103    2.0316   -0.5820 C   0  0  0  0  0  0  0  0  0  0  0  0
   -4.7567    1.7158   -1.4071 C   0  0  0  0  0  0  0  0  0  0  0  0
   -5.7685    2.7471   -1.2109 N   0  0  0  0  0  0  0  0  0  0  0  0
   -1.2794   -1.1113    1.0935 H   0  0  0  0  0  0  0  0  0  0  0  0
    0.1471    0.0653   -1.1240 H   0  0  0  0  0  0  0  0  0  0  0  0
   -0.8121    2.2367   -0.1932 H   0  0  0  0  0  0  0  0  0  0  0  0
   -1.4910    1.3368    1.1487 H   0  0  0  0  0  0  0  0  0  0  0  0
   -2.8682   -0.0213   -0.4679 H   0  0  0  0  0  0  0  0  0  0  0  0
   -2.1579    0.8790   -1.8109 H   0  0  0  0  0  0  0  0  0  0  0  0
   -3.7772    2.1148    0.4791 H   0  0  0  0  0  0  0  0  0  0  0  0
   -3.0990    3.0017   -0.8886 H   0  0  0  0  0  0  0  0  0  0  0  0
   -5.1683    0.7435   -1.1151 H   0  0  0  0  0  0  0  0  0  0  0  0
   -4.5013    1.6642   -2.4708 H   0  0  0  0  0  0  0  0  0  0  0  0
   -5.4165    3.4114   -0.5618 H   0  0  0  0  0  0  0  0  0  0  0  0
   -5.9497    3.1778   -2.0874 H   0  0  0  0  0  0  0  0  0  0  0  0
    2.2335    0.8687   -0.1976 N   0  0  0  0  0  0  0  0  0  0  0  0
    3.5297    1.3397    0.2347 C   0  0  2  0  0  0  0  0  0  0  0  0
    4.1359    2.1554   -0.8996 C   0  0  0  0  0  0  0  0  0  0  0  0
    3.9532    1.8931   -2.0866 O   0  0  0  0  0  0  0  0  0  0  0  0
    4.4391    0.1827    0.6184 C   0  0  0  0  0  0  0  0  0  0  0  0
    2.1181    0.6574   -1.1843 H   0  0  0  0  0  0  0  0  0  0  0  0
    3.3579    1.9883    1.1005 H   0  0  0  0  0  0  0  0  0  0  0  0
    4.6226   -0.4782   -0.2365 H   0  0  0  0  0  0  0  0  0  0  0  0
    5.4107    0.5424    0.9727 H   0  0  0  0  0  0  0  0  0  0  0  0
    3.9879   -0.4203    1.4138 H   0  0  0  0  0  0  0  0  0  0  0  0
    4.9399    3.1848   -0.4303 N   0  0  0  0  0  0  0  0  0  0  0  0
    5.6612    4.0740   -1.3107 C   0  0  0  0  0  0  0  0  0  0  0  0
    5.0022    3.3542    0.5693 H   0  0  0  0  0  0  0  0  0  0  0  0
    6.6740    3.6801   -1.4812 H   0  0  0  0  0  0  0  0  0  0  0  0
    5.1305    4.1486   -2.2714 H   0  0  0  0  0  0  0  0  0  0  0  0
    5.7282    5.0708   -0.8504 H   0  0  0  0  0  0  0  0  0  0  0  0
  1  3  1  0  0  0  0
  1  7  1  0  0  0  0
  1  2  2  0  0  0  0
 39 40  1  0  0  0  0
 40 48  1  0  0  0  0
 40 41  2  0  0  0  0
  8  9  1  0  0  0  0
  9 17  1  0  0  0  0
  9 10  2  0  0  0  0
 18 19  1  0  0  0  0
 19 38  1  0  0  0  0
 19 20  2  0  0  0  0
 39 42  1  0  0  0  0
  8 11  1  0  0  0  0
 48 49  1  0  0  0  0
 22 23  1  0  0  0  0
 21 22  1  0  0  0  0
 23 24  1  0  0  0  0
 18 21  1  0  0  0  0
 24 25  1  0  0  0  0
 38 39  1  0  0  0  0
  7  8  1  0  0  0  0
 17 18  1  0  0  0  0
  3  4  1  0  0  0  0
  3  5  1  0  0  0  0
  3  6  1  0  0  0  0
 42 45  1  0  0  0  0
 42 46  1  0  0  0  0
 42 47  1  0  0  0  0
 11 14  1  0  0  0  0
 11 15  1  0  0  0  0
 11 16  1  0  0  0  0
 49 51  1  0  0  0  0
 49 52  1  0  0  0  0
 49 53  1  0  0  0  0
 22 30  1  0  0  0  0
 22 31  1  0  0  0  0
 23 32  1  0  0  0  0
 23 33  1  0  0  0  0
 21 28  1  0  0  0  0
 21 29  1  0  0  0  0
 24 34  1  0  0  0  0
 24 35  1  0  0  0  0
 39 44  1  0  0  0  0
  8 13  1  0  0  0  0
 18 27  1  0  0  0  0
 25 36  1  0  0  0  0
 25 37  1  0  0  0  0
 48 50  1  0  0  0  0
  7 12  1  0  0  0  0
 38 43  1  0  0  0  0
 17 26  1  0  0  0  0
M  END
$$$$

  -OEChem-05262214473D

 53 52  0     1  0  0  0  0  0999 V2000
   -1.0338   -5.6785    0.1476 C   0  0  0  0  0  0  0  0  0  0  0  0
   -2.0514   -5.7797    0.8227 O   0  0  0  0  0  0  0  0  0  0  0  0
   -0.6558   -6.7819   -0.7841 C   0  0  0  0  0  0  0  0  0  0  0  0
   -0.0111   -7.5354   -0.3038 H   0  0  0  0  0  0  0  0  0  0  0  0
   -1.5317   -7.3401   -1.1520 H   0  0  0  0  0  0  0  0  0  0  0  0
   -0.1109   -6.4687   -1.6890 H   0  0  0  0  0  0  0  0  0  0  0  0
   -0.1543   -4.6083    0.1480 N   0  0  0  0  0  0  0  0  0  0  0  0
   -0.3302   -3.4398    0.9696 C   0  0  2  0  0  0  0  0  0  0  0  0
    0.2328   -2.2439    0.2131 C   0  0  0  0  0  0  0  0  0  0  0  0
    1.2097   -2.3192   -0.5294 O   0  0  0  0  0  0  0  0  0  0  0  0
    0.3557   -3.6024    2.3171 C   0  0  0  0  0  0  0  0  0  0  0  0
    0.6584   -4.6506   -0.4643 H   0  0  0  0  0  0  0  0  0  0  0  0
   -1.4091   -3.3101    1.1082 H   0  0  0  0  0  0  0  0  0  0  0  0
    1.4375   -3.7336    2.1985 H   0  0  0  0  0  0  0  0  0  0  0  0
    0.1969   -2.7243    2.9517 H   0  0  0  0  0  0  0  0  0  0  0  0
   -0.0294   -4.4803    2.8470 H   0  0  0  0  0  0  0  0  0  0  0  0
   -0.4616   -1.0893    0.5050 N   0  0  0  0  0  0  0  0  0  0  0  0
   -0.0884    0.2050   -0.0621 C   0  0  2  0  0  0  0  0  0  0  0  0
    1.1632    0.6855    0.6670 C   0  0  0  0  0  0  0  0  0  0  0  0
    1.2832    0.6453    1.8899 O   0  0  0  0  0  0  0  0  0  0  0  0
   -1.2026    1.2510    0.0923 C   0  0  0  0  0  0  0  0  0  0  0  0
   -2.4431    0.9473   -0.7542 C   0  0  0  0  0  0  0  0  0  0  0  0
   -3.5103    2.0316   -0.5820 C   0  0  0  0  0  0  0  0  0  0  0  0
   -4.7567    1.7158   -1.4071 C   0  0  0  0  0  0  0  0  0  0  0  0
   -5.7685    2.7471   -1.2109 N   0  0  0  0  0  0  0  0  0  0  0  0
   -1.2794   -1.1113    1.0935 H   0  0  0  0  0  0  0  0  0  0  0  0
    0.1471    0.0653   -1.1240 H   0  0  0  0  0  0  0  0  0  0  0  0
   -0.8121    2.2367   -0.1932 H   0  0  0  0  0  0  0  0  0  0  0  0
   -1.4910    1.3368    1.1487 H   0  0  0  0  0  0  0  0  0  0  0  0
   -2.8682   -0.0213   -0.4679 H   0  0  0  0  0  0  0  0  0  0  0  0
   -2.1579    0.8790   -1.8109 H   0  0  0  0  0  0  0  0  0  0  0  0
   -3.7772    2.1148    0.4791 H   0  0  0  0  0  0  0  0  0  0  0  0
   -3.0990    3.0017   -0.8886 H   0  0  0  0  0  0  0  0  0  0  0  0
   -5.1683    0.7435   -1.1151 H   0  0  0  0  0  0  0  0  0  0  0  0
   -4.5013    1.6642   -2.4708 H   0  0  0  0  0  0  0  0  0  0  0  0
   -5.4165    3.4114   -0.5618 H   0  0  0  0  0  0  0  0  0  0  0  0
   -5.9497    3.1778   -2.0874 H   0  0  0  0  0  0  0  0  0  0  0  0
    2.1185    1.1840   -0.2079 N   0  0  0  0  0  0  0  0  0  0  0  0
    3.3872    1.7226    0.2270 C   0  0  2  0  0  0  0  0  0  0  0  0
    3.7854    2.8286   -0.7414 C   0  0  0  0  0  0  0  0  0  0  0  0
    3.5223    2.7960   -1.9418 O   0  0  0  0  0  0  0  0  0  0  0  0
    4.4556    0.6421    0.2872 C   0  0  0  0  0  0  0  0  0  0  0  0
    1.9351    1.1682   -1.2068 H   0  0  0  0  0  0  0  0  0  0  0  0
    3.2249    2.1493    1.2228 H   0  0  0  0  0  0  0  0  0  0  0  0
    4.6320    0.2029   -0.7015 H   0  0  0  0  0  0  0  0  0  0  0  0
    5.4088    1.0461    0.6441 H   0  0  0  0  0  0  0  0  0  0  0  0
    4.1543   -0.1669    0.9613 H   0  0  0  0  0  0  0  0  0  0  0  0
    4.5066    3.8356   -0.1155 N   0  0  0  0  0  0  0  0  0  0  0  0
    5.0342    4.9754   -0.8286 C   0  0  0  0  0  0  0  0  0  0  0  0
    4.6435    3.8010    0.8904 H   0  0  0  0  0  0  0  0  0  0  0  0
    6.0648    4.7631   -1.1492 H   0  0  0  0  0  0  0  0  0  0  0  0
    4.4098    5.1765   -1.7116 H   0  0  0  0  0  0  0  0  0  0  0  0
    5.0296    5.8552   -0.1683 H   0  0  0  0  0  0  0  0  0  0  0  0
  1  3  1  0  0  0  0
  1  7  1  0  0  0  0
  1  2  2  0  0  0  0
 39 40  1  0  0  0  0
 40 48  1  0  0  0  0
 40 41  2  0  0  0  0
  8  9  1  0  0  0  0
  9 17  1  0  0  0  0
  9 10  2  0  0  0  0
 18 19  1  0  0  0  0
 19 38  1  0  0  0  0
 19 20  2  0  0  0  0
 39 42  1  0  0  0  0
  8 11  1  0  0  0  0
 48 49  1  0  0  0  0
 22 23  1  0  0  0  0
 21 22  1  0  0  0  0
 23 24  1  0  0  0  0
 18 21  1  0  0  0  0
 24 25  1  0  0  0  0
 38 39  1  0  0  0  0
  7  8  1  0  0  0  0
 17 18  1  0  0  0  0
  3  4  1  0  0  0  0
  3  5  1  0  0  0  0
  3  6  1  0  0  0  0
 42 45  1  0  0  0  0
 42 46  1  0  0  0  0
 42 47  1  0  0  0  0
 11 14  1  0  0  0  0
 11 15  1  0  0  0  0
 11 16  1  0  0  0  0
 49 51  1  0  0  0  0
 49 52  1  0  0  0  0
 49 53  1  0  0  0  0
 22 30  1  0  0  0  0
 22 31  1  0  0  0  0
 23 32  1  0  0  0  0
 23 33  1  0  0  0  0
 21 28  1  0  0  0  0
 21 29  1  0  0  0  0
 24 34  1  0  0  0  0
 24 35  1  0  0  0  0
 39 44  1  0  0  0  0
  8 13  1  0  0  0  0
 18 27  1  0  0  0  0
 25 36  1  0  0  0  0
 25 37  1  0  0  0  0
 48 50  1  0  0  0  0
  7 12  1  0  0  0  0
 38 43  1  0  0  0  0
 17 26  1  0  0  0  0
M  END
$$$$

  -OEChem-05262214473D

 53 52  0     1  0  0  0  0  0999 V2000
   -1.0338   -5.6785    0.1476 C   0  0  0  0  0  0  0  0  0  0  0  0
   -2.0514   -5.7797    0.8227 O   0  0  0  0  0  0  0  0  0  0  0  0
   -0.6558   -6.7819   -0.7841 C   0  0  0  0  0  0  0  0  0  0  0  0
   -0.0111   -7.5354   -0.3038 H   0  0  0  0  0  0  0  0  0  0  0  0
   -1.5317   -7.3401   -1.1520 H   0  0  0  0  0  0  0  0  0  0  0  0
   -0.1109   -6.4687   -1.6890 H   0  0  0  0  0  0  0  0  0  0  0  0
   -0.1543   -4.6083    0.1480 N   0  0  0  0  0  0  0  0  0  0  0  0
   -0.3302   -3.4398    0.9696 C   0  0  2  0  0  0  0  0  0  0  0  0
    0.2328   -2.2439    0.2131 C   0  0  0  0  0  0  0  0  0  0  0  0
    1.2097   -2.3192   -0.5294 O   0  0  0  0  0  0  0  0  0  0  0  0
    0.3557   -3.6024    2.3171 C   0  0  0  0  0  0  0  0  0  0  0  0
    0.6584   -4.6506   -0.4643 H   0  0  0  0  0  0  0  0  0  0  0  0
   -1.4091   -3.3101    1.1082 H   0  0  0  0  0  0  0  0  0  0  0  0
    1.4375   -3.7336    2.1985 H   0  0  0  0  0  0  0  0  0  0  0  0
    0.1969   -2.7243    2.9517 H   0  0  0  0  0  0  0  0  0  0  0  0
   -0.0294   -4.4803    2.8470 H   0  0  0  0  0  0  0  0  0  0  0  0
   -0.4616   -1.0893    0.5050 N   0  0  0  0  0  0  0  0  0  0  0  0
   -0.0884    0.2050   -0.0621 C   0  0  2  0  0  0  0  0  0  0  0  0
    1.1632    0.6855    0.6670 C   0  0  0  0  0  0  0  0  0  0  0  0
    1.4024    0.4091    1.8408 O   0  0  0  0  0  0  0  0  0  0  0  0
   -1.2026    1.2510    0.0923 C   0  0  0  0  0  0  0  0  0  0  0  0
   -2.4431    0.9473   -0.7542 C   0  0  0  0  0  0  0  0  0  0  0  0
   -3.5103    2.0316   -0.5820 C   0  0  0  0  0  0  0  0  0  0  0  0
   -4.7567    1.7158   -1.4071 C   0  0  0  0  0  0  0  0  0  0  0  0
   -5.7685    2.7471   -1.2109 N   0  0  0  0  0  0  0  0  0  0  0  0
   -1.2794   -1.1113    1.0935 H   0  0  0  0  0  0  0  0  0  0  0  0
    0.1471    0.0653   -1.1240 H   0  0  0  0  0  0  0  0  0  0  0  0
   -0.8121    2.2367   -0.1932 H   0  0  0  0  0  0  0  0  0  0  0  0
   -1.4910    1.3368    1.1487 H   0  0  0  0  0  0  0  0  0  0  0  0
   -2.8682   -0.0213   -0.4679 H   0  0  0  0  0  0  0  0  0  0  0  0
   -2.1579    0.8790   -1.8109 H   0  0  0  0  0  0  0  0  0  0  0  0
   -3.7772    2.1148    0.4791 H   0  0  0  0  0  0  0  0  0  0  0  0
   -3.0990    3.0017   -0.8886 H   0  0  0  0  0  0  0  0  0  0  0  0
   -5.1683    0.7435   -1.1151 H   0  0  0  0  0  0  0  0  0  0  0  0
   -4.5013    1.6642   -2.4708 H   0  0  0  0  0  0  0  0  0  0  0  0
   -5.4165    3.4114   -0.5618 H   0  0  0  0  0  0  0  0  0  0  0  0
   -5.9497    3.1778   -2.0874 H   0  0  0  0  0  0  0  0  0  0  0  0
    1.9676    1.4765   -0.1417 N   0  0  0  0  0  0  0  0  0  0  0  0
    3.2015    2.0765    0.3125 C   0  0  2  0  0  0  0  0  0  0  0  0
    3.3764    3.4019   -0.4172 C   0  0  0  0  0  0  0  0  0  0  0  0
    3.0061    3.5841   -1.5751 O   0  0  0  0  0  0  0  0  0  0  0  0
    4.3879    1.1583    0.0634 C   0  0  0  0  0  0  0  0  0  0  0  0
    1.6933    1.6438   -1.1052 H   0  0  0  0  0  0  0  0  0  0  0  0
    3.0865    2.2623    1.3859 H   0  0  0  0  0  0  0  0  0  0  0  0
    4.5190    0.9606   -1.0068 H   0  0  0  0  0  0  0  0  0  0  0  0
    5.3178    1.6022    0.4338 H   0  0  0  0  0  0  0  0  0  0  0  0
    4.2467    0.1945    0.5645 H   0  0  0  0  0  0  0  0  0  0  0  0
    4.0333    4.3439    0.3620 N   0  0  0  0  0  0  0  0  0  0  0  0
    4.3564    5.6663   -0.1205 C   0  0  0  0  0  0  0  0  0  0  0  0
    4.2680    4.1201    1.3246 H   0  0  0  0  0  0  0  0  0  0  0  0
    5.3695    5.6634   -0.5490 H   0  0  0  0  0  0  0  0  0  0  0  0
    3.6321    5.9614   -0.8940 H   0  0  0  0  0  0  0  0  0  0  0  0
    4.3134    6.3816    0.7141 H   0  0  0  0  0  0  0  0  0  0  0  0
  1  3  1  0  0  0  0
  1  7  1  0  0  0  0
  1  2  2  0  0  0  0
 39 40  1  0  0  0  0
 40 48  1  0  0  0  0
 40 41  2  0  0  0  0
  8  9  1  0  0  0  0
  9 17  1  0  0  0  0
  9 10  2  0  0  0  0
 18 19  1  0  0  0  0
 19 38  1  0  0  0  0
 19 20  2  0  0  0  0
 39 42  1  0  0  0  0
  8 11  1  0  0  0  0
 48 49  1  0  0  0  0
 22 23  1  0  0  0  0
 21 22  1  0  0  0  0
 23 24  1  0  0  0  0
 18 21  1  0  0  0  0
 24 25  1  0  0  0  0
 38 39  1  0  0  0  0
  7  8  1  0  0  0  0
 17 18  1  0  0  0  0
  3  4  1  0  0  0  0
  3  5  1  0  0  0  0
  3  6  1  0  0  0  0
 42 45  1  0  0  0  0
 42 46  1  0  0  0  0
 42 47  1  0  0  0  0
 11 14  1  0  0  0  0
 11 15  1  0  0  0  0
 11 16  1  0  0  0  0
 49 51  1  0  0  0  0
 49 52  1  0  0  0  0
 49 53  1  0  0  0  0
 22 30  1  0  0  0  0
 22 31  1  0  0  0  0
 23 32  1  0  0  0  0
 23 33  1  0  0  0  0
 21 28  1  0  0  0  0
 21 29  1  0  0  0  0
 24 34  1  0  0  0  0
 24 35  1  0  0  0  0
 39 44  1  0  0  0  0
  8 13  1  0  0  0  0
 18 27  1  0  0  0  0
 25 36  1  0  0  0  0
 25 37  1  0  0  0  0
 48 50  1  0  0  0  0
  7 12  1  0  0  0  0
 38 43  1  0  0  0  0
 17 26  1  0  0  0  0
M  END
$$$$

  -OEChem-05262214473D

 53 52  0     1  0  0  0  0  0999 V2000
   -1.0338   -5.6785    0.1476 C   0  0  0  0  0  0  0  0  0  0  0  0
   -2.0514   -5.7797    0.8227 O   0  0  0  0  0  0  0  0  0  0  0  0
   -0.6558   -6.7819   -0.7841 C   0  0  0  0  0  0  0  0  0  0  0  0
   -0.0111   -7.5354   -0.3038 H   0  0  0  0  0  0  0  0  0  0  0  0
   -1.5317   -7.3401   -1.1520 H   0  0  0  0  0  0  0  0  0  0  0  0
   -0.1109   -6.4687   -1.6890 H   0  0  0  0  0  0  0  0  0  0  0  0
   -0.1543   -4.6083    0.1480 N   0  0  0  0  0  0  0  0  0  0  0  0
   -0.3302   -3.4398    0.9696 C   0  0  2  0  0  0  0  0  0  0  0  0
    0.2328   -2.2439    0.2131 C   0  0  0  0  0  0  0  0  0  0  0  0
    1.2097   -2.3192   -0.5294 O   0  0  0  0  0  0  0  0  0  0  0  0
    0.3557   -3.6024    2.3171 C   0  0  0  0  0  0  0  0  0  0  0  0
    0.6584   -4.6506   -0.4643 H   0  0  0  0  0  0  0  0  0  0  0  0
   -1.4091   -3.3101    1.1082 H   0  0  0  0  0  0  0  0  0  0  0  0
    1.4375   -3.7336    2.1985 H   0  0  0  0  0  0  0  0  0  0  0  0
    0.1969   -2.7243    2.9517 H   0  0  0  0  0  0  0  0  0  0  0  0
   -0.0294   -4.4803    2.8470 H   0  0  0  0  0  0  0  0  0  0  0  0
   -0.4616   -1.0893    0.5050 N   0  0  0  0  0  0  0  0  0  0  0  0
   -0.0884    0.2050   -0.0621 C   0  0  2  0  0  0  0  0  0  0  0  0
    1.1632    0.6855    0.6670 C   0  0  0  0  0  0  0  0  0  0  0  0
    1.5428    0.2062    1.7336 O   0  0  0  0  0  0  0  0  0  0  0  0
   -1.2026    1.2510    0.0923 C   0  0  0  0  0  0  0  0  0  0  0  0
   -2.4431    0.9473   -0.7542 C   0  0  0  0  0  0  0  0  0  0  0  0
   -3.5103    2.0316   -0.5820 C   0  0  0  0  0  0  0  0  0  0  0  0
   -4.7567    1.7158   -1.4071 C   0  0  0  0  0  0  0  0  0  0  0  0
   -5.7685    2.7471   -1.2109 N   0  0  0  0  0  0  0  0  0  0  0  0
   -1.2794   -1.1113    1.0935 H   0  0  0  0  0  0  0  0  0  0  0  0
    0.1471    0.0653   -1.1240 H   0  0  0  0  0  0  0  0  0  0  0  0
   -0.8121    2.2367   -0.1932 H   0  0  0  0  0  0  0  0  0  0  0  0
   -1.4910    1.3368    1.1487 H   0  0  0  0  0  0  0  0  0  0  0  0
   -2.8682   -0.0213   -0.4679 H   0  0  0  0  0  0  0  0  0  0  0  0
   -2.1579    0.8790   -1.8109 H   0  0  0  0  0  0  0  0  0  0  0  0
   -3.7772    2.1148    0.4791 H   0  0  0  0  0  0  0  0  0  0  0  0
   -3.0990    3.0017   -0.8886 H   0  0  0  0  0  0  0  0  0  0  0  0
   -5.1683    0.7435   -1.1151 H   0  0  0  0  0  0  0  0  0  0  0  0
   -4.5013    1.6642   -2.4708 H   0  0  0  0  0  0  0  0  0  0  0  0
   -5.4165    3.4114   -0.5618 H   0  0  0  0  0  0  0  0  0  0  0  0
   -5.9497    3.1778   -2.0874 H   0  0  0  0  0  0  0  0  0  0  0  0
    1.7911    1.7262   -0.0033 N   0  0  0  0  0  0  0  0  0  0  0  0
    2.9853    2.3773    0.4853 C   0  0  2  0  0  0  0  0  0  0  0  0
    2.9368    3.8362    0.0510 C   0  0  0  0  0  0  0  0  0  0  0  0
    2.4400    4.2036   -1.0116 O   0  0  0  0  0  0  0  0  0  0  0  0
    4.2403    1.6960   -0.0377 C   0  0  0  0  0  0  0  0  0  0  0  0
    1.4092    2.0517   -0.8864 H   0  0  0  0  0  0  0  0  0  0  0  0
    2.9521    2.3198    1.5787 H   0  0  0  0  0  0  0  0  0  0  0  0
    4.2912    1.7434   -1.1316 H   0  0  0  0  0  0  0  0  0  0  0  0
    5.1440    2.1727    0.3562 H   0  0  0  0  0  0  0  0  0  0  0  0
    4.2590    0.6393    0.2504 H   0  0  0  0  0  0  0  0  0  0  0  0
    3.5521    4.6750    0.9698 N   0  0  0  0  0  0  0  0  0  0  0  0
    3.6740    6.0995    0.7654 C   0  0  0  0  0  0  0  0  0  0  0  0
    3.9012    4.2898    1.8424 H   0  0  0  0  0  0  0  0  0  0  0  0
    4.6355    6.3197    0.2785 H   0  0  0  0  0  0  0  0  0  0  0  0
    2.8505    6.4498    0.1257 H   0  0  0  0  0  0  0  0  0  0  0  0
    3.6285    6.6143    1.7364 H   0  0  0  0  0  0  0  0  0  0  0  0
  1  3  1  0  0  0  0
  1  7  1  0  0  0  0
  1  2  2  0  0  0  0
 39 40  1  0  0  0  0
 40 48  1  0  0  0  0
 40 41  2  0  0  0  0
  8  9  1  0  0  0  0
  9 17  1  0  0  0  0
  9 10  2  0  0  0  0
 18 19  1  0  0  0  0
 19 38  1  0  0  0  0
 19 20  2  0  0  0  0
 39 42  1  0  0  0  0
  8 11  1  0  0  0  0
 48 49  1  0  0  0  0
 22 23  1  0  0  0  0
 21 22  1  0  0  0  0
 23 24  1  0  0  0  0
 18 21  1  0  0  0  0
 24 25  1  0  0  0  0
 38 39  1  0  0  0  0
  7  8  1  0  0  0  0
 17 18  1  0  0  0  0
  3  4  1  0  0  0  0
  3  5  1  0  0  0  0
  3  6  1  0  0  0  0
 42 45  1  0  0  0  0
 42 46  1  0  0  0  0
 42 47  1  0  0  0  0
 11 14  1  0  0  0  0
 11 15  1  0  0  0  0
 11 16  1  0  0  0  0
 49 51  1  0  0  0  0
 49 52  1  0  0  0  0
 49 53  1  0  0  0  0
 22 30  1  0  0  0  0
 22 31  1  0  0  0  0
 23 32  1  0  0  0  0
 23 33  1  0  0  0  0
 21 28  1  0  0  0  0
 21 29  1  0  0  0  0
 24 34  1  0  0  0  0
 24 35  1  0  0  0  0
 39 44  1  0  0  0  0
  8 13  1  0  0  0  0
 18 27  1  0  0  0  0
 25 36  1  0  0  0  0
 25 37  1  0  0  0  0
 48 50  1  0  0  0  0
  7 12  1  0  0  0  0
 38 43  1  0  0  0  0
 17 26  1  0  0  0  0
M  END
$$$$

  -OEChem-05262214473D

 53 52  0     1  0  0  0  0  0999 V2000
   -1.0338   -5.6785    0.1476 C   0  0  0  0  0  0  0  0  0  0  0  0
   -2.0514   -5.7797    0.8227 O   0  0  0  0  0  0  0  0  0  0  0  0
   -0.6558   -6.7819   -0.7841 C   0  0  0  0  0  0  0  0  0  0  0  0
   -0.0111   -7.5354   -0.3038 H   0  0  0  0  0  0  0  0  0  0  0  0
   -1.5317   -7.3401   -1.1520 H   0  0  0  0  0  0  0  0  0  0  0  0
   -0.1109   -6.4687   -1.6890 H   0  0  0  0  0  0  0  0  0  0  0  0
   -0.1543   -4.6083    0.1480 N   0  0  0  0  0  0  0  0  0  0  0  0
   -0.3302   -3.4398    0.9696 C   0  0  2  0  0  0  0  0  0  0  0  0
    0.2328   -2.2439    0.2131 C   0  0  0  0  0  0  0  0  0  0  0  0
    1.2097   -2.3192   -0.5294 O   0  0  0  0  0  0  0  0  0  0  0  0
    0.3557   -3.6024    2.3171 C   0  0  0  0  0  0  0  0  0  0  0  0
    0.6584   -4.6506   -0.4643 H   0  0  0  0  0  0  0  0  0  0  0  0
   -1.4091   -3.3101    1.1082 H   0  0  0  0  0  0  0  0  0  0  0  0
    1.4375   -3.7336    2.1985 H   0  0  0  0  0  0  0  0  0  0  0  0
    0.1969   -2.7243    2.9517 H   0  0  0  0  0  0  0  0  0  0  0  0
   -0.0294   -4.4803    2.8470 H   0  0  0  0  0  0  0  0  0  0  0  0
   -0.4616   -1.0893    0.5050 N   0  0  0  0  0  0  0  0  0  0  0  0
   -0.0884    0.2050   -0.0621 C   0  0  2  0  0  0  0  0  0  0  0  0
    1.3399    0.5092    0.3810 C   0  0  0  0  0  0  0  0  0  0  0  0
    1.9911   -0.2413    1.1049 O   0  0  0  0  0  0  0  0  0  0  0  0
   -1.0192    1.3346    0.4038 C   0  0  0  0  0  0  0  0  0  0  0  0
   -2.4442    1.2140   -0.1462 C   0  0  0  0  0  0  0  0  0  0  0  0
   -3.3212    2.3759    0.3282 C   0  0  0  0  0  0  0  0  0  0  0  0
   -4.7484    2.2422   -0.2003 C   0  0  0  0  0  0  0  0  0  0  0  0
   -5.5722    3.3444    0.2817 N   0  0  0  0  0  0  0  0  0  0  0  0
   -1.2794   -1.1113    1.0935 H   0  0  0  0  0  0  0  0  0  0  0  0
   -0.1153    0.1271   -1.1556 H   0  0  0  0  0  0  0  0  0  0  0  0
   -0.5990    2.2990    0.0894 H   0  0  0  0  0  0  0  0  0  0  0  0
   -1.0505    1.3643    1.5014 H   0  0  0  0  0  0  0  0  0  0  0  0
   -2.8958    0.2697    0.1780 H   0  0  0  0  0  0  0  0  0  0  0  0
   -2.4141    1.2020   -1.2423 H   0  0  0  0  0  0  0  0  0  0  0  0
   -3.3310    2.4007    1.4253 H   0  0  0  0  0  0  0  0  0  0  0  0
   -2.8873    3.3246   -0.0124 H   0  0  0  0  0  0  0  0  0  0  0  0
   -5.1861    1.2924    0.1261 H   0  0  0  0  0  0  0  0  0  0  0  0
   -4.7470    2.2500   -1.2954 H   0  0  0  0  0  0  0  0  0  0  0  0
   -5.0130    3.9207    0.8663 H   0  0  0  0  0  0  0  0  0  0  0  0
   -5.8990    3.8569   -0.5039 H   0  0  0  0  0  0  0  0  0  0  0  0
    1.7909    1.7269   -0.1096 N   0  0  0  0  0  0  0  0  0  0  0  0
    3.1021    2.2613    0.1802 C   0  0  2  0  0  0  0  0  0  0  0  0
    2.9923    3.7798    0.2219 C   0  0  0  0  0  0  0  0  0  0  0  0
    2.2254    4.4169   -0.4971 O   0  0  0  0  0  0  0  0  0  0  0  0
    4.1218    1.8184   -0.8574 C   0  0  0  0  0  0  0  0  0  0  0  0
    1.1841    2.2770   -0.7102 H   0  0  0  0  0  0  0  0  0  0  0  0
    3.3842    1.8876    1.1705 H   0  0  0  0  0  0  0  0  0  0  0  0
    3.8560    2.1835   -1.8562 H   0  0  0  0  0  0  0  0  0  0  0  0
    5.1203    2.2006   -0.6208 H   0  0  0  0  0  0  0  0  0  0  0  0
    4.1779    0.7256   -0.9071 H   0  0  0  0  0  0  0  0  0  0  0  0
    3.8823    4.3427    1.1259 N   0  0  0  0  0  0  0  0  0  0  0  0
    4.0005    5.7693    1.3181 C   0  0  0  0  0  0  0  0  0  0  0  0
    4.4522    3.7371    1.7091 H   0  0  0  0  0  0  0  0  0  0  0  0
    4.7885    6.1644    0.6601 H   0  0  0  0  0  0  0  0  0  0  0  0
    3.0430    6.2526    1.0743 H   0  0  0  0  0  0  0  0  0  0  0  0
    4.2599    5.9776    2.3666 H   0  0  0  0  0  0  0  0  0  0  0  0
  1  3  1  0  0  0  0
  1  7  1  0  0  0  0
  1  2  2  0  0  0  0
 39 40  1  0  0  0  0
 40 48  1  0  0  0  0
 40 41  2  0  0  0  0
  8  9  1  0  0  0  0
  9 17  1  0  0  0  0
  9 10  2  0  0  0  0
 18 19  1  0  0  0  0
 19 38  1  0  0  0  0
 19 20  2  0  0  0  0
 39 42  1  0  0  0  0
  8 11  1  0  0  0  0
 48 49  1  0  0  0  0
 22 23  1  0  0  0  0
 21 22  1  0  0  0  0
 23 24  1  0  0  0  0
 18 21  1  0  0  0  0
 24 25  1  0  0  0  0
 38 39  1  0  0  0  0
  7  8  1  0  0  0  0
 17 18  1  0  0  0  0
  3  4  1  0  0  0  0
  3  5  1  0  0  0  0
  3  6  1  0  0  0  0
 42 45  1  0  0  0  0
 42 46  1  0  0  0  0
 42 47  1  0  0  0  0
 11 14  1  0  0  0  0
 11 15  1  0  0  0  0
 11 16  1  0  0  0  0
 49 51  1  0  0  0  0
 49 52  1  0  0  0  0
 49 53  1  0  0  0  0
 22 30  1  0  0  0  0
 22 31  1  0  0  0  0
 23 32  1  0  0  0  0
 23 33  1  0  0  0  0
 21 28  1  0  0  0  0
 21 29  1  0  0  0  0
 24 34  1  0  0  0  0
 24 35  1  0  0  0  0
 39 44  1  0  0  0  0
  8 13  1  0  0  0  0
 18 27  1  0  0  0  0
 25 36  1  0  0  0  0
 25 37  1  0  0  0  0
 48 50  1  0  0  0  0
  7 12  1  0  0  0  0
 38 43  1  0  0  0  0
 17 26  1  0  0  0  0
M  END
$$$$

  -OEChem-05262214473D

 53 52  0     1  0  0  0  0  0999 V2000
   -1.0338   -5.6785    0.1476 C   0  0  0  0  0  0  0  0  0  0  0  0
   -2.0514   -5.7797    0.8227 O   0  0  0  0  0  0  0  0  0  0  0  0
   -0.6558   -6.7819   -0.7841 C   0  0  0  0  0  0  0  0  0  0  0  0
   -0.0111   -7.5354   -0.3038 H   0  0  0  0  0  0  0  0  0  0  0  0
   -1.5317   -7.3401   -1.1520 H   0  0  0  0  0  0  0  0  0  0  0  0
   -0.1109   -6.4687   -1.6890 H   0  0  0  0  0  0  0  0  0  0  0  0
   -0.1543   -4.6083    0.1480 N   0  0  0  0  0  0  0  0  0  0  0  0
   -0.3302   -3.4398    0.9696 C   0  0  2  0  0  0  0  0  0  0  0  0
    0.2328   -2.2439    0.2131 C   0  0  0  0  0  0  0  0  0  0  0  0
    1.2097   -2.3192   -0.5294 O   0  0  0  0  0  0  0  0  0  0  0  0
    0.3557   -3.6024    2.3171 C   0  0  0  0  0  0  0  0  0  0  0  0
    0.6584   -4.6506   -0.4643 H   0  0  0  0  0  0  0  0  0  0  0  0
   -1.4091   -3.3101    1.1082 H   0  0  0  0  0  0  0  0  0  0  0  0
    1.4375   -3.7336    2.1985 H   0  0  0  0  0  0  0  0  0  0  0  0
    0.1969   -2.7243    2.9517 H   0  0  0  0  0  0  0  0  0  0  0  0
   -0.0294   -4.4803    2.8470 H   0  0  0  0  0  0  0  0  0  0  0  0
   -0.4616   -1.0893    0.5050 N   0  0  0  0  0  0  0  0  0  0  0  0
   -0.0884    0.2050   -0.0621 C   0  0  2  0  0  0  0  0  0  0  0  0
    1.3399    0.5092    0.3810 C   0  0  0  0  0  0  0  0  0  0  0  0
    2.0840   -0.3376    0.8715 O   0  0  0  0  0  0  0  0  0  0  0  0
   -1.0192    1.3346    0.4038 C   0  0  0  0  0  0  0  0  0  0  0  0
   -2.4442    1.2140   -0.1462 C   0  0  0  0  0  0  0  0  0  0  0  0
   -3.3212    2.3759    0.3282 C   0  0  0  0  0  0  0  0  0  0  0  0
   -4.7484    2.2422   -0.2003 C   0  0  0  0  0  0  0  0  0  0  0  0
   -5.5722    3.3444    0.2817 N   0  0  0  0  0  0  0  0  0  0  0  0
   -1.2794   -1.1113    1.0935 H   0  0  0  0  0  0  0  0  0  0  0  0
   -0.1153    0.1271   -1.1556 H   0  0  0  0  0  0  0  0  0  0  0  0
   -0.5990    2.2990    0.0894 H   0  0  0  0  0  0  0  0  0  0  0  0
   -1.0505    1.3643    1.5014 H   0  0  0  0  0  0  0  0  0  0  0  0
   -2.8958    0.2697    0.1780 H   0  0  0  0  0  0  0  0  0  0  0  0
   -2.4141    1.2020   -1.2423 H   0  0  0  0  0  0  0  0  0  0  0  0
   -3.3310    2.4007    1.4253 H   0  0  0  0  0  0  0  0  0  0  0  0
   -2.8873    3.3246   -0.0124 H   0  0  0  0  0  0  0  0  0  0  0  0
   -5.1861    1.2924    0.1261 H   0  0  0  0  0  0  0  0  0  0  0  0
   -4.7470    2.2500   -1.2954 H   0  0  0  0  0  0  0  0  0  0  0  0
   -5.0130    3.9207    0.8663 H   0  0  0  0  0  0  0  0  0  0  0  0
   -5.8990    3.8569   -0.5039 H   0  0  0  0  0  0  0  0  0  0  0  0
    1.6754    1.8417    0.1840 N   0  0  0  0  0  0  0  0  0  0  0  0
    2.9619    2.3959    0.5397 C   0  0  2  0  0  0  0  0  0  0  0  0
    2.7507    3.8457    0.9556 C   0  0  0  0  0  0  0  0  0  0  0  0
    1.8994    4.5722    0.4471 O   0  0  0  0  0  0  0  0  0  0  0  0
    3.9446    2.2999   -0.6168 C   0  0  0  0  0  0  0  0  0  0  0  0
    0.9968    2.4686   -0.2379 H   0  0  0  0  0  0  0  0  0  0  0  0
    3.3287    1.8194    1.3960 H   0  0  0  0  0  0  0  0  0  0  0  0
    3.5940    2.8713   -1.4840 H   0  0  0  0  0  0  0  0  0  0  0  0
    4.9270    2.6941   -0.3365 H   0  0  0  0  0  0  0  0  0  0  0  0
    4.0726    1.2593   -0.9342 H   0  0  0  0  0  0  0  0  0  0  0  0
    3.6532    4.2455    1.9312 N   0  0  0  0  0  0  0  0  0  0  0  0
    3.6845    5.5889    2.4608 C   0  0  0  0  0  0  0  0  0  0  0  0
    4.2978    3.5660    2.3242 H   0  0  0  0  0  0  0  0  0  0  0  0
    4.4019    6.1934    1.8865 H   0  0  0  0  0  0  0  0  0  0  0  0
    2.6829    6.0369    2.3832 H   0  0  0  0  0  0  0  0  0  0  0  0
    3.9923    5.5596    3.5165 H   0  0  0  0  0  0  0  0  0  0  0  0
  1  3  1  0  0  0  0
  1  7  1  0  0  0  0
  1  2  2  0  0  0  0
 39 40  1  0  0  0  0
 40 48  1  0  0  0  0
 40 41  2  0  0  0  0
  8  9  1  0  0  0  0
  9 17  1  0  0  0  0
  9 10  2  0  0  0  0
 18 19  1  0  0  0  0
 19 38  1  0  0  0  0
 19 20  2  0  0  0  0
 39 42  1  0  0  0  0
  8 11  1  0  0  0  0
 48 49  1  0  0  0  0
 22 23  1  0  0  0  0
 21 22  1  0  0  0  0
 23 24  1  0  0  0  0
 18 21  1  0  0  0  0
 24 25  1  0  0  0  0
 38 39  1  0  0  0  0
  7  8  1  0  0  0  0
 17 18  1  0  0  0  0
  3  4  1  0  0  0  0
  3  5  1  0  0  0  0
  3  6  1  0  0  0  0
 42 45  1  0  0  0  0
 42 46  1  0  0  0  0
 42 47  1  0  0  0  0
 11 14  1  0  0  0  0
 11 15  1  0  0  0  0
 11 16  1  0  0  0  0
 49 51  1  0  0  0  0
 49 52  1  0  0  0  0
 49 53  1  0  0  0  0
 22 30  1  0  0  0  0
 22 31  1  0  0  0  0
 23 32  1  0  0  0  0
 23 33  1  0  0  0  0
 21 28  1  0  0  0  0
 21 29  1  0  0  0  0
 24 34  1  0  0  0  0
 24 35  1  0  0  0  0
 39 44  1  0  0  0  0
  8 13  1  0  0  0  0
 18 27  1  0  0  0  0
 25 36  1  0  0  0  0
 25 37  1  0  0  0  0
 48 50  1  0  0  0  0
  7 12  1  0  0  0  0
 38 43  1  0  0  0  0
 17 26  1  0  0  0  0
M  END
$$$$

  -OEChem-05262214473D

 53 52  0     1  0  0  0  0  0999 V2000
   -1.0338   -5.6785    0.1476 C   0  0  0  0  0  0  0  0  0  0  0  0
   -2.0514   -5.7797    0.8227 O   0  0  0  0  0  0  0  0  0  0  0  0
   -0.6558   -6.7819   -0.7841 C   0  0  0  0  0  0  0  0  0  0  0  0
   -0.0111   -7.5354   -0.3038 H   0  0  0  0  0  0  0  0  0  0  0  0
   -1.5317   -7.3401   -1.1520 H   0  0  0  0  0  0  0  0  0  0  0  0
   -0.1109   -6.4687   -1.6890 H   0  0  0  0  0  0  0  0  0  0  0  0
   -0.1543   -4.6083    0.1480 N   0  0  0  0  0  0  0  0  0  0  0  0
   -0.3302   -3.4398    0.9696 C   0  0  2  0  0  0  0  0  0  0  0  0
    0.2328   -2.2439    0.2131 C   0  0  0  0  0  0  0  0  0  0  0  0
    1.2097   -2.3192   -0.5294 O   0  0  0  0  0  0  0  0  0  0  0  0
    0.3557   -3.6024    2.3171 C   0  0  0  0  0  0  0  0  0  0  0  0
    0.6584   -4.6506   -0.4643 H   0  0  0  0  0  0  0  0  0  0  0  0
   -1.4091   -3.3101    1.1082 H   0  0  0  0  0  0  0  0  0  0  0  0
    1.4375   -3.7336    2.1985 H   0  0  0  0  0  0  0  0  0  0  0  0
    0.1969   -2.7243    2.9517 H   0  0  0  0  0  0  0  0  0  0  0  0
   -0.0294   -4.4803    2.8470 H   0  0  0  0  0  0  0  0  0  0  0  0
   -0.4616   -1.0893    0.5050 N   0  0  0  0  0  0  0  0  0  0  0  0
   -0.0884    0.2050   -0.0621 C   0  0  2  0  0  0  0  0  0  0  0  0
    1.3399    0.5092    0.3810 C   0  0  0  0  0  0  0  0  0  0  0  0
    2.1690   -0.3671    0.6178 O   0  0  0  0  0  0  0  0  0  0  0  0
   -1.0192    1.3346    0.4038 C   0  0  0  0  0  0  0  0  0  0  0  0
   -2.4442    1.2140   -0.1462 C   0  0  0  0  0  0  0  0  0  0  0  0
   -3.3212    2.3759    0.3282 C   0  0  0  0  0  0  0  0  0  0  0  0
   -4.7484    2.2422   -0.2003 C   0  0  0  0  0  0  0  0  0  0  0  0
   -5.5722    3.3444    0.2817 N   0  0  0  0  0  0  0  0  0  0  0  0
   -1.2794   -1.1113    1.0935 H   0  0  0  0  0  0  0  0  0  0  0  0
   -0.1153    0.1271   -1.1556 H   0  0  0  0  0  0  0  0  0  0  0  0
   -0.5990    2.2990    0.0894 H   0  0  0  0  0  0  0  0  0  0  0  0
   -1.0505    1.3643    1.5014 H   0  0  0  0  0  0  0  0  0  0  0  0
   -2.8958    0.2697    0.1780 H   0  0  0  0  0  0  0  0  0  0  0  0
   -2.4141    1.2020   -1.2423 H   0  0  0  0  0  0  0  0  0  0  0  0
   -3.3310    2.4007    1.4253 H   0  0  0  0  0  0  0  0  0  0  0  0
   -2.8873    3.3246   -0.0124 H   0  0  0  0  0  0  0  0  0  0  0  0
   -5.1861    1.2924    0.1261 H   0  0  0  0  0  0  0  0  0  0  0  0
   -4.7470    2.2500   -1.2954 H   0  0  0  0  0  0  0  0  0  0  0  0
   -5.0130    3.9207    0.8663 H   0  0  0  0  0  0  0  0  0  0  0  0
   -5.8990    3.8569   -0.5039 H   0  0  0  0  0  0  0  0  0  0  0  0
    1.5703    1.8728    0.5014 N   0  0  0  0  0  0  0  0  0  0  0  0
    2.8349    2.4282    0.9269 C   0  0  2  0  0  0  0  0  0  0  0  0
    2.5502    3.7134    1.6928 C   0  0  0  0  0  0  0  0  0  0  0  0
    1.6216    4.4690    1.4136 O   0  0  0  0  0  0  0  0  0  0  0  0
    3.7497    2.6933   -0.2587 C   0  0  0  0  0  0  0  0  0  0  0  0
    0.8258    2.5252    0.2744 H   0  0  0  0  0  0  0  0  0  0  0  0
    3.2920    1.6948    1.6001 H   0  0  0  0  0  0  0  0  0  0  0  0
    3.3085    3.4258   -0.9444 H   0  0  0  0  0  0  0  0  0  0  0  0
    4.7179    3.0873    0.0676 H   0  0  0  0  0  0  0  0  0  0  0  0
    3.9294    1.7735   -0.8256 H   0  0  0  0  0  0  0  0  0  0  0  0
    3.4807    3.9393    2.6973 N   0  0  0  0  0  0  0  0  0  0  0  0
    3.4517    5.1140    3.5372 C   0  0  0  0  0  0  0  0  0  0  0  0
    4.1933    3.2402    2.8849 H   0  0  0  0  0  0  0  0  0  0  0  0
    4.0896    5.8952    3.0980 H   0  0  0  0  0  0  0  0  0  0  0  0
    2.4188    5.4844    3.6138 H   0  0  0  0  0  0  0  0  0  0  0  0
    3.8244    4.8572    4.5397 H   0  0  0  0  0  0  0  0  0  0  0  0
  1  3  1  0  0  0  0
  1  7  1  0  0  0  0
  1  2  2  0  0  0  0
 39 40  1  0  0  0  0
 40 48  1  0  0  0  0
 40 41  2  0  0  0  0
  8  9  1  0  0  0  0
  9 17  1  0  0  0  0
  9 10  2  0  0  0  0
 18 19  1  0  0  0  0
 19 38  1  0  0  0  0
 19 20  2  0  0  0  0
 39 42  1  0  0  0  0
  8 11  1  0  0  0  0
 48 49  1  0  0  0  0
 22 23  1  0  0  0  0
 21 22  1  0  0  0  0
 23 24  1  0  0  0  0
 18 21  1  0  0  0  0
 24 25  1  0  0  0  0
 38 39  1  0  0  0  0
  7  8  1  0  0  0  0
 17 18  1  0  0  0  0
  3  4  1  0  0  0  0
  3  5  1  0  0  0  0
  3  6  1  0  0  0  0
 42 45  1  0  0  0  0
 42 46  1  0  0  0  0
 42 47  1  0  0  0  0
 11 14  1  0  0  0  0
 11 15  1  0  0  0  0
 11 16  1  0  0  0  0
 49 51  1  0  0  0  0
 49 52  1  0  0  0  0
 49 53  1  0  0  0  0
 22 30  1  0  0  0  0
 22 31  1  0  0  0  0
 23 32  1  0  0  0  0
 23 33  1  0  0  0  0
 21 28  1  0  0  0  0
 21 29  1  0  0  0  0
 24 34  1  0  0  0  0
 24 35  1  0  0  0  0
 39 44  1  0  0  0  0
  8 13  1  0  0  0  0
 18 27  1  0  0  0  0
 25 36  1  0  0  0  0
 25 37  1  0  0  0  0
 48 50  1  0  0  0  0
  7 12  1  0  0  0  0
 38 43  1  0  0  0  0
 17 26  1  0  0  0  0
M  END
$$$$

  -OEChem-05262214473D

 53 52  0     1  0  0  0  0  0999 V2000
   -1.0338   -5.6785    0.1476 C   0  0  0  0  0  0  0  0  0  0  0  0
   -2.0514   -5.7797    0.8227 O   0  0  0  0  0  0  0  0  0  0  0  0
   -0.6558   -6.7819   -0.7841 C   0  0  0  0  0  0  0  0  0  0  0  0
   -0.0111   -7.5354   -0.3038 H   0  0  0  0  0  0  0  0  0  0  0  0
   -1.5317   -7.3401   -1.1520 H   0  0  0  0  0  0  0  0  0  0  0  0
   -0.1109   -6.4687   -1.6890 H   0  0  0  0  0  0  0  0  0  0  0  0
   -0.1543   -4.6083    0.1480 N   0  0  0  0  0  0  0  0  0  0  0  0
   -0.3302   -3.4398    0.9696 C   0  0  2  0  0  0  0  0  0  0  0  0
    0.2328   -2.2439    0.2131 C   0  0  0  0  0  0  0  0  0  0  0  0
    1.2097   -2.3192   -0.5294 O   0  0  0  0  0  0  0  0  0  0  0  0
    0.3557   -3.6024    2.3171 C   0  0  0  0  0  0  0  0  0  0  0  0
    0.6584   -4.6506   -0.4643 H   0  0  0  0  0  0  0  0  0  0  0  0
   -1.4091   -3.3101    1.1082 H   0  0  0  0  0  0  0  0  0  0  0  0
    1.4375   -3.7336    2.1985 H   0  0  0  0  0  0  0  0  0  0  0  0
    0.1969   -2.7243    2.9517 H   0  0  0  0  0  0  0  0  0  0  0  0
   -0.0294   -4.4803    2.8470 H   0  0  0  0  0  0  0  0  0  0  0  0
   -0.4616   -1.0893    0.5050 N   0  0  0  0  0  0  0  0  0  0  0  0
   -0.0884    0.2050   -0.0621 C   0  0  2  0  0  0  0  0  0  0  0  0
    1.3399    0.5092    0.3810 C   0  0  0  0  0  0  0  0  0  0  0  0
    2.2402   -0.3278    0.3613 O   0  0  0  0  0  0  0  0  0  0  0  0
   -1.0192    1.3346    0.4038 C   0  0  0  0  0  0  0  0  0  0  0  0
   -2.4442    1.2140   -0.1462 C   0  0  0  0  0  0  0  0  0  0  0  0
   -3.3212    2.3759    0.3282 C   0  0  0  0  0  0  0  0  0  0  0  0
   -4.7484    2.2422   -0.2003 C   0  0  0  0  0  0  0  0  0  0  0  0
   -5.5722    3.3444    0.2817 N   0  0  0  0  0  0  0  0  0  0  0  0
   -1.2794   -1.1113    1.0935 H   0  0  0  0  0  0  0  0  0  0  0  0
   -0.1153    0.1271   -1.1556 H   0  0  0  0  0  0  0  0  0  0  0  0
   -0.5990    2.2990    0.0894 H   0  0  0  0  0  0  0  0  0  0  0  0
   -1.0505    1.3643    1.5014 H   0  0  0  0  0  0  0  0  0  0  0  0
   -2.8958    0.2697    0.1780 H   0  0  0  0  0  0  0  0  0  0  0  0
   -2.4141    1.2020   -1.2423 H   0  0  0  0  0  0  0  0  0  0  0  0
   -3.3310    2.4007    1.4253 H   0  0  0  0  0  0  0  0  0  0  0  0
   -2.8873    3.3246   -0.0124 H   0  0  0  0  0  0  0  0  0  0  0  0
   -5.1861    1.2924    0.1261 H   0  0  0  0  0  0  0  0  0  0  0  0
   -4.7470    2.2500   -1.2954 H   0  0  0  0  0  0  0  0  0  0  0  0
   -5.0130    3.9207    0.8663 H   0  0  0  0  0  0  0  0  0  0  0  0
   -5.8990    3.8569   -0.5039 H   0  0  0  0  0  0  0  0  0  0  0  0
    1.4829    1.8180    0.8208 N   0  0  0  0  0  0  0  0  0  0  0  0
    2.7298    2.3561    1.3152 C   0  0  2  0  0  0  0  0  0  0  0  0
    2.4044    3.3920    2.3831 C   0  0  0  0  0  0  0  0  0  0  0  0
    1.4108    4.1143    2.3364 O   0  0  0  0  0  0  0  0  0  0  0  0
    3.5504    2.9719    0.1926 C   0  0  0  0  0  0  0  0  0  0  0  0
    0.6828    2.4430    0.7919 H   0  0  0  0  0  0  0  0  0  0  0  0
    3.2763    1.5222    1.7689 H   0  0  0  0  0  0  0  0  0  0  0  0
    3.0189    3.8093   -0.2741 H   0  0  0  0  0  0  0  0  0  0  0  0
    4.5072    3.3536    0.5639 H   0  0  0  0  0  0  0  0  0  0  0  0
    3.7581    2.2331   -0.5889 H   0  0  0  0  0  0  0  0  0  0  0  0
    3.3767    3.4451    3.3721 N   0  0  0  0  0  0  0  0  0  0  0  0
    3.3180    4.3772    4.4738 C   0  0  0  0  0  0  0  0  0  0  0  0
    4.1457    2.7818    3.3529 H   0  0  0  0  0  0  0  0  0  0  0  0
    3.8728    5.2903    4.2121 H   0  0  0  0  0  0  0  0  0  0  0  0
    2.2687    4.6328    4.6822 H   0  0  0  0  0  0  0  0  0  0  0  0
    3.7679    3.9182    5.3666 H   0  0  0  0  0  0  0  0  0  0  0  0
  1  3  1  0  0  0  0
  1  7  1  0  0  0  0
  1  2  2  0  0  0  0
 39 40  1  0  0  0  0
 40 48  1  0  0  0  0
 40 41  2  0  0  0  0
  8  9  1  0  0  0  0
  9 17  1  0  0  0  0
  9 10  2  0  0  0  0
 18 19  1  0  0  0  0
 19 38  1  0  0  0  0
 19 20  2  0  0  0  0
 39 42  1  0  0  0  0
  8 11  1  0  0  0  0
 48 49  1  0  0  0  0
 22 23  1  0  0  0  0
 21 22  1  0  0  0  0
 23 24  1  0  0  0  0
 18 21  1  0  0  0  0
 24 25  1  0  0  0  0
 38 39  1  0  0  0  0
  7  8  1  0  0  0  0
 17 18  1  0  0  0  0
  3  4  1  0  0  0  0
  3  5  1  0  0  0  0
  3  6  1  0  0  0  0
 42 45  1  0  0  0  0
 42 46  1  0  0  0  0
 42 47  1  0  0  0  0
 11 14  1  0  0  0  0
 11 15  1  0  0  0  0
 11 16  1  0  0  0  0
 49 51  1  0  0  0  0
 49 52  1  0  0  0  0
 49 53  1  0  0  0  0
 22 30  1  0  0  0  0
 22 31  1  0  0  0  0
 23 32  1  0  0  0  0
 23 33  1  0  0  0  0
 21 28  1  0  0  0  0
 21 29  1  0  0  0  0
 24 34  1  0  0  0  0
 24 35  1  0  0  0  0
 39 44  1  0  0  0  0
  8 13  1  0  0  0  0
 18 27  1  0  0  0  0
 25 36  1  0  0  0  0
 25 37  1  0  0  0  0
 48 50  1  0  0  0  0
  7 12  1  0  0  0  0
 38 43  1  0  0  0  0
 17 26  1  0  0  0  0
M  END
$$$$

  -OEChem-05262214473D

 53 52  0     1  0  0  0  0  0999 V2000
   -1.0338   -5.6785    0.1476 C   0  0  0  0  0  0  0  0  0  0  0  0
   -2.0514   -5.7797    0.8227 O   0  0  0  0  0  0  0  0  0  0  0  0
   -0.6558   -6.7819   -0.7841 C   0  0  0  0  0  0  0  0  0  0  0  0
   -0.0111   -7.5354   -0.3038 H   0  0  0  0  0  0  0  0  0  0  0  0
   -1.5317   -7.3401   -1.1520 H   0  0  0  0  0  0  0  0  0  0  0  0
   -0.1109   -6.4687   -1.6890 H   0  0  0  0  0  0  0  0  0  0  0  0
   -0.1543   -4.6083    0.1480 N   0  0  0  0  0  0  0  0  0  0  0  0
   -0.3302   -3.4398    0.9696 C   0  0  2  0  0  0  0  0  0  0  0  0
    0.2328   -2.2439    0.2131 C   0  0  0  0  0  0  0  0  0  0  0  0
    1.2097   -2.3192   -0.5294 O   0  0  0  0  0  0  0  0  0  0  0  0
    0.3557   -3.6024    2.3171 C   0  0  0  0  0  0  0  0  0  0  0  0
    0.6584   -4.6506   -0.4643 H   0  0  0  0  0  0  0  0  0  0  0  0
   -1.4091   -3.3101    1.1082 H   0  0  0  0  0  0  0  0  0  0  0  0
    1.4375   -3.7336    2.1985 H   0  0  0  0  0  0  0  0  0  0  0  0
    0.1969   -2.7243    2.9517 H   0  0  0  0  0  0  0  0  0  0  0  0
   -0.0294   -4.4803    2.8470 H   0  0  0  0  0  0  0  0  0  0  0  0
   -0.4616   -1.0893    0.5050 N   0  0  0  0  0  0  0  0  0  0  0  0
   -0.0884    0.2050   -0.0621 C   0  0  2  0  0  0  0  0  0  0  0  0
    1.3399    0.5092    0.3810 C   0  0  0  0  0  0  0  0  0  0  0  0
    2.2928   -0.2223    0.1194 O   0  0  0  0  0  0  0  0  0  0  0  0
   -1.0192    1.3346    0.4038 C   0  0  0  0  0  0  0  0  0  0  0  0
   -2.4442    1.2140   -0.1462 C   0  0  0  0  0  0  0  0  0  0  0  0
   -3.3212    2.3759    0.3282 C   0  0  0  0  0  0  0  0  0  0  0  0
   -4.7484    2.2422   -0.2003 C   0  0  0  0  0  0  0  0  0  0  0  0
   -5.5722    3.3444    0.2817 N   0  0  0  0  0  0  0  0  0  0  0  0
   -1.2794   -1.1113    1.0935 H   0  0  0  0  0  0  0  0  0  0  0  0
   -0.1153    0.1271   -1.1556 H   0  0  0  0  0  0  0  0  0  0  0  0
   -0.5990    2.2990    0.0894 H   0  0  0  0  0  0  0  0  0  0  0  0
   -1.0505    1.3643    1.5014 H   0  0  0  0  0  0  0  0  0  0  0  0
   -2.8958    0.2697    0.1780 H   0  0  0  0  0  0  0  0  0  0  0  0
   -2.4141    1.2020   -1.2423 H   0  0  0  0  0  0  0  0  0  0  0  0
   -3.3310    2.4007    1.4253 H   0  0  0  0  0  0  0  0  0  0  0  0
   -2.8873    3.3246   -0.0124 H   0  0  0  0  0  0  0  0  0  0  0  0
   -5.1861    1.2924    0.1261 H   0  0  0  0  0  0  0  0  0  0  0  0
   -4.7470    2.2500   -1.2954 H   0  0  0  0  0  0  0  0  0  0  0  0
   -5.0130    3.9207    0.8663 H   0  0  0  0  0  0  0  0  0  0  0  0
   -5.8990    3.8569   -0.5039 H   0  0  0  0  0  0  0  0  0  0  0  0
    1.4190    1.6811    1.1207 N   0  0  0  0  0  0  0  0  0  0  0  0
    2.6537    2.1845    1.6782 C   0  0  2  0  0  0  0  0  0  0  0  0
    2.3235    2.9034    2.9796 C   0  0  0  0  0  0  0  0  0  0  0  0
    1.2815    3.5323    3.1528 O   0  0  0  0  0  0  0  0  0  0  0  0
    3.3602    3.1168    0.7064 C   0  0  0  0  0  0  0  0  0  0  0  0
    0.5775    2.2274    1.2791 H   0  0  0  0  0  0  0  0  0  0  0  0
    3.2829    1.3134    1.8910 H   0  0  0  0  0  0  0  0  0  0  0  0
    2.7450    3.9956    0.4811 H   0  0  0  0  0  0  0  0  0  0  0  0
    4.3093    3.4747    1.1188 H   0  0  0  0  0  0  0  0  0  0  0  0
    3.5703    2.6068   -0.2400 H   0  0  0  0  0  0  0  0  0  0  0  0
    3.3481    2.7963    3.9095 N   0  0  0  0  0  0  0  0  0  0  0  0
    3.2927    3.4285    5.2070 C   0  0  0  0  0  0  0  0  0  0  0  0
    4.1584    2.2221    3.6964 H   0  0  0  0  0  0  0  0  0  0  0  0
    3.7663    4.4198    5.1530 H   0  0  0  0  0  0  0  0  0  0  0  0
    2.2428    3.5402    5.5157 H   0  0  0  0  0  0  0  0  0  0  0  0
    3.8265    2.8067    5.9407 H   0  0  0  0  0  0  0  0  0  0  0  0
  1  3  1  0  0  0  0
  1  7  1  0  0  0  0
  1  2  2  0  0  0  0
 39 40  1  0  0  0  0
 40 48  1  0  0  0  0
 40 41  2  0  0  0  0
  8  9  1  0  0  0  0
  9 17  1  0  0  0  0
  9 10  2  0  0  0  0
 18 19  1  0  0  0  0
 19 38  1  0  0  0  0
 19 20  2  0  0  0  0
 39 42  1  0  0  0  0
  8 11  1  0  0  0  0
 48 49  1  0  0  0  0
 22 23  1  0  0  0  0
 21 22  1  0  0  0  0
 23 24  1  0  0  0  0
 18 21  1  0  0  0  0
 24 25  1  0  0  0  0
 38 39  1  0  0  0  0
  7  8  1  0  0  0  0
 17 18  1  0  0  0  0
  3  4  1  0  0  0  0
  3  5  1  0  0  0  0
  3  6  1  0  0  0  0
 42 45  1  0  0  0  0
 42 46  1  0  0  0  0
 42 47  1  0  0  0  0
 11 14  1  0  0  0  0
 11 15  1  0  0  0  0
 11 16  1  0  0  0  0
 49 51  1  0  0  0  0
 49 52  1  0  0  0  0
 49 53  1  0  0  0  0
 22 30  1  0  0  0  0
 22 31  1  0  0  0  0
 23 32  1  0  0  0  0
 23 33  1  0  0  0  0
 21 28  1  0  0  0  0
 21 29  1  0  0  0  0
 24 34  1  0  0  0  0
 24 35  1  0  0  0  0
 39 44  1  0  0  0  0
  8 13  1  0  0  0  0
 18 27  1  0  0  0  0
 25 36  1  0  0  0  0
 25 37  1  0  0  0  0
 48 50  1  0  0  0  0
  7 12  1  0  0  0  0
 38 43  1  0  0  0  0
 17 26  1  0  0  0  0
M  END
$$$$

  -OEChem-05262214473D

 53 52  0     1  0  0  0  0  0999 V2000
   -1.0338   -5.6785    0.1476 C   0  0  0  0  0  0  0  0  0  0  0  0
   -2.0514   -5.7797    0.8227 O   0  0  0  0  0  0  0  0  0  0  0  0
   -0.6558   -6.7819   -0.7841 C   0  0  0  0  0  0  0  0  0  0  0  0
   -0.0111   -7.5354   -0.3038 H   0  0  0  0  0  0  0  0  0  0  0  0
   -1.5317   -7.3401   -1.1520 H   0  0  0  0  0  0  0  0  0  0  0  0
   -0.1109   -6.4687   -1.6890 H   0  0  0  0  0  0  0  0  0  0  0  0
   -0.1543   -4.6083    0.1480 N   0  0  0  0  0  0  0  0  0  0  0  0
   -0.3302   -3.4398    0.9696 C   0  0  2  0  0  0  0  0  0  0  0  0
    0.2328   -2.2439    0.2131 C   0  0  0  0  0  0  0  0  0  0  0  0
    1.2097   -2.3192   -0.5294 O   0  0  0  0  0  0  0  0  0  0  0  0
    0.3557   -3.6024    2.3171 C   0  0  0  0  0  0  0  0  0  0  0  0
    0.6584   -4.6506   -0.4643 H   0  0  0  0  0  0  0  0  0  0  0  0
   -1.4091   -3.3101    1.1082 H   0  0  0  0  0  0  0  0  0  0  0  0
    1.4375   -3.7336    2.1985 H   0  0  0  0  0  0  0  0  0  0  0  0
    0.1969   -2.7243    2.9517 H   0  0  0  0  0  0  0  0  0  0  0  0
   -0.0294   -4.4803    2.8470 H   0  0  0  0  0  0  0  0  0  0  0  0
   -0.4616   -1.0893    0.5050 N   0  0  0  0  0  0  0  0  0  0  0  0
   -0.0884    0.2050   -0.0621 C   0  0  2  0  0  0  0  0  0  0  0  0
    1.3399    0.5092    0.3810 C   0  0  0  0  0  0  0  0  0  0  0  0
    2.3231   -0.0579   -0.0914 O   0  0  0  0  0  0  0  0  0  0  0  0
   -1.0192    1.3346    0.4038 C   0  0  0  0  0  0  0  0  0  0  0  0
   -2.4442    1.2140   -0.1462 C   0  0  0  0  0  0  0  0  0  0  0  0
   -3.3212    2.3759    0.3282 C   0  0  0  0  0  0  0  0  0  0  0  0
   -4.7484    2.2422   -0.2003 C   0  0  0  0  0  0  0  0  0  0  0  0
   -5.5722    3.3444    0.2817 N   0  0  0  0  0  0  0  0  0  0  0  0
   -1.2794   -1.1113    1.0935 H   0  0  0  0  0  0  0  0  0  0  0  0
   -0.1153    0.1271   -1.1556 H   0  0  0  0  0  0  0  0  0  0  0  0
   -0.5990    2.2990    0.0894 H   0  0  0  0  0  0  0  0  0  0  0  0
   -1.0505    1.3643    1.5014 H   0  0  0  0  0  0  0  0  0  0  0  0
   -2.8958    0.2697    0.1780 H   0  0  0  0  0  0  0  0  0  0  0  0
   -2.4141    1.2020   -1.2423 H   0  0  0  0  0  0  0  0  0  0  0  0
   -3.3310    2.4007    1.4253 H   0  0  0  0  0  0  0  0  0  0  0  0
   -2.8873    3.3246   -0.0124 H   0  0  0  0  0  0  0  0  0  0  0  0
   -5.1861    1.2924    0.1261 H   0  0  0  0  0  0  0  0  0  0  0  0
   -4.7470    2.2500   -1.2954 H   0  0  0  0  0  0  0  0  0  0  0  0
   -5.0130    3.9207    0.8663 H   0  0  0  0  0  0  0  0  0  0  0  0
   -5.8990    3.8569   -0.5039 H   0  0  0  0  0  0  0  0  0  0  0  0
    1.3831    1.4715    1.3804 N   0  0  0  0  0  0  0  0  0  0  0  0
    2.6118    1.9251    1.9912 C   0  0  2  0  0  0  0  0  0  0  0  0
    2.3127    2.2809    3.4416 C   0  0  0  0  0  0  0  0  0  0  0  0
    1.2425    2.7626    3.8070 O   0  0  0  0  0  0  0  0  0  0  0  0
    3.1921    3.1179    1.2475 C   0  0  0  0  0  0  0  0  0  0  0  0
    0.5172    1.8933    1.7029 H   0  0  0  0  0  0  0  0  0  0  0  0
    3.3113    1.0826    1.9581 H   0  0  0  0  0  0  0  0  0  0  0  0
    2.5053    3.9719    1.2699 H   0  0  0  0  0  0  0  0  0  0  0  0
    4.1376    3.4424    1.6943 H   0  0  0  0  0  0  0  0  0  0  0  0
    3.3788    2.8691    0.1972 H   0  0  0  0  0  0  0  0  0  0  0  0
    3.3970    2.0374    4.2730 N   0  0  0  0  0  0  0  0  0  0  0  0
    3.3772    2.3326    5.6866 C   0  0  0  0  0  0  0  0  0  0  0  0
    4.2304    1.5992    3.8919 H   0  0  0  0  0  0  0  0  0  0  0  0
    3.7774    3.3431    5.8564 H   0  0  0  0  0  0  0  0  0  0  0  0
    2.3429    2.2809    6.0575 H   0  0  0  0  0  0  0  0  0  0  0  0
    3.9962    1.5984    6.2231 H   0  0  0  0  0  0  0  0  0  0  0  0
  1  3  1  0  0  0  0
  1  7  1  0  0  0  0
  1  2  2  0  0  0  0
 39 40  1  0  0  0  0
 40 48  1  0  0  0  0
 40 41  2  0  0  0  0
  8  9  1  0  0  0  0
  9 17  1  0  0  0  0
  9 10  2  0  0  0  0
 18 19  1  0  0  0  0
 19 38  1  0  0  0  0
 19 20  2  0  0  0  0
 39 42  1  0  0  0  0
  8 11  1  0  0  0  0
 48 49  1  0  0  0  0
 22 23  1  0  0  0  0
 21 22  1  0  0  0  0
 23 24  1  0  0  0  0
 18 21  1  0  0  0  0
 24 25  1  0  0  0  0
 38 39  1  0  0  0  0
  7  8  1  0  0  0  0
 17 18  1  0  0  0  0
  3  4  1  0  0  0  0
  3  5  1  0  0  0  0
  3  6  1  0  0  0  0
 42 45  1  0  0  0  0
 42 46  1  0  0  0  0
 42 47  1  0  0  0  0
 11 14  1  0  0  0  0
 11 15  1  0  0  0  0
 11 16  1  0  0  0  0
 49 51  1  0  0  0  0
 49 52  1  0  0  0  0
 49 53  1  0  0  0  0
 22 30  1  0  0  0  0
 22 31  1  0  0  0  0
 23 32  1  0  0  0  0
 23 33  1  0  0  0  0
 21 28  1  0  0  0  0
 21 29  1  0  0  0  0
 24 34  1  0  0  0  0
 24 35  1  0  0  0  0
 39 44  1  0  0  0  0
  8 13  1  0  0  0  0
 18 27  1  0  0  0  0
 25 36  1  0  0  0  0
 25 37  1  0  0  0  0
 48 50  1  0  0  0  0
  7 12  1  0  0  0  0
 38 43  1  0  0  0  0
 17 26  1  0  0  0  0
M  END
$$$$

  -OEChem-05262214473D

 53 52  0     1  0  0  0  0  0999 V2000
   -1.0338   -5.6785    0.1476 C   0  0  0  0  0  0  0  0  0  0  0  0
   -2.0514   -5.7797    0.8227 O   0  0  0  0  0  0  0  0  0  0  0  0
   -0.6558   -6.7819   -0.7841 C   0  0  0  0  0  0  0  0  0  0  0  0
   -0.0111   -7.5354   -0.3038 H   0  0  0  0  0  0  0  0  0  0  0  0
   -1.5317   -7.3401   -1.1520 H   0  0  0  0  0  0  0  0  0  0  0  0
   -0.1109   -6.4687   -1.6890 H   0  0  0  0  0  0  0  0  0  0  0  0
   -0.1543   -4.6083    0.1480 N   0  0  0  0  0  0  0  0  0  0  0  0
   -0.3302   -3.4398    0.9696 C   0  0  2  0  0  0  0  0  0  0  0  0
    0.2328   -2.2439    0.2131 C   0  0  0  0  0  0  0  0  0  0  0  0
    1.2097   -2.3192   -0.5294 O   0  0  0  0  0  0  0  0  0  0  0  0
    0.3557   -3.6024    2.3171 C   0  0  0  0  0  0  0  0  0  0  0  0
    0.6584   -4.6506   -0.4643 H   0  0  0  0  0  0  0  0  0  0  0  0
   -1.4091   -3.3101    1.1082 H   0  0  0  0  0  0  0  0  0  0  0  0
    1.4375   -3.7336    2.1985 H   0  0  0  0  0  0  0  0  0  0  0  0
    0.1969   -2.7243    2.9517 H   0  0  0  0  0  0  0  0  0  0  0  0
   -0.0294   -4.4803    2.8470 H   0  0  0  0  0  0  0  0  0  0  0  0
   -0.4616   -1.0893    0.5050 N   0  0  0  0  0  0  0  0  0  0  0  0
   -0.0884    0.2050   -0.0621 C   0  0  2  0  0  0  0  0  0  0  0  0
    1.3399    0.5092    0.3810 C   0  0  0  0  0  0  0  0  0  0  0  0
    2.3293    0.1543   -0.2568 O   0  0  0  0  0  0  0  0  0  0  0  0
   -1.0192    1.3346    0.4038 C   0  0  0  0  0  0  0  0  0  0  0  0
   -2.4442    1.2140   -0.1462 C   0  0  0  0  0  0  0  0  0  0  0  0
   -3.3212    2.3759    0.3282 C   0  0  0  0  0  0  0  0  0  0  0  0
   -4.7484    2.2422   -0.2003 C   0  0  0  0  0  0  0  0  0  0  0  0
   -5.5722    3.3444    0.2817 N   0  0  0  0  0  0  0  0  0  0  0  0
   -1.2794   -1.1113    1.0935 H   0  0  0  0  0  0  0  0  0  0  0  0
   -0.1153    0.1271   -1.1556 H   0  0  0  0  0  0  0  0  0  0  0  0
   -0.5990    2.2990    0.0894 H   0  0  0  0  0  0  0  0  0  0  0  0
   -1.0505    1.3643    1.5014 H   0  0  0  0  0  0  0  0  0  0  0  0
   -2.8958    0.2697    0.1780 H   0  0  0  0  0  0  0  0  0  0  0  0
   -2.4141    1.2020   -1.2423 H   0  0  0  0  0  0  0  0  0  0  0  0
   -3.3310    2.4007    1.4253 H   0  0  0  0  0  0  0  0  0  0  0  0
   -2.8873    3.3246   -0.0124 H   0  0  0  0  0  0  0  0  0  0  0  0
   -5.1861    1.2924    0.1261 H   0  0  0  0  0  0  0  0  0  0  0  0
   -4.7470    2.2500   -1.2954 H   0  0  0  0  0  0  0  0  0  0  0  0
   -5.0130    3.9207    0.8663 H   0  0  0  0  0  0  0  0  0  0  0  0
   -5.8990    3.8569   -0.5039 H   0  0  0  0  0  0  0  0  0  0  0  0
    1.3775    1.2034    1.5824 N   0  0  0  0  0  0  0  0  0  0  0  0
    2.6071    1.5955    2.2329 C   0  0  2  0  0  0  0  0  0  0  0  0
    2.3730    1.5669    3.7375 C   0  0  0  0  0  0  0  0  0  0  0  0
    1.2963    1.8578    4.2546 O   0  0  0  0  0  0  0  0  0  0  0  0
    3.0575    2.9753    1.7791 C   0  0  0  0  0  0  0  0  0  0  0  0
    0.5059    1.4633    2.0345 H   0  0  0  0  0  0  0  0  0  0  0  0
    3.3595    0.8456    1.9654 H   0  0  0  0  0  0  0  0  0  0  0  0
    2.3162    3.7400    2.0385 H   0  0  0  0  0  0  0  0  0  0  0  0
    4.0039    3.2589    2.2512 H   0  0  0  0  0  0  0  0  0  0  0  0
    3.1966    3.0022    0.6930 H   0  0  0  0  0  0  0  0  0  0  0  0
    3.5200    1.2199    4.4376 N   0  0  0  0  0  0  0  0  0  0  0  0
    3.5660    1.1642    5.8801 C   0  0  0  0  0  0  0  0  0  0  0  0
    4.3568    0.9555    3.9262 H   0  0  0  0  0  0  0  0  0  0  0  0
    3.9053    2.1335    6.2744 H   0  0  0  0  0  0  0  0  0  0  0  0
    2.5622    0.9408    6.2705 H   0  0  0  0  0  0  0  0  0  0  0  0
    4.2655    0.3756    6.1943 H   0  0  0  0  0  0  0  0  0  0  0  0
  1  3  1  0  0  0  0
  1  7  1  0  0  0  0
  1  2  2  0  0  0  0
 39 40  1  0  0  0  0
 40 48  1  0  0  0  0
 40 41  2  0  0  0  0
  8  9  1  0  0  0  0
  9 17  1  0  0  0  0
  9 10  2  0  0  0  0
 18 19  1  0  0  0  0
 19 38  1  0  0  0  0
 19 20  2  0  0  0  0
 39 42  1  0  0  0  0
  8 11  1  0  0  0  0
 48 49  1  0  0  0  0
 22 23  1  0  0  0  0
 21 22  1  0  0  0  0
 23 24  1  0  0  0  0
 18 21  1  0  0  0  0
 24 25  1  0  0  0  0
 38 39  1  0  0  0  0
  7  8  1  0  0  0  0
 17 18  1  0  0  0  0
  3  4  1  0  0  0  0
  3  5  1  0  0  0  0
  3  6  1  0  0  0  0
 42 45  1  0  0  0  0
 42 46  1  0  0  0  0
 42 47  1  0  0  0  0
 11 14  1  0  0  0  0
 11 15  1  0  0  0  0
 11 16  1  0  0  0  0
 49 51  1  0  0  0  0
 49 52  1  0  0  0  0
 49 53  1  0  0  0  0
 22 30  1  0  0  0  0
 22 31  1  0  0  0  0
 23 32  1  0  0  0  0
 23 33  1  0  0  0  0
 21 28  1  0  0  0  0
 21 29  1  0  0  0  0
 24 34  1  0  0  0  0
 24 35  1  0  0  0  0
 39 44  1  0  0  0  0
  8 13  1  0  0  0  0
 18 27  1  0  0  0  0
 25 36  1  0  0  0  0
 25 37  1  0  0  0  0
 48 50  1  0  0  0  0
  7 12  1  0  0  0  0
 38 43  1  0  0  0  0
 17 26  1  0  0  0  0
M  END
$$$$

  -OEChem-05262214473D

 53 52  0     1  0  0  0  0  0999 V2000
   -1.0338   -5.6785    0.1476 C   0  0  0  0  0  0  0  0  0  0  0  0
   -2.0514   -5.7797    0.8227 O   0  0  0  0  0  0  0  0  0  0  0  0
   -0.6558   -6.7819   -0.7841 C   0  0  0  0  0  0  0  0  0  0  0  0
   -0.0111   -7.5354   -0.3038 H   0  0  0  0  0  0  0  0  0  0  0  0
   -1.5317   -7.3401   -1.1520 H   0  0  0  0  0  0  0  0  0  0  0  0
   -0.1109   -6.4687   -1.6890 H   0  0  0  0  0  0  0  0  0  0  0  0
   -0.1543   -4.6083    0.1480 N   0  0  0  0  0  0  0  0  0  0  0  0
   -0.3302   -3.4398    0.9696 C   0  0  2  0  0  0  0  0  0  0  0  0
    0.2328   -2.2439    0.2131 C   0  0  0  0  0  0  0  0  0  0  0  0
    1.2097   -2.3192   -0.5294 O   0  0  0  0  0  0  0  0  0  0  0  0
    0.3557   -3.6024    2.3171 C   0  0  0  0  0  0  0  0  0  0  0  0
    0.6584   -4.6506   -0.4643 H   0  0  0  0  0  0  0  0  0  0  0  0
   -1.4091   -3.3101    1.1082 H   0  0  0  0  0  0  0  0  0  0  0  0
    1.4375   -3.7336    2.1985 H   0  0  0  0  0  0  0  0  0  0  0  0
    0.1969   -2.7243    2.9517 H   0  0  0  0  0  0  0  0  0  0  0  0
   -0.0294   -4.4803    2.8470 H   0  0  0  0  0  0  0  0  0  0  0  0
   -0.4616   -1.0893    0.5050 N   0  0  0  0  0  0  0  0  0  0  0  0
   -0.0884    0.2050   -0.0621 C   0  0  2  0  0  0  0  0  0  0  0  0
    1.3399    0.5092    0.3810 C   0  0  0  0  0  0  0  0  0  0  0  0
    2.3107    0.3998   -0.3654 O   0  0  0  0  0  0  0  0  0  0  0  0
   -1.0192    1.3346    0.4038 C   0  0  0  0  0  0  0  0  0  0  0  0
   -2.4442    1.2140   -0.1462 C   0  0  0  0  0  0  0  0  0  0  0  0
   -3.3212    2.3759    0.3282 C   0  0  0  0  0  0  0  0  0  0  0  0
   -4.7484    2.2422   -0.2003 C   0  0  0  0  0  0  0  0  0  0  0  0
   -5.5722    3.3444    0.2817 N   0  0  0  0  0  0  0  0  0  0  0  0
   -1.2794   -1.1113    1.0935 H   0  0  0  0  0  0  0  0  0  0  0  0
   -0.1153    0.1271   -1.1556 H   0  0  0  0  0  0  0  0  0  0  0  0
   -0.5990    2.2990    0.0894 H   0  0  0  0  0  0  0  0  0  0  0  0
   -1.0505    1.3643    1.5014 H   0  0  0  0  0  0  0  0  0  0  0  0
   -2.8958    0.2697    0.1780 H   0  0  0  0  0  0  0  0  0  0  0  0
   -2.4141    1.2020   -1.2423 H   0  0  0  0  0  0  0  0  0  0  0  0
   -3.3310    2.4007    1.4253 H   0  0  0  0  0  0  0  0  0  0  0  0
   -2.8873    3.3246   -0.0124 H   0  0  0  0  0  0  0  0  0  0  0  0
   -5.1861    1.2924    0.1261 H   0  0  0  0  0  0  0  0  0  0  0  0
   -4.7470    2.2500   -1.2954 H   0  0  0  0  0  0  0  0  0  0  0  0
   -5.0130    3.9207    0.8663 H   0  0  0  0  0  0  0  0  0  0  0  0
   -5.8990    3.8569   -0.5039 H   0  0  0  0  0  0  0  0  0  0  0  0
    1.4027    0.8951    1.7129 N   0  0  0  0  0  0  0  0  0  0  0  0
    2.6397    1.2183    2.3868 C   0  0  2  0  0  0  0  0  0  0  0  0
    2.5001    0.8100    3.8474 C   0  0  0  0  0  0  0  0  0  0  0  0
    1.4395    0.8794    4.4649 O   0  0  0  0  0  0  0  0  0  0  0  0
    2.9657    2.6987    2.2650 C   0  0  0  0  0  0  0  0  0  0  0  0
    0.5444    0.9668    2.2512 H   0  0  0  0  0  0  0  0  0  0  0  0
    3.4242    0.6185    1.9127 H   0  0  0  0  0  0  0  0  0  0  0  0
    2.1907    3.3157    2.7344 H   0  0  0  0  0  0  0  0  0  0  0  0
    3.9173    2.9368    2.7516 H   0  0  0  0  0  0  0  0  0  0  0  0
    3.0363    2.9970    1.2135 H   0  0  0  0  0  0  0  0  0  0  0  0
    3.7087    0.3997    4.3924 N   0  0  0  0  0  0  0  0  0  0  0  0
    3.8462    0.0030    5.7743 C   0  0  0  0  0  0  0  0  0  0  0  0
    4.5291    0.3350    3.7968 H   0  0  0  0  0  0  0  0  0  0  0  0
    4.1413    0.8734    6.3786 H   0  0  0  0  0  0  0  0  0  0  0  0
    2.8857   -0.3887    6.1404 H   0  0  0  0  0  0  0  0  0  0  0  0
    4.6161   -0.7783    5.8565 H   0  0  0  0  0  0  0  0  0  0  0  0
  1  3  1  0  0  0  0
  1  7  1  0  0  0  0
  1  2  2  0  0  0  0
 39 40  1  0  0  0  0
 40 48  1  0  0  0  0
 40 41  2  0  0  0  0
  8  9  1  0  0  0  0
  9 17  1  0  0  0  0
  9 10  2  0  0  0  0
 18 19  1  0  0  0  0
 19 38  1  0  0  0  0
 19 20  2  0  0  0  0
 39 42  1  0  0  0  0
  8 11  1  0  0  0  0
 48 49  1  0  0  0  0
 22 23  1  0  0  0  0
 21 22  1  0  0  0  0
 23 24  1  0  0  0  0
 18 21  1  0  0  0  0
 24 25  1  0  0  0  0
 38 39  1  0  0  0  0
  7  8  1  0  0  0  0
 17 18  1  0  0  0  0
  3  4  1  0  0  0  0
  3  5  1  0  0  0  0
  3  6  1  0  0  0  0
 42 45  1  0  0  0  0
 42 46  1  0  0  0  0
 42 47  1  0  0  0  0
 11 14  1  0  0  0  0
 11 15  1  0  0  0  0
 11 16  1  0  0  0  0
 49 51  1  0  0  0  0
 49 52  1  0  0  0  0
 49 53  1  0  0  0  0
 22 30  1  0  0  0  0
 22 31  1  0  0  0  0
 23 32  1  0  0  0  0
 23 33  1  0  0  0  0
 21 28  1  0  0  0  0
 21 29  1  0  0  0  0
 24 34  1  0  0  0  0
 24 35  1  0  0  0  0
 39 44  1  0  0  0  0
  8 13  1  0  0  0  0
 18 27  1  0  0  0  0
 25 36  1  0  0  0  0
 25 37  1  0  0  0  0
 48 50  1  0  0  0  0
  7 12  1  0  0  0  0
 38 43  1  0  0  0  0
 17 26  1  0  0  0  0
M  END
$$$$

  -OEChem-05262214473D

 53 52  0     1  0  0  0  0  0999 V2000
   -1.0338   -5.6785    0.1476 C   0  0  0  0  0  0  0  0  0  0  0  0
   -2.0514   -5.7797    0.8227 O   0  0  0  0  0  0  0  0  0  0  0  0
   -0.6558   -6.7819   -0.7841 C   0  0  0  0  0  0  0  0  0  0  0  0
   -0.0111   -7.5354   -0.3038 H   0  0  0  0  0  0  0  0  0  0  0  0
   -1.5317   -7.3401   -1.1520 H   0  0  0  0  0  0  0  0  0  0  0  0
   -0.1109   -6.4687   -1.6890 H   0  0  0  0  0  0  0  0  0  0  0  0
   -0.1543   -4.6083    0.1480 N   0  0  0  0  0  0  0  0  0  0  0  0
   -0.3302   -3.4398    0.9696 C   0  0  2  0  0  0  0  0  0  0  0  0
    0.2328   -2.2439    0.2131 C   0  0  0  0  0  0  0  0  0  0  0  0
    1.2097   -2.3192   -0.5294 O   0  0  0  0  0  0  0  0  0  0  0  0
    0.3557   -3.6024    2.3171 C   0  0  0  0  0  0  0  0  0  0  0  0
    0.6584   -4.6506   -0.4643 H   0  0  0  0  0  0  0  0  0  0  0  0
   -1.4091   -3.3101    1.1082 H   0  0  0  0  0  0  0  0  0  0  0  0
    1.4375   -3.7336    2.1985 H   0  0  0  0  0  0  0  0  0  0  0  0
    0.1969   -2.7243    2.9517 H   0  0  0  0  0  0  0  0  0  0  0  0
   -0.0294   -4.4803    2.8470 H   0  0  0  0  0  0  0  0  0  0  0  0
   -0.4616   -1.0893    0.5050 N   0  0  0  0  0  0  0  0  0  0  0  0
   -0.0884    0.2050   -0.0621 C   0  0  2  0  0  0  0  0  0  0  0  0
    1.3399    0.5092    0.3810 C   0  0  0  0  0  0  0  0  0  0  0  0
    2.2687    0.6618   -0.4099 O   0  0  0  0  0  0  0  0  0  0  0  0
   -1.0192    1.3346    0.4038 C   0  0  0  0  0  0  0  0  0  0  0  0
   -2.4442    1.2140   -0.1462 C   0  0  0  0  0  0  0  0  0  0  0  0
   -3.3212    2.3759    0.3282 C   0  0  0  0  0  0  0  0  0  0  0  0
   -4.7484    2.2422   -0.2003 C   0  0  0  0  0  0  0  0  0  0  0  0
   -5.5722    3.3444    0.2817 N   0  0  0  0  0  0  0  0  0  0  0  0
   -1.2794   -1.1113    1.0935 H   0  0  0  0  0  0  0  0  0  0  0  0
   -0.1153    0.1271   -1.1556 H   0  0  0  0  0  0  0  0  0  0  0  0
   -0.5990    2.2990    0.0894 H   0  0  0  0  0  0  0  0  0  0  0  0
   -1.0505    1.3643    1.5014 H   0  0  0  0  0  0  0  0  0  0  0  0
   -2.8958    0.2697    0.1780 H   0  0  0  0  0  0  0  0  0  0  0  0
   -2.4141    1.2020   -1.2423 H   0  0  0  0  0  0  0  0  0  0  0  0
   -3.3310    2.4007    1.4253 H   0  0  0  0  0  0  0  0  0  0  0  0
   -2.8873    3.3246   -0.0124 H   0  0  0  0  0  0  0  0  0  0  0  0
   -5.1861    1.2924    0.1261 H   0  0  0  0  0  0  0  0  0  0  0  0
   -4.7470    2.2500   -1.2954 H   0  0  0  0  0  0  0  0  0  0  0  0
   -5.0130    3.9207    0.8663 H   0  0  0  0  0  0  0  0  0  0  0  0
   -5.8990    3.8569   -0.5039 H   0  0  0  0  0  0  0  0  0  0  0  0
    1.4569    0.5676    1.7629 N   0  0  0  0  0  0  0  0  0  0  0  0
    2.7074    0.8191    2.4424 C   0  0  2  0  0  0  0  0  0  0  0  0
    2.6854    0.0619    3.7636 C   0  0  0  0  0  0  0  0  0  0  0  0
    1.6621   -0.1058    4.4237 O   0  0  0  0  0  0  0  0  0  0  0  0
    2.9228    2.3069    2.6721 C   0  0  0  0  0  0  0  0  0  0  0  0
    0.6301    0.4377    2.3383 H   0  0  0  0  0  0  0  0  0  0  0  0
    3.5011    0.4168    1.8034 H   0  0  0  0  0  0  0  0  0  0  0  0
    2.1373    2.7277    3.3103 H   0  0  0  0  0  0  0  0  0  0  0  0
    3.8837    2.4978    3.1613 H   0  0  0  0  0  0  0  0  0  0  0  0
    2.9086    2.8539    1.7232 H   0  0  0  0  0  0  0  0  0  0  0  0
    3.9503   -0.3674    4.1402 N   0  0  0  0  0  0  0  0  0  0  0  0
    4.1986   -1.0720    5.3763 C   0  0  0  0  0  0  0  0  0  0  0  0
    4.7354   -0.2200    3.5127 H   0  0  0  0  0  0  0  0  0  0  0  0
    4.4694   -0.3512    6.1618 H   0  0  0  0  0  0  0  0  0  0  0  0
    3.2914   -1.6172    5.6760 H   0  0  0  0  0  0  0  0  0  0  0  0
    5.0240   -1.7848    5.2325 H   0  0  0  0  0  0  0  0  0  0  0  0
  1  3  1  0  0  0  0
  1  7  1  0  0  0  0
  1  2  2  0  0  0  0
 39 40  1  0  0  0  0
 40 48  1  0  0  0  0
 40 41  2  0  0  0  0
  8  9  1  0  0  0  0
  9 17  1  0  0  0  0
  9 10  2  0  0  0  0
 18 19  1  0  0  0  0
 19 38  1  0  0  0  0
 19 20  2  0  0  0  0
 39 42  1  0  0  0  0
  8 11  1  0  0  0  0
 48 49  1  0  0  0  0
 22 23  1  0  0  0  0
 21 22  1  0  0  0  0
 23 24  1  0  0  0  0
 18 21  1  0  0  0  0
 24 25  1  0  0  0  0
 38 39  1  0  0  0  0
  7  8  1  0  0  0  0
 17 18  1  0  0  0  0
  3  4  1  0  0  0  0
  3  5  1  0  0  0  0
  3  6  1  0  0  0  0
 42 45  1  0  0  0  0
 42 46  1  0  0  0  0
 42 47  1  0  0  0  0
 11 14  1  0  0  0  0
 11 15  1  0  0  0  0
 11 16  1  0  0  0  0
 49 51  1  0  0  0  0
 49 52  1  0  0  0  0
 49 53  1  0  0  0  0
 22 30  1  0  0  0  0
 22 31  1  0  0  0  0
 23 32  1  0  0  0  0
 23 33  1  0  0  0  0
 21 28  1  0  0  0  0
 21 29  1  0  0  0  0
 24 34  1  0  0  0  0
 24 35  1  0  0  0  0
 39 44  1  0  0  0  0
  8 13  1  0  0  0  0
 18 27  1  0  0  0  0
 25 36  1  0  0  0  0
 25 37  1  0  0  0  0
 48 50  1  0  0  0  0
  7 12  1  0  0  0  0
 38 43  1  0  0  0  0
 17 26  1  0  0  0  0
M  END
$$$$

  -OEChem-05262214473D

 53 52  0     1  0  0  0  0  0999 V2000
   -1.0338   -5.6785    0.1476 C   0  0  0  0  0  0  0  0  0  0  0  0
   -2.0514   -5.7797    0.8227 O   0  0  0  0  0  0  0  0  0  0  0  0
   -0.6558   -6.7819   -0.7841 C   0  0  0  0  0  0  0  0  0  0  0  0
   -0.0111   -7.5354   -0.3038 H   0  0  0  0  0  0  0  0  0  0  0  0
   -1.5317   -7.3401   -1.1520 H   0  0  0  0  0  0  0  0  0  0  0  0
   -0.1109   -6.4687   -1.6890 H   0  0  0  0  0  0  0  0  0  0  0  0
   -0.1543   -4.6083    0.1480 N   0  0  0  0  0  0  0  0  0  0  0  0
   -0.3302   -3.4398    0.9696 C   0  0  2  0  0  0  0  0  0  0  0  0
    0.2328   -2.2439    0.2131 C   0  0  0  0  0  0  0  0  0  0  0  0
    1.2097   -2.3192   -0.5294 O   0  0  0  0  0  0  0  0  0  0  0  0
    0.3557   -3.6024    2.3171 C   0  0  0  0  0  0  0  0  0  0  0  0
    0.6584   -4.6506   -0.4643 H   0  0  0  0  0  0  0  0  0  0  0  0
   -1.4091   -3.3101    1.1082 H   0  0  0  0  0  0  0  0  0  0  0  0
    1.4375   -3.7336    2.1985 H   0  0  0  0  0  0  0  0  0  0  0  0
    0.1969   -2.7243    2.9517 H   0  0  0  0  0  0  0  0  0  0  0  0
   -0.0294   -4.4803    2.8470 H   0  0  0  0  0  0  0  0  0  0  0  0
   -0.4616   -1.0893    0.5050 N   0  0  0  0  0  0  0  0  0  0  0  0
   -0.0884    0.2050   -0.0621 C   0  0  2  0  0  0  0  0  0  0  0  0
    1.3399    0.5092    0.3810 C   0  0  0  0  0  0  0  0  0  0  0  0
    2.2061    0.9226   -0.3873 O   0  0  0  0  0  0  0  0  0  0  0  0
   -1.0192    1.3346    0.4038 C   0  0  0  0  0  0  0  0  0  0  0  0
   -2.4442    1.2140   -0.1462 C   0  0  0  0  0  0  0  0  0  0  0  0
   -3.3212    2.3759    0.3282 C   0  0  0  0  0  0  0  0  0  0  0  0
   -4.7484    2.2422   -0.2003 C   0  0  0  0  0  0  0  0  0  0  0  0
   -5.5722    3.3444    0.2817 N   0  0  0  0  0  0  0  0  0  0  0  0
   -1.2794   -1.1113    1.0935 H   0  0  0  0  0  0  0  0  0  0  0  0
   -0.1153    0.1271   -1.1556 H   0  0  0  0  0  0  0  0  0  0  0  0
   -0.5990    2.2990    0.0894 H   0  0  0  0  0  0  0  0  0  0  0  0
   -1.0505    1.3643    1.5014 H   0  0  0  0  0  0  0  0  0  0  0  0
   -2.8958    0.2697    0.1780 H   0  0  0  0  0  0  0  0  0  0  0  0
   -2.4141    1.2020   -1.2423 H   0  0  0  0  0  0  0  0  0  0  0  0
   -3.3310    2.4007    1.4253 H   0  0  0  0  0  0  0  0  0  0  0  0
   -2.8873    3.3246   -0.0124 H   0  0  0  0  0  0  0  0  0  0  0  0
   -5.1861    1.2924    0.1261 H   0  0  0  0  0  0  0  0  0  0  0  0
   -4.7470    2.2500   -1.2954 H   0  0  0  0  0  0  0  0  0  0  0  0
   -5.0130    3.9207    0.8663 H   0  0  0  0  0  0  0  0  0  0  0  0
   -5.8990    3.8569   -0.5039 H   0  0  0  0  0  0  0  0  0  0  0  0
    1.5365    0.2432    1.7291 N   0  0  0  0  0  0  0  0  0  0  0  0
    2.8058    0.4252    2.3958 C   0  0  2  0  0  0  0  0  0  0  0  0
    2.9163   -0.6265    3.4918 C   0  0  0  0  0  0  0  0  0  0  0  0
    1.9490   -1.0307    4.1337 O   0  0  0  0  0  0  0  0  0  0  0  0
    2.9319    1.8266    2.9726 C   0  0  0  0  0  0  0  0  0  0  0  0
    0.7571   -0.0881    2.2898 H   0  0  0  0  0  0  0  0  0  0  0  0
    3.5848    0.2543    1.6449 H   0  0  0  0  0  0  0  0  0  0  0  0
    2.1595    2.0163    3.7270 H   0  0  0  0  0  0  0  0  0  0  0  0
    3.9053    1.9721    3.4525 H   0  0  0  0  0  0  0  0  0  0  0  0
    2.8224    2.5825    2.1875 H   0  0  0  0  0  0  0  0  0  0  0  0
    4.2284   -1.0292    3.6983 N   0  0  0  0  0  0  0  0  0  0  0  0
    4.5992   -1.9875    4.7133 C   0  0  0  0  0  0  0  0  0  0  0  0
    4.9618   -0.6719    3.0932 H   0  0  0  0  0  0  0  0  0  0  0  0
    4.8671   -1.4569    5.6388 H   0  0  0  0  0  0  0  0  0  0  0  0
    3.7516   -2.6607    4.9089 H   0  0  0  0  0  0  0  0  0  0  0  0
    5.4615   -2.5751    4.3650 H   0  0  0  0  0  0  0  0  0  0  0  0
  1  3  1  0  0  0  0
  1  7  1  0  0  0  0
  1  2  2  0  0  0  0
 39 40  1  0  0  0  0
 40 48  1  0  0  0  0
 40 41  2  0  0  0  0
  8  9  1  0  0  0  0
  9 17  1  0  0  0  0
  9 10  2  0  0  0  0
 18 19  1  0  0  0  0
 19 38  1  0  0  0  0
 19 20  2  0  0  0  0
 39 42  1  0  0  0  0
  8 11  1  0  0  0  0
 48 49  1  0  0  0  0
 22 23  1  0  0  0  0
 21 22  1  0  0  0  0
 23 24  1  0  0  0  0
 18 21  1  0  0  0  0
 24 25  1  0  0  0  0
 38 39  1  0  0  0  0
  7  8  1  0  0  0  0
 17 18  1  0  0  0  0
  3  4  1  0  0  0  0
  3  5  1  0  0  0  0
  3  6  1  0  0  0  0
 42 45  1  0  0  0  0
 42 46  1  0  0  0  0
 42 47  1  0  0  0  0
 11 14  1  0  0  0  0
 11 15  1  0  0  0  0
 11 16  1  0  0  0  0
 49 51  1  0  0  0  0
 49 52  1  0  0  0  0
 49 53  1  0  0  0  0
 22 30  1  0  0  0  0
 22 31  1  0  0  0  0
 23 32  1  0  0  0  0
 23 33  1  0  0  0  0
 21 28  1  0  0  0  0
 21 29  1  0  0  0  0
 24 34  1  0  0  0  0
 24 35  1  0  0  0  0
 39 44  1  0  0  0  0
  8 13  1  0  0  0  0
 18 27  1  0  0  0  0
 25 36  1  0  0  0  0
 25 37  1  0  0  0  0
 48 50  1  0  0  0  0
  7 12  1  0  0  0  0
 38 43  1  0  0  0  0
 17 26  1  0  0  0  0
M  END
$$$$

  -OEChem-05262214473D

 53 52  0     1  0  0  0  0  0999 V2000
   -1.0338   -5.6785    0.1476 C   0  0  0  0  0  0  0  0  0  0  0  0
   -2.0514   -5.7797    0.8227 O   0  0  0  0  0  0  0  0  0  0  0  0
   -0.6558   -6.7819   -0.7841 C   0  0  0  0  0  0  0  0  0  0  0  0
   -0.0111   -7.5354   -0.3038 H   0  0  0  0  0  0  0  0  0  0  0  0
   -1.5317   -7.3401   -1.1520 H   0  0  0  0  0  0  0  0  0  0  0  0
   -0.1109   -6.4687   -1.6890 H   0  0  0  0  0  0  0  0  0  0  0  0
   -0.1543   -4.6083    0.1480 N   0  0  0  0  0  0  0  0  0  0  0  0
   -0.3302   -3.4398    0.9696 C   0  0  2  0  0  0  0  0  0  0  0  0
    0.2328   -2.2439    0.2131 C   0  0  0  0  0  0  0  0  0  0  0  0
    1.2097   -2.3192   -0.5294 O   0  0  0  0  0  0  0  0  0  0  0  0
    0.3557   -3.6024    2.3171 C   0  0  0  0  0  0  0  0  0  0  0  0
    0.6584   -4.6506   -0.4643 H   0  0  0  0  0  0  0  0  0  0  0  0
   -1.4091   -3.3101    1.1082 H   0  0  0  0  0  0  0  0  0  0  0  0
    1.4375   -3.7336    2.1985 H   0  0  0  0  0  0  0  0  0  0  0  0
    0.1969   -2.7243    2.9517 H   0  0  0  0  0  0  0  0  0  0  0  0
   -0.0294   -4.4803    2.8470 H   0  0  0  0  0  0  0  0  0  0  0  0
   -0.4616   -1.0893    0.5050 N   0  0  0  0  0  0  0  0  0  0  0  0
   -0.0884    0.2050   -0.0621 C   0  0  2  0  0  0  0  0  0  0  0  0
    1.3399    0.5092    0.3810 C   0  0  0  0  0  0  0  0  0  0  0  0
    2.1273    1.1642   -0.2991 O   0  0  0  0  0  0  0  0  0  0  0  0
   -1.0192    1.3346    0.4038 C   0  0  0  0  0  0  0  0  0  0  0  0
   -2.4442    1.2140   -0.1462 C   0  0  0  0  0  0  0  0  0  0  0  0
   -3.3212    2.3759    0.3282 C   0  0  0  0  0  0  0  0  0  0  0  0
   -4.7484    2.2422   -0.2003 C   0  0  0  0  0  0  0  0  0  0  0  0
   -5.5722    3.3444    0.2817 N   0  0  0  0  0  0  0  0  0  0  0  0
   -1.2794   -1.1113    1.0935 H   0  0  0  0  0  0  0  0  0  0  0  0
   -0.1153    0.1271   -1.1556 H   0  0  0  0  0  0  0  0  0  0  0  0
   -0.5990    2.2990    0.0894 H   0  0  0  0  0  0  0  0  0  0  0  0
   -1.0505    1.3643    1.5014 H   0  0  0  0  0  0  0  0  0  0  0  0
   -2.8958    0.2697    0.1780 H   0  0  0  0  0  0  0  0  0  0  0  0
   -2.4141    1.2020   -1.2423 H   0  0  0  0  0  0  0  0  0  0  0  0
   -3.3310    2.4007    1.4253 H   0  0  0  0  0  0  0  0  0  0  0  0
   -2.8873    3.3246   -0.0124 H   0  0  0  0  0  0  0  0  0  0  0  0
   -5.1861    1.2924    0.1261 H   0  0  0  0  0  0  0  0  0  0  0  0
   -4.7470    2.2500   -1.2954 H   0  0  0  0  0  0  0  0  0  0  0  0
   -5.0130    3.9207    0.8663 H   0  0  0  0  0  0  0  0  0  0  0  0
   -5.8990    3.8569   -0.5039 H   0  0  0  0  0  0  0  0  0  0  0  0
    1.6360   -0.0560    1.6137 N   0  0  0  0  0  0  0  0  0  0  0  0
    2.9280    0.0633    2.2504 C   0  0  2  0  0  0  0  0  0  0  0  0
    3.1771   -1.2083    3.0507 C   0  0  0  0  0  0  0  0  0  0  0  0
    2.2807   -1.8323    3.6148 O   0  0  0  0  0  0  0  0  0  0  0  0
    2.9922    1.2906    3.1461 C   0  0  0  0  0  0  0  0  0  0  0  0
    0.9168   -0.5747    2.1090 H   0  0  0  0  0  0  0  0  0  0  0  0
    3.6698    0.1419    1.4482 H   0  0  0  0  0  0  0  0  0  0  0  0
    2.2560    1.2299    3.9559 H   0  0  0  0  0  0  0  0  0  0  0  0
    3.9807    1.3953    3.6054 H   0  0  0  0  0  0  0  0  0  0  0  0
    2.7834    2.2015    2.5747 H   0  0  0  0  0  0  0  0  0  0  0  0
    4.5238   -1.5405    3.0968 N   0  0  0  0  0  0  0  0  0  0  0  0
    5.0208   -2.6810    3.8304 C   0  0  0  0  0  0  0  0  0  0  0  0
    5.1928   -0.9897    2.5668 H   0  0  0  0  0  0  0  0  0  0  0  0
    5.3074   -2.3683    4.8453 H   0  0  0  0  0  0  0  0  0  0  0  0
    4.2350   -3.4483    3.8914 H   0  0  0  0  0  0  0  0  0  0  0  0
    5.8986   -3.0954    3.3130 H   0  0  0  0  0  0  0  0  0  0  0  0
  1  3  1  0  0  0  0
  1  7  1  0  0  0  0
  1  2  2  0  0  0  0
 39 40  1  0  0  0  0
 40 48  1  0  0  0  0
 40 41  2  0  0  0  0
  8  9  1  0  0  0  0
  9 17  1  0  0  0  0
  9 10  2  0  0  0  0
 18 19  1  0  0  0  0
 19 38  1  0  0  0  0
 19 20  2  0  0  0  0
 39 42  1  0  0  0  0
  8 11  1  0  0  0  0
 48 49  1  0  0  0  0
 22 23  1  0  0  0  0
 21 22  1  0  0  0  0
 23 24  1  0  0  0  0
 18 21  1  0  0  0  0
 24 25  1  0  0  0  0
 38 39  1  0  0  0  0
  7  8  1  0  0  0  0
 17 18  1  0  0  0  0
  3  4  1  0  0  0  0
  3  5  1  0  0  0  0
  3  6  1  0  0  0  0
 42 45  1  0  0  0  0
 42 46  1  0  0  0  0
 42 47  1  0  0  0  0
 11 14  1  0  0  0  0
 11 15  1  0  0  0  0
 11 16  1  0  0  0  0
 49 51  1  0  0  0  0
 49 52  1  0  0  0  0
 49 53  1  0  0  0  0
 22 30  1  0  0  0  0
 22 31  1  0  0  0  0
 23 32  1  0  0  0  0
 23 33  1  0  0  0  0
 21 28  1  0  0  0  0
 21 29  1  0  0  0  0
 24 34  1  0  0  0  0
 24 35  1  0  0  0  0
 39 44  1  0  0  0  0
  8 13  1  0  0  0  0
 18 27  1  0  0  0  0
 25 36  1  0  0  0  0
 25 37  1  0  0  0  0
 48 50  1  0  0  0  0
  7 12  1  0  0  0  0
 38 43  1  0  0  0  0
 17 26  1  0  0  0  0
M  END
$$$$

  -OEChem-05262214473D

 53 52  0     1  0  0  0  0  0999 V2000
   -1.0338   -5.6785    0.1476 C   0  0  0  0  0  0  0  0  0  0  0  0
   -2.0514   -5.7797    0.8227 O   0  0  0  0  0  0  0  0  0  0  0  0
   -0.6558   -6.7819   -0.7841 C   0  0  0  0  0  0  0  0  0  0  0  0
   -0.0111   -7.5354   -0.3038 H   0  0  0  0  0  0  0  0  0  0  0  0
   -1.5317   -7.3401   -1.1520 H   0  0  0  0  0  0  0  0  0  0  0  0
   -0.1109   -6.4687   -1.6890 H   0  0  0  0  0  0  0  0  0  0  0  0
   -0.1543   -4.6083    0.1480 N   0  0  0  0  0  0  0  0  0  0  0  0
   -0.3302   -3.4398    0.9696 C   0  0  2  0  0  0  0  0  0  0  0  0
    0.2328   -2.2439    0.2131 C   0  0  0  0  0  0  0  0  0  0  0  0
    1.2097   -2.3192   -0.5294 O   0  0  0  0  0  0  0  0  0  0  0  0
    0.3557   -3.6024    2.3171 C   0  0  0  0  0  0  0  0  0  0  0  0
    0.6584   -4.6506   -0.4643 H   0  0  0  0  0  0  0  0  0  0  0  0
   -1.4091   -3.3101    1.1082 H   0  0  0  0  0  0  0  0  0  0  0  0
    1.4375   -3.7336    2.1985 H   0  0  0  0  0  0  0  0  0  0  0  0
    0.1969   -2.7243    2.9517 H   0  0  0  0  0  0  0  0  0  0  0  0
   -0.0294   -4.4803    2.8470 H   0  0  0  0  0  0  0  0  0  0  0  0
   -0.4616   -1.0893    0.5050 N   0  0  0  0  0  0  0  0  0  0  0  0
   -0.0884    0.2050   -0.0621 C   0  0  2  0  0  0  0  0  0  0  0  0
    1.3399    0.5092    0.3810 C   0  0  0  0  0  0  0  0  0  0  0  0
    2.0375    1.3704   -0.1512 O   0  0  0  0  0  0  0  0  0  0  0  0
   -1.0192    1.3346    0.4038 C   0  0  0  0  0  0  0  0  0  0  0  0
   -2.4442    1.2140   -0.1462 C   0  0  0  0  0  0  0  0  0  0  0  0
   -3.3212    2.3759    0.3282 C   0  0  0  0  0  0  0  0  0  0  0  0
   -4.7484    2.2422   -0.2003 C   0  0  0  0  0  0  0  0  0  0  0  0
   -5.5722    3.3444    0.2817 N   0  0  0  0  0  0  0  0  0  0  0  0
   -1.2794   -1.1113    1.0935 H   0  0  0  0  0  0  0  0  0  0  0  0
   -0.1153    0.1271   -1.1556 H   0  0  0  0  0  0  0  0  0  0  0  0
   -0.5990    2.2990    0.0894 H   0  0  0  0  0  0  0  0  0  0  0  0
   -1.0505    1.3643    1.5014 H   0  0  0  0  0  0  0  0  0  0  0  0
   -2.8958    0.2697    0.1780 H   0  0  0  0  0  0  0  0  0  0  0  0
   -2.4141    1.2020   -1.2423 H   0  0  0  0  0  0  0  0  0  0  0  0
   -3.3310    2.4007    1.4253 H   0  0  0  0  0  0  0  0  0  0  0  0
   -2.8873    3.3246   -0.0124 H   0  0  0  0  0  0  0  0  0  0  0  0
   -5.1861    1.2924    0.1261 H   0  0  0  0  0  0  0  0  0  0  0  0
   -4.7470    2.2500   -1.2954 H   0  0  0  0  0  0  0  0  0  0  0  0
   -5.0130    3.9207    0.8663 H   0  0  0  0  0  0  0  0  0  0  0  0
   -5.8990    3.8569   -0.5039 H   0  0  0  0  0  0  0  0  0  0  0  0
    1.7486   -0.3095    1.4247 N   0  0  0  0  0  0  0  0  0  0  0  0
    3.0657   -0.2418    2.0159 C   0  0  2  0  0  0  0  0  0  0  0  0
    3.4499   -1.6438    2.4702 C   0  0  0  0  0  0  0  0  0  0  0  0
    2.6346   -2.4560    2.9022 O   0  0  0  0  0  0  0  0  0  0  0  0
    3.0997    0.7353    3.1807 C   0  0  0  0  0  0  0  0  0  0  0  0
    1.0983   -0.9889    1.8083 H   0  0  0  0  0  0  0  0  0  0  0  0
    3.7502    0.0874    1.2266 H   0  0  0  0  0  0  0  0  0  0  0  0
    2.4201    0.4220    3.9816 H   0  0  0  0  0  0  0  0  0  0  0  0
    4.1048    0.8069    3.6094 H   0  0  0  0  0  0  0  0  0  0  0  0
    2.7944    1.7367    2.8584 H   0  0  0  0  0  0  0  0  0  0  0  0
    4.8166   -1.8664    2.3768 N   0  0  0  0  0  0  0  0  0  0  0  0
    5.4346   -3.1054    2.7879 C   0  0  0  0  0  0  0  0  0  0  0  0
    5.4126   -1.1518    1.9695 H   0  0  0  0  0  0  0  0  0  0  0  0
    5.7602   -3.0234    3.8354 H   0  0  0  0  0  0  0  0  0  0  0  0
    4.7086   -3.9263    2.6928 H   0  0  0  0  0  0  0  0  0  0  0  0
    6.3057   -3.3104    2.1482 H   0  0  0  0  0  0  0  0  0  0  0  0
  1  3  1  0  0  0  0
  1  7  1  0  0  0  0
  1  2  2  0  0  0  0
 39 40  1  0  0  0  0
 40 48  1  0  0  0  0
 40 41  2  0  0  0  0
  8  9  1  0  0  0  0
  9 17  1  0  0  0  0
  9 10  2  0  0  0  0
 18 19  1  0  0  0  0
 19 38  1  0  0  0  0
 19 20  2  0  0  0  0
 39 42  1  0  0  0  0
  8 11  1  0  0  0  0
 48 49  1  0  0  0  0
 22 23  1  0  0  0  0
 21 22  1  0  0  0  0
 23 24  1  0  0  0  0
 18 21  1  0  0  0  0
 24 25  1  0  0  0  0
 38 39  1  0  0  0  0
  7  8  1  0  0  0  0
 17 18  1  0  0  0  0
  3  4  1  0  0  0  0
  3  5  1  0  0  0  0
  3  6  1  0  0  0  0
 42 45  1  0  0  0  0
 42 46  1  0  0  0  0
 42 47  1  0  0  0  0
 11 14  1  0  0  0  0
 11 15  1  0  0  0  0
 11 16  1  0  0  0  0
 49 51  1  0  0  0  0
 49 52  1  0  0  0  0
 49 53  1  0  0  0  0
 22 30  1  0  0  0  0
 22 31  1  0  0  0  0
 23 32  1  0  0  0  0
 23 33  1  0  0  0  0
 21 28  1  0  0  0  0
 21 29  1  0  0  0  0
 24 34  1  0  0  0  0
 24 35  1  0  0  0  0
 39 44  1  0  0  0  0
  8 13  1  0  0  0  0
 18 27  1  0  0  0  0
 25 36  1  0  0  0  0
 25 37  1  0  0  0  0
 48 50  1  0  0  0  0
  7 12  1  0  0  0  0
 38 43  1  0  0  0  0
 17 26  1  0  0  0  0
M  END
$$$$

  -OEChem-05262214473D

 53 52  0     1  0  0  0  0  0999 V2000
   -1.0338   -5.6785    0.1476 C   0  0  0  0  0  0  0  0  0  0  0  0
   -2.0514   -5.7797    0.8227 O   0  0  0  0  0  0  0  0  0  0  0  0
   -0.6558   -6.7819   -0.7841 C   0  0  0  0  0  0  0  0  0  0  0  0
   -0.0111   -7.5354   -0.3038 H   0  0  0  0  0  0  0  0  0  0  0  0
   -1.5317   -7.3401   -1.1520 H   0  0  0  0  0  0  0  0  0  0  0  0
   -0.1109   -6.4687   -1.6890 H   0  0  0  0  0  0  0  0  0  0  0  0
   -0.1543   -4.6083    0.1480 N   0  0  0  0  0  0  0  0  0  0  0  0
   -0.3302   -3.4398    0.9696 C   0  0  2  0  0  0  0  0  0  0  0  0
    0.2328   -2.2439    0.2131 C   0  0  0  0  0  0  0  0  0  0  0  0
    1.2097   -2.3192   -0.5294 O   0  0  0  0  0  0  0  0  0  0  0  0
    0.3557   -3.6024    2.3171 C   0  0  0  0  0  0  0  0  0  0  0  0
    0.6584   -4.6506   -0.4643 H   0  0  0  0  0  0  0  0  0  0  0  0
   -1.4091   -3.3101    1.1082 H   0  0  0  0  0  0  0  0  0  0  0  0
    1.4375   -3.7336    2.1985 H   0  0  0  0  0  0  0  0  0  0  0  0
    0.1969   -2.7243    2.9517 H   0  0  0  0  0  0  0  0  0  0  0  0
   -0.0294   -4.4803    2.8470 H   0  0  0  0  0  0  0  0  0  0  0  0
   -0.4616   -1.0893    0.5050 N   0  0  0  0  0  0  0  0  0  0  0  0
   -0.0884    0.2050   -0.0621 C   0  0  2  0  0  0  0  0  0  0  0  0
    1.3399    0.5092    0.3810 C   0  0  0  0  0  0  0  0  0  0  0  0
    1.9430    1.5269    0.0462 O   0  0  0  0  0  0  0  0  0  0  0  0
   -1.0192    1.3346    0.4038 C   0  0  0  0  0  0  0  0  0  0  0  0
   -2.4442    1.2140   -0.1462 C   0  0  0  0  0  0  0  0  0  0  0  0
   -3.3212    2.3759    0.3282 C   0  0  0  0  0  0  0  0  0  0  0  0
   -4.7484    2.2422   -0.2003 C   0  0  0  0  0  0  0  0  0  0  0  0
   -5.5722    3.3444    0.2817 N   0  0  0  0  0  0  0  0  0  0  0  0
   -1.2794   -1.1113    1.0935 H   0  0  0  0  0  0  0  0  0  0  0  0
   -0.1153    0.1271   -1.1556 H   0  0  0  0  0  0  0  0  0  0  0  0
   -0.5990    2.2990    0.0894 H   0  0  0  0  0  0  0  0  0  0  0  0
   -1.0505    1.3643    1.5014 H   0  0  0  0  0  0  0  0  0  0  0  0
   -2.8958    0.2697    0.1780 H   0  0  0  0  0  0  0  0  0  0  0  0
   -2.4141    1.2020   -1.2423 H   0  0  0  0  0  0  0  0  0  0  0  0
   -3.3310    2.4007    1.4253 H   0  0  0  0  0  0  0  0  0  0  0  0
   -2.8873    3.3246   -0.0124 H   0  0  0  0  0  0  0  0  0  0  0  0
   -5.1861    1.2924    0.1261 H   0  0  0  0  0  0  0  0  0  0  0  0
   -4.7470    2.2500   -1.2954 H   0  0  0  0  0  0  0  0  0  0  0  0
   -5.0130    3.9207    0.8663 H   0  0  0  0  0  0  0  0  0  0  0  0
   -5.8990    3.8569   -0.5039 H   0  0  0  0  0  0  0  0  0  0  0  0
    1.8667   -0.5002    1.1749 N   0  0  0  0  0  0  0  0  0  0  0  0
    3.2095   -0.4694    1.7085 C   0  0  2  0  0  0  0  0  0  0  0  0
    3.7162   -1.9033    1.7899 C   0  0  0  0  0  0  0  0  0  0  0  0
    2.9865   -2.8592    2.0446 O   0  0  0  0  0  0  0  0  0  0  0  0
    3.2471    0.1987    3.0741 C   0  0  0  0  0  0  0  0  0  0  0  0
    1.2893   -1.3025    1.4082 H   0  0  0  0  0  0  0  0  0  0  0  0
    3.8204    0.0945    0.9951 H   0  0  0  0  0  0  0  0  0  0  0  0
    2.6406   -0.3522    3.8022 H   0  0  0  0  0  0  0  0  0  0  0  0
    4.2691    0.2468    3.4643 H   0  0  0  0  0  0  0  0  0  0  0  0
    2.8546    1.2198    3.0193 H   0  0  0  0  0  0  0  0  0  0  0  0
    5.0868   -1.9848    1.5872 N   0  0  0  0  0  0  0  0  0  0  0  0
    5.8124   -3.2317    1.6567 C   0  0  0  0  0  0  0  0  0  0  0  0
    5.6063   -1.1472    1.3419 H   0  0  0  0  0  0  0  0  0  0  0  0
    6.1947   -3.3775    2.6778 H   0  0  0  0  0  0  0  0  0  0  0  0
    5.1402   -4.0621    1.3949 H   0  0  0  0  0  0  0  0  0  0  0  0
    6.6550   -3.2053    0.9501 H   0  0  0  0  0  0  0  0  0  0  0  0
  1  3  1  0  0  0  0
  1  7  1  0  0  0  0
  1  2  2  0  0  0  0
 39 40  1  0  0  0  0
 40 48  1  0  0  0  0
 40 41  2  0  0  0  0
  8  9  1  0  0  0  0
  9 17  1  0  0  0  0
  9 10  2  0  0  0  0
 18 19  1  0  0  0  0
 19 38  1  0  0  0  0
 19 20  2  0  0  0  0
 39 42  1  0  0  0  0
  8 11  1  0  0  0  0
 48 49  1  0  0  0  0
 22 23  1  0  0  0  0
 21 22  1  0  0  0  0
 23 24  1  0  0  0  0
 18 21  1  0  0  0  0
 24 25  1  0  0  0  0
 38 39  1  0  0  0  0
  7  8  1  0  0  0  0
 17 18  1  0  0  0  0
  3  4  1  0  0  0  0
  3  5  1  0  0  0  0
  3  6  1  0  0  0  0
 42 45  1  0  0  0  0
 42 46  1  0  0  0  0
 42 47  1  0  0  0  0
 11 14  1  0  0  0  0
 11 15  1  0  0  0  0
 11 16  1  0  0  0  0
 49 51  1  0  0  0  0
 49 52  1  0  0  0  0
 49 53  1  0  0  0  0
 22 30  1  0  0  0  0
 22 31  1  0  0  0  0
 23 32  1  0  0  0  0
 23 33  1  0  0  0  0
 21 28  1  0  0  0  0
 21 29  1  0  0  0  0
 24 34  1  0  0  0  0
 24 35  1  0  0  0  0
 39 44  1  0  0  0  0
  8 13  1  0  0  0  0
 18 27  1  0  0  0  0
 25 36  1  0  0  0  0
 25 37  1  0  0  0  0
 48 50  1  0  0  0  0
  7 12  1  0  0  0  0
 38 43  1  0  0  0  0
 17 26  1  0  0  0  0
M  END
$$$$

  -OEChem-05262214473D

 53 52  0     1  0  0  0  0  0999 V2000
   -1.0338   -5.6785    0.1476 C   0  0  0  0  0  0  0  0  0  0  0  0
   -2.0514   -5.7797    0.8227 O   0  0  0  0  0  0  0  0  0  0  0  0
   -0.6558   -6.7819   -0.7841 C   0  0  0  0  0  0  0  0  0  0  0  0
   -0.0111   -7.5354   -0.3038 H   0  0  0  0  0  0  0  0  0  0  0  0
   -1.5317   -7.3401   -1.1520 H   0  0  0  0  0  0  0  0  0  0  0  0
   -0.1109   -6.4687   -1.6890 H   0  0  0  0  0  0  0  0  0  0  0  0
   -0.1543   -4.6083    0.1480 N   0  0  0  0  0  0  0  0  0  0  0  0
   -0.3302   -3.4398    0.9696 C   0  0  2  0  0  0  0  0  0  0  0  0
    0.2328   -2.2439    0.2131 C   0  0  0  0  0  0  0  0  0  0  0  0
    1.2097   -2.3192   -0.5294 O   0  0  0  0  0  0  0  0  0  0  0  0
    0.3557   -3.6024    2.3171 C   0  0  0  0  0  0  0  0  0  0  0  0
    0.6584   -4.6506   -0.4643 H   0  0  0  0  0  0  0  0  0  0  0  0
   -1.4091   -3.3101    1.1082 H   0  0  0  0  0  0  0  0  0  0  0  0
    1.4375   -3.7336    2.1985 H   0  0  0  0  0  0  0  0  0  0  0  0
    0.1969   -2.7243    2.9517 H   0  0  0  0  0  0  0  0  0  0  0  0
   -0.0294   -4.4803    2.8470 H   0  0  0  0  0  0  0  0  0  0  0  0
   -0.4616   -1.0893    0.5050 N   0  0  0  0  0  0  0  0  0  0  0  0
   -0.0884    0.2050   -0.0621 C   0  0  2  0  0  0  0  0  0  0  0  0
    1.3399    0.5092    0.3810 C   0  0  0  0  0  0  0  0  0  0  0  0
    1.8500    1.6232    0.2796 O   0  0  0  0  0  0  0  0  0  0  0  0
   -1.0192    1.3346    0.4038 C   0  0  0  0  0  0  0  0  0  0  0  0
   -2.4442    1.2140   -0.1462 C   0  0  0  0  0  0  0  0  0  0  0  0
   -3.3212    2.3759    0.3282 C   0  0  0  0  0  0  0  0  0  0  0  0
   -4.7484    2.2422   -0.2003 C   0  0  0  0  0  0  0  0  0  0  0  0
   -5.5722    3.3444    0.2817 N   0  0  0  0  0  0  0  0  0  0  0  0
   -1.2794   -1.1113    1.0935 H   0  0  0  0  0  0  0  0  0  0  0  0
   -0.1153    0.1271   -1.1556 H   0  0  0  0  0  0  0  0  0  0  0  0
   -0.5990    2.2990    0.0894 H   0  0  0  0  0  0  0  0  0  0  0  0
   -1.0505    1.3643    1.5014 H   0  0  0  0  0  0  0  0  0  0  0  0
   -2.8958    0.2697    0.1780 H   0  0  0  0  0  0  0  0  0  0  0  0
   -2.4141    1.2020   -1.2423 H   0  0  0  0  0  0  0  0  0  0  0  0
   -3.3310    2.4007    1.4253 H   0  0  0  0  0  0  0  0  0  0  0  0
   -2.8873    3.3246   -0.0124 H   0  0  0  0  0  0  0  0  0  0  0  0
   -5.1861    1.2924    0.1261 H   0  0  0  0  0  0  0  0  0  0  0  0
   -4.7470    2.2500   -1.2954 H   0  0  0  0  0  0  0  0  0  0  0  0
   -5.0130    3.9207    0.8663 H   0  0  0  0  0  0  0  0  0  0  0  0
   -5.8990    3.8569   -0.5039 H   0  0  0  0  0  0  0  0  0  0  0  0
    1.9823   -0.6150    0.8813 N   0  0  0  0  0  0  0  0  0  0  0  0
    3.3497   -0.6040    1.3489 C   0  0  2  0  0  0  0  0  0  0  0  0
    3.9579   -1.9692    1.0561 C   0  0  0  0  0  0  0  0  0  0  0  0
    3.3125   -3.0145    1.1004 O   0  0  0  0  0  0  0  0  0  0  0  0
    3.4243   -0.2828    2.8335 C   0  0  0  0  0  0  0  0  0  0  0  0
    1.4766   -1.4941    0.9358 H   0  0  0  0  0  0  0  0  0  0  0  0
    3.8759    0.1627    0.7697 H   0  0  0  0  0  0  0  0  0  0  0  0
    2.9025   -1.0400    3.4301 H   0  0  0  0  0  0  0  0  0  0  0  0
    4.4624   -0.2467    3.1800 H   0  0  0  0  0  0  0  0  0  0  0  0
    2.9598    0.6861    3.0464 H   0  0  0  0  0  0  0  0  0  0  0  0
    5.3159   -1.8876    0.7819 N   0  0  0  0  0  0  0  0  0  0  0  0
    6.1285   -3.0513    0.5140 C   0  0  0  0  0  0  0  0  0  0  0  0
    5.7607   -0.9761    0.7268 H   0  0  0  0  0  0  0  0  0  0  0  0
    6.5814   -3.4065    1.4514 H   0  0  0  0  0  0  0  0  0  0  0  0
    5.5003   -3.8464    0.0861 H   0  0  0  0  0  0  0  0  0  0  0  0
    6.9227   -2.7873   -0.1997 H   0  0  0  0  0  0  0  0  0  0  0  0
  1  3  1  0  0  0  0
  1  7  1  0  0  0  0
  1  2  2  0  0  0  0
 39 40  1  0  0  0  0
 40 48  1  0  0  0  0
 40 41  2  0  0  0  0
  8  9  1  0  0  0  0
  9 17  1  0  0  0  0
  9 10  2  0  0  0  0
 18 19  1  0  0  0  0
 19 38  1  0  0  0  0
 19 20  2  0  0  0  0
 39 42  1  0  0  0  0
  8 11  1  0  0  0  0
 48 49  1  0  0  0  0
 22 23  1  0  0  0  0
 21 22  1  0  0  0  0
 23 24  1  0  0  0  0
 18 21  1  0  0  0  0
 24 25  1  0  0  0  0
 38 39  1  0  0  0  0
  7  8  1  0  0  0  0
 17 18  1  0  0  0  0
  3  4  1  0  0  0  0
  3  5  1  0  0  0  0
  3  6  1  0  0  0  0
 42 45  1  0  0  0  0
 42 46  1  0  0  0  0
 42 47  1  0  0  0  0
 11 14  1  0  0  0  0
 11 15  1  0  0  0  0
 11 16  1  0  0  0  0
 49 51  1  0  0  0  0
 49 52  1  0  0  0  0
 49 53  1  0  0  0  0
 22 30  1  0  0  0  0
 22 31  1  0  0  0  0
 23 32  1  0  0  0  0
 23 33  1  0  0  0  0
 21 28  1  0  0  0  0
 21 29  1  0  0  0  0
 24 34  1  0  0  0  0
 24 35  1  0  0  0  0
 39 44  1  0  0  0  0
  8 13  1  0  0  0  0
 18 27  1  0  0  0  0
 25 36  1  0  0  0  0
 25 37  1  0  0  0  0
 48 50  1  0  0  0  0
  7 12  1  0  0  0  0
 38 43  1  0  0  0  0
 17 26  1  0  0  0  0
M  END
$$$$

  -OEChem-05262214473D

 53 52  0     1  0  0  0  0  0999 V2000
   -1.0338   -5.6785    0.1476 C   0  0  0  0  0  0  0  0  0  0  0  0
   -2.0514   -5.7797    0.8227 O   0  0  0  0  0  0  0  0  0  0  0  0
   -0.6558   -6.7819   -0.7841 C   0  0  0  0  0  0  0  0  0  0  0  0
   -0.0111   -7.5354   -0.3038 H   0  0  0  0  0  0  0  0  0  0  0  0
   -1.5317   -7.3401   -1.1520 H   0  0  0  0  0  0  0  0  0  0  0  0
   -0.1109   -6.4687   -1.6890 H   0  0  0  0  0  0  0  0  0  0  0  0
   -0.1543   -4.6083    0.1480 N   0  0  0  0  0  0  0  0  0  0  0  0
   -0.3302   -3.4398    0.9696 C   0  0  2  0  0  0  0  0  0  0  0  0
    0.2328   -2.2439    0.2131 C   0  0  0  0  0  0  0  0  0  0  0  0
    1.2097   -2.3192   -0.5294 O   0  0  0  0  0  0  0  0  0  0  0  0
    0.3557   -3.6024    2.3171 C   0  0  0  0  0  0  0  0  0  0  0  0
    0.6584   -4.6506   -0.4643 H   0  0  0  0  0  0  0  0  0  0  0  0
   -1.4091   -3.3101    1.1082 H   0  0  0  0  0  0  0  0  0  0  0  0
    1.4375   -3.7336    2.1985 H   0  0  0  0  0  0  0  0  0  0  0  0
    0.1969   -2.7243    2.9517 H   0  0  0  0  0  0  0  0  0  0  0  0
   -0.0294   -4.4803    2.8470 H   0  0  0  0  0  0  0  0  0  0  0  0
   -0.4616   -1.0893    0.5050 N   0  0  0  0  0  0  0  0  0  0  0  0
   -0.0884    0.2050   -0.0621 C   0  0  2  0  0  0  0  0  0  0  0  0
    1.3399    0.5092    0.3810 C   0  0  0  0  0  0  0  0  0  0  0  0
    1.7651    1.6527    0.5332 O   0  0  0  0  0  0  0  0  0  0  0  0
   -1.0192    1.3346    0.4038 C   0  0  0  0  0  0  0  0  0  0  0  0
   -2.4442    1.2140   -0.1462 C   0  0  0  0  0  0  0  0  0  0  0  0
   -3.3212    2.3759    0.3282 C   0  0  0  0  0  0  0  0  0  0  0  0
   -4.7484    2.2422   -0.2003 C   0  0  0  0  0  0  0  0  0  0  0  0
   -5.5722    3.3444    0.2817 N   0  0  0  0  0  0  0  0  0  0  0  0
   -1.2794   -1.1113    1.0935 H   0  0  0  0  0  0  0  0  0  0  0  0
   -0.1153    0.1271   -1.1556 H   0  0  0  0  0  0  0  0  0  0  0  0
   -0.5990    2.2990    0.0894 H   0  0  0  0  0  0  0  0  0  0  0  0
   -1.0505    1.3643    1.5014 H   0  0  0  0  0  0  0  0  0  0  0  0
   -2.8958    0.2697    0.1780 H   0  0  0  0  0  0  0  0  0  0  0  0
   -2.4141    1.2020   -1.2423 H   0  0  0  0  0  0  0  0  0  0  0  0
   -3.3310    2.4007    1.4253 H   0  0  0  0  0  0  0  0  0  0  0  0
   -2.8873    3.3246   -0.0124 H   0  0  0  0  0  0  0  0  0  0  0  0
   -5.1861    1.2924    0.1261 H   0  0  0  0  0  0  0  0  0  0  0  0
   -4.7470    2.2500   -1.2954 H   0  0  0  0  0  0  0  0  0  0  0  0
   -5.0130    3.9207    0.8663 H   0  0  0  0  0  0  0  0  0  0  0  0
   -5.8990    3.8569   -0.5039 H   0  0  0  0  0  0  0  0  0  0  0  0
    2.0873   -0.6461    0.5640 N   0  0  0  0  0  0  0  0  0  0  0  0
    3.4767   -0.6363    0.9618 C   0  0  2  0  0  0  0  0  0  0  0  0
    4.1584   -1.8370    0.3190 C   0  0  0  0  0  0  0  0  0  0  0  0
    3.5903   -2.9113    0.1339 O   0  0  0  0  0  0  0  0  0  0  0  0
    3.6192   -0.6762    2.4753 C   0  0  0  0  0  0  0  0  0  0  0  0
    1.6476   -1.5507    0.4235 H   0  0  0  0  0  0  0  0  0  0  0  0
    3.9126    0.2873    0.5656 H   0  0  0  0  0  0  0  0  0  0  0  0
    3.1880   -1.5945    2.8904 H   0  0  0  0  0  0  0  0  0  0  0  0
    4.6715   -0.6399    2.7759 H   0  0  0  0  0  0  0  0  0  0  0  0
    3.1030    0.1720    2.9379 H   0  0  0  0  0  0  0  0  0  0  0  0
    5.4884   -1.5815    0.0157 N   0  0  0  0  0  0  0  0  0  0  0  0
    6.3613   -2.5764   -0.5623 C   0  0  0  0  0  0  0  0  0  0  0  0
    5.8652   -0.6503    0.1662 H   0  0  0  0  0  0  0  0  0  0  0  0
    6.8937   -3.1084    0.2399 H   0  0  0  0  0  0  0  0  0  0  0  0
    5.7644   -3.2939   -1.1445 H   0  0  0  0  0  0  0  0  0  0  0  0
    7.0906   -2.0849   -1.2230 H   0  0  0  0  0  0  0  0  0  0  0  0
  1  3  1  0  0  0  0
  1  7  1  0  0  0  0
  1  2  2  0  0  0  0
 39 40  1  0  0  0  0
 40 48  1  0  0  0  0
 40 41  2  0  0  0  0
  8  9  1  0  0  0  0
  9 17  1  0  0  0  0
  9 10  2  0  0  0  0
 18 19  1  0  0  0  0
 19 38  1  0  0  0  0
 19 20  2  0  0  0  0
 39 42  1  0  0  0  0
  8 11  1  0  0  0  0
 48 49  1  0  0  0  0
 22 23  1  0  0  0  0
 21 22  1  0  0  0  0
 23 24  1  0  0  0  0
 18 21  1  0  0  0  0
 24 25  1  0  0  0  0
 38 39  1  0  0  0  0
  7  8  1  0  0  0  0
 17 18  1  0  0  0  0
  3  4  1  0  0  0  0
  3  5  1  0  0  0  0
  3  6  1  0  0  0  0
 42 45  1  0  0  0  0
 42 46  1  0  0  0  0
 42 47  1  0  0  0  0
 11 14  1  0  0  0  0
 11 15  1  0  0  0  0
 11 16  1  0  0  0  0
 49 51  1  0  0  0  0
 49 52  1  0  0  0  0
 49 53  1  0  0  0  0
 22 30  1  0  0  0  0
 22 31  1  0  0  0  0
 23 32  1  0  0  0  0
 23 33  1  0  0  0  0
 21 28  1  0  0  0  0
 21 29  1  0  0  0  0
 24 34  1  0  0  0  0
 24 35  1  0  0  0  0
 39 44  1  0  0  0  0
  8 13  1  0  0  0  0
 18 27  1  0  0  0  0
 25 36  1  0  0  0  0
 25 37  1  0  0  0  0
 48 50  1  0  0  0  0
  7 12  1  0  0  0  0
 38 43  1  0  0  0  0
 17 26  1  0  0  0  0
M  END
$$$$

  -OEChem-05262214473D

 53 52  0     1  0  0  0  0  0999 V2000
   -1.0338   -5.6785    0.1476 C   0  0  0  0  0  0  0  0  0  0  0  0
   -2.0514   -5.7797    0.8227 O   0  0  0  0  0  0  0  0  0  0  0  0
   -0.6558   -6.7819   -0.7841 C   0  0  0  0  0  0  0  0  0  0  0  0
   -0.0111   -7.5354   -0.3038 H   0  0  0  0  0  0  0  0  0  0  0  0
   -1.5317   -7.3401   -1.1520 H   0  0  0  0  0  0  0  0  0  0  0  0
   -0.1109   -6.4687   -1.6890 H   0  0  0  0  0  0  0  0  0  0  0  0
   -0.1543   -4.6083    0.1480 N   0  0  0  0  0  0  0  0  0  0  0  0
   -0.3302   -3.4398    0.9696 C   0  0  2  0  0  0  0  0  0  0  0  0
    0.2328   -2.2439    0.2131 C   0  0  0  0  0  0  0  0  0  0  0  0
    1.2097   -2.3192   -0.5294 O   0  0  0  0  0  0  0  0  0  0  0  0
    0.3557   -3.6024    2.3171 C   0  0  0  0  0  0  0  0  0  0  0  0
    0.6584   -4.6506   -0.4643 H   0  0  0  0  0  0  0  0  0  0  0  0
   -1.4091   -3.3101    1.1082 H   0  0  0  0  0  0  0  0  0  0  0  0
    1.4375   -3.7336    2.1985 H   0  0  0  0  0  0  0  0  0  0  0  0
    0.1969   -2.7243    2.9517 H   0  0  0  0  0  0  0  0  0  0  0  0
   -0.0294   -4.4803    2.8470 H   0  0  0  0  0  0  0  0  0  0  0  0
   -0.4616   -1.0893    0.5050 N   0  0  0  0  0  0  0  0  0  0  0  0
   -0.0884    0.2050   -0.0621 C   0  0  2  0  0  0  0  0  0  0  0  0
    1.3399    0.5092    0.3810 C   0  0  0  0  0  0  0  0  0  0  0  0
    1.6939    1.6134    0.7897 O   0  0  0  0  0  0  0  0  0  0  0  0
   -1.0192    1.3346    0.4038 C   0  0  0  0  0  0  0  0  0  0  0  0
   -2.4442    1.2140   -0.1462 C   0  0  0  0  0  0  0  0  0  0  0  0
   -3.3212    2.3759    0.3282 C   0  0  0  0  0  0  0  0  0  0  0  0
   -4.7484    2.2422   -0.2003 C   0  0  0  0  0  0  0  0  0  0  0  0
   -5.5722    3.3444    0.2817 N   0  0  0  0  0  0  0  0  0  0  0  0
   -1.2794   -1.1113    1.0935 H   0  0  0  0  0  0  0  0  0  0  0  0
   -0.1153    0.1271   -1.1556 H   0  0  0  0  0  0  0  0  0  0  0  0
   -0.5990    2.2990    0.0894 H   0  0  0  0  0  0  0  0  0  0  0  0
   -1.0505    1.3643    1.5014 H   0  0  0  0  0  0  0  0  0  0  0  0
   -2.8958    0.2697    0.1780 H   0  0  0  0  0  0  0  0  0  0  0  0
   -2.4141    1.2020   -1.2423 H   0  0  0  0  0  0  0  0  0  0  0  0
   -3.3310    2.4007    1.4253 H   0  0  0  0  0  0  0  0  0  0  0  0
   -2.8873    3.3246   -0.0124 H   0  0  0  0  0  0  0  0  0  0  0  0
   -5.1861    1.2924    0.1261 H   0  0  0  0  0  0  0  0  0  0  0  0
   -4.7470    2.2500   -1.2954 H   0  0  0  0  0  0  0  0  0  0  0  0
   -5.0130    3.9207    0.8663 H   0  0  0  0  0  0  0  0  0  0  0  0
   -5.8990    3.8569   -0.5039 H   0  0  0  0  0  0  0  0  0  0  0  0
    2.1748   -0.5913    0.2445 N   0  0  0  0  0  0  0  0  0  0  0  0
    3.5818   -0.5642    0.5735 C   0  0  2  0  0  0  0  0  0  0  0  0
    4.3041   -1.5156   -0.3713 C   0  0  0  0  0  0  0  0  0  0  0  0
    3.8011   -2.5566   -0.7889 O   0  0  0  0  0  0  0  0  0  0  0  0
    3.8185   -0.9548    2.0240 C   0  0  0  0  0  0  0  0  0  0  0  0
    1.7906   -1.4685   -0.0939 H   0  0  0  0  0  0  0  0  0  0  0  0
    3.9283    0.4599    0.3967 H   0  0  0  0  0  0  0  0  0  0  0  0
    3.4776   -1.9780    2.2202 H   0  0  0  0  0  0  0  0  0  0  0  0
    4.8822   -0.9062    2.2795 H   0  0  0  0  0  0  0  0  0  0  0  0
    3.2743   -0.2876    2.7011 H   0  0  0  0  0  0  0  0  0  0  0  0
    5.5925   -1.0872   -0.6591 N   0  0  0  0  0  0  0  0  0  0  0  0
    6.4949   -1.8396   -1.4990 C   0  0  0  0  0  0  0  0  0  0  0  0
    5.9128   -0.1919   -0.3019 H   0  0  0  0  0  0  0  0  0  0  0  0
    7.1105   -2.5035   -0.8742 H   0  0  0  0  0  0  0  0  0  0  0  0
    5.9145   -2.4423   -2.2130 H   0  0  0  0  0  0  0  0  0  0  0  0
    7.1471   -1.1459   -2.0499 H   0  0  0  0  0  0  0  0  0  0  0  0
  1  3  1  0  0  0  0
  1  7  1  0  0  0  0
  1  2  2  0  0  0  0
 39 40  1  0  0  0  0
 40 48  1  0  0  0  0
 40 41  2  0  0  0  0
  8  9  1  0  0  0  0
  9 17  1  0  0  0  0
  9 10  2  0  0  0  0
 18 19  1  0  0  0  0
 19 38  1  0  0  0  0
 19 20  2  0  0  0  0
 39 42  1  0  0  0  0
  8 11  1  0  0  0  0
 48 49  1  0  0  0  0
 22 23  1  0  0  0  0
 21 22  1  0  0  0  0
 23 24  1  0  0  0  0
 18 21  1  0  0  0  0
 24 25  1  0  0  0  0
 38 39  1  0  0  0  0
  7  8  1  0  0  0  0
 17 18  1  0  0  0  0
  3  4  1  0  0  0  0
  3  5  1  0  0  0  0
  3  6  1  0  0  0  0
 42 45  1  0  0  0  0
 42 46  1  0  0  0  0
 42 47  1  0  0  0  0
 11 14  1  0  0  0  0
 11 15  1  0  0  0  0
 11 16  1  0  0  0  0
 49 51  1  0  0  0  0
 49 52  1  0  0  0  0
 49 53  1  0  0  0  0
 22 30  1  0  0  0  0
 22 31  1  0  0  0  0
 23 32  1  0  0  0  0
 23 33  1  0  0  0  0
 21 28  1  0  0  0  0
 21 29  1  0  0  0  0
 24 34  1  0  0  0  0
 24 35  1  0  0  0  0
 39 44  1  0  0  0  0
  8 13  1  0  0  0  0
 18 27  1  0  0  0  0
 25 36  1  0  0  0  0
 25 37  1  0  0  0  0
 48 50  1  0  0  0  0
  7 12  1  0  0  0  0
 38 43  1  0  0  0  0
 17 26  1  0  0  0  0
M  END
$$$$

  -OEChem-05262214473D

 53 52  0     1  0  0  0  0  0999 V2000
   -1.0338   -5.6785    0.1476 C   0  0  0  0  0  0  0  0  0  0  0  0
   -2.0514   -5.7797    0.8227 O   0  0  0  0  0  0  0  0  0  0  0  0
   -0.6558   -6.7819   -0.7841 C   0  0  0  0  0  0  0  0  0  0  0  0
   -0.0111   -7.5354   -0.3038 H   0  0  0  0  0  0  0  0  0  0  0  0
   -1.5317   -7.3401   -1.1520 H   0  0  0  0  0  0  0  0  0  0  0  0
   -0.1109   -6.4687   -1.6890 H   0  0  0  0  0  0  0  0  0  0  0  0
   -0.1543   -4.6083    0.1480 N   0  0  0  0  0  0  0  0  0  0  0  0
   -0.3302   -3.4398    0.9696 C   0  0  2  0  0  0  0  0  0  0  0  0
    0.2328   -2.2439    0.2131 C   0  0  0  0  0  0  0  0  0  0  0  0
    1.2097   -2.3192   -0.5294 O   0  0  0  0  0  0  0  0  0  0  0  0
    0.3557   -3.6024    2.3171 C   0  0  0  0  0  0  0  0  0  0  0  0
    0.6584   -4.6506   -0.4643 H   0  0  0  0  0  0  0  0  0  0  0  0
   -1.4091   -3.3101    1.1082 H   0  0  0  0  0  0  0  0  0  0  0  0
    1.4375   -3.7336    2.1985 H   0  0  0  0  0  0  0  0  0  0  0  0
    0.1969   -2.7243    2.9517 H   0  0  0  0  0  0  0  0  0  0  0  0
   -0.0294   -4.4803    2.8470 H   0  0  0  0  0  0  0  0  0  0  0  0
   -0.4616   -1.0893    0.5050 N   0  0  0  0  0  0  0  0  0  0  0  0
   -0.0884    0.2050   -0.0621 C   0  0  2  0  0  0  0  0  0  0  0  0
    1.3399    0.5092    0.3810 C   0  0  0  0  0  0  0  0  0  0  0  0
    1.6413    1.5079    1.0316 O   0  0  0  0  0  0  0  0  0  0  0  0
   -1.0192    1.3346    0.4038 C   0  0  0  0  0  0  0  0  0  0  0  0
   -2.4442    1.2140   -0.1462 C   0  0  0  0  0  0  0  0  0  0  0  0
   -3.3212    2.3759    0.3282 C   0  0  0  0  0  0  0  0  0  0  0  0
   -4.7484    2.2422   -0.2003 C   0  0  0  0  0  0  0  0  0  0  0  0
   -5.5722    3.3444    0.2817 N   0  0  0  0  0  0  0  0  0  0  0  0
   -1.2794   -1.1113    1.0935 H   0  0  0  0  0  0  0  0  0  0  0  0
   -0.1153    0.1271   -1.1556 H   0  0  0  0  0  0  0  0  0  0  0  0
   -0.5990    2.2990    0.0894 H   0  0  0  0  0  0  0  0  0  0  0  0
   -1.0505    1.3643    1.5014 H   0  0  0  0  0  0  0  0  0  0  0  0
   -2.8958    0.2697    0.1780 H   0  0  0  0  0  0  0  0  0  0  0  0
   -2.4141    1.2020   -1.2423 H   0  0  0  0  0  0  0  0  0  0  0  0
   -3.3310    2.4007    1.4253 H   0  0  0  0  0  0  0  0  0  0  0  0
   -2.8873    3.3246   -0.0124 H   0  0  0  0  0  0  0  0  0  0  0  0
   -5.1861    1.2924    0.1261 H   0  0  0  0  0  0  0  0  0  0  0  0
   -4.7470    2.2500   -1.2954 H   0  0  0  0  0  0  0  0  0  0  0  0
   -5.0130    3.9207    0.8663 H   0  0  0  0  0  0  0  0  0  0  0  0
   -5.8990    3.8569   -0.5039 H   0  0  0  0  0  0  0  0  0  0  0  0
    2.2386   -0.4544   -0.0554 N   0  0  0  0  0  0  0  0  0  0  0  0
    3.6579   -0.3926    0.2104 C   0  0  2  0  0  0  0  0  0  0  0  0
    4.3851   -1.0270   -0.9678 C   0  0  0  0  0  0  0  0  0  0  0  0
    3.9304   -1.9746   -1.6053 O   0  0  0  0  0  0  0  0  0  0  0  0
    4.0088   -1.0997    1.5103 C   0  0  0  0  0  0  0  0  0  0  0  0
    1.8958   -1.2529   -0.5812 H   0  0  0  0  0  0  0  0  0  0  0  0
    3.9217    0.6687    0.2746 H   0  0  0  0  0  0  0  0  0  0  0  0
    3.7516   -2.1642    1.4649 H   0  0  0  0  0  0  0  0  0  0  0  0
    5.0801   -1.0273    1.7247 H   0  0  0  0  0  0  0  0  0  0  0  0
    3.4621   -0.6614    2.3522 H   0  0  0  0  0  0  0  0  0  0  0  0
    5.6210   -0.4385   -1.1965 N   0  0  0  0  0  0  0  0  0  0  0  0
    6.5203   -0.8909   -2.2321 C   0  0  0  0  0  0  0  0  0  0  0  0
    5.9002    0.3678   -0.6453 H   0  0  0  0  0  0  0  0  0  0  0  0
    7.2170   -1.6330   -1.8151 H   0  0  0  0  0  0  0  0  0  0  0  0
    5.9404   -1.3497   -3.0465 H   0  0  0  0  0  0  0  0  0  0  0  0
    7.0885   -0.0344   -2.6240 H   0  0  0  0  0  0  0  0  0  0  0  0
  1  3  1  0  0  0  0
  1  7  1  0  0  0  0
  1  2  2  0  0  0  0
 39 40  1  0  0  0  0
 40 48  1  0  0  0  0
 40 41  2  0  0  0  0
  8  9  1  0  0  0  0
  9 17  1  0  0  0  0
  9 10  2  0  0  0  0
 18 19  1  0  0  0  0
 19 38  1  0  0  0  0
 19 20  2  0  0  0  0
 39 42  1  0  0  0  0
  8 11  1  0  0  0  0
 48 49  1  0  0  0  0
 22 23  1  0  0  0  0
 21 22  1  0  0  0  0
 23 24  1  0  0  0  0
 18 21  1  0  0  0  0
 24 25  1  0  0  0  0
 38 39  1  0  0  0  0
  7  8  1  0  0  0  0
 17 18  1  0  0  0  0
  3  4  1  0  0  0  0
  3  5  1  0  0  0  0
  3  6  1  0  0  0  0
 42 45  1  0  0  0  0
 42 46  1  0  0  0  0
 42 47  1  0  0  0  0
 11 14  1  0  0  0  0
 11 15  1  0  0  0  0
 11 16  1  0  0  0  0
 49 51  1  0  0  0  0
 49 52  1  0  0  0  0
 49 53  1  0  0  0  0
 22 30  1  0  0  0  0
 22 31  1  0  0  0  0
 23 32  1  0  0  0  0
 23 33  1  0  0  0  0
 21 28  1  0  0  0  0
 21 29  1  0  0  0  0
 24 34  1  0  0  0  0
 24 35  1  0  0  0  0
 39 44  1  0  0  0  0
  8 13  1  0  0  0  0
 18 27  1  0  0  0  0
 25 36  1  0  0  0  0
 25 37  1  0  0  0  0
 48 50  1  0  0  0  0
  7 12  1  0  0  0  0
 38 43  1  0  0  0  0
 17 26  1  0  0  0  0
M  END
$$$$

  -OEChem-05262214473D

 53 52  0     1  0  0  0  0  0999 V2000
   -1.0338   -5.6785    0.1476 C   0  0  0  0  0  0  0  0  0  0  0  0
   -2.0514   -5.7797    0.8227 O   0  0  0  0  0  0  0  0  0  0  0  0
   -0.6558   -6.7819   -0.7841 C   0  0  0  0  0  0  0  0  0  0  0  0
   -0.0111   -7.5354   -0.3038 H   0  0  0  0  0  0  0  0  0  0  0  0
   -1.5317   -7.3401   -1.1520 H   0  0  0  0  0  0  0  0  0  0  0  0
   -0.1109   -6.4687   -1.6890 H   0  0  0  0  0  0  0  0  0  0  0  0
   -0.1543   -4.6083    0.1480 N   0  0  0  0  0  0  0  0  0  0  0  0
   -0.3302   -3.4398    0.9696 C   0  0  2  0  0  0  0  0  0  0  0  0
    0.2328   -2.2439    0.2131 C   0  0  0  0  0  0  0  0  0  0  0  0
    1.2097   -2.3192   -0.5294 O   0  0  0  0  0  0  0  0  0  0  0  0
    0.3557   -3.6024    2.3171 C   0  0  0  0  0  0  0  0  0  0  0  0
    0.6584   -4.6506   -0.4643 H   0  0  0  0  0  0  0  0  0  0  0  0
   -1.4091   -3.3101    1.1082 H   0  0  0  0  0  0  0  0  0  0  0  0
    1.4375   -3.7336    2.1985 H   0  0  0  0  0  0  0  0  0  0  0  0
    0.1969   -2.7243    2.9517 H   0  0  0  0  0  0  0  0  0  0  0  0
   -0.0294   -4.4803    2.8470 H   0  0  0  0  0  0  0  0  0  0  0  0
   -0.4616   -1.0893    0.5050 N   0  0  0  0  0  0  0  0  0  0  0  0
   -0.0884    0.2050   -0.0621 C   0  0  2  0  0  0  0  0  0  0  0  0
    1.3399    0.5092    0.3810 C   0  0  0  0  0  0  0  0  0  0  0  0
    1.6109    1.3434    1.2424 O   0  0  0  0  0  0  0  0  0  0  0  0
   -1.0192    1.3346    0.4038 C   0  0  0  0  0  0  0  0  0  0  0  0
   -2.4442    1.2140   -0.1462 C   0  0  0  0  0  0  0  0  0  0  0  0
   -3.3212    2.3759    0.3282 C   0  0  0  0  0  0  0  0  0  0  0  0
   -4.7484    2.2422   -0.2003 C   0  0  0  0  0  0  0  0  0  0  0  0
   -5.5722    3.3444    0.2817 N   0  0  0  0  0  0  0  0  0  0  0  0
   -1.2794   -1.1113    1.0935 H   0  0  0  0  0  0  0  0  0  0  0  0
   -0.1153    0.1271   -1.1556 H   0  0  0  0  0  0  0  0  0  0  0  0
   -0.5990    2.2990    0.0894 H   0  0  0  0  0  0  0  0  0  0  0  0
   -1.0505    1.3643    1.5014 H   0  0  0  0  0  0  0  0  0  0  0  0
   -2.8958    0.2697    0.1780 H   0  0  0  0  0  0  0  0  0  0  0  0
   -2.4141    1.2020   -1.2423 H   0  0  0  0  0  0  0  0  0  0  0  0
   -3.3310    2.4007    1.4253 H   0  0  0  0  0  0  0  0  0  0  0  0
   -2.8873    3.3246   -0.0124 H   0  0  0  0  0  0  0  0  0  0  0  0
   -5.1861    1.2924    0.1261 H   0  0  0  0  0  0  0  0  0  0  0  0
   -4.7470    2.2500   -1.2954 H   0  0  0  0  0  0  0  0  0  0  0  0
   -5.0130    3.9207    0.8663 H   0  0  0  0  0  0  0  0  0  0  0  0
   -5.8990    3.8569   -0.5039 H   0  0  0  0  0  0  0  0  0  0  0  0
    2.2746   -0.2448   -0.3151 N   0  0  0  0  0  0  0  0  0  0  0  0
    3.6998   -0.1332   -0.1026 C   0  0  2  0  0  0  0  0  0  0  0  0
    4.3958   -0.4045   -1.4298 C   0  0  0  0  0  0  0  0  0  0  0  0
    3.9694   -1.2049   -2.2595 O   0  0  0  0  0  0  0  0  0  0  0  0
    4.1769   -1.1008    0.9692 C   0  0  0  0  0  0  0  0  0  0  0  0
    1.9562   -0.9188   -1.0050 H   0  0  0  0  0  0  0  0  0  0  0  0
    3.8933    0.8995    0.2076 H   0  0  0  0  0  0  0  0  0  0  0  0
    3.9913   -2.1406    0.6761 H   0  0  0  0  0  0  0  0  0  0  0  0
    5.2518   -0.9950    1.1492 H   0  0  0  0  0  0  0  0  0  0  0  0
    3.6536   -0.9237    1.9150 H   0  0  0  0  0  0  0  0  0  0  0  0
    5.5721    0.3205   -1.5599 N   0  0  0  0  0  0  0  0  0  0  0  0
    6.4357    0.2050   -2.7118 C   0  0  0  0  0  0  0  0  0  0  0  0
    5.8282    0.9907   -0.8409 H   0  0  0  0  0  0  0  0  0  0  0  0
    7.2059   -0.5562   -2.5185 H   0  0  0  0  0  0  0  0  0  0  0  0
    5.8402   -0.0904   -3.5882 H   0  0  0  0  0  0  0  0  0  0  0  0
    6.9188    1.1739   -2.9064 H   0  0  0  0  0  0  0  0  0  0  0  0
  1  3  1  0  0  0  0
  1  7  1  0  0  0  0
  1  2  2  0  0  0  0
 39 40  1  0  0  0  0
 40 48  1  0  0  0  0
 40 41  2  0  0  0  0
  8  9  1  0  0  0  0
  9 17  1  0  0  0  0
  9 10  2  0  0  0  0
 18 19  1  0  0  0  0
 19 38  1  0  0  0  0
 19 20  2  0  0  0  0
 39 42  1  0  0  0  0
  8 11  1  0  0  0  0
 48 49  1  0  0  0  0
 22 23  1  0  0  0  0
 21 22  1  0  0  0  0
 23 24  1  0  0  0  0
 18 21  1  0  0  0  0
 24 25  1  0  0  0  0
 38 39  1  0  0  0  0
  7  8  1  0  0  0  0
 17 18  1  0  0  0  0
  3  4  1  0  0  0  0
  3  5  1  0  0  0  0
  3  6  1  0  0  0  0
 42 45  1  0  0  0  0
 42 46  1  0  0  0  0
 42 47  1  0  0  0  0
 11 14  1  0  0  0  0
 11 15  1  0  0  0  0
 11 16  1  0  0  0  0
 49 51  1  0  0  0  0
 49 52  1  0  0  0  0
 49 53  1  0  0  0  0
 22 30  1  0  0  0  0
 22 31  1  0  0  0  0
 23 32  1  0  0  0  0
 23 33  1  0  0  0  0
 21 28  1  0  0  0  0
 21 29  1  0  0  0  0
 24 34  1  0  0  0  0
 24 35  1  0  0  0  0
 39 44  1  0  0  0  0
  8 13  1  0  0  0  0
 18 27  1  0  0  0  0
 25 36  1  0  0  0  0
 25 37  1  0  0  0  0
 48 50  1  0  0  0  0
  7 12  1  0  0  0  0
 38 43  1  0  0  0  0
 17 26  1  0  0  0  0
M  END
$$$$

  -OEChem-05262214473D

 53 52  0     1  0  0  0  0  0999 V2000
   -1.0338   -5.6785    0.1476 C   0  0  0  0  0  0  0  0  0  0  0  0
   -2.0514   -5.7797    0.8227 O   0  0  0  0  0  0  0  0  0  0  0  0
   -0.6558   -6.7819   -0.7841 C   0  0  0  0  0  0  0  0  0  0  0  0
   -0.0111   -7.5354   -0.3038 H   0  0  0  0  0  0  0  0  0  0  0  0
   -1.5317   -7.3401   -1.1520 H   0  0  0  0  0  0  0  0  0  0  0  0
   -0.1109   -6.4687   -1.6890 H   0  0  0  0  0  0  0  0  0  0  0  0
   -0.1543   -4.6083    0.1480 N   0  0  0  0  0  0  0  0  0  0  0  0
   -0.3302   -3.4398    0.9696 C   0  0  2  0  0  0  0  0  0  0  0  0
    0.2328   -2.2439    0.2131 C   0  0  0  0  0  0  0  0  0  0  0  0
    1.2097   -2.3192   -0.5294 O   0  0  0  0  0  0  0  0  0  0  0  0
    0.3557   -3.6024    2.3171 C   0  0  0  0  0  0  0  0  0  0  0  0
    0.6584   -4.6506   -0.4643 H   0  0  0  0  0  0  0  0  0  0  0  0
   -1.4091   -3.3101    1.1082 H   0  0  0  0  0  0  0  0  0  0  0  0
    1.4375   -3.7336    2.1985 H   0  0  0  0  0  0  0  0  0  0  0  0
    0.1969   -2.7243    2.9517 H   0  0  0  0  0  0  0  0  0  0  0  0
   -0.0294   -4.4803    2.8470 H   0  0  0  0  0  0  0  0  0  0  0  0
   -0.4616   -1.0893    0.5050 N   0  0  0  0  0  0  0  0  0  0  0  0
   -0.0884    0.2050   -0.0621 C   0  0  2  0  0  0  0  0  0  0  0  0
    1.3399    0.5092    0.3810 C   0  0  0  0  0  0  0  0  0  0  0  0
    1.6048    1.1313    1.4078 O   0  0  0  0  0  0  0  0  0  0  0  0
   -1.0192    1.3346    0.4038 C   0  0  0  0  0  0  0  0  0  0  0  0
   -2.4442    1.2140   -0.1462 C   0  0  0  0  0  0  0  0  0  0  0  0
   -3.3212    2.3759    0.3282 C   0  0  0  0  0  0  0  0  0  0  0  0
   -4.7484    2.2422   -0.2003 C   0  0  0  0  0  0  0  0  0  0  0  0
   -5.5722    3.3444    0.2817 N   0  0  0  0  0  0  0  0  0  0  0  0
   -1.2794   -1.1113    1.0935 H   0  0  0  0  0  0  0  0  0  0  0  0
   -0.1153    0.1271   -1.1556 H   0  0  0  0  0  0  0  0  0  0  0  0
   -0.5990    2.2990    0.0894 H   0  0  0  0  0  0  0  0  0  0  0  0
   -1.0505    1.3643    1.5014 H   0  0  0  0  0  0  0  0  0  0  0  0
   -2.8958    0.2697    0.1780 H   0  0  0  0  0  0  0  0  0  0  0  0
   -2.4141    1.2020   -1.2423 H   0  0  0  0  0  0  0  0  0  0  0  0
   -3.3310    2.4007    1.4253 H   0  0  0  0  0  0  0  0  0  0  0  0
   -2.8873    3.3246   -0.0124 H   0  0  0  0  0  0  0  0  0  0  0  0
   -5.1861    1.2924    0.1261 H   0  0  0  0  0  0  0  0  0  0  0  0
   -4.7470    2.2500   -1.2954 H   0  0  0  0  0  0  0  0  0  0  0  0
   -5.0130    3.9207    0.8663 H   0  0  0  0  0  0  0  0  0  0  0  0
   -5.8990    3.8569   -0.5039 H   0  0  0  0  0  0  0  0  0  0  0  0
    2.2801    0.0233   -0.5171 N   0  0  0  0  0  0  0  0  0  0  0  0
    3.7046    0.1964   -0.3443 C   0  0  2  0  0  0  0  0  0  0  0  0
    4.3356    0.3096   -1.7258 C   0  0  0  0  0  0  0  0  0  0  0  0
    3.9156   -0.3001   -2.7071 O   0  0  0  0  0  0  0  0  0  0  0  0
    4.3114   -0.9583    0.4375 C   0  0  0  0  0  0  0  0  0  0  0  0
    1.9675   -0.4888   -1.3366 H   0  0  0  0  0  0  0  0  0  0  0  0
    3.8451    1.1365    0.2002 H   0  0  0  0  0  0  0  0  0  0  0  0
    4.1803   -1.9087   -0.0925 H   0  0  0  0  0  0  0  0  0  0  0  0
    5.3855   -0.8116    0.5923 H   0  0  0  0  0  0  0  0  0  0  0  0
    3.8358   -1.0568    1.4193 H   0  0  0  0  0  0  0  0  0  0  0  0
    5.4491    1.1379   -1.7246 N   0  0  0  0  0  0  0  0  0  0  0  0
    6.2469    1.3734   -2.9053 C   0  0  0  0  0  0  0  0  0  0  0  0
    5.7017    1.6344   -0.8752 H   0  0  0  0  0  0  0  0  0  0  0  0
    7.0780    0.6534   -2.9365 H   0  0  0  0  0  0  0  0  0  0  0  0
    5.6210    1.2497   -3.8013 H   0  0  0  0  0  0  0  0  0  0  0  0
    6.6494    2.3967   -2.8776 H   0  0  0  0  0  0  0  0  0  0  0  0
  1  3  1  0  0  0  0
  1  7  1  0  0  0  0
  1  2  2  0  0  0  0
 39 40  1  0  0  0  0
 40 48  1  0  0  0  0
 40 41  2  0  0  0  0
  8  9  1  0  0  0  0
  9 17  1  0  0  0  0
  9 10  2  0  0  0  0
 18 19  1  0  0  0  0
 19 38  1  0  0  0  0
 19 20  2  0  0  0  0
 39 42  1  0  0  0  0
  8 11  1  0  0  0  0
 48 49  1  0  0  0  0
 22 23  1  0  0  0  0
 21 22  1  0  0  0  0
 23 24  1  0  0  0  0
 18 21  1  0  0  0  0
 24 25  1  0  0  0  0
 38 39  1  0  0  0  0
  7  8  1  0  0  0  0
 17 18  1  0  0  0  0
  3  4  1  0  0  0  0
  3  5  1  0  0  0  0
  3  6  1  0  0  0  0
 42 45  1  0  0  0  0
 42 46  1  0  0  0  0
 42 47  1  0  0  0  0
 11 14  1  0  0  0  0
 11 15  1  0  0  0  0
 11 16  1  0  0  0  0
 49 51  1  0  0  0  0
 49 52  1  0  0  0  0
 49 53  1  0  0  0  0
 22 30  1  0  0  0  0
 22 31  1  0  0  0  0
 23 32  1  0  0  0  0
 23 33  1  0  0  0  0
 21 28  1  0  0  0  0
 21 29  1  0  0  0  0
 24 34  1  0  0  0  0
 24 35  1  0  0  0  0
 39 44  1  0  0  0  0
  8 13  1  0  0  0  0
 18 27  1  0  0  0  0
 25 36  1  0  0  0  0
 25 37  1  0  0  0  0
 48 50  1  0  0  0  0
  7 12  1  0  0  0  0
 38 43  1  0  0  0  0
 17 26  1  0  0  0  0
M  END
$$$$

  -OEChem-05262214473D

 53 52  0     1  0  0  0  0  0999 V2000
   -1.0338   -5.6785    0.1476 C   0  0  0  0  0  0  0  0  0  0  0  0
   -2.0514   -5.7797    0.8227 O   0  0  0  0  0  0  0  0  0  0  0  0
   -0.6558   -6.7819   -0.7841 C   0  0  0  0  0  0  0  0  0  0  0  0
   -0.0111   -7.5354   -0.3038 H   0  0  0  0  0  0  0  0  0  0  0  0
   -1.5317   -7.3401   -1.1520 H   0  0  0  0  0  0  0  0  0  0  0  0
   -0.1109   -6.4687   -1.6890 H   0  0  0  0  0  0  0  0  0  0  0  0
   -0.1543   -4.6083    0.1480 N   0  0  0  0  0  0  0  0  0  0  0  0
   -0.3302   -3.4398    0.9696 C   0  0  2  0  0  0  0  0  0  0  0  0
    0.2328   -2.2439    0.2131 C   0  0  0  0  0  0  0  0  0  0  0  0
    1.2097   -2.3192   -0.5294 O   0  0  0  0  0  0  0  0  0  0  0  0
    0.3557   -3.6024    2.3171 C   0  0  0  0  0  0  0  0  0  0  0  0
    0.6584   -4.6506   -0.4643 H   0  0  0  0  0  0  0  0  0  0  0  0
   -1.4091   -3.3101    1.1082 H   0  0  0  0  0  0  0  0  0  0  0  0
    1.4375   -3.7336    2.1985 H   0  0  0  0  0  0  0  0  0  0  0  0
    0.1969   -2.7243    2.9517 H   0  0  0  0  0  0  0  0  0  0  0  0
   -0.0294   -4.4803    2.8470 H   0  0  0  0  0  0  0  0  0  0  0  0
   -0.4616   -1.0893    0.5050 N   0  0  0  0  0  0  0  0  0  0  0  0
   -0.0884    0.2050   -0.0621 C   0  0  2  0  0  0  0  0  0  0  0  0
    1.3399    0.5092    0.3810 C   0  0  0  0  0  0  0  0  0  0  0  0
    1.6234    0.8858    1.5165 O   0  0  0  0  0  0  0  0  0  0  0  0
   -1.0192    1.3346    0.4038 C   0  0  0  0  0  0  0  0  0  0  0  0
   -2.4442    1.2140   -0.1462 C   0  0  0  0  0  0  0  0  0  0  0  0
   -3.3212    2.3759    0.3282 C   0  0  0  0  0  0  0  0  0  0  0  0
   -4.7484    2.2422   -0.2003 C   0  0  0  0  0  0  0  0  0  0  0  0
   -5.5722    3.3444    0.2817 N   0  0  0  0  0  0  0  0  0  0  0  0
   -1.2794   -1.1113    1.0935 H   0  0  0  0  0  0  0  0  0  0  0  0
   -0.1153    0.1271   -1.1556 H   0  0  0  0  0  0  0  0  0  0  0  0
   -0.5990    2.2990    0.0894 H   0  0  0  0  0  0  0  0  0  0  0  0
   -1.0505    1.3643    1.5014 H   0  0  0  0  0  0  0  0  0  0  0  0
   -2.8958    0.2697    0.1780 H   0  0  0  0  0  0  0  0  0  0  0  0
   -2.4141    1.2020   -1.2423 H   0  0  0  0  0  0  0  0  0  0  0  0
   -3.3310    2.4007    1.4253 H   0  0  0  0  0  0  0  0  0  0  0  0
   -2.8873    3.3246   -0.0124 H   0  0  0  0  0  0  0  0  0  0  0  0
   -5.1861    1.2924    0.1261 H   0  0  0  0  0  0  0  0  0  0  0  0
   -4.7470    2.2500   -1.2954 H   0  0  0  0  0  0  0  0  0  0  0  0
   -5.0130    3.9207    0.8663 H   0  0  0  0  0  0  0  0  0  0  0  0
   -5.8990    3.8569   -0.5039 H   0  0  0  0  0  0  0  0  0  0  0  0
    2.2550    0.3316   -0.6476 N   0  0  0  0  0  0  0  0  0  0  0  0
    3.6719    0.5736   -0.4982 C   0  0  2  0  0  0  0  0  0  0  0  0
    4.2085    1.0664   -1.8356 C   0  0  0  0  0  0  0  0  0  0  0  0
    3.7725    0.6783   -2.9174 O   0  0  0  0  0  0  0  0  0  0  0  0
    4.4033   -0.6816   -0.0484 C   0  0  0  0  0  0  0  0  0  0  0  0
    1.9290    0.0076   -1.5533 H   0  0  0  0  0  0  0  0  0  0  0  0
    3.7804    1.3635    0.2530 H   0  0  0  0  0  0  0  0  0  0  0  0
    4.3058   -1.4844   -0.7884 H   0  0  0  0  0  0  0  0  0  0  0  0
    5.4721   -0.4894    0.0919 H   0  0  0  0  0  0  0  0  0  0  0  0
    3.9961   -1.0516    0.8988 H   0  0  0  0  0  0  0  0  0  0  0  0
    5.2604    1.9582   -1.6793 N   0  0  0  0  0  0  0  0  0  0  0  0
    5.9668    2.5346   -2.7994 C   0  0  0  0  0  0  0  0  0  0  0  0
    5.5294    2.2549   -0.7458 H   0  0  0  0  0  0  0  0  0  0  0  0
    6.8419    1.9134   -3.0407 H   0  0  0  0  0  0  0  0  0  0  0  0
    5.2974    2.5792   -3.6712 H   0  0  0  0  0  0  0  0  0  0  0  0
    6.2989    3.5506   -2.5397 H   0  0  0  0  0  0  0  0  0  0  0  0
  1  3  1  0  0  0  0
  1  7  1  0  0  0  0
  1  2  2  0  0  0  0
 39 40  1  0  0  0  0
 40 48  1  0  0  0  0
 40 41  2  0  0  0  0
  8  9  1  0  0  0  0
  9 17  1  0  0  0  0
  9 10  2  0  0  0  0
 18 19  1  0  0  0  0
 19 38  1  0  0  0  0
 19 20  2  0  0  0  0
 39 42  1  0  0  0  0
  8 11  1  0  0  0  0
 48 49  1  0  0  0  0
 22 23  1  0  0  0  0
 21 22  1  0  0  0  0
 23 24  1  0  0  0  0
 18 21  1  0  0  0  0
 24 25  1  0  0  0  0
 38 39  1  0  0  0  0
  7  8  1  0  0  0  0
 17 18  1  0  0  0  0
  3  4  1  0  0  0  0
  3  5  1  0  0  0  0
  3  6  1  0  0  0  0
 42 45  1  0  0  0  0
 42 46  1  0  0  0  0
 42 47  1  0  0  0  0
 11 14  1  0  0  0  0
 11 15  1  0  0  0  0
 11 16  1  0  0  0  0
 49 51  1  0  0  0  0
 49 52  1  0  0  0  0
 49 53  1  0  0  0  0
 22 30  1  0  0  0  0
 22 31  1  0  0  0  0
 23 32  1  0  0  0  0
 23 33  1  0  0  0  0
 21 28  1  0  0  0  0
 21 29  1  0  0  0  0
 24 34  1  0  0  0  0
 24 35  1  0  0  0  0
 39 44  1  0  0  0  0
  8 13  1  0  0  0  0
 18 27  1  0  0  0  0
 25 36  1  0  0  0  0
 25 37  1  0  0  0  0
 48 50  1  0  0  0  0
  7 12  1  0  0  0  0
 38 43  1  0  0  0  0
 17 26  1  0  0  0  0
M  END
$$$$

  -OEChem-05262214473D

 53 52  0     1  0  0  0  0  0999 V2000
   -1.0338   -5.6785    0.1476 C   0  0  0  0  0  0  0  0  0  0  0  0
   -2.0514   -5.7797    0.8227 O   0  0  0  0  0  0  0  0  0  0  0  0
   -0.6558   -6.7819   -0.7841 C   0  0  0  0  0  0  0  0  0  0  0  0
   -0.0111   -7.5354   -0.3038 H   0  0  0  0  0  0  0  0  0  0  0  0
   -1.5317   -7.3401   -1.1520 H   0  0  0  0  0  0  0  0  0  0  0  0
   -0.1109   -6.4687   -1.6890 H   0  0  0  0  0  0  0  0  0  0  0  0
   -0.1543   -4.6083    0.1480 N   0  0  0  0  0  0  0  0  0  0  0  0
   -0.3302   -3.4398    0.9696 C   0  0  2  0  0  0  0  0  0  0  0  0
    0.2328   -2.2439    0.2131 C   0  0  0  0  0  0  0  0  0  0  0  0
    1.2097   -2.3192   -0.5294 O   0  0  0  0  0  0  0  0  0  0  0  0
    0.3557   -3.6024    2.3171 C   0  0  0  0  0  0  0  0  0  0  0  0
    0.6584   -4.6506   -0.4643 H   0  0  0  0  0  0  0  0  0  0  0  0
   -1.4091   -3.3101    1.1082 H   0  0  0  0  0  0  0  0  0  0  0  0
    1.4375   -3.7336    2.1985 H   0  0  0  0  0  0  0  0  0  0  0  0
    0.1969   -2.7243    2.9517 H   0  0  0  0  0  0  0  0  0  0  0  0
   -0.0294   -4.4803    2.8470 H   0  0  0  0  0  0  0  0  0  0  0  0
   -0.4616   -1.0893    0.5050 N   0  0  0  0  0  0  0  0  0  0  0  0
   -0.0884    0.2050   -0.0621 C   0  0  2  0  0  0  0  0  0  0  0  0
    1.3399    0.5092    0.3810 C   0  0  0  0  0  0  0  0  0  0  0  0
    1.6654    0.6237    1.5610 O   0  0  0  0  0  0  0  0  0  0  0  0
   -1.0192    1.3346    0.4038 C   0  0  0  0  0  0  0  0  0  0  0  0
   -2.4442    1.2140   -0.1462 C   0  0  0  0  0  0  0  0  0  0  0  0
   -3.3212    2.3759    0.3282 C   0  0  0  0  0  0  0  0  0  0  0  0
   -4.7484    2.2422   -0.2003 C   0  0  0  0  0  0  0  0  0  0  0  0
   -5.5722    3.3444    0.2817 N   0  0  0  0  0  0  0  0  0  0  0  0
   -1.2794   -1.1113    1.0935 H   0  0  0  0  0  0  0  0  0  0  0  0
   -0.1153    0.1271   -1.1556 H   0  0  0  0  0  0  0  0  0  0  0  0
   -0.5990    2.2990    0.0894 H   0  0  0  0  0  0  0  0  0  0  0  0
   -1.0505    1.3643    1.5014 H   0  0  0  0  0  0  0  0  0  0  0  0
   -2.8958    0.2697    0.1780 H   0  0  0  0  0  0  0  0  0  0  0  0
   -2.4141    1.2020   -1.2423 H   0  0  0  0  0  0  0  0  0  0  0  0
   -3.3310    2.4007    1.4253 H   0  0  0  0  0  0  0  0  0  0  0  0
   -2.8873    3.3246   -0.0124 H   0  0  0  0  0  0  0  0  0  0  0  0
   -5.1861    1.2924    0.1261 H   0  0  0  0  0  0  0  0  0  0  0  0
   -4.7470    2.2500   -1.2954 H   0  0  0  0  0  0  0  0  0  0  0  0
   -5.0130    3.9207    0.8663 H   0  0  0  0  0  0  0  0  0  0  0  0
   -5.8990    3.8569   -0.5039 H   0  0  0  0  0  0  0  0  0  0  0  0
    2.2007    0.6591   -0.6976 N   0  0  0  0  0  0  0  0  0  0  0  0
    3.6042    0.9728   -0.5537 C   0  0  2  0  0  0  0  0  0  0  0  0
    4.0231    1.8146   -1.7518 C   0  0  0  0  0  0  0  0  0  0  0  0
    3.5499    1.6635   -2.8762 O   0  0  0  0  0  0  0  0  0  0  0  0
    4.4461   -0.2898   -0.4555 C   0  0  0  0  0  0  0  0  0  0  0  0
    1.8433    0.5368   -1.6404 H   0  0  0  0  0  0  0  0  0  0  0  0
    3.7035    1.5653    0.3623 H   0  0  0  0  0  0  0  0  0  0  0  0
    4.3593   -0.8964   -1.3643 H   0  0  0  0  0  0  0  0  0  0  0  0
    5.5057   -0.0504   -0.3179 H   0  0  0  0  0  0  0  0  0  0  0  0
    4.1238   -0.9085    0.3890 H   0  0  0  0  0  0  0  0  0  0  0  0
    5.0188    2.7253   -1.4271 N   0  0  0  0  0  0  0  0  0  0  0  0
    5.6144    3.6096   -2.4014 C   0  0  0  0  0  0  0  0  0  0  0  0
    5.3231    2.8099   -0.4617 H   0  0  0  0  0  0  0  0  0  0  0  0
    6.5139    3.1380   -2.8239 H   0  0  0  0  0  0  0  0  0  0  0  0
    4.8917    3.8077   -3.2068 H   0  0  0  0  0  0  0  0  0  0  0  0
    5.8910    4.5570   -1.9158 H   0  0  0  0  0  0  0  0  0  0  0  0
  1  3  1  0  0  0  0
  1  7  1  0  0  0  0
  1  2  2  0  0  0  0
 39 40  1  0  0  0  0
 40 48  1  0  0  0  0
 40 41  2  0  0  0  0
  8  9  1  0  0  0  0
  9 17  1  0  0  0  0
  9 10  2  0  0  0  0
 18 19  1  0  0  0  0
 19 38  1  0  0  0  0
 19 20  2  0  0  0  0
 39 42  1  0  0  0  0
  8 11  1  0  0  0  0
 48 49  1  0  0  0  0
 22 23  1  0  0  0  0
 21 22  1  0  0  0  0
 23 24  1  0  0  0  0
 18 21  1  0  0  0  0
 24 25  1  0  0  0  0
 38 39  1  0  0  0  0
  7  8  1  0  0  0  0
 17 18  1  0  0  0  0
  3  4  1  0  0  0  0
  3  5  1  0  0  0  0
  3  6  1  0  0  0  0
 42 45  1  0  0  0  0
 42 46  1  0  0  0  0
 42 47  1  0  0  0  0
 11 14  1  0  0  0  0
 11 15  1  0  0  0  0
 11 16  1  0  0  0  0
 49 51  1  0  0  0  0
 49 52  1  0  0  0  0
 49 53  1  0  0  0  0
 22 30  1  0  0  0  0
 22 31  1  0  0  0  0
 23 32  1  0  0  0  0
 23 33  1  0  0  0  0
 21 28  1  0  0  0  0
 21 29  1  0  0  0  0
 24 34  1  0  0  0  0
 24 35  1  0  0  0  0
 39 44  1  0  0  0  0
  8 13  1  0  0  0  0
 18 27  1  0  0  0  0
 25 36  1  0  0  0  0
 25 37  1  0  0  0  0
 48 50  1  0  0  0  0
  7 12  1  0  0  0  0
 38 43  1  0  0  0  0
 17 26  1  0  0  0  0
M  END
$$$$

  -OEChem-05262214473D

 53 52  0     1  0  0  0  0  0999 V2000
   -1.0338   -5.6785    0.1476 C   0  0  0  0  0  0  0  0  0  0  0  0
   -2.0514   -5.7797    0.8227 O   0  0  0  0  0  0  0  0  0  0  0  0
   -0.6558   -6.7819   -0.7841 C   0  0  0  0  0  0  0  0  0  0  0  0
   -0.0111   -7.5354   -0.3038 H   0  0  0  0  0  0  0  0  0  0  0  0
   -1.5317   -7.3401   -1.1520 H   0  0  0  0  0  0  0  0  0  0  0  0
   -0.1109   -6.4687   -1.6890 H   0  0  0  0  0  0  0  0  0  0  0  0
   -0.1543   -4.6083    0.1480 N   0  0  0  0  0  0  0  0  0  0  0  0
   -0.3302   -3.4398    0.9696 C   0  0  2  0  0  0  0  0  0  0  0  0
    0.2328   -2.2439    0.2131 C   0  0  0  0  0  0  0  0  0  0  0  0
    1.2097   -2.3192   -0.5294 O   0  0  0  0  0  0  0  0  0  0  0  0
    0.3557   -3.6024    2.3171 C   0  0  0  0  0  0  0  0  0  0  0  0
    0.6584   -4.6506   -0.4643 H   0  0  0  0  0  0  0  0  0  0  0  0
   -1.4091   -3.3101    1.1082 H   0  0  0  0  0  0  0  0  0  0  0  0
    1.4375   -3.7336    2.1985 H   0  0  0  0  0  0  0  0  0  0  0  0
    0.1969   -2.7243    2.9517 H   0  0  0  0  0  0  0  0  0  0  0  0
   -0.0294   -4.4803    2.8470 H   0  0  0  0  0  0  0  0  0  0  0  0
   -0.4616   -1.0893    0.5050 N   0  0  0  0  0  0  0  0  0  0  0  0
   -0.0884    0.2050   -0.0621 C   0  0  2  0  0  0  0  0  0  0  0  0
    1.3399    0.5092    0.3810 C   0  0  0  0  0  0  0  0  0  0  0  0
    1.7279    0.3630    1.5384 O   0  0  0  0  0  0  0  0  0  0  0  0
   -1.0192    1.3346    0.4038 C   0  0  0  0  0  0  0  0  0  0  0  0
   -2.4442    1.2140   -0.1462 C   0  0  0  0  0  0  0  0  0  0  0  0
   -3.3212    2.3759    0.3282 C   0  0  0  0  0  0  0  0  0  0  0  0
   -4.7484    2.2422   -0.2003 C   0  0  0  0  0  0  0  0  0  0  0  0
   -5.5722    3.3444    0.2817 N   0  0  0  0  0  0  0  0  0  0  0  0
   -1.2794   -1.1113    1.0935 H   0  0  0  0  0  0  0  0  0  0  0  0
   -0.1153    0.1271   -1.1556 H   0  0  0  0  0  0  0  0  0  0  0  0
   -0.5990    2.2990    0.0894 H   0  0  0  0  0  0  0  0  0  0  0  0
   -1.0505    1.3643    1.5014 H   0  0  0  0  0  0  0  0  0  0  0  0
   -2.8958    0.2697    0.1780 H   0  0  0  0  0  0  0  0  0  0  0  0
   -2.4141    1.2020   -1.2423 H   0  0  0  0  0  0  0  0  0  0  0  0
   -3.3310    2.4007    1.4253 H   0  0  0  0  0  0  0  0  0  0  0  0
   -2.8873    3.3246   -0.0124 H   0  0  0  0  0  0  0  0  0  0  0  0
   -5.1861    1.2924    0.1261 H   0  0  0  0  0  0  0  0  0  0  0  0
   -4.7470    2.2500   -1.2954 H   0  0  0  0  0  0  0  0  0  0  0  0
   -5.0130    3.9207    0.8663 H   0  0  0  0  0  0  0  0  0  0  0  0
   -5.8990    3.8569   -0.5039 H   0  0  0  0  0  0  0  0  0  0  0  0
    2.1211    0.9835   -0.6638 N   0  0  0  0  0  0  0  0  0  0  0  0
    3.5058    1.3667   -0.5072 C   0  0  2  0  0  0  0  0  0  0  0  0
    3.7922    2.5030   -1.4800 C   0  0  0  0  0  0  0  0  0  0  0  0
    3.2629    2.5884   -2.5862 O   0  0  0  0  0  0  0  0  0  0  0  0
    4.4371    0.1905   -0.7560 C   0  0  0  0  0  0  0  0  0  0  0  0
    1.7163    1.0626   -1.5919 H   0  0  0  0  0  0  0  0  0  0  0  0
    3.6198    1.7278    0.5207 H   0  0  0  0  0  0  0  0  0  0  0  0
    4.3370   -0.1850   -1.7809 H   0  0  0  0  0  0  0  0  0  0  0  0
    5.4841    0.4753   -0.6091 H   0  0  0  0  0  0  0  0  0  0  0  0
    4.2100   -0.6371   -0.0753 H   0  0  0  0  0  0  0  0  0  0  0  0
    4.7408    3.3871   -0.9852 N   0  0  0  0  0  0  0  0  0  0  0  0
    5.2137    4.5251   -1.7384 C   0  0  0  0  0  0  0  0  0  0  0  0
    5.0967    3.2618   -0.0422 H   0  0  0  0  0  0  0  0  0  0  0  0
    6.1162    4.2437   -2.3009 H   0  0  0  0  0  0  0  0  0  0  0  0
    4.4315    4.8512   -2.4397 H   0  0  0  0  0  0  0  0  0  0  0  0
    5.4535    5.3474   -1.0483 H   0  0  0  0  0  0  0  0  0  0  0  0
  1  3  1  0  0  0  0
  1  7  1  0  0  0  0
  1  2  2  0  0  0  0
 39 40  1  0  0  0  0
 40 48  1  0  0  0  0
 40 41  2  0  0  0  0
  8  9  1  0  0  0  0
  9 17  1  0  0  0  0
  9 10  2  0  0  0  0
 18 19  1  0  0  0  0
 19 38  1  0  0  0  0
 19 20  2  0  0  0  0
 39 42  1  0  0  0  0
  8 11  1  0  0  0  0
 48 49  1  0  0  0  0
 22 23  1  0  0  0  0
 21 22  1  0  0  0  0
 23 24  1  0  0  0  0
 18 21  1  0  0  0  0
 24 25  1  0  0  0  0
 38 39  1  0  0  0  0
  7  8  1  0  0  0  0
 17 18  1  0  0  0  0
  3  4  1  0  0  0  0
  3  5  1  0  0  0  0
  3  6  1  0  0  0  0
 42 45  1  0  0  0  0
 42 46  1  0  0  0  0
 42 47  1  0  0  0  0
 11 14  1  0  0  0  0
 11 15  1  0  0  0  0
 11 16  1  0  0  0  0
 49 51  1  0  0  0  0
 49 52  1  0  0  0  0
 49 53  1  0  0  0  0
 22 30  1  0  0  0  0
 22 31  1  0  0  0  0
 23 32  1  0  0  0  0
 23 33  1  0  0  0  0
 21 28  1  0  0  0  0
 21 29  1  0  0  0  0
 24 34  1  0  0  0  0
 24 35  1  0  0  0  0
 39 44  1  0  0  0  0
  8 13  1  0  0  0  0
 18 27  1  0  0  0  0
 25 36  1  0  0  0  0
 25 37  1  0  0  0  0
 48 50  1  0  0  0  0
  7 12  1  0  0  0  0
 38 43  1  0  0  0  0
 17 26  1  0  0  0  0
M  END
$$$$

  -OEChem-05262214473D

 53 52  0     1  0  0  0  0  0999 V2000
   -1.0338   -5.6785    0.1476 C   0  0  0  0  0  0  0  0  0  0  0  0
   -2.0514   -5.7797    0.8227 O   0  0  0  0  0  0  0  0  0  0  0  0
   -0.6558   -6.7819   -0.7841 C   0  0  0  0  0  0  0  0  0  0  0  0
   -0.0111   -7.5354   -0.3038 H   0  0  0  0  0  0  0  0  0  0  0  0
   -1.5317   -7.3401   -1.1520 H   0  0  0  0  0  0  0  0  0  0  0  0
   -0.1109   -6.4687   -1.6890 H   0  0  0  0  0  0  0  0  0  0  0  0
   -0.1543   -4.6083    0.1480 N   0  0  0  0  0  0  0  0  0  0  0  0
   -0.3302   -3.4398    0.9696 C   0  0  2  0  0  0  0  0  0  0  0  0
    0.2328   -2.2439    0.2131 C   0  0  0  0  0  0  0  0  0  0  0  0
    1.2097   -2.3192   -0.5294 O   0  0  0  0  0  0  0  0  0  0  0  0
    0.3557   -3.6024    2.3171 C   0  0  0  0  0  0  0  0  0  0  0  0
    0.6584   -4.6506   -0.4643 H   0  0  0  0  0  0  0  0  0  0  0  0
   -1.4091   -3.3101    1.1082 H   0  0  0  0  0  0  0  0  0  0  0  0
    1.4375   -3.7336    2.1985 H   0  0  0  0  0  0  0  0  0  0  0  0
    0.1969   -2.7243    2.9517 H   0  0  0  0  0  0  0  0  0  0  0  0
   -0.0294   -4.4803    2.8470 H   0  0  0  0  0  0  0  0  0  0  0  0
   -0.4616   -1.0893    0.5050 N   0  0  0  0  0  0  0  0  0  0  0  0
   -0.0884    0.2050   -0.0621 C   0  0  2  0  0  0  0  0  0  0  0  0
    1.3399    0.5092    0.3810 C   0  0  0  0  0  0  0  0  0  0  0  0
    1.8068    0.1213    1.4501 O   0  0  0  0  0  0  0  0  0  0  0  0
   -1.0192    1.3346    0.4038 C   0  0  0  0  0  0  0  0  0  0  0  0
   -2.4442    1.2140   -0.1462 C   0  0  0  0  0  0  0  0  0  0  0  0
   -3.3212    2.3759    0.3282 C   0  0  0  0  0  0  0  0  0  0  0  0
   -4.7484    2.2422   -0.2003 C   0  0  0  0  0  0  0  0  0  0  0  0
   -5.5722    3.3444    0.2817 N   0  0  0  0  0  0  0  0  0  0  0  0
   -1.2794   -1.1113    1.0935 H   0  0  0  0  0  0  0  0  0  0  0  0
   -0.1153    0.1271   -1.1556 H   0  0  0  0  0  0  0  0  0  0  0  0
   -0.5990    2.2990    0.0894 H   0  0  0  0  0  0  0  0  0  0  0  0
   -1.0505    1.3643    1.5014 H   0  0  0  0  0  0  0  0  0  0  0  0
   -2.8958    0.2697    0.1780 H   0  0  0  0  0  0  0  0  0  0  0  0
   -2.4141    1.2020   -1.2423 H   0  0  0  0  0  0  0  0  0  0  0  0
   -3.3310    2.4007    1.4253 H   0  0  0  0  0  0  0  0  0  0  0  0
   -2.8873    3.3246   -0.0124 H   0  0  0  0  0  0  0  0  0  0  0  0
   -5.1861    1.2924    0.1261 H   0  0  0  0  0  0  0  0  0  0  0  0
   -4.7470    2.2500   -1.2954 H   0  0  0  0  0  0  0  0  0  0  0  0
   -5.0130    3.9207    0.8663 H   0  0  0  0  0  0  0  0  0  0  0  0
   -5.8990    3.8569   -0.5039 H   0  0  0  0  0  0  0  0  0  0  0  0
    2.0216    1.2827   -0.5484 N   0  0  0  0  0  0  0  0  0  0  0  0
    3.3837    1.7286   -0.3618 C   0  0  2  0  0  0  0  0  0  0  0  0
    3.5315    3.0848   -1.0389 C   0  0  0  0  0  0  0  0  0  0  0  0
    2.9312    3.3900   -2.0673 O   0  0  0  0  0  0  0  0  0  0  0  0
    4.3767    0.7265   -0.9295 C   0  0  0  0  0  0  0  0  0  0  0  0
    1.5566    1.5492   -1.4111 H   0  0  0  0  0  0  0  0  0  0  0  0
    3.5348    1.8402    0.7175 H   0  0  0  0  0  0  0  0  0  0  0  0
    4.2406    0.6014   -2.0099 H   0  0  0  0  0  0  0  0  0  0  0  0
    5.4087    1.0521   -0.7619 H   0  0  0  0  0  0  0  0  0  0  0  0
    4.2490   -0.2561   -0.4625 H   0  0  0  0  0  0  0  0  0  0  0  0
    4.4453    3.8983   -0.3838 N   0  0  0  0  0  0  0  0  0  0  0  0
    4.7921    5.2186   -0.8556 C   0  0  0  0  0  0  0  0  0  0  0  0
    4.8657    3.5796    0.4842 H   0  0  0  0  0  0  0  0  0  0  0  0
    5.6759    5.1552   -1.5074 H   0  0  0  0  0  0  0  0  0  0  0  0
    3.9481    5.6388   -1.4222 H   0  0  0  0  0  0  0  0  0  0  0  0
    5.0164    5.8677    0.0037 H   0  0  0  0  0  0  0  0  0  0  0  0
  1  3  1  0  0  0  0
  1  7  1  0  0  0  0
  1  2  2  0  0  0  0
 39 40  1  0  0  0  0
 40 48  1  0  0  0  0
 40 41  2  0  0  0  0
  8  9  1  0  0  0  0
  9 17  1  0  0  0  0
  9 10  2  0  0  0  0
 18 19  1  0  0  0  0
 19 38  1  0  0  0  0
 19 20  2  0  0  0  0
 39 42  1  0  0  0  0
  8 11  1  0  0  0  0
 48 49  1  0  0  0  0
 22 23  1  0  0  0  0
 21 22  1  0  0  0  0
 23 24  1  0  0  0  0
 18 21  1  0  0  0  0
 24 25  1  0  0  0  0
 38 39  1  0  0  0  0
  7  8  1  0  0  0  0
 17 18  1  0  0  0  0
  3  4  1  0  0  0  0
  3  5  1  0  0  0  0
  3  6  1  0  0  0  0
 42 45  1  0  0  0  0
 42 46  1  0  0  0  0
 42 47  1  0  0  0  0
 11 14  1  0  0  0  0
 11 15  1  0  0  0  0
 11 16  1  0  0  0  0
 49 51  1  0  0  0  0
 49 52  1  0  0  0  0
 49 53  1  0  0  0  0
 22 30  1  0  0  0  0
 22 31  1  0  0  0  0
 23 32  1  0  0  0  0
 23 33  1  0  0  0  0
 21 28  1  0  0  0  0
 21 29  1  0  0  0  0
 24 34  1  0  0  0  0
 24 35  1  0  0  0  0
 39 44  1  0  0  0  0
  8 13  1  0  0  0  0
 18 27  1  0  0  0  0
 25 36  1  0  0  0  0
 25 37  1  0  0  0  0
 48 50  1  0  0  0  0
  7 12  1  0  0  0  0
 38 43  1  0  0  0  0
 17 26  1  0  0  0  0
M  END
$$$$

  -OEChem-05262214473D

 53 52  0     1  0  0  0  0  0999 V2000
   -1.0338   -5.6785    0.1476 C   0  0  0  0  0  0  0  0  0  0  0  0
   -2.0514   -5.7797    0.8227 O   0  0  0  0  0  0  0  0  0  0  0  0
   -0.6558   -6.7819   -0.7841 C   0  0  0  0  0  0  0  0  0  0  0  0
   -0.0111   -7.5354   -0.3038 H   0  0  0  0  0  0  0  0  0  0  0  0
   -1.5317   -7.3401   -1.1520 H   0  0  0  0  0  0  0  0  0  0  0  0
   -0.1109   -6.4687   -1.6890 H   0  0  0  0  0  0  0  0  0  0  0  0
   -0.1543   -4.6083    0.1480 N   0  0  0  0  0  0  0  0  0  0  0  0
   -0.3302   -3.4398    0.9696 C   0  0  2  0  0  0  0  0  0  0  0  0
    0.2328   -2.2439    0.2131 C   0  0  0  0  0  0  0  0  0  0  0  0
    1.2097   -2.3192   -0.5294 O   0  0  0  0  0  0  0  0  0  0  0  0
    0.3557   -3.6024    2.3171 C   0  0  0  0  0  0  0  0  0  0  0  0
    0.6584   -4.6506   -0.4643 H   0  0  0  0  0  0  0  0  0  0  0  0
   -1.4091   -3.3101    1.1082 H   0  0  0  0  0  0  0  0  0  0  0  0
    1.4375   -3.7336    2.1985 H   0  0  0  0  0  0  0  0  0  0  0  0
    0.1969   -2.7243    2.9517 H   0  0  0  0  0  0  0  0  0  0  0  0
   -0.0294   -4.4803    2.8470 H   0  0  0  0  0  0  0  0  0  0  0  0
   -0.4616   -1.0893    0.5050 N   0  0  0  0  0  0  0  0  0  0  0  0
   -0.0884    0.2050   -0.0621 C   0  0  2  0  0  0  0  0  0  0  0  0
    1.3399    0.5092    0.3810 C   0  0  0  0  0  0  0  0  0  0  0  0
    1.8965   -0.0848    1.3023 O   0  0  0  0  0  0  0  0  0  0  0  0
   -1.0192    1.3346    0.4038 C   0  0  0  0  0  0  0  0  0  0  0  0
   -2.4442    1.2140   -0.1462 C   0  0  0  0  0  0  0  0  0  0  0  0
   -3.3212    2.3759    0.3282 C   0  0  0  0  0  0  0  0  0  0  0  0
   -4.7484    2.2422   -0.2003 C   0  0  0  0  0  0  0  0  0  0  0  0
   -5.5722    3.3444    0.2817 N   0  0  0  0  0  0  0  0  0  0  0  0
   -1.2794   -1.1113    1.0935 H   0  0  0  0  0  0  0  0  0  0  0  0
   -0.1153    0.1271   -1.1556 H   0  0  0  0  0  0  0  0  0  0  0  0
   -0.5990    2.2990    0.0894 H   0  0  0  0  0  0  0  0  0  0  0  0
   -1.0505    1.3643    1.5014 H   0  0  0  0  0  0  0  0  0  0  0  0
   -2.8958    0.2697    0.1780 H   0  0  0  0  0  0  0  0  0  0  0  0
   -2.4141    1.2020   -1.2423 H   0  0  0  0  0  0  0  0  0  0  0  0
   -3.3310    2.4007    1.4253 H   0  0  0  0  0  0  0  0  0  0  0  0
   -2.8873    3.3246   -0.0124 H   0  0  0  0  0  0  0  0  0  0  0  0
   -5.1861    1.2924    0.1261 H   0  0  0  0  0  0  0  0  0  0  0  0
   -4.7470    2.2500   -1.2954 H   0  0  0  0  0  0  0  0  0  0  0  0
   -5.0130    3.9207    0.8663 H   0  0  0  0  0  0  0  0  0  0  0  0
   -5.8990    3.8569   -0.5039 H   0  0  0  0  0  0  0  0  0  0  0  0
    1.9090    1.5362   -0.3594 N   0  0  0  0  0  0  0  0  0  0  0  0
    3.2459    2.0337   -0.1273 C   0  0  2  0  0  0  0  0  0  0  0  0
    3.2586    3.5203   -0.4584 C   0  0  0  0  0  0  0  0  0  0  0  0
    2.5773    4.0137   -1.3547 O   0  0  0  0  0  0  0  0  0  0  0  0
    4.2692    1.2818   -0.9641 C   0  0  0  0  0  0  0  0  0  0  0  0
    1.3751    1.9634   -1.1104 H   0  0  0  0  0  0  0  0  0  0  0  0
    3.4544    1.8947    0.9391 H   0  0  0  0  0  0  0  0  0  0  0  0
    4.0765    1.4093   -2.0356 H   0  0  0  0  0  0  0  0  0  0  0  0
    5.2846    1.6405   -0.7659 H   0  0  0  0  0  0  0  0  0  0  0  0
    4.2380    0.2087   -0.7462 H   0  0  0  0  0  0  0  0  0  0  0  0
    4.1525    4.2243    0.3363 N   0  0  0  0  0  0  0  0  0  0  0  0
    4.3783    5.6430    0.1870 C   0  0  0  0  0  0  0  0  0  0  0  0
    4.6459    3.7417    1.0815 H   0  0  0  0  0  0  0  0  0  0  0  0
    5.2231    5.8103   -0.4975 H   0  0  0  0  0  0  0  0  0  0  0  0
    3.4745    6.1168   -0.2236 H   0  0  0  0  0  0  0  0  0  0  0  0
    4.6092    6.0827    1.1685 H   0  0  0  0  0  0  0  0  0  0  0  0
  1  3  1  0  0  0  0
  1  7  1  0  0  0  0
  1  2  2  0  0  0  0
 39 40  1  0  0  0  0
 40 48  1  0  0  0  0
 40 41  2  0  0  0  0
  8  9  1  0  0  0  0
  9 17  1  0  0  0  0
  9 10  2  0  0  0  0
 18 19  1  0  0  0  0
 19 38  1  0  0  0  0
 19 20  2  0  0  0  0
 39 42  1  0  0  0  0
  8 11  1  0  0  0  0
 48 49  1  0  0  0  0
 22 23  1  0  0  0  0
 21 22  1  0  0  0  0
 23 24  1  0  0  0  0
 18 21  1  0  0  0  0
 24 25  1  0  0  0  0
 38 39  1  0  0  0  0
  7  8  1  0  0  0  0
 17 18  1  0  0  0  0
  3  4  1  0  0  0  0
  3  5  1  0  0  0  0
  3  6  1  0  0  0  0
 42 45  1  0  0  0  0
 42 46  1  0  0  0  0
 42 47  1  0  0  0  0
 11 14  1  0  0  0  0
 11 15  1  0  0  0  0
 11 16  1  0  0  0  0
 49 51  1  0  0  0  0
 49 52  1  0  0  0  0
 49 53  1  0  0  0  0
 22 30  1  0  0  0  0
 22 31  1  0  0  0  0
 23 32  1  0  0  0  0
 23 33  1  0  0  0  0
 21 28  1  0  0  0  0
 21 29  1  0  0  0  0
 24 34  1  0  0  0  0
 24 35  1  0  0  0  0
 39 44  1  0  0  0  0
  8 13  1  0  0  0  0
 18 27  1  0  0  0  0
 25 36  1  0  0  0  0
 25 37  1  0  0  0  0
 48 50  1  0  0  0  0
  7 12  1  0  0  0  0
 38 43  1  0  0  0  0
 17 26  1  0  0  0  0
M  END
$$$$

  -OEChem-05262214473D

 53 52  0     1  0  0  0  0  0999 V2000
   -1.0338   -5.6785    0.1476 C   0  0  0  0  0  0  0  0  0  0  0  0
   -2.0514   -5.7797    0.8227 O   0  0  0  0  0  0  0  0  0  0  0  0
   -0.6558   -6.7819   -0.7841 C   0  0  0  0  0  0  0  0  0  0  0  0
   -0.0111   -7.5354   -0.3038 H   0  0  0  0  0  0  0  0  0  0  0  0
   -1.5317   -7.3401   -1.1520 H   0  0  0  0  0  0  0  0  0  0  0  0
   -0.1109   -6.4687   -1.6890 H   0  0  0  0  0  0  0  0  0  0  0  0
   -0.1543   -4.6083    0.1480 N   0  0  0  0  0  0  0  0  0  0  0  0
   -0.3302   -3.4398    0.9696 C   0  0  2  0  0  0  0  0  0  0  0  0
    0.2328   -2.2439    0.2131 C   0  0  0  0  0  0  0  0  0  0  0  0
    1.2097   -2.3192   -0.5294 O   0  0  0  0  0  0  0  0  0  0  0  0
    0.3557   -3.6024    2.3171 C   0  0  0  0  0  0  0  0  0  0  0  0
    0.6584   -4.6506   -0.4643 H   0  0  0  0  0  0  0  0  0  0  0  0
   -1.4091   -3.3101    1.1082 H   0  0  0  0  0  0  0  0  0  0  0  0
    1.4375   -3.7336    2.1985 H   0  0  0  0  0  0  0  0  0  0  0  0
    0.1969   -2.7243    2.9517 H   0  0  0  0  0  0  0  0  0  0  0  0
   -0.0294   -4.4803    2.8470 H   0  0  0  0  0  0  0  0  0  0  0  0
   -0.4616   -1.0893    0.5050 N   0  0  0  0  0  0  0  0  0  0  0  0
   -0.0884    0.2050   -0.0621 C   0  0  2  0  0  0  0  0  0  0  0  0
    1.4274    0.3401    0.0525 C   0  0  0  0  0  0  0  0  0  0  0  0
    2.1401   -0.5217    0.5632 O   0  0  0  0  0  0  0  0  0  0  0  0
   -0.7622    1.3763    0.6683 C   0  0  0  0  0  0  0  0  0  0  0  0
   -2.2790    1.4316    0.4591 C   0  0  0  0  0  0  0  0  0  0  0  0
   -2.8954    2.6293    1.1869 C   0  0  0  0  0  0  0  0  0  0  0  0
   -4.4109    2.6700    0.9983 C   0  0  0  0  0  0  0  0  0  0  0  0
   -4.9804    3.8030    1.7179 N   0  0  0  0  0  0  0  0  0  0  0  0
   -1.2794   -1.1113    1.0935 H   0  0  0  0  0  0  0  0  0  0  0  0
   -0.3698    0.2153   -1.1219 H   0  0  0  0  0  0  0  0  0  0  0  0
   -0.3221    2.3192    0.3177 H   0  0  0  0  0  0  0  0  0  0  0  0
   -0.5414    1.3234    1.7430 H   0  0  0  0  0  0  0  0  0  0  0  0
   -2.7451    0.5108    0.8275 H   0  0  0  0  0  0  0  0  0  0  0  0
   -2.4987    1.5021   -0.6130 H   0  0  0  0  0  0  0  0  0  0  0  0
   -2.6544    2.5695    2.2558 H   0  0  0  0  0  0  0  0  0  0  0  0
   -2.4497    3.5573    0.8068 H   0  0  0  0  0  0  0  0  0  0  0  0
   -4.8636    1.7424    1.3655 H   0  0  0  0  0  0  0  0  0  0  0  0
   -4.6560    2.7629   -0.0650 H   0  0  0  0  0  0  0  0  0  0  0  0
   -4.2447    4.2778    2.1869 H   0  0  0  0  0  0  0  0  0  0  0  0
   -5.4188    4.4032    1.0589 H   0  0  0  0  0  0  0  0  0  0  0  0
    1.8849    1.5452   -0.4625 N   0  0  0  0  0  0  0  0  0  0  0  0
    3.2775    1.9316   -0.4570 C   0  0  2  0  0  0  0  0  0  0  0  0
    3.3449    3.4458   -0.3084 C   0  0  0  0  0  0  0  0  0  0  0  0
    2.5089    4.2053   -0.7936 O   0  0  0  0  0  0  0  0  0  0  0  0
    3.9825    1.4781   -1.7259 C   0  0  0  0  0  0  0  0  0  0  0  0
    1.2213    2.1942   -0.8747 H   0  0  0  0  0  0  0  0  0  0  0  0
    3.7338    1.4574    0.4187 H   0  0  0  0  0  0  0  0  0  0  0  0
    3.5391    1.9428   -2.6140 H   0  0  0  0  0  0  0  0  0  0  0  0
    5.0440    1.7465   -1.7076 H   0  0  0  0  0  0  0  0  0  0  0  0
    3.9075    0.3920   -1.8465 H   0  0  0  0  0  0  0  0  0  0  0  0
    4.4715    3.8517    0.3930 N   0  0  0  0  0  0  0  0  0  0  0  0
    4.7836    5.2419    0.6298 C   0  0  0  0  0  0  0  0  0  0  0  0
    5.0895    3.1523    0.7939 H   0  0  0  0  0  0  0  0  0  0  0  0
    5.4406    5.6122   -0.1710 H   0  0  0  0  0  0  0  0  0  0  0  0
    3.8537    5.8294    0.6420 H   0  0  0  0  0  0  0  0  0  0  0  0
    5.2941    5.3430    1.5989 H   0  0  0  0  0  0  0  0  0  0  0  0
  1  3  1  0  0  0  0
  1  7  1  0  0  0  0
  1  2  2  0  0  0  0
 39 40  1  0  0  0  0
 40 48  1  0  0  0  0
 40 41  2  0  0  0  0
  8  9  1  0  0  0  0
  9 17  1  0  0  0  0
  9 10  2  0  0  0  0
 18 19  1  0  0  0  0
 19 38  1  0  0  0  0
 19 20  2  0  0  0  0
 39 42  1  0  0  0  0
  8 11  1  0  0  0  0
 48 49  1  0  0  0  0
 22 23  1  0  0  0  0
 21 22  1  0  0  0  0
 23 24  1  0  0  0  0
 18 21  1  0  0  0  0
 24 25  1  0  0  0  0
 38 39  1  0  0  0  0
  7  8  1  0  0  0  0
 17 18  1  0  0  0  0
  3  4  1  0  0  0  0
  3  5  1  0  0  0  0
  3  6  1  0  0  0  0
 42 45  1  0  0  0  0
 42 46  1  0  0  0  0
 42 47  1  0  0  0  0
 11 14  1  0  0  0  0
 11 15  1  0  0  0  0
 11 16  1  0  0  0  0
 49 51  1  0  0  0  0
 49 52  1  0  0  0  0
 49 53  1  0  0  0  0
 22 30  1  0  0  0  0
 22 31  1  0  0  0  0
 23 32  1  0  0  0  0
 23 33  1  0  0  0  0
 21 28  1  0  0  0  0
 21 29  1  0  0  0  0
 24 34  1  0  0  0  0
 24 35  1  0  0  0  0
 39 44  1  0  0  0  0
  8 13  1  0  0  0  0
 18 27  1  0  0  0  0
 25 36  1  0  0  0  0
 25 37  1  0  0  0  0
 48 50  1  0  0  0  0
  7 12  1  0  0  0  0
 38 43  1  0  0  0  0
 17 26  1  0  0  0  0
M  END
$$$$

  -OEChem-05262214473D

 53 52  0     1  0  0  0  0  0999 V2000
   -1.0338   -5.6785    0.1476 C   0  0  0  0  0  0  0  0  0  0  0  0
   -2.0514   -5.7797    0.8227 O   0  0  0  0  0  0  0  0  0  0  0  0
   -0.6558   -6.7819   -0.7841 C   0  0  0  0  0  0  0  0  0  0  0  0
   -0.0111   -7.5354   -0.3038 H   0  0  0  0  0  0  0  0  0  0  0  0
   -1.5317   -7.3401   -1.1520 H   0  0  0  0  0  0  0  0  0  0  0  0
   -0.1109   -6.4687   -1.6890 H   0  0  0  0  0  0  0  0  0  0  0  0
   -0.1543   -4.6083    0.1480 N   0  0  0  0  0  0  0  0  0  0  0  0
   -0.3302   -3.4398    0.9696 C   0  0  2  0  0  0  0  0  0  0  0  0
    0.2328   -2.2439    0.2131 C   0  0  0  0  0  0  0  0  0  0  0  0
    1.2097   -2.3192   -0.5294 O   0  0  0  0  0  0  0  0  0  0  0  0
    0.3557   -3.6024    2.3171 C   0  0  0  0  0  0  0  0  0  0  0  0
    0.6584   -4.6506   -0.4643 H   0  0  0  0  0  0  0  0  0  0  0  0
   -1.4091   -3.3101    1.1082 H   0  0  0  0  0  0  0  0  0  0  0  0
    1.4375   -3.7336    2.1985 H   0  0  0  0  0  0  0  0  0  0  0  0
    0.1969   -2.7243    2.9517 H   0  0  0  0  0  0  0  0  0  0  0  0
   -0.0294   -4.4803    2.8470 H   0  0  0  0  0  0  0  0  0  0  0  0
   -0.4616   -1.0893    0.5050 N   0  0  0  0  0  0  0  0  0  0  0  0
   -0.0884    0.2050   -0.0621 C   0  0  2  0  0  0  0  0  0  0  0  0
    1.4274    0.3401    0.0525 C   0  0  0  0  0  0  0  0  0  0  0  0
    2.1670   -0.6077    0.3097 O   0  0  0  0  0  0  0  0  0  0  0  0
   -0.7622    1.3763    0.6683 C   0  0  0  0  0  0  0  0  0  0  0  0
   -2.2790    1.4316    0.4591 C   0  0  0  0  0  0  0  0  0  0  0  0
   -2.8954    2.6293    1.1869 C   0  0  0  0  0  0  0  0  0  0  0  0
   -4.4109    2.6700    0.9983 C   0  0  0  0  0  0  0  0  0  0  0  0
   -4.9804    3.8030    1.7179 N   0  0  0  0  0  0  0  0  0  0  0  0
   -1.2794   -1.1113    1.0935 H   0  0  0  0  0  0  0  0  0  0  0  0
   -0.3698    0.2153   -1.1219 H   0  0  0  0  0  0  0  0  0  0  0  0
   -0.3221    2.3192    0.3177 H   0  0  0  0  0  0  0  0  0  0  0  0
   -0.5414    1.3234    1.7430 H   0  0  0  0  0  0  0  0  0  0  0  0
   -2.7451    0.5108    0.8275 H   0  0  0  0  0  0  0  0  0  0  0  0
   -2.4987    1.5021   -0.6130 H   0  0  0  0  0  0  0  0  0  0  0  0
   -2.6544    2.5695    2.2558 H   0  0  0  0  0  0  0  0  0  0  0  0
   -2.4497    3.5573    0.8068 H   0  0  0  0  0  0  0  0  0  0  0  0
   -4.8636    1.7424    1.3655 H   0  0  0  0  0  0  0  0  0  0  0  0
   -4.6560    2.7629   -0.0650 H   0  0  0  0  0  0  0  0  0  0  0  0
   -4.2447    4.2778    2.1869 H   0  0  0  0  0  0  0  0  0  0  0  0
   -5.4188    4.4032    1.0589 H   0  0  0  0  0  0  0  0  0  0  0  0
    1.8517    1.6470   -0.1443 N   0  0  0  0  0  0  0  0  0  0  0  0
    3.2375    2.0501   -0.0680 C   0  0  2  0  0  0  0  0  0  0  0  0
    3.2837    3.4765    0.4639 C   0  0  0  0  0  0  0  0  0  0  0  0
    2.4233    4.3162    0.2075 O   0  0  0  0  0  0  0  0  0  0  0  0
    3.9174    1.9537   -1.4249 C   0  0  0  0  0  0  0  0  0  0  0  0
    1.1673    2.3650   -0.3621 H   0  0  0  0  0  0  0  0  0  0  0  0
    3.7237    1.3773    0.6468 H   0  0  0  0  0  0  0  0  0  0  0  0
    3.4439    2.6209   -2.1543 H   0  0  0  0  0  0  0  0  0  0  0  0
    4.9744    2.2321   -1.3597 H   0  0  0  0  0  0  0  0  0  0  0  0
    3.8571    0.9336   -1.8194 H   0  0  0  0  0  0  0  0  0  0  0  0
    4.4210    3.7138    1.2230 N   0  0  0  0  0  0  0  0  0  0  0  0
    4.7162    5.0032    1.8031 C   0  0  0  0  0  0  0  0  0  0  0  0
    5.0604    2.9490    1.4178 H   0  0  0  0  0  0  0  0  0  0  0  0
    5.3464    5.5814    1.1114 H   0  0  0  0  0  0  0  0  0  0  0  0
    3.7774    5.5468    1.9850 H   0  0  0  0  0  0  0  0  0  0  0  0
    5.2494    4.8635    2.7550 H   0  0  0  0  0  0  0  0  0  0  0  0
  1  3  1  0  0  0  0
  1  7  1  0  0  0  0
  1  2  2  0  0  0  0
 39 40  1  0  0  0  0
 40 48  1  0  0  0  0
 40 41  2  0  0  0  0
  8  9  1  0  0  0  0
  9 17  1  0  0  0  0
  9 10  2  0  0  0  0
 18 19  1  0  0  0  0
 19 38  1  0  0  0  0
 19 20  2  0  0  0  0
 39 42  1  0  0  0  0
  8 11  1  0  0  0  0
 48 49  1  0  0  0  0
 22 23  1  0  0  0  0
 21 22  1  0  0  0  0
 23 24  1  0  0  0  0
 18 21  1  0  0  0  0
 24 25  1  0  0  0  0
 38 39  1  0  0  0  0
  7  8  1  0  0  0  0
 17 18  1  0  0  0  0
  3  4  1  0  0  0  0
  3  5  1  0  0  0  0
  3  6  1  0  0  0  0
 42 45  1  0  0  0  0
 42 46  1  0  0  0  0
 42 47  1  0  0  0  0
 11 14  1  0  0  0  0
 11 15  1  0  0  0  0
 11 16  1  0  0  0  0
 49 51  1  0  0  0  0
 49 52  1  0  0  0  0
 49 53  1  0  0  0  0
 22 30  1  0  0  0  0
 22 31  1  0  0  0  0
 23 32  1  0  0  0  0
 23 33  1  0  0  0  0
 21 28  1  0  0  0  0
 21 29  1  0  0  0  0
 24 34  1  0  0  0  0
 24 35  1  0  0  0  0
 39 44  1  0  0  0  0
  8 13  1  0  0  0  0
 18 27  1  0  0  0  0
 25 36  1  0  0  0  0
 25 37  1  0  0  0  0
 48 50  1  0  0  0  0
  7 12  1  0  0  0  0
 38 43  1  0  0  0  0
 17 26  1  0  0  0  0
M  END
$$$$

  -OEChem-05262214473D

 53 52  0     1  0  0  0  0  0999 V2000
   -1.0338   -5.6785    0.1476 C   0  0  0  0  0  0  0  0  0  0  0  0
   -2.0514   -5.7797    0.8227 O   0  0  0  0  0  0  0  0  0  0  0  0
   -0.6558   -6.7819   -0.7841 C   0  0  0  0  0  0  0  0  0  0  0  0
   -0.0111   -7.5354   -0.3038 H   0  0  0  0  0  0  0  0  0  0  0  0
   -1.5317   -7.3401   -1.1520 H   0  0  0  0  0  0  0  0  0  0  0  0
   -0.1109   -6.4687   -1.6890 H   0  0  0  0  0  0  0  0  0  0  0  0
   -0.1543   -4.6083    0.1480 N   0  0  0  0  0  0  0  0  0  0  0  0
   -0.3302   -3.4398    0.9696 C   0  0  2  0  0  0  0  0  0  0  0  0
    0.2328   -2.2439    0.2131 C   0  0  0  0  0  0  0  0  0  0  0  0
    1.2097   -2.3192   -0.5294 O   0  0  0  0  0  0  0  0  0  0  0  0
    0.3557   -3.6024    2.3171 C   0  0  0  0  0  0  0  0  0  0  0  0
    0.6584   -4.6506   -0.4643 H   0  0  0  0  0  0  0  0  0  0  0  0
   -1.4091   -3.3101    1.1082 H   0  0  0  0  0  0  0  0  0  0  0  0
    1.4375   -3.7336    2.1985 H   0  0  0  0  0  0  0  0  0  0  0  0
    0.1969   -2.7243    2.9517 H   0  0  0  0  0  0  0  0  0  0  0  0
   -0.0294   -4.4803    2.8470 H   0  0  0  0  0  0  0  0  0  0  0  0
   -0.4616   -1.0893    0.5050 N   0  0  0  0  0  0  0  0  0  0  0  0
   -0.0884    0.2050   -0.0621 C   0  0  2  0  0  0  0  0  0  0  0  0
    1.4274    0.3401    0.0525 C   0  0  0  0  0  0  0  0  0  0  0  0
    2.1888   -0.6251    0.0420 O   0  0  0  0  0  0  0  0  0  0  0  0
   -0.7622    1.3763    0.6683 C   0  0  0  0  0  0  0  0  0  0  0  0
   -2.2790    1.4316    0.4591 C   0  0  0  0  0  0  0  0  0  0  0  0
   -2.8954    2.6293    1.1869 C   0  0  0  0  0  0  0  0  0  0  0  0
   -4.4109    2.6700    0.9983 C   0  0  0  0  0  0  0  0  0  0  0  0
   -4.9804    3.8030    1.7179 N   0  0  0  0  0  0  0  0  0  0  0  0
   -1.2794   -1.1113    1.0935 H   0  0  0  0  0  0  0  0  0  0  0  0
   -0.3698    0.2153   -1.1219 H   0  0  0  0  0  0  0  0  0  0  0  0
   -0.3221    2.3192    0.3177 H   0  0  0  0  0  0  0  0  0  0  0  0
   -0.5414    1.3234    1.7430 H   0  0  0  0  0  0  0  0  0  0  0  0
   -2.7451    0.5108    0.8275 H   0  0  0  0  0  0  0  0  0  0  0  0
   -2.4987    1.5021   -0.6130 H   0  0  0  0  0  0  0  0  0  0  0  0
   -2.6544    2.5695    2.2558 H   0  0  0  0  0  0  0  0  0  0  0  0
   -2.4497    3.5573    0.8068 H   0  0  0  0  0  0  0  0  0  0  0  0
   -4.8636    1.7424    1.3655 H   0  0  0  0  0  0  0  0  0  0  0  0
   -4.6560    2.7629   -0.0650 H   0  0  0  0  0  0  0  0  0  0  0  0
   -4.2447    4.2778    2.1869 H   0  0  0  0  0  0  0  0  0  0  0  0
   -5.4188    4.4032    1.0589 H   0  0  0  0  0  0  0  0  0  0  0  0
    1.8250    1.6629    0.1900 N   0  0  0  0  0  0  0  0  0  0  0  0
    3.2055    2.0639    0.3392 C   0  0  2  0  0  0  0  0  0  0  0  0
    3.2418    3.3065    1.2191 C   0  0  0  0  0  0  0  0  0  0  0  0
    2.3614    4.1643    1.2050 O   0  0  0  0  0  0  0  0  0  0  0  0
    3.8521    2.3345   -1.0103 C   0  0  0  0  0  0  0  0  0  0  0  0
    1.1235    2.3972    0.1783 H   0  0  0  0  0  0  0  0  0  0  0  0
    3.7207    1.2411    0.8468 H   0  0  0  0  0  0  0  0  0  0  0  0
    3.3493    3.1558   -1.5338 H   0  0  0  0  0  0  0  0  0  0  0  0
    4.9057    2.6104   -0.8973 H   0  0  0  0  0  0  0  0  0  0  0  0
    3.7986    1.4488   -1.6527 H   0  0  0  0  0  0  0  0  0  0  0  0
    4.3940    3.3663    1.9905 N   0  0  0  0  0  0  0  0  0  0  0  0
    4.6825    4.4697    2.8766 C   0  0  0  0  0  0  0  0  0  0  0  0
    5.0506    2.5916    1.9688 H   0  0  0  0  0  0  0  0  0  0  0  0
    5.2854    5.2202    2.3443 H   0  0  0  0  0  0  0  0  0  0  0  0
    3.7398    4.9272    3.2114 H   0  0  0  0  0  0  0  0  0  0  0  0
    5.2420    4.1022    3.7495 H   0  0  0  0  0  0  0  0  0  0  0  0
  1  3  1  0  0  0  0
  1  7  1  0  0  0  0
  1  2  2  0  0  0  0
 39 40  1  0  0  0  0
 40 48  1  0  0  0  0
 40 41  2  0  0  0  0
  8  9  1  0  0  0  0
  9 17  1  0  0  0  0
  9 10  2  0  0  0  0
 18 19  1  0  0  0  0
 19 38  1  0  0  0  0
 19 20  2  0  0  0  0
 39 42  1  0  0  0  0
  8 11  1  0  0  0  0
 48 49  1  0  0  0  0
 22 23  1  0  0  0  0
 21 22  1  0  0  0  0
 23 24  1  0  0  0  0
 18 21  1  0  0  0  0
 24 25  1  0  0  0  0
 38 39  1  0  0  0  0
  7  8  1  0  0  0  0
 17 18  1  0  0  0  0
  3  4  1  0  0  0  0
  3  5  1  0  0  0  0
  3  6  1  0  0  0  0
 42 45  1  0  0  0  0
 42 46  1  0  0  0  0
 42 47  1  0  0  0  0
 11 14  1  0  0  0  0
 11 15  1  0  0  0  0
 11 16  1  0  0  0  0
 49 51  1  0  0  0  0
 49 52  1  0  0  0  0
 49 53  1  0  0  0  0
 22 30  1  0  0  0  0
 22 31  1  0  0  0  0
 23 32  1  0  0  0  0
 23 33  1  0  0  0  0
 21 28  1  0  0  0  0
 21 29  1  0  0  0  0
 24 34  1  0  0  0  0
 24 35  1  0  0  0  0
 39 44  1  0  0  0  0
  8 13  1  0  0  0  0
 18 27  1  0  0  0  0
 25 36  1  0  0  0  0
 25 37  1  0  0  0  0
 48 50  1  0  0  0  0
  7 12  1  0  0  0  0
 38 43  1  0  0  0  0
 17 26  1  0  0  0  0
M  END
$$$$

  -OEChem-05262214473D

 53 52  0     1  0  0  0  0  0999 V2000
   -1.0338   -5.6785    0.1476 C   0  0  0  0  0  0  0  0  0  0  0  0
   -2.0514   -5.7797    0.8227 O   0  0  0  0  0  0  0  0  0  0  0  0
   -0.6558   -6.7819   -0.7841 C   0  0  0  0  0  0  0  0  0  0  0  0
   -0.0111   -7.5354   -0.3038 H   0  0  0  0  0  0  0  0  0  0  0  0
   -1.5317   -7.3401   -1.1520 H   0  0  0  0  0  0  0  0  0  0  0  0
   -0.1109   -6.4687   -1.6890 H   0  0  0  0  0  0  0  0  0  0  0  0
   -0.1543   -4.6083    0.1480 N   0  0  0  0  0  0  0  0  0  0  0  0
   -0.3302   -3.4398    0.9696 C   0  0  2  0  0  0  0  0  0  0  0  0
    0.2328   -2.2439    0.2131 C   0  0  0  0  0  0  0  0  0  0  0  0
    1.2097   -2.3192   -0.5294 O   0  0  0  0  0  0  0  0  0  0  0  0
    0.3557   -3.6024    2.3171 C   0  0  0  0  0  0  0  0  0  0  0  0
    0.6584   -4.6506   -0.4643 H   0  0  0  0  0  0  0  0  0  0  0  0
   -1.4091   -3.3101    1.1082 H   0  0  0  0  0  0  0  0  0  0  0  0
    1.4375   -3.7336    2.1985 H   0  0  0  0  0  0  0  0  0  0  0  0
    0.1969   -2.7243    2.9517 H   0  0  0  0  0  0  0  0  0  0  0  0
   -0.0294   -4.4803    2.8470 H   0  0  0  0  0  0  0  0  0  0  0  0
   -0.4616   -1.0893    0.5050 N   0  0  0  0  0  0  0  0  0  0  0  0
   -0.0884    0.2050   -0.0621 C   0  0  2  0  0  0  0  0  0  0  0  0
    1.4274    0.3401    0.0525 C   0  0  0  0  0  0  0  0  0  0  0  0
    2.2040   -0.5727   -0.2215 O   0  0  0  0  0  0  0  0  0  0  0  0
   -0.7622    1.3763    0.6683 C   0  0  0  0  0  0  0  0  0  0  0  0
   -2.2790    1.4316    0.4591 C   0  0  0  0  0  0  0  0  0  0  0  0
   -2.8954    2.6293    1.1869 C   0  0  0  0  0  0  0  0  0  0  0  0
   -4.4109    2.6700    0.9983 C   0  0  0  0  0  0  0  0  0  0  0  0
   -4.9804    3.8030    1.7179 N   0  0  0  0  0  0  0  0  0  0  0  0
   -1.2794   -1.1113    1.0935 H   0  0  0  0  0  0  0  0  0  0  0  0
   -0.3698    0.2153   -1.1219 H   0  0  0  0  0  0  0  0  0  0  0  0
   -0.3221    2.3192    0.3177 H   0  0  0  0  0  0  0  0  0  0  0  0
   -0.5414    1.3234    1.7430 H   0  0  0  0  0  0  0  0  0  0  0  0
   -2.7451    0.5108    0.8275 H   0  0  0  0  0  0  0  0  0  0  0  0
   -2.4987    1.5021   -0.6130 H   0  0  0  0  0  0  0  0  0  0  0  0
   -2.6544    2.5695    2.2558 H   0  0  0  0  0  0  0  0  0  0  0  0
   -2.4497    3.5573    0.8068 H   0  0  0  0  0  0  0  0  0  0  0  0
   -4.8636    1.7424    1.3655 H   0  0  0  0  0  0  0  0  0  0  0  0
   -4.6560    2.7629   -0.0650 H   0  0  0  0  0  0  0  0  0  0  0  0
   -4.2447    4.2778    2.1869 H   0  0  0  0  0  0  0  0  0  0  0  0
   -5.4188    4.4032    1.0589 H   0  0  0  0  0  0  0  0  0  0  0  0
    1.8066    1.5918    0.5176 N   0  0  0  0  0  0  0  0  0  0  0  0
    3.1836    1.9719    0.7368 C   0  0  2  0  0  0  0  0  0  0  0  0
    3.2218    2.9472    1.9059 C   0  0  0  0  0  0  0  0  0  0  0  0
    2.3274    3.7599    2.1309 O   0  0  0  0  0  0  0  0  0  0  0  0
    3.7912    2.5944   -0.5106 C   0  0  0  0  0  0  0  0  0  0  0  0
    1.0930    2.2886    0.7095 H   0  0  0  0  0  0  0  0  0  0  0  0
    3.7251    1.0581    1.0050 H   0  0  0  0  0  0  0  0  0  0  0  0
    3.2618    3.5112   -0.7947 H   0  0  0  0  0  0  0  0  0  0  0  0
    4.8426    2.8557   -0.3518 H   0  0  0  0  0  0  0  0  0  0  0  0
    3.7359    1.9025   -1.3579 H   0  0  0  0  0  0  0  0  0  0  0  0
    4.3922    2.8328    2.6430 N   0  0  0  0  0  0  0  0  0  0  0  0
    4.6850    3.6778    3.7772 C   0  0  0  0  0  0  0  0  0  0  0  0
    5.0607    2.1046    2.4094 H   0  0  0  0  0  0  0  0  0  0  0  0
    5.2617    4.5531    3.4437 H   0  0  0  0  0  0  0  0  0  0  0  0
    3.7437    4.0126    4.2375 H   0  0  0  0  0  0  0  0  0  0  0  0
    5.2725    3.1110    4.5145 H   0  0  0  0  0  0  0  0  0  0  0  0
  1  3  1  0  0  0  0
  1  7  1  0  0  0  0
  1  2  2  0  0  0  0
 39 40  1  0  0  0  0
 40 48  1  0  0  0  0
 40 41  2  0  0  0  0
  8  9  1  0  0  0  0
  9 17  1  0  0  0  0
  9 10  2  0  0  0  0
 18 19  1  0  0  0  0
 19 38  1  0  0  0  0
 19 20  2  0  0  0  0
 39 42  1  0  0  0  0
  8 11  1  0  0  0  0
 48 49  1  0  0  0  0
 22 23  1  0  0  0  0
 21 22  1  0  0  0  0
 23 24  1  0  0  0  0
 18 21  1  0  0  0  0
 24 25  1  0  0  0  0
 38 39  1  0  0  0  0
  7  8  1  0  0  0  0
 17 18  1  0  0  0  0
  3  4  1  0  0  0  0
  3  5  1  0  0  0  0
  3  6  1  0  0  0  0
 42 45  1  0  0  0  0
 42 46  1  0  0  0  0
 42 47  1  0  0  0  0
 11 14  1  0  0  0  0
 11 15  1  0  0  0  0
 11 16  1  0  0  0  0
 49 51  1  0  0  0  0
 49 52  1  0  0  0  0
 49 53  1  0  0  0  0
 22 30  1  0  0  0  0
 22 31  1  0  0  0  0
 23 32  1  0  0  0  0
 23 33  1  0  0  0  0
 21 28  1  0  0  0  0
 21 29  1  0  0  0  0
 24 34  1  0  0  0  0
 24 35  1  0  0  0  0
 39 44  1  0  0  0  0
  8 13  1  0  0  0  0
 18 27  1  0  0  0  0
 25 36  1  0  0  0  0
 25 37  1  0  0  0  0
 48 50  1  0  0  0  0
  7 12  1  0  0  0  0
 38 43  1  0  0  0  0
 17 26  1  0  0  0  0
M  END
$$$$

  -OEChem-05262214473D

 53 52  0     1  0  0  0  0  0999 V2000
   -1.0338   -5.6785    0.1476 C   0  0  0  0  0  0  0  0  0  0  0  0
   -2.0514   -5.7797    0.8227 O   0  0  0  0  0  0  0  0  0  0  0  0
   -0.6558   -6.7819   -0.7841 C   0  0  0  0  0  0  0  0  0  0  0  0
   -0.0111   -7.5354   -0.3038 H   0  0  0  0  0  0  0  0  0  0  0  0
   -1.5317   -7.3401   -1.1520 H   0  0  0  0  0  0  0  0  0  0  0  0
   -0.1109   -6.4687   -1.6890 H   0  0  0  0  0  0  0  0  0  0  0  0
   -0.1543   -4.6083    0.1480 N   0  0  0  0  0  0  0  0  0  0  0  0
   -0.3302   -3.4398    0.9696 C   0  0  2  0  0  0  0  0  0  0  0  0
    0.2328   -2.2439    0.2131 C   0  0  0  0  0  0  0  0  0  0  0  0
    1.2097   -2.3192   -0.5294 O   0  0  0  0  0  0  0  0  0  0  0  0
    0.3557   -3.6024    2.3171 C   0  0  0  0  0  0  0  0  0  0  0  0
    0.6584   -4.6506   -0.4643 H   0  0  0  0  0  0  0  0  0  0  0  0
   -1.4091   -3.3101    1.1082 H   0  0  0  0  0  0  0  0  0  0  0  0
    1.4375   -3.7336    2.1985 H   0  0  0  0  0  0  0  0  0  0  0  0
    0.1969   -2.7243    2.9517 H   0  0  0  0  0  0  0  0  0  0  0  0
   -0.0294   -4.4803    2.8470 H   0  0  0  0  0  0  0  0  0  0  0  0
   -0.4616   -1.0893    0.5050 N   0  0  0  0  0  0  0  0  0  0  0  0
   -0.0884    0.2050   -0.0621 C   0  0  2  0  0  0  0  0  0  0  0  0
    1.4274    0.3401    0.0525 C   0  0  0  0  0  0  0  0  0  0  0  0
    2.2117   -0.4541   -0.4629 O   0  0  0  0  0  0  0  0  0  0  0  0
   -0.7622    1.3763    0.6683 C   0  0  0  0  0  0  0  0  0  0  0  0
   -2.2790    1.4316    0.4591 C   0  0  0  0  0  0  0  0  0  0  0  0
   -2.8954    2.6293    1.1869 C   0  0  0  0  0  0  0  0  0  0  0  0
   -4.4109    2.6700    0.9983 C   0  0  0  0  0  0  0  0  0  0  0  0
   -4.9804    3.8030    1.7179 N   0  0  0  0  0  0  0  0  0  0  0  0
   -1.2794   -1.1113    1.0935 H   0  0  0  0  0  0  0  0  0  0  0  0
   -0.3698    0.2153   -1.1219 H   0  0  0  0  0  0  0  0  0  0  0  0
   -0.3221    2.3192    0.3177 H   0  0  0  0  0  0  0  0  0  0  0  0
   -0.5414    1.3234    1.7430 H   0  0  0  0  0  0  0  0  0  0  0  0
   -2.7451    0.5108    0.8275 H   0  0  0  0  0  0  0  0  0  0  0  0
   -2.4987    1.5021   -0.6130 H   0  0  0  0  0  0  0  0  0  0  0  0
   -2.6544    2.5695    2.2558 H   0  0  0  0  0  0  0  0  0  0  0  0
   -2.4497    3.5573    0.8068 H   0  0  0  0  0  0  0  0  0  0  0  0
   -4.8636    1.7424    1.3655 H   0  0  0  0  0  0  0  0  0  0  0  0
   -4.6560    2.7629   -0.0650 H   0  0  0  0  0  0  0  0  0  0  0  0
   -4.2447    4.2778    2.1869 H   0  0  0  0  0  0  0  0  0  0  0  0
   -5.4188    4.4032    1.0589 H   0  0  0  0  0  0  0  0  0  0  0  0
    1.7977    1.4385    0.8161 N   0  0  0  0  0  0  0  0  0  0  0  0
    3.1734    1.7803    1.0977 C   0  0  2  0  0  0  0  0  0  0  0  0
    3.2253    2.4233    2.4774 C   0  0  0  0  0  0  0  0  0  0  0  0
    2.3237    3.1307    2.9221 O   0  0  0  0  0  0  0  0  0  0  0  0
    3.7387    2.7159    0.0404 C   0  0  0  0  0  0  0  0  0  0  0  0
    1.0779    2.0465    1.1954 H   0  0  0  0  0  0  0  0  0  0  0  0
    3.7365    0.8407    1.1107 H   0  0  0  0  0  0  0  0  0  0  0  0
    3.1872    3.6627    0.0126 H   0  0  0  0  0  0  0  0  0  0  0  0
    4.7894    2.9511    0.2396 H   0  0  0  0  0  0  0  0  0  0  0  0
    3.6733    2.2638   -0.9551 H   0  0  0  0  0  0  0  0  0  0  0  0
    4.4157    2.1497    3.1362 N   0  0  0  0  0  0  0  0  0  0  0  0
    4.7234    2.6814    4.4434 C   0  0  0  0  0  0  0  0  0  0  0  0
    5.0900    1.5211    2.7096 H   0  0  0  0  0  0  0  0  0  0  0  0
    5.2769    3.6257    4.3347 H   0  0  0  0  0  0  0  0  0  0  0  0
    3.7888    2.8656    4.9935 H   0  0  0  0  0  0  0  0  0  0  0  0
    5.3387    1.9576    4.9980 H   0  0  0  0  0  0  0  0  0  0  0  0
  1  3  1  0  0  0  0
  1  7  1  0  0  0  0
  1  2  2  0  0  0  0
 39 40  1  0  0  0  0
 40 48  1  0  0  0  0
 40 41  2  0  0  0  0
  8  9  1  0  0  0  0
  9 17  1  0  0  0  0
  9 10  2  0  0  0  0
 18 19  1  0  0  0  0
 19 38  1  0  0  0  0
 19 20  2  0  0  0  0
 39 42  1  0  0  0  0
  8 11  1  0  0  0  0
 48 49  1  0  0  0  0
 22 23  1  0  0  0  0
 21 22  1  0  0  0  0
 23 24  1  0  0  0  0
 18 21  1  0  0  0  0
 24 25  1  0  0  0  0
 38 39  1  0  0  0  0
  7  8  1  0  0  0  0
 17 18  1  0  0  0  0
  3  4  1  0  0  0  0
  3  5  1  0  0  0  0
  3  6  1  0  0  0  0
 42 45  1  0  0  0  0
 42 46  1  0  0  0  0
 42 47  1  0  0  0  0
 11 14  1  0  0  0  0
 11 15  1  0  0  0  0
 11 16  1  0  0  0  0
 49 51  1  0  0  0  0
 49 52  1  0  0  0  0
 49 53  1  0  0  0  0
 22 30  1  0  0  0  0
 22 31  1  0  0  0  0
 23 32  1  0  0  0  0
 23 33  1  0  0  0  0
 21 28  1  0  0  0  0
 21 29  1  0  0  0  0
 24 34  1  0  0  0  0
 24 35  1  0  0  0  0
 39 44  1  0  0  0  0
  8 13  1  0  0  0  0
 18 27  1  0  0  0  0
 25 36  1  0  0  0  0
 25 37  1  0  0  0  0
 48 50  1  0  0  0  0
  7 12  1  0  0  0  0
 38 43  1  0  0  0  0
 17 26  1  0  0  0  0
M  END
$$$$

  -OEChem-05262214473D

 53 52  0     1  0  0  0  0  0999 V2000
   -1.0338   -5.6785    0.1476 C   0  0  0  0  0  0  0  0  0  0  0  0
   -2.0514   -5.7797    0.8227 O   0  0  0  0  0  0  0  0  0  0  0  0
   -0.6558   -6.7819   -0.7841 C   0  0  0  0  0  0  0  0  0  0  0  0
   -0.0111   -7.5354   -0.3038 H   0  0  0  0  0  0  0  0  0  0  0  0
   -1.5317   -7.3401   -1.1520 H   0  0  0  0  0  0  0  0  0  0  0  0
   -0.1109   -6.4687   -1.6890 H   0  0  0  0  0  0  0  0  0  0  0  0
   -0.1543   -4.6083    0.1480 N   0  0  0  0  0  0  0  0  0  0  0  0
   -0.3302   -3.4398    0.9696 C   0  0  2  0  0  0  0  0  0  0  0  0
    0.2328   -2.2439    0.2131 C   0  0  0  0  0  0  0  0  0  0  0  0
    1.2097   -2.3192   -0.5294 O   0  0  0  0  0  0  0  0  0  0  0  0
    0.3557   -3.6024    2.3171 C   0  0  0  0  0  0  0  0  0  0  0  0
    0.6584   -4.6506   -0.4643 H   0  0  0  0  0  0  0  0  0  0  0  0
   -1.4091   -3.3101    1.1082 H   0  0  0  0  0  0  0  0  0  0  0  0
    1.4375   -3.7336    2.1985 H   0  0  0  0  0  0  0  0  0  0  0  0
    0.1969   -2.7243    2.9517 H   0  0  0  0  0  0  0  0  0  0  0  0
   -0.0294   -4.4803    2.8470 H   0  0  0  0  0  0  0  0  0  0  0  0
   -0.4616   -1.0893    0.5050 N   0  0  0  0  0  0  0  0  0  0  0  0
   -0.0884    0.2050   -0.0621 C   0  0  2  0  0  0  0  0  0  0  0  0
    1.4274    0.3401    0.0525 C   0  0  0  0  0  0  0  0  0  0  0  0
    2.2113   -0.2772   -0.6657 O   0  0  0  0  0  0  0  0  0  0  0  0
   -0.7622    1.3763    0.6683 C   0  0  0  0  0  0  0  0  0  0  0  0
   -2.2790    1.4316    0.4591 C   0  0  0  0  0  0  0  0  0  0  0  0
   -2.8954    2.6293    1.1869 C   0  0  0  0  0  0  0  0  0  0  0  0
   -4.4109    2.6700    0.9983 C   0  0  0  0  0  0  0  0  0  0  0  0
   -4.9804    3.8030    1.7179 N   0  0  0  0  0  0  0  0  0  0  0  0
   -1.2794   -1.1113    1.0935 H   0  0  0  0  0  0  0  0  0  0  0  0
   -0.3698    0.2153   -1.1219 H   0  0  0  0  0  0  0  0  0  0  0  0
   -0.3221    2.3192    0.3177 H   0  0  0  0  0  0  0  0  0  0  0  0
   -0.5414    1.3234    1.7430 H   0  0  0  0  0  0  0  0  0  0  0  0
   -2.7451    0.5108    0.8275 H   0  0  0  0  0  0  0  0  0  0  0  0
   -2.4987    1.5021   -0.6130 H   0  0  0  0  0  0  0  0  0  0  0  0
   -2.6544    2.5695    2.2558 H   0  0  0  0  0  0  0  0  0  0  0  0
   -2.4497    3.5573    0.8068 H   0  0  0  0  0  0  0  0  0  0  0  0
   -4.8636    1.7424    1.3655 H   0  0  0  0  0  0  0  0  0  0  0  0
   -4.6560    2.7629   -0.0650 H   0  0  0  0  0  0  0  0  0  0  0  0
   -4.2447    4.2778    2.1869 H   0  0  0  0  0  0  0  0  0  0  0  0
   -5.4188    4.4032    1.0589 H   0  0  0  0  0  0  0  0  0  0  0  0
    1.7989    1.2136    1.0653 N   0  0  0  0  0  0  0  0  0  0  0  0
    3.1755    1.5023    1.3973 C   0  0  2  0  0  0  0  0  0  0  0  0
    3.2519    1.7704    2.8946 C   0  0  0  0  0  0  0  0  0  0  0  0
    2.3504    2.3194    3.5246 O   0  0  0  0  0  0  0  0  0  0  0  0
    3.6983    2.6905    0.6050 C   0  0  0  0  0  0  0  0  0  0  0  0
    1.0791    1.6874    1.6028 H   0  0  0  0  0  0  0  0  0  0  0  0
    3.7541    0.6038    1.1566 H   0  0  0  0  0  0  0  0  0  0  0  0
    3.1308    3.6001    0.8330 H   0  0  0  0  0  0  0  0  0  0  0  0
    4.7497    2.8902    0.8366 H   0  0  0  0  0  0  0  0  0  0  0  0
    3.6150    2.5079   -0.4718 H   0  0  0  0  0  0  0  0  0  0  0  0
    4.4631    1.3635    3.4365 N   0  0  0  0  0  0  0  0  0  0  0  0
    4.7951    1.5484    4.8299 C   0  0  0  0  0  0  0  0  0  0  0  0
    5.1365    0.8809    2.8488 H   0  0  0  0  0  0  0  0  0  0  0  0
    5.3301    2.5011    4.9566 H   0  0  0  0  0  0  0  0  0  0  0  0
    3.8719    1.5641    5.4278 H   0  0  0  0  0  0  0  0  0  0  0  0
    5.4361    0.7204    5.1669 H   0  0  0  0  0  0  0  0  0  0  0  0
  1  3  1  0  0  0  0
  1  7  1  0  0  0  0
  1  2  2  0  0  0  0
 39 40  1  0  0  0  0
 40 48  1  0  0  0  0
 40 41  2  0  0  0  0
  8  9  1  0  0  0  0
  9 17  1  0  0  0  0
  9 10  2  0  0  0  0
 18 19  1  0  0  0  0
 19 38  1  0  0  0  0
 19 20  2  0  0  0  0
 39 42  1  0  0  0  0
  8 11  1  0  0  0  0
 48 49  1  0  0  0  0
 22 23  1  0  0  0  0
 21 22  1  0  0  0  0
 23 24  1  0  0  0  0
 18 21  1  0  0  0  0
 24 25  1  0  0  0  0
 38 39  1  0  0  0  0
  7  8  1  0  0  0  0
 17 18  1  0  0  0  0
  3  4  1  0  0  0  0
  3  5  1  0  0  0  0
  3  6  1  0  0  0  0
 42 45  1  0  0  0  0
 42 46  1  0  0  0  0
 42 47  1  0  0  0  0
 11 14  1  0  0  0  0
 11 15  1  0  0  0  0
 11 16  1  0  0  0  0
 49 51  1  0  0  0  0
 49 52  1  0  0  0  0
 49 53  1  0  0  0  0
 22 30  1  0  0  0  0
 22 31  1  0  0  0  0
 23 32  1  0  0  0  0
 23 33  1  0  0  0  0
 21 28  1  0  0  0  0
 21 29  1  0  0  0  0
 24 34  1  0  0  0  0
 24 35  1  0  0  0  0
 39 44  1  0  0  0  0
  8 13  1  0  0  0  0
 18 27  1  0  0  0  0
 25 36  1  0  0  0  0
 25 37  1  0  0  0  0
 48 50  1  0  0  0  0
  7 12  1  0  0  0  0
 38 43  1  0  0  0  0
 17 26  1  0  0  0  0
M  END
$$$$

  -OEChem-05262214473D

 53 52  0     1  0  0  0  0  0999 V2000
   -1.0338   -5.6785    0.1476 C   0  0  0  0  0  0  0  0  0  0  0  0
   -2.0514   -5.7797    0.8227 O   0  0  0  0  0  0  0  0  0  0  0  0
   -0.6558   -6.7819   -0.7841 C   0  0  0  0  0  0  0  0  0  0  0  0
   -0.0111   -7.5354   -0.3038 H   0  0  0  0  0  0  0  0  0  0  0  0
   -1.5317   -7.3401   -1.1520 H   0  0  0  0  0  0  0  0  0  0  0  0
   -0.1109   -6.4687   -1.6890 H   0  0  0  0  0  0  0  0  0  0  0  0
   -0.1543   -4.6083    0.1480 N   0  0  0  0  0  0  0  0  0  0  0  0
   -0.3302   -3.4398    0.9696 C   0  0  2  0  0  0  0  0  0  0  0  0
    0.2328   -2.2439    0.2131 C   0  0  0  0  0  0  0  0  0  0  0  0
    1.2097   -2.3192   -0.5294 O   0  0  0  0  0  0  0  0  0  0  0  0
    0.3557   -3.6024    2.3171 C   0  0  0  0  0  0  0  0  0  0  0  0
    0.6584   -4.6506   -0.4643 H   0  0  0  0  0  0  0  0  0  0  0  0
   -1.4091   -3.3101    1.1082 H   0  0  0  0  0  0  0  0  0  0  0  0
    1.4375   -3.7336    2.1985 H   0  0  0  0  0  0  0  0  0  0  0  0
    0.1969   -2.7243    2.9517 H   0  0  0  0  0  0  0  0  0  0  0  0
   -0.0294   -4.4803    2.8470 H   0  0  0  0  0  0  0  0  0  0  0  0
   -0.4616   -1.0893    0.5050 N   0  0  0  0  0  0  0  0  0  0  0  0
   -0.0884    0.2050   -0.0621 C   0  0  2  0  0  0  0  0  0  0  0  0
    1.4274    0.3401    0.0525 C   0  0  0  0  0  0  0  0  0  0  0  0
    2.2028   -0.0543   -0.8162 O   0  0  0  0  0  0  0  0  0  0  0  0
   -0.7622    1.3763    0.6683 C   0  0  0  0  0  0  0  0  0  0  0  0
   -2.2790    1.4316    0.4591 C   0  0  0  0  0  0  0  0  0  0  0  0
   -2.8954    2.6293    1.1869 C   0  0  0  0  0  0  0  0  0  0  0  0
   -4.4109    2.6700    0.9983 C   0  0  0  0  0  0  0  0  0  0  0  0
   -4.9804    3.8030    1.7179 N   0  0  0  0  0  0  0  0  0  0  0  0
   -1.2794   -1.1113    1.0935 H   0  0  0  0  0  0  0  0  0  0  0  0
   -0.3698    0.2153   -1.1219 H   0  0  0  0  0  0  0  0  0  0  0  0
   -0.3221    2.3192    0.3177 H   0  0  0  0  0  0  0  0  0  0  0  0
   -0.5414    1.3234    1.7430 H   0  0  0  0  0  0  0  0  0  0  0  0
   -2.7451    0.5108    0.8275 H   0  0  0  0  0  0  0  0  0  0  0  0
   -2.4987    1.5021   -0.6130 H   0  0  0  0  0  0  0  0  0  0  0  0
   -2.6544    2.5695    2.2558 H   0  0  0  0  0  0  0  0  0  0  0  0
   -2.4497    3.5573    0.8068 H   0  0  0  0  0  0  0  0  0  0  0  0
   -4.8636    1.7424    1.3655 H   0  0  0  0  0  0  0  0  0  0  0  0
   -4.6560    2.7629   -0.0650 H   0  0  0  0  0  0  0  0  0  0  0  0
   -4.2447    4.2778    2.1869 H   0  0  0  0  0  0  0  0  0  0  0  0
   -5.4188    4.4032    1.0589 H   0  0  0  0  0  0  0  0  0  0  0  0
    1.8101    0.9322    1.2482 N   0  0  0  0  0  0  0  0  0  0  0  0
    3.1898    1.1569    1.6152 C   0  0  2  0  0  0  0  0  0  0  0  0
    3.2999    1.0330    3.1292 C   0  0  0  0  0  0  0  0  0  0  0  0
    2.4058    1.3814    3.8974 O   0  0  0  0  0  0  0  0  0  0  0  0
    3.6726    2.5201    1.1448 C   0  0  0  0  0  0  0  0  0  0  0  0
    1.0965    1.2359    1.9040 H   0  0  0  0  0  0  0  0  0  0  0  0
    3.7768    0.3635    1.1397 H   0  0  0  0  0  0  0  0  0  0  0  0
    3.0962    3.3277    1.6107 H   0  0  0  0  0  0  0  0  0  0  0  0
    4.7262    2.6771    1.3985 H   0  0  0  0  0  0  0  0  0  0  0  0
    3.5650    2.6184    0.0592 H   0  0  0  0  0  0  0  0  0  0  0  0
    4.5310    0.5279    3.5234 N   0  0  0  0  0  0  0  0  0  0  0  0
    4.8953    0.3560    4.9104 C   0  0  0  0  0  0  0  0  0  0  0  0
    5.1970    0.2276    2.8177 H   0  0  0  0  0  0  0  0  0  0  0  0
    5.4176    1.2560    5.2670 H   0  0  0  0  0  0  0  0  0  0  0  0
    3.9874    0.1970    5.5108 H   0  0  0  0  0  0  0  0  0  0  0  0
    5.5582   -0.5161    5.0099 H   0  0  0  0  0  0  0  0  0  0  0  0
  1  3  1  0  0  0  0
  1  7  1  0  0  0  0
  1  2  2  0  0  0  0
 39 40  1  0  0  0  0
 40 48  1  0  0  0  0
 40 41  2  0  0  0  0
  8  9  1  0  0  0  0
  9 17  1  0  0  0  0
  9 10  2  0  0  0  0
 18 19  1  0  0  0  0
 19 38  1  0  0  0  0
 19 20  2  0  0  0  0
 39 42  1  0  0  0  0
  8 11  1  0  0  0  0
 48 49  1  0  0  0  0
 22 23  1  0  0  0  0
 21 22  1  0  0  0  0
 23 24  1  0  0  0  0
 18 21  1  0  0  0  0
 24 25  1  0  0  0  0
 38 39  1  0  0  0  0
  7  8  1  0  0  0  0
 17 18  1  0  0  0  0
  3  4  1  0  0  0  0
  3  5  1  0  0  0  0
  3  6  1  0  0  0  0
 42 45  1  0  0  0  0
 42 46  1  0  0  0  0
 42 47  1  0  0  0  0
 11 14  1  0  0  0  0
 11 15  1  0  0  0  0
 11 16  1  0  0  0  0
 49 51  1  0  0  0  0
 49 52  1  0  0  0  0
 49 53  1  0  0  0  0
 22 30  1  0  0  0  0
 22 31  1  0  0  0  0
 23 32  1  0  0  0  0
 23 33  1  0  0  0  0
 21 28  1  0  0  0  0
 21 29  1  0  0  0  0
 24 34  1  0  0  0  0
 24 35  1  0  0  0  0
 39 44  1  0  0  0  0
  8 13  1  0  0  0  0
 18 27  1  0  0  0  0
 25 36  1  0  0  0  0
 25 37  1  0  0  0  0
 48 50  1  0  0  0  0
  7 12  1  0  0  0  0
 38 43  1  0  0  0  0
 17 26  1  0  0  0  0
M  END
$$$$

  -OEChem-05262214473D

 53 52  0     1  0  0  0  0  0999 V2000
   -1.0338   -5.6785    0.1476 C   0  0  0  0  0  0  0  0  0  0  0  0
   -2.0514   -5.7797    0.8227 O   0  0  0  0  0  0  0  0  0  0  0  0
   -0.6558   -6.7819   -0.7841 C   0  0  0  0  0  0  0  0  0  0  0  0
   -0.0111   -7.5354   -0.3038 H   0  0  0  0  0  0  0  0  0  0  0  0
   -1.5317   -7.3401   -1.1520 H   0  0  0  0  0  0  0  0  0  0  0  0
   -0.1109   -6.4687   -1.6890 H   0  0  0  0  0  0  0  0  0  0  0  0
   -0.1543   -4.6083    0.1480 N   0  0  0  0  0  0  0  0  0  0  0  0
   -0.3302   -3.4398    0.9696 C   0  0  2  0  0  0  0  0  0  0  0  0
    0.2328   -2.2439    0.2131 C   0  0  0  0  0  0  0  0  0  0  0  0
    1.2097   -2.3192   -0.5294 O   0  0  0  0  0  0  0  0  0  0  0  0
    0.3557   -3.6024    2.3171 C   0  0  0  0  0  0  0  0  0  0  0  0
    0.6584   -4.6506   -0.4643 H   0  0  0  0  0  0  0  0  0  0  0  0
   -1.4091   -3.3101    1.1082 H   0  0  0  0  0  0  0  0  0  0  0  0
    1.4375   -3.7336    2.1985 H   0  0  0  0  0  0  0  0  0  0  0  0
    0.1969   -2.7243    2.9517 H   0  0  0  0  0  0  0  0  0  0  0  0
   -0.0294   -4.4803    2.8470 H   0  0  0  0  0  0  0  0  0  0  0  0
   -0.4616   -1.0893    0.5050 N   0  0  0  0  0  0  0  0  0  0  0  0
   -0.0884    0.2050   -0.0621 C   0  0  2  0  0  0  0  0  0  0  0  0
    1.4274    0.3401    0.0525 C   0  0  0  0  0  0  0  0  0  0  0  0
    2.1868    0.1995   -0.9040 O   0  0  0  0  0  0  0  0  0  0  0  0
   -0.7622    1.3763    0.6683 C   0  0  0  0  0  0  0  0  0  0  0  0
   -2.2790    1.4316    0.4591 C   0  0  0  0  0  0  0  0  0  0  0  0
   -2.8954    2.6293    1.1869 C   0  0  0  0  0  0  0  0  0  0  0  0
   -4.4109    2.6700    0.9983 C   0  0  0  0  0  0  0  0  0  0  0  0
   -4.9804    3.8030    1.7179 N   0  0  0  0  0  0  0  0  0  0  0  0
   -1.2794   -1.1113    1.0935 H   0  0  0  0  0  0  0  0  0  0  0  0
   -0.3698    0.2153   -1.1219 H   0  0  0  0  0  0  0  0  0  0  0  0
   -0.3221    2.3192    0.3177 H   0  0  0  0  0  0  0  0  0  0  0  0
   -0.5414    1.3234    1.7430 H   0  0  0  0  0  0  0  0  0  0  0  0
   -2.7451    0.5108    0.8275 H   0  0  0  0  0  0  0  0  0  0  0  0
   -2.4987    1.5021   -0.6130 H   0  0  0  0  0  0  0  0  0  0  0  0
   -2.6544    2.5695    2.2558 H   0  0  0  0  0  0  0  0  0  0  0  0
   -2.4497    3.5573    0.8068 H   0  0  0  0  0  0  0  0  0  0  0  0
   -4.8636    1.7424    1.3655 H   0  0  0  0  0  0  0  0  0  0  0  0
   -4.6560    2.7629   -0.0650 H   0  0  0  0  0  0  0  0  0  0  0  0
   -4.2447    4.2778    2.1869 H   0  0  0  0  0  0  0  0  0  0  0  0
   -5.4188    4.4032    1.0589 H   0  0  0  0  0  0  0  0  0  0  0  0
    1.8306    0.6137    1.3522 N   0  0  0  0  0  0  0  0  0  0  0  0
    3.2154    0.7674    1.7365 C   0  0  2  0  0  0  0  0  0  0  0  0
    3.3659    0.2614    3.1651 C   0  0  0  0  0  0  0  0  0  0  0  0
    2.4860    0.3806    4.0152 O   0  0  0  0  0  0  0  0  0  0  0  0
    3.6636    2.2162    1.6230 C   0  0  0  0  0  0  0  0  0  0  0  0
    1.1291    0.7226    2.0785 H   0  0  0  0  0  0  0  0  0  0  0  0
    3.8030    0.1362    1.0610 H   0  0  0  0  0  0  0  0  0  0  0  0
    3.0860    2.8639    2.2926 H   0  0  0  0  0  0  0  0  0  0  0  0
    4.7205    2.3264    1.8871 H   0  0  0  0  0  0  0  0  0  0  0  0
    3.5267    2.5876    0.6016 H   0  0  0  0  0  0  0  0  0  0  0  0
    4.6148   -0.3003    3.3909 N   0  0  0  0  0  0  0  0  0  0  0  0
    5.0170   -0.8144    4.6792 C   0  0  0  0  0  0  0  0  0  0  0  0
    5.2675   -0.3943    2.6183 H   0  0  0  0  0  0  0  0  0  0  0  0
    5.5334   -0.0247    5.2448 H   0  0  0  0  0  0  0  0  0  0  0  0
    4.1275   -1.1427    5.2369 H   0  0  0  0  0  0  0  0  0  0  0  0
    5.6965   -1.6678    4.5375 H   0  0  0  0  0  0  0  0  0  0  0  0
  1  3  1  0  0  0  0
  1  7  1  0  0  0  0
  1  2  2  0  0  0  0
 39 40  1  0  0  0  0
 40 48  1  0  0  0  0
 40 41  2  0  0  0  0
  8  9  1  0  0  0  0
  9 17  1  0  0  0  0
  9 10  2  0  0  0  0
 18 19  1  0  0  0  0
 19 38  1  0  0  0  0
 19 20  2  0  0  0  0
 39 42  1  0  0  0  0
  8 11  1  0  0  0  0
 48 49  1  0  0  0  0
 22 23  1  0  0  0  0
 21 22  1  0  0  0  0
 23 24  1  0  0  0  0
 18 21  1  0  0  0  0
 24 25  1  0  0  0  0
 38 39  1  0  0  0  0
  7  8  1  0  0  0  0
 17 18  1  0  0  0  0
  3  4  1  0  0  0  0
  3  5  1  0  0  0  0
  3  6  1  0  0  0  0
 42 45  1  0  0  0  0
 42 46  1  0  0  0  0
 42 47  1  0  0  0  0
 11 14  1  0  0  0  0
 11 15  1  0  0  0  0
 11 16  1  0  0  0  0
 49 51  1  0  0  0  0
 49 52  1  0  0  0  0
 49 53  1  0  0  0  0
 22 30  1  0  0  0  0
 22 31  1  0  0  0  0
 23 32  1  0  0  0  0
 23 33  1  0  0  0  0
 21 28  1  0  0  0  0
 21 29  1  0  0  0  0
 24 34  1  0  0  0  0
 24 35  1  0  0  0  0
 39 44  1  0  0  0  0
  8 13  1  0  0  0  0
 18 27  1  0  0  0  0
 25 36  1  0  0  0  0
 25 37  1  0  0  0  0
 48 50  1  0  0  0  0
  7 12  1  0  0  0  0
 38 43  1  0  0  0  0
 17 26  1  0  0  0  0
M  END
$$$$

  -OEChem-05262214473D

 53 52  0     1  0  0  0  0  0999 V2000
   -1.0338   -5.6785    0.1476 C   0  0  0  0  0  0  0  0  0  0  0  0
   -2.0514   -5.7797    0.8227 O   0  0  0  0  0  0  0  0  0  0  0  0
   -0.6558   -6.7819   -0.7841 C   0  0  0  0  0  0  0  0  0  0  0  0
   -0.0111   -7.5354   -0.3038 H   0  0  0  0  0  0  0  0  0  0  0  0
   -1.5317   -7.3401   -1.1520 H   0  0  0  0  0  0  0  0  0  0  0  0
   -0.1109   -6.4687   -1.6890 H   0  0  0  0  0  0  0  0  0  0  0  0
   -0.1543   -4.6083    0.1480 N   0  0  0  0  0  0  0  0  0  0  0  0
   -0.3302   -3.4398    0.9696 C   0  0  2  0  0  0  0  0  0  0  0  0
    0.2328   -2.2439    0.2131 C   0  0  0  0  0  0  0  0  0  0  0  0
    1.2097   -2.3192   -0.5294 O   0  0  0  0  0  0  0  0  0  0  0  0
    0.3557   -3.6024    2.3171 C   0  0  0  0  0  0  0  0  0  0  0  0
    0.6584   -4.6506   -0.4643 H   0  0  0  0  0  0  0  0  0  0  0  0
   -1.4091   -3.3101    1.1082 H   0  0  0  0  0  0  0  0  0  0  0  0
    1.4375   -3.7336    2.1985 H   0  0  0  0  0  0  0  0  0  0  0  0
    0.1969   -2.7243    2.9517 H   0  0  0  0  0  0  0  0  0  0  0  0
   -0.0294   -4.4803    2.8470 H   0  0  0  0  0  0  0  0  0  0  0  0
   -0.4616   -1.0893    0.5050 N   0  0  0  0  0  0  0  0  0  0  0  0
   -0.0884    0.2050   -0.0621 C   0  0  2  0  0  0  0  0  0  0  0  0
    1.4274    0.3401    0.0525 C   0  0  0  0  0  0  0  0  0  0  0  0
    2.1644    0.4670   -0.9232 O   0  0  0  0  0  0  0  0  0  0  0  0
   -0.7622    1.3763    0.6683 C   0  0  0  0  0  0  0  0  0  0  0  0
   -2.2790    1.4316    0.4591 C   0  0  0  0  0  0  0  0  0  0  0  0
   -2.8954    2.6293    1.1869 C   0  0  0  0  0  0  0  0  0  0  0  0
   -4.4109    2.6700    0.9983 C   0  0  0  0  0  0  0  0  0  0  0  0
   -4.9804    3.8030    1.7179 N   0  0  0  0  0  0  0  0  0  0  0  0
   -1.2794   -1.1113    1.0935 H   0  0  0  0  0  0  0  0  0  0  0  0
   -0.3698    0.2153   -1.1219 H   0  0  0  0  0  0  0  0  0  0  0  0
   -0.3221    2.3192    0.3177 H   0  0  0  0  0  0  0  0  0  0  0  0
   -0.5414    1.3234    1.7430 H   0  0  0  0  0  0  0  0  0  0  0  0
   -2.7451    0.5108    0.8275 H   0  0  0  0  0  0  0  0  0  0  0  0
   -2.4987    1.5021   -0.6130 H   0  0  0  0  0  0  0  0  0  0  0  0
   -2.6544    2.5695    2.2558 H   0  0  0  0  0  0  0  0  0  0  0  0
   -2.4497    3.5573    0.8068 H   0  0  0  0  0  0  0  0  0  0  0  0
   -4.8636    1.7424    1.3655 H   0  0  0  0  0  0  0  0  0  0  0  0
   -4.6560    2.7629   -0.0650 H   0  0  0  0  0  0  0  0  0  0  0  0
   -4.2447    4.2778    2.1869 H   0  0  0  0  0  0  0  0  0  0  0  0
   -5.4188    4.4032    1.0589 H   0  0  0  0  0  0  0  0  0  0  0  0
    1.8590    0.2797    1.3704 N   0  0  0  0  0  0  0  0  0  0  0  0
    3.2504    0.3606    1.7530 C   0  0  2  0  0  0  0  0  0  0  0  0
    3.4455   -0.4919    2.9999 C   0  0  0  0  0  0  0  0  0  0  0  0
    2.5857   -0.6148    3.8698 O   0  0  0  0  0  0  0  0  0  0  0  0
    3.6716    1.7996    2.0070 C   0  0  0  0  0  0  0  0  0  0  0  0
    1.1745    0.1826    2.1144 H   0  0  0  0  0  0  0  0  0  0  0  0
    3.8309   -0.0626    0.9260 H   0  0  0  0  0  0  0  0  0  0  0  0
    3.1007    2.2405    2.8323 H   0  0  0  0  0  0  0  0  0  0  0  0
    4.7330    1.8619    2.2689 H   0  0  0  0  0  0  0  0  0  0  0  0
    3.5028    2.4177    1.1186 H   0  0  0  0  0  0  0  0  0  0  0  0
    4.7088   -1.0646    3.0481 N   0  0  0  0  0  0  0  0  0  0  0  0
    5.1521   -1.8832    4.1523 C   0  0  0  0  0  0  0  0  0  0  0  0
    5.3431   -0.9423    2.2642 H   0  0  0  0  0  0  0  0  0  0  0  0
    5.6696   -1.2539    4.8914 H   0  0  0  0  0  0  0  0  0  0  0  0
    4.2826   -2.3635    4.6247 H   0  0  0  0  0  0  0  0  0  0  0  0
    5.8417   -2.6560    3.7820 H   0  0  0  0  0  0  0  0  0  0  0  0
  1  3  1  0  0  0  0
  1  7  1  0  0  0  0
  1  2  2  0  0  0  0
 39 40  1  0  0  0  0
 40 48  1  0  0  0  0
 40 41  2  0  0  0  0
  8  9  1  0  0  0  0
  9 17  1  0  0  0  0
  9 10  2  0  0  0  0
 18 19  1  0  0  0  0
 19 38  1  0  0  0  0
 19 20  2  0  0  0  0
 39 42  1  0  0  0  0
  8 11  1  0  0  0  0
 48 49  1  0  0  0  0
 22 23  1  0  0  0  0
 21 22  1  0  0  0  0
 23 24  1  0  0  0  0
 18 21  1  0  0  0  0
 24 25  1  0  0  0  0
 38 39  1  0  0  0  0
  7  8  1  0  0  0  0
 17 18  1  0  0  0  0
  3  4  1  0  0  0  0
  3  5  1  0  0  0  0
  3  6  1  0  0  0  0
 42 45  1  0  0  0  0
 42 46  1  0  0  0  0
 42 47  1  0  0  0  0
 11 14  1  0  0  0  0
 11 15  1  0  0  0  0
 11 16  1  0  0  0  0
 49 51  1  0  0  0  0
 49 52  1  0  0  0  0
 49 53  1  0  0  0  0
 22 30  1  0  0  0  0
 22 31  1  0  0  0  0
 23 32  1  0  0  0  0
 23 33  1  0  0  0  0
 21 28  1  0  0  0  0
 21 29  1  0  0  0  0
 24 34  1  0  0  0  0
 24 35  1  0  0  0  0
 39 44  1  0  0  0  0
  8 13  1  0  0  0  0
 18 27  1  0  0  0  0
 25 36  1  0  0  0  0
 25 37  1  0  0  0  0
 48 50  1  0  0  0  0
  7 12  1  0  0  0  0
 38 43  1  0  0  0  0
 17 26  1  0  0  0  0
M  END
$$$$

  -OEChem-05262214473D

 53 52  0     1  0  0  0  0  0999 V2000
   -1.0338   -5.6785    0.1476 C   0  0  0  0  0  0  0  0  0  0  0  0
   -2.0514   -5.7797    0.8227 O   0  0  0  0  0  0  0  0  0  0  0  0
   -0.6558   -6.7819   -0.7841 C   0  0  0  0  0  0  0  0  0  0  0  0
   -0.0111   -7.5354   -0.3038 H   0  0  0  0  0  0  0  0  0  0  0  0
   -1.5317   -7.3401   -1.1520 H   0  0  0  0  0  0  0  0  0  0  0  0
   -0.1109   -6.4687   -1.6890 H   0  0  0  0  0  0  0  0  0  0  0  0
   -0.1543   -4.6083    0.1480 N   0  0  0  0  0  0  0  0  0  0  0  0
   -0.3302   -3.4398    0.9696 C   0  0  2  0  0  0  0  0  0  0  0  0
    0.2328   -2.2439    0.2131 C   0  0  0  0  0  0  0  0  0  0  0  0
    1.2097   -2.3192   -0.5294 O   0  0  0  0  0  0  0  0  0  0  0  0
    0.3557   -3.6024    2.3171 C   0  0  0  0  0  0  0  0  0  0  0  0
    0.6584   -4.6506   -0.4643 H   0  0  0  0  0  0  0  0  0  0  0  0
   -1.4091   -3.3101    1.1082 H   0  0  0  0  0  0  0  0  0  0  0  0
    1.4375   -3.7336    2.1985 H   0  0  0  0  0  0  0  0  0  0  0  0
    0.1969   -2.7243    2.9517 H   0  0  0  0  0  0  0  0  0  0  0  0
   -0.0294   -4.4803    2.8470 H   0  0  0  0  0  0  0  0  0  0  0  0
   -0.4616   -1.0893    0.5050 N   0  0  0  0  0  0  0  0  0  0  0  0
   -0.0884    0.2050   -0.0621 C   0  0  2  0  0  0  0  0  0  0  0  0
    1.4274    0.3401    0.0525 C   0  0  0  0  0  0  0  0  0  0  0  0
    2.1372    0.7298   -0.8725 O   0  0  0  0  0  0  0  0  0  0  0  0
   -0.7622    1.3763    0.6683 C   0  0  0  0  0  0  0  0  0  0  0  0
   -2.2790    1.4316    0.4591 C   0  0  0  0  0  0  0  0  0  0  0  0
   -2.8954    2.6293    1.1869 C   0  0  0  0  0  0  0  0  0  0  0  0
   -4.4109    2.6700    0.9983 C   0  0  0  0  0  0  0  0  0  0  0  0
   -4.9804    3.8030    1.7179 N   0  0  0  0  0  0  0  0  0  0  0  0
   -1.2794   -1.1113    1.0935 H   0  0  0  0  0  0  0  0  0  0  0  0
   -0.3698    0.2153   -1.1219 H   0  0  0  0  0  0  0  0  0  0  0  0
   -0.3221    2.3192    0.3177 H   0  0  0  0  0  0  0  0  0  0  0  0
   -0.5414    1.3234    1.7430 H   0  0  0  0  0  0  0  0  0  0  0  0
   -2.7451    0.5108    0.8275 H   0  0  0  0  0  0  0  0  0  0  0  0
   -2.4987    1.5021   -0.6130 H   0  0  0  0  0  0  0  0  0  0  0  0
   -2.6544    2.5695    2.2558 H   0  0  0  0  0  0  0  0  0  0  0  0
   -2.4497    3.5573    0.8068 H   0  0  0  0  0  0  0  0  0  0  0  0
   -4.8636    1.7424    1.3655 H   0  0  0  0  0  0  0  0  0  0  0  0
   -4.6560    2.7629   -0.0650 H   0  0  0  0  0  0  0  0  0  0  0  0
   -4.2447    4.2778    2.1869 H   0  0  0  0  0  0  0  0  0  0  0  0
   -5.4188    4.4032    1.0589 H   0  0  0  0  0  0  0  0  0  0  0  0
    1.8934   -0.0471    1.3014 N   0  0  0  0  0  0  0  0  0  0  0  0
    3.2925   -0.0360    1.6635 C   0  0  2  0  0  0  0  0  0  0  0  0
    3.5333   -1.1755    2.6449 C   0  0  0  0  0  0  0  0  0  0  0  0
    2.6980   -1.5369    3.4712 O   0  0  0  0  0  0  0  0  0  0  0  0
    3.6963    1.2986    2.2705 C   0  0  0  0  0  0  0  0  0  0  0  0
    1.2296   -0.3473    2.0091 H   0  0  0  0  0  0  0  0  0  0  0  0
    3.8587   -0.2195    0.7439 H   0  0  0  0  0  0  0  0  0  0  0  0
    3.1395    1.4998    3.1930 H   0  0  0  0  0  0  0  0  0  0  0  0
    4.7629    1.3154    2.5181 H   0  0  0  0  0  0  0  0  0  0  0  0
    3.4948    2.1202    1.5747 H   0  0  0  0  0  0  0  0  0  0  0  0
    4.8066   -1.7129    2.5183 N   0  0  0  0  0  0  0  0  0  0  0  0
    5.2913   -2.7775    3.3655 C   0  0  0  0  0  0  0  0  0  0  0  0
    5.4187   -1.3791    1.7796 H   0  0  0  0  0  0  0  0  0  0  0  0
    5.8170   -2.3476    4.2309 H   0  0  0  0  0  0  0  0  0  0  0  0
    4.4421   -3.3824    3.7160 H   0  0  0  0  0  0  0  0  0  0  0  0
    5.9838   -3.4136    2.7949 H   0  0  0  0  0  0  0  0  0  0  0  0
  1  3  1  0  0  0  0
  1  7  1  0  0  0  0
  1  2  2  0  0  0  0
 39 40  1  0  0  0  0
 40 48  1  0  0  0  0
 40 41  2  0  0  0  0
  8  9  1  0  0  0  0
  9 17  1  0  0  0  0
  9 10  2  0  0  0  0
 18 19  1  0  0  0  0
 19 38  1  0  0  0  0
 19 20  2  0  0  0  0
 39 42  1  0  0  0  0
  8 11  1  0  0  0  0
 48 49  1  0  0  0  0
 22 23  1  0  0  0  0
 21 22  1  0  0  0  0
 23 24  1  0  0  0  0
 18 21  1  0  0  0  0
 24 25  1  0  0  0  0
 38 39  1  0  0  0  0
  7  8  1  0  0  0  0
 17 18  1  0  0  0  0
  3  4  1  0  0  0  0
  3  5  1  0  0  0  0
  3  6  1  0  0  0  0
 42 45  1  0  0  0  0
 42 46  1  0  0  0  0
 42 47  1  0  0  0  0
 11 14  1  0  0  0  0
 11 15  1  0  0  0  0
 11 16  1  0  0  0  0
 49 51  1  0  0  0  0
 49 52  1  0  0  0  0
 49 53  1  0  0  0  0
 22 30  1  0  0  0  0
 22 31  1  0  0  0  0
 23 32  1  0  0  0  0
 23 33  1  0  0  0  0
 21 28  1  0  0  0  0
 21 29  1  0  0  0  0
 24 34  1  0  0  0  0
 24 35  1  0  0  0  0
 39 44  1  0  0  0  0
  8 13  1  0  0  0  0
 18 27  1  0  0  0  0
 25 36  1  0  0  0  0
 25 37  1  0  0  0  0
 48 50  1  0  0  0  0
  7 12  1  0  0  0  0
 38 43  1  0  0  0  0
 17 26  1  0  0  0  0
M  END
$$$$

  -OEChem-05262214473D

 53 52  0     1  0  0  0  0  0999 V2000
   -1.0338   -5.6785    0.1476 C   0  0  0  0  0  0  0  0  0  0  0  0
   -2.0514   -5.7797    0.8227 O   0  0  0  0  0  0  0  0  0  0  0  0
   -0.6558   -6.7819   -0.7841 C   0  0  0  0  0  0  0  0  0  0  0  0
   -0.0111   -7.5354   -0.3038 H   0  0  0  0  0  0  0  0  0  0  0  0
   -1.5317   -7.3401   -1.1520 H   0  0  0  0  0  0  0  0  0  0  0  0
   -0.1109   -6.4687   -1.6890 H   0  0  0  0  0  0  0  0  0  0  0  0
   -0.1543   -4.6083    0.1480 N   0  0  0  0  0  0  0  0  0  0  0  0
   -0.3302   -3.4398    0.9696 C   0  0  2  0  0  0  0  0  0  0  0  0
    0.2328   -2.2439    0.2131 C   0  0  0  0  0  0  0  0  0  0  0  0
    1.2097   -2.3192   -0.5294 O   0  0  0  0  0  0  0  0  0  0  0  0
    0.3557   -3.6024    2.3171 C   0  0  0  0  0  0  0  0  0  0  0  0
    0.6584   -4.6506   -0.4643 H   0  0  0  0  0  0  0  0  0  0  0  0
   -1.4091   -3.3101    1.1082 H   0  0  0  0  0  0  0  0  0  0  0  0
    1.4375   -3.7336    2.1985 H   0  0  0  0  0  0  0  0  0  0  0  0
    0.1969   -2.7243    2.9517 H   0  0  0  0  0  0  0  0  0  0  0  0
   -0.0294   -4.4803    2.8470 H   0  0  0  0  0  0  0  0  0  0  0  0
   -0.4616   -1.0893    0.5050 N   0  0  0  0  0  0  0  0  0  0  0  0
   -0.0884    0.2050   -0.0621 C   0  0  2  0  0  0  0  0  0  0  0  0
    1.4274    0.3401    0.0525 C   0  0  0  0  0  0  0  0  0  0  0  0
    2.1069    0.9702   -0.7554 O   0  0  0  0  0  0  0  0  0  0  0  0
   -0.7622    1.3763    0.6683 C   0  0  0  0  0  0  0  0  0  0  0  0
   -2.2790    1.4316    0.4591 C   0  0  0  0  0  0  0  0  0  0  0  0
   -2.8954    2.6293    1.1869 C   0  0  0  0  0  0  0  0  0  0  0  0
   -4.4109    2.6700    0.9983 C   0  0  0  0  0  0  0  0  0  0  0  0
   -4.9804    3.8030    1.7179 N   0  0  0  0  0  0  0  0  0  0  0  0
   -1.2794   -1.1113    1.0935 H   0  0  0  0  0  0  0  0  0  0  0  0
   -0.3698    0.2153   -1.1219 H   0  0  0  0  0  0  0  0  0  0  0  0
   -0.3221    2.3192    0.3177 H   0  0  0  0  0  0  0  0  0  0  0  0
   -0.5414    1.3234    1.7430 H   0  0  0  0  0  0  0  0  0  0  0  0
   -2.7451    0.5108    0.8275 H   0  0  0  0  0  0  0  0  0  0  0  0
   -2.4987    1.5021   -0.6130 H   0  0  0  0  0  0  0  0  0  0  0  0
   -2.6544    2.5695    2.2558 H   0  0  0  0  0  0  0  0  0  0  0  0
   -2.4497    3.5573    0.8068 H   0  0  0  0  0  0  0  0  0  0  0  0
   -4.8636    1.7424    1.3655 H   0  0  0  0  0  0  0  0  0  0  0  0
   -4.6560    2.7629   -0.0650 H   0  0  0  0  0  0  0  0  0  0  0  0
   -4.2447    4.2778    2.1869 H   0  0  0  0  0  0  0  0  0  0  0  0
   -5.4188    4.4032    1.0589 H   0  0  0  0  0  0  0  0  0  0  0  0
    1.9313   -0.3443    1.1500 N   0  0  0  0  0  0  0  0  0  0  0  0
    3.3388   -0.3952    1.4742 C   0  0  2  0  0  0  0  0  0  0  0  0
    3.6232   -1.7429    2.1242 C   0  0  0  0  0  0  0  0  0  0  0  0
    2.8153   -2.3230    2.8465 O   0  0  0  0  0  0  0  0  0  0  0  0
    3.7360    0.7474    2.3958 C   0  0  0  0  0  0  0  0  0  0  0  0
    1.2908   -0.8311    1.7700 H   0  0  0  0  0  0  0  0  0  0  0  0
    3.8843   -0.3236    0.5270 H   0  0  0  0  0  0  0  0  0  0  0  0
    3.1995    0.6924    3.3501 H   0  0  0  0  0  0  0  0  0  0  0  0
    4.8080    0.7240    2.6175 H   0  0  0  0  0  0  0  0  0  0  0  0
    3.5033    1.7154    1.9391 H   0  0  0  0  0  0  0  0  0  0  0  0
    4.9016   -2.2010    1.8378 N   0  0  0  0  0  0  0  0  0  0  0  0
    5.4251   -3.4363    2.3725 C   0  0  0  0  0  0  0  0  0  0  0  0
    5.4891   -1.6751    1.1975 H   0  0  0  0  0  0  0  0  0  0  0  0
    5.9655   -3.2315    3.3084 H   0  0  0  0  0  0  0  0  0  0  0  0
    4.5951   -4.1299    2.5727 H   0  0  0  0  0  0  0  0  0  0  0  0
    6.1133   -3.8888    1.6433 H   0  0  0  0  0  0  0  0  0  0  0  0
  1  3  1  0  0  0  0
  1  7  1  0  0  0  0
  1  2  2  0  0  0  0
 39 40  1  0  0  0  0
 40 48  1  0  0  0  0
 40 41  2  0  0  0  0
  8  9  1  0  0  0  0
  9 17  1  0  0  0  0
  9 10  2  0  0  0  0
 18 19  1  0  0  0  0
 19 38  1  0  0  0  0
 19 20  2  0  0  0  0
 39 42  1  0  0  0  0
  8 11  1  0  0  0  0
 48 49  1  0  0  0  0
 22 23  1  0  0  0  0
 21 22  1  0  0  0  0
 23 24  1  0  0  0  0
 18 21  1  0  0  0  0
 24 25  1  0  0  0  0
 38 39  1  0  0  0  0
  7  8  1  0  0  0  0
 17 18  1  0  0  0  0
  3  4  1  0  0  0  0
  3  5  1  0  0  0  0
  3  6  1  0  0  0  0
 42 45  1  0  0  0  0
 42 46  1  0  0  0  0
 42 47  1  0  0  0  0
 11 14  1  0  0  0  0
 11 15  1  0  0  0  0
 11 16  1  0  0  0  0
 49 51  1  0  0  0  0
 49 52  1  0  0  0  0
 49 53  1  0  0  0  0
 22 30  1  0  0  0  0
 22 31  1  0  0  0  0
 23 32  1  0  0  0  0
 23 33  1  0  0  0  0
 21 28  1  0  0  0  0
 21 29  1  0  0  0  0
 24 34  1  0  0  0  0
 24 35  1  0  0  0  0
 39 44  1  0  0  0  0
  8 13  1  0  0  0  0
 18 27  1  0  0  0  0
 25 36  1  0  0  0  0
 25 37  1  0  0  0  0
 48 50  1  0  0  0  0
  7 12  1  0  0  0  0
 38 43  1  0  0  0  0
 17 26  1  0  0  0  0
M  END
$$$$

  -OEChem-05262214473D

 53 52  0     1  0  0  0  0  0999 V2000
   -1.0338   -5.6785    0.1476 C   0  0  0  0  0  0  0  0  0  0  0  0
   -2.0514   -5.7797    0.8227 O   0  0  0  0  0  0  0  0  0  0  0  0
   -0.6558   -6.7819   -0.7841 C   0  0  0  0  0  0  0  0  0  0  0  0
   -0.0111   -7.5354   -0.3038 H   0  0  0  0  0  0  0  0  0  0  0  0
   -1.5317   -7.3401   -1.1520 H   0  0  0  0  0  0  0  0  0  0  0  0
   -0.1109   -6.4687   -1.6890 H   0  0  0  0  0  0  0  0  0  0  0  0
   -0.1543   -4.6083    0.1480 N   0  0  0  0  0  0  0  0  0  0  0  0
   -0.3302   -3.4398    0.9696 C   0  0  2  0  0  0  0  0  0  0  0  0
    0.2328   -2.2439    0.2131 C   0  0  0  0  0  0  0  0  0  0  0  0
    1.2097   -2.3192   -0.5294 O   0  0  0  0  0  0  0  0  0  0  0  0
    0.3557   -3.6024    2.3171 C   0  0  0  0  0  0  0  0  0  0  0  0
    0.6584   -4.6506   -0.4643 H   0  0  0  0  0  0  0  0  0  0  0  0
   -1.4091   -3.3101    1.1082 H   0  0  0  0  0  0  0  0  0  0  0  0
    1.4375   -3.7336    2.1985 H   0  0  0  0  0  0  0  0  0  0  0  0
    0.1969   -2.7243    2.9517 H   0  0  0  0  0  0  0  0  0  0  0  0
   -0.0294   -4.4803    2.8470 H   0  0  0  0  0  0  0  0  0  0  0  0
   -0.4616   -1.0893    0.5050 N   0  0  0  0  0  0  0  0  0  0  0  0
   -0.0884    0.2050   -0.0621 C   0  0  2  0  0  0  0  0  0  0  0  0
    1.4274    0.3401    0.0525 C   0  0  0  0  0  0  0  0  0  0  0  0
    2.0757    1.1716   -0.5797 O   0  0  0  0  0  0  0  0  0  0  0  0
   -0.7622    1.3763    0.6683 C   0  0  0  0  0  0  0  0  0  0  0  0
   -2.2790    1.4316    0.4591 C   0  0  0  0  0  0  0  0  0  0  0  0
   -2.8954    2.6293    1.1869 C   0  0  0  0  0  0  0  0  0  0  0  0
   -4.4109    2.6700    0.9983 C   0  0  0  0  0  0  0  0  0  0  0  0
   -4.9804    3.8030    1.7179 N   0  0  0  0  0  0  0  0  0  0  0  0
   -1.2794   -1.1113    1.0935 H   0  0  0  0  0  0  0  0  0  0  0  0
   -0.3698    0.2153   -1.1219 H   0  0  0  0  0  0  0  0  0  0  0  0
   -0.3221    2.3192    0.3177 H   0  0  0  0  0  0  0  0  0  0  0  0
   -0.5414    1.3234    1.7430 H   0  0  0  0  0  0  0  0  0  0  0  0
   -2.7451    0.5108    0.8275 H   0  0  0  0  0  0  0  0  0  0  0  0
   -2.4987    1.5021   -0.6130 H   0  0  0  0  0  0  0  0  0  0  0  0
   -2.6544    2.5695    2.2558 H   0  0  0  0  0  0  0  0  0  0  0  0
   -2.4497    3.5573    0.8068 H   0  0  0  0  0  0  0  0  0  0  0  0
   -4.8636    1.7424    1.3655 H   0  0  0  0  0  0  0  0  0  0  0  0
   -4.6560    2.7629   -0.0650 H   0  0  0  0  0  0  0  0  0  0  0  0
   -4.2447    4.2778    2.1869 H   0  0  0  0  0  0  0  0  0  0  0  0
   -5.4188    4.4032    1.0589 H   0  0  0  0  0  0  0  0  0  0  0  0
    1.9702   -0.5917    0.9264 N   0  0  0  0  0  0  0  0  0  0  0  0
    3.3862   -0.6926    1.1979 C   0  0  2  0  0  0  0  0  0  0  0  0
    3.7092   -2.1553    1.4734 C   0  0  0  0  0  0  0  0  0  0  0  0
    2.9296   -2.9195    2.0384 O   0  0  0  0  0  0  0  0  0  0  0  0
    3.7879    0.1836    2.3742 C   0  0  0  0  0  0  0  0  0  0  0  0
    1.3538   -1.2356    1.4133 H   0  0  0  0  0  0  0  0  0  0  0  0
    3.9062   -0.3679    0.2901 H   0  0  0  0  0  0  0  0  0  0  0  0
    3.2768   -0.1267    3.2929 H   0  0  0  0  0  0  0  0  0  0  0  0
    4.8655    0.1280    2.5606 H   0  0  0  0  0  0  0  0  0  0  0  0
    3.5277    1.2309    2.1867 H   0  0  0  0  0  0  0  0  0  0  0  0
    4.9872   -2.4957    1.0527 N   0  0  0  0  0  0  0  0  0  0  0  0
    5.5444   -3.8148    1.2408 C   0  0  0  0  0  0  0  0  0  0  0  0
    5.5495   -1.8099    0.5575 H   0  0  0  0  0  0  0  0  0  0  0  0
    6.1050   -3.8452    2.1867 H   0  0  0  0  0  0  0  0  0  0  0  0
    4.7313   -4.5550    1.2727 H   0  0  0  0  0  0  0  0  0  0  0  0
    6.2211   -4.0493    0.4059 H   0  0  0  0  0  0  0  0  0  0  0  0
  1  3  1  0  0  0  0
  1  7  1  0  0  0  0
  1  2  2  0  0  0  0
 39 40  1  0  0  0  0
 40 48  1  0  0  0  0
 40 41  2  0  0  0  0
  8  9  1  0  0  0  0
  9 17  1  0  0  0  0
  9 10  2  0  0  0  0
 18 19  1  0  0  0  0
 19 38  1  0  0  0  0
 19 20  2  0  0  0  0
 39 42  1  0  0  0  0
  8 11  1  0  0  0  0
 48 49  1  0  0  0  0
 22 23  1  0  0  0  0
 21 22  1  0  0  0  0
 23 24  1  0  0  0  0
 18 21  1  0  0  0  0
 24 25  1  0  0  0  0
 38 39  1  0  0  0  0
  7  8  1  0  0  0  0
 17 18  1  0  0  0  0
  3  4  1  0  0  0  0
  3  5  1  0  0  0  0
  3  6  1  0  0  0  0
 42 45  1  0  0  0  0
 42 46  1  0  0  0  0
 42 47  1  0  0  0  0
 11 14  1  0  0  0  0
 11 15  1  0  0  0  0
 11 16  1  0  0  0  0
 49 51  1  0  0  0  0
 49 52  1  0  0  0  0
 49 53  1  0  0  0  0
 22 30  1  0  0  0  0
 22 31  1  0  0  0  0
 23 32  1  0  0  0  0
 23 33  1  0  0  0  0
 21 28  1  0  0  0  0
 21 29  1  0  0  0  0
 24 34  1  0  0  0  0
 24 35  1  0  0  0  0
 39 44  1  0  0  0  0
  8 13  1  0  0  0  0
 18 27  1  0  0  0  0
 25 36  1  0  0  0  0
 25 37  1  0  0  0  0
 48 50  1  0  0  0  0
  7 12  1  0  0  0  0
 38 43  1  0  0  0  0
 17 26  1  0  0  0  0
M  END
$$$$

  -OEChem-05262214473D

 53 52  0     1  0  0  0  0  0999 V2000
   -1.0338   -5.6785    0.1476 C   0  0  0  0  0  0  0  0  0  0  0  0
   -2.0514   -5.7797    0.8227 O   0  0  0  0  0  0  0  0  0  0  0  0
   -0.6558   -6.7819   -0.7841 C   0  0  0  0  0  0  0  0  0  0  0  0
   -0.0111   -7.5354   -0.3038 H   0  0  0  0  0  0  0  0  0  0  0  0
   -1.5317   -7.3401   -1.1520 H   0  0  0  0  0  0  0  0  0  0  0  0
   -0.1109   -6.4687   -1.6890 H   0  0  0  0  0  0  0  0  0  0  0  0
   -0.1543   -4.6083    0.1480 N   0  0  0  0  0  0  0  0  0  0  0  0
   -0.3302   -3.4398    0.9696 C   0  0  2  0  0  0  0  0  0  0  0  0
    0.2328   -2.2439    0.2131 C   0  0  0  0  0  0  0  0  0  0  0  0
    1.2097   -2.3192   -0.5294 O   0  0  0  0  0  0  0  0  0  0  0  0
    0.3557   -3.6024    2.3171 C   0  0  0  0  0  0  0  0  0  0  0  0
    0.6584   -4.6506   -0.4643 H   0  0  0  0  0  0  0  0  0  0  0  0
   -1.4091   -3.3101    1.1082 H   0  0  0  0  0  0  0  0  0  0  0  0
    1.4375   -3.7336    2.1985 H   0  0  0  0  0  0  0  0  0  0  0  0
    0.1969   -2.7243    2.9517 H   0  0  0  0  0  0  0  0  0  0  0  0
   -0.0294   -4.4803    2.8470 H   0  0  0  0  0  0  0  0  0  0  0  0
   -0.4616   -1.0893    0.5050 N   0  0  0  0  0  0  0  0  0  0  0  0
   -0.0884    0.2050   -0.0621 C   0  0  2  0  0  0  0  0  0  0  0  0
    1.4274    0.3401    0.0525 C   0  0  0  0  0  0  0  0  0  0  0  0
    2.0456    1.3204   -0.3575 O   0  0  0  0  0  0  0  0  0  0  0  0
   -0.7622    1.3763    0.6683 C   0  0  0  0  0  0  0  0  0  0  0  0
   -2.2790    1.4316    0.4591 C   0  0  0  0  0  0  0  0  0  0  0  0
   -2.8954    2.6293    1.1869 C   0  0  0  0  0  0  0  0  0  0  0  0
   -4.4109    2.6700    0.9983 C   0  0  0  0  0  0  0  0  0  0  0  0
   -4.9804    3.8030    1.7179 N   0  0  0  0  0  0  0  0  0  0  0  0
   -1.2794   -1.1113    1.0935 H   0  0  0  0  0  0  0  0  0  0  0  0
   -0.3698    0.2153   -1.1219 H   0  0  0  0  0  0  0  0  0  0  0  0
   -0.3221    2.3192    0.3177 H   0  0  0  0  0  0  0  0  0  0  0  0
   -0.5414    1.3234    1.7430 H   0  0  0  0  0  0  0  0  0  0  0  0
   -2.7451    0.5108    0.8275 H   0  0  0  0  0  0  0  0  0  0  0  0
   -2.4987    1.5021   -0.6130 H   0  0  0  0  0  0  0  0  0  0  0  0
   -2.6544    2.5695    2.2558 H   0  0  0  0  0  0  0  0  0  0  0  0
   -2.4497    3.5573    0.8068 H   0  0  0  0  0  0  0  0  0  0  0  0
   -4.8636    1.7424    1.3655 H   0  0  0  0  0  0  0  0  0  0  0  0
   -4.6560    2.7629   -0.0650 H   0  0  0  0  0  0  0  0  0  0  0  0
   -4.2447    4.2778    2.1869 H   0  0  0  0  0  0  0  0  0  0  0  0
   -5.4188    4.4032    1.0589 H   0  0  0  0  0  0  0  0  0  0  0  0
    2.0076   -0.7725    0.6460 N   0  0  0  0  0  0  0  0  0  0  0  0
    3.4314   -0.9080    0.8535 C   0  0  2  0  0  0  0  0  0  0  0  0
    3.7853   -2.3847    0.7367 C   0  0  0  0  0  0  0  0  0  0  0  0
    3.0330   -3.2857    1.1018 O   0  0  0  0  0  0  0  0  0  0  0  0
    3.8484   -0.3545    2.2072 C   0  0  0  0  0  0  0  0  0  0  0  0
    1.4144   -1.5335    0.9632 H   0  0  0  0  0  0  0  0  0  0  0  0
    3.9227   -0.3494    0.0494 H   0  0  0  0  0  0  0  0  0  0  0  0
    3.3661   -0.9017    3.0254 H   0  0  0  0  0  0  0  0  0  0  0  0
    4.9312   -0.4318    2.3510 H   0  0  0  0  0  0  0  0  0  0  0  0
    3.5664    0.6998    2.3009 H   0  0  0  0  0  0  0  0  0  0  0  0
    5.0576   -2.5769    0.2167 N   0  0  0  0  0  0  0  0  0  0  0  0
    5.6410   -3.8872    0.0477 C   0  0  0  0  0  0  0  0  0  0  0  0
    5.5958   -1.7744   -0.0968 H   0  0  0  0  0  0  0  0  0  0  0  0
    6.2260   -4.1469    0.9423 H   0  0  0  0  0  0  0  0  0  0  0  0
    4.8413   -4.6288   -0.0954 H   0  0  0  0  0  0  0  0  0  0  0  0
    6.3001   -3.8842   -0.8330 H   0  0  0  0  0  0  0  0  0  0  0  0
  1  3  1  0  0  0  0
  1  7  1  0  0  0  0
  1  2  2  0  0  0  0
 39 40  1  0  0  0  0
 40 48  1  0  0  0  0
 40 41  2  0  0  0  0
  8  9  1  0  0  0  0
  9 17  1  0  0  0  0
  9 10  2  0  0  0  0
 18 19  1  0  0  0  0
 19 38  1  0  0  0  0
 19 20  2  0  0  0  0
 39 42  1  0  0  0  0
  8 11  1  0  0  0  0
 48 49  1  0  0  0  0
 22 23  1  0  0  0  0
 21 22  1  0  0  0  0
 23 24  1  0  0  0  0
 18 21  1  0  0  0  0
 24 25  1  0  0  0  0
 38 39  1  0  0  0  0
  7  8  1  0  0  0  0
 17 18  1  0  0  0  0
  3  4  1  0  0  0  0
  3  5  1  0  0  0  0
  3  6  1  0  0  0  0
 42 45  1  0  0  0  0
 42 46  1  0  0  0  0
 42 47  1  0  0  0  0
 11 14  1  0  0  0  0
 11 15  1  0  0  0  0
 11 16  1  0  0  0  0
 49 51  1  0  0  0  0
 49 52  1  0  0  0  0
 49 53  1  0  0  0  0
 22 30  1  0  0  0  0
 22 31  1  0  0  0  0
 23 32  1  0  0  0  0
 23 33  1  0  0  0  0
 21 28  1  0  0  0  0
 21 29  1  0  0  0  0
 24 34  1  0  0  0  0
 24 35  1  0  0  0  0
 39 44  1  0  0  0  0
  8 13  1  0  0  0  0
 18 27  1  0  0  0  0
 25 36  1  0  0  0  0
 25 37  1  0  0  0  0
 48 50  1  0  0  0  0
  7 12  1  0  0  0  0
 38 43  1  0  0  0  0
 17 26  1  0  0  0  0
M  END
$$$$

  -OEChem-05262214473D

 53 52  0     1  0  0  0  0  0999 V2000
   -1.0338   -5.6785    0.1476 C   0  0  0  0  0  0  0  0  0  0  0  0
   -2.0514   -5.7797    0.8227 O   0  0  0  0  0  0  0  0  0  0  0  0
   -0.6558   -6.7819   -0.7841 C   0  0  0  0  0  0  0  0  0  0  0  0
   -0.0111   -7.5354   -0.3038 H   0  0  0  0  0  0  0  0  0  0  0  0
   -1.5317   -7.3401   -1.1520 H   0  0  0  0  0  0  0  0  0  0  0  0
   -0.1109   -6.4687   -1.6890 H   0  0  0  0  0  0  0  0  0  0  0  0
   -0.1543   -4.6083    0.1480 N   0  0  0  0  0  0  0  0  0  0  0  0
   -0.3302   -3.4398    0.9696 C   0  0  2  0  0  0  0  0  0  0  0  0
    0.2328   -2.2439    0.2131 C   0  0  0  0  0  0  0  0  0  0  0  0
    1.2097   -2.3192   -0.5294 O   0  0  0  0  0  0  0  0  0  0  0  0
    0.3557   -3.6024    2.3171 C   0  0  0  0  0  0  0  0  0  0  0  0
    0.6584   -4.6506   -0.4643 H   0  0  0  0  0  0  0  0  0  0  0  0
   -1.4091   -3.3101    1.1082 H   0  0  0  0  0  0  0  0  0  0  0  0
    1.4375   -3.7336    2.1985 H   0  0  0  0  0  0  0  0  0  0  0  0
    0.1969   -2.7243    2.9517 H   0  0  0  0  0  0  0  0  0  0  0  0
   -0.0294   -4.4803    2.8470 H   0  0  0  0  0  0  0  0  0  0  0  0
   -0.4616   -1.0893    0.5050 N   0  0  0  0  0  0  0  0  0  0  0  0
   -0.0884    0.2050   -0.0621 C   0  0  2  0  0  0  0  0  0  0  0  0
    1.4274    0.3401    0.0525 C   0  0  0  0  0  0  0  0  0  0  0  0
    2.0188    1.4065   -0.1040 O   0  0  0  0  0  0  0  0  0  0  0  0
   -0.7622    1.3763    0.6683 C   0  0  0  0  0  0  0  0  0  0  0  0
   -2.2790    1.4316    0.4591 C   0  0  0  0  0  0  0  0  0  0  0  0
   -2.8954    2.6293    1.1869 C   0  0  0  0  0  0  0  0  0  0  0  0
   -4.4109    2.6700    0.9983 C   0  0  0  0  0  0  0  0  0  0  0  0
   -4.9804    3.8030    1.7179 N   0  0  0  0  0  0  0  0  0  0  0  0
   -1.2794   -1.1113    1.0935 H   0  0  0  0  0  0  0  0  0  0  0  0
   -0.3698    0.2153   -1.1219 H   0  0  0  0  0  0  0  0  0  0  0  0
   -0.3221    2.3192    0.3177 H   0  0  0  0  0  0  0  0  0  0  0  0
   -0.5414    1.3234    1.7430 H   0  0  0  0  0  0  0  0  0  0  0  0
   -2.7451    0.5108    0.8275 H   0  0  0  0  0  0  0  0  0  0  0  0
   -2.4987    1.5021   -0.6130 H   0  0  0  0  0  0  0  0  0  0  0  0
   -2.6544    2.5695    2.2558 H   0  0  0  0  0  0  0  0  0  0  0  0
   -2.4497    3.5573    0.8068 H   0  0  0  0  0  0  0  0  0  0  0  0
   -4.8636    1.7424    1.3655 H   0  0  0  0  0  0  0  0  0  0  0  0
   -4.6560    2.7629   -0.0650 H   0  0  0  0  0  0  0  0  0  0  0  0
   -4.2447    4.2778    2.1869 H   0  0  0  0  0  0  0  0  0  0  0  0
   -5.4188    4.4032    1.0589 H   0  0  0  0  0  0  0  0  0  0  0  0
    2.0407   -0.8743    0.3278 N   0  0  0  0  0  0  0  0  0  0  0  0
    3.4714   -1.0266    0.4644 C   0  0  2  0  0  0  0  0  0  0  0  0
    3.8464   -2.4154   -0.0356 C   0  0  0  0  0  0  0  0  0  0  0  0
    3.1186   -3.3966    0.1007 O   0  0  0  0  0  0  0  0  0  0  0  0
    3.9136   -0.8301    1.9062 C   0  0  0  0  0  0  0  0  0  0  0  0
    1.4684   -1.7044    0.4505 H   0  0  0  0  0  0  0  0  0  0  0  0
    3.9329   -0.2693   -0.1787 H   0  0  0  0  0  0  0  0  0  0  0  0
    3.4613   -1.5798    2.5656 H   0  0  0  0  0  0  0  0  0  0  0  0
    5.0008   -0.9175    2.0032 H   0  0  0  0  0  0  0  0  0  0  0  0
    3.6167    0.1581    2.2737 H   0  0  0  0  0  0  0  0  0  0  0  0
    5.1081   -2.4390   -0.6133 N   0  0  0  0  0  0  0  0  0  0  0  0
    5.7085   -3.6485   -1.1257 C   0  0  0  0  0  0  0  0  0  0  0  0
    5.6248   -1.5711   -0.7207 H   0  0  0  0  0  0  0  0  0  0  0  0
    6.3202   -4.1161   -0.3400 H   0  0  0  0  0  0  0  0  0  0  0  0
    4.9177   -4.3463   -1.4384 H   0  0  0  0  0  0  0  0  0  0  0  0
    6.3448   -3.4046   -1.9891 H   0  0  0  0  0  0  0  0  0  0  0  0
  1  3  1  0  0  0  0
  1  7  1  0  0  0  0
  1  2  2  0  0  0  0
 39 40  1  0  0  0  0
 40 48  1  0  0  0  0
 40 41  2  0  0  0  0
  8  9  1  0  0  0  0
  9 17  1  0  0  0  0
  9 10  2  0  0  0  0
 18 19  1  0  0  0  0
 19 38  1  0  0  0  0
 19 20  2  0  0  0  0
 39 42  1  0  0  0  0
  8 11  1  0  0  0  0
 48 49  1  0  0  0  0
 22 23  1  0  0  0  0
 21 22  1  0  0  0  0
 23 24  1  0  0  0  0
 18 21  1  0  0  0  0
 24 25  1  0  0  0  0
 38 39  1  0  0  0  0
  7  8  1  0  0  0  0
 17 18  1  0  0  0  0
  3  4  1  0  0  0  0
  3  5  1  0  0  0  0
  3  6  1  0  0  0  0
 42 45  1  0  0  0  0
 42 46  1  0  0  0  0
 42 47  1  0  0  0  0
 11 14  1  0  0  0  0
 11 15  1  0  0  0  0
 11 16  1  0  0  0  0
 49 51  1  0  0  0  0
 49 52  1  0  0  0  0
 49 53  1  0  0  0  0
 22 30  1  0  0  0  0
 22 31  1  0  0  0  0
 23 32  1  0  0  0  0
 23 33  1  0  0  0  0
 21 28  1  0  0  0  0
 21 29  1  0  0  0  0
 24 34  1  0  0  0  0
 24 35  1  0  0  0  0
 39 44  1  0  0  0  0
  8 13  1  0  0  0  0
 18 27  1  0  0  0  0
 25 36  1  0  0  0  0
 25 37  1  0  0  0  0
 48 50  1  0  0  0  0
  7 12  1  0  0  0  0
 38 43  1  0  0  0  0
 17 26  1  0  0  0  0
M  END
$$$$

  -OEChem-05262214473D

 53 52  0     1  0  0  0  0  0999 V2000
   -1.0338   -5.6785    0.1476 C   0  0  0  0  0  0  0  0  0  0  0  0
   -2.0514   -5.7797    0.8227 O   0  0  0  0  0  0  0  0  0  0  0  0
   -0.6558   -6.7819   -0.7841 C   0  0  0  0  0  0  0  0  0  0  0  0
   -0.0111   -7.5354   -0.3038 H   0  0  0  0  0  0  0  0  0  0  0  0
   -1.5317   -7.3401   -1.1520 H   0  0  0  0  0  0  0  0  0  0  0  0
   -0.1109   -6.4687   -1.6890 H   0  0  0  0  0  0  0  0  0  0  0  0
   -0.1543   -4.6083    0.1480 N   0  0  0  0  0  0  0  0  0  0  0  0
   -0.3302   -3.4398    0.9696 C   0  0  2  0  0  0  0  0  0  0  0  0
    0.2328   -2.2439    0.2131 C   0  0  0  0  0  0  0  0  0  0  0  0
    1.2097   -2.3192   -0.5294 O   0  0  0  0  0  0  0  0  0  0  0  0
    0.3557   -3.6024    2.3171 C   0  0  0  0  0  0  0  0  0  0  0  0
    0.6584   -4.6506   -0.4643 H   0  0  0  0  0  0  0  0  0  0  0  0
   -1.4091   -3.3101    1.1082 H   0  0  0  0  0  0  0  0  0  0  0  0
    1.4375   -3.7336    2.1985 H   0  0  0  0  0  0  0  0  0  0  0  0
    0.1969   -2.7243    2.9517 H   0  0  0  0  0  0  0  0  0  0  0  0
   -0.0294   -4.4803    2.8470 H   0  0  0  0  0  0  0  0  0  0  0  0
   -0.4616   -1.0893    0.5050 N   0  0  0  0  0  0  0  0  0  0  0  0
   -0.0884    0.2050   -0.0621 C   0  0  2  0  0  0  0  0  0  0  0  0
    1.4274    0.3401    0.0525 C   0  0  0  0  0  0  0  0  0  0  0  0
    1.9970    1.4239    0.1636 O   0  0  0  0  0  0  0  0  0  0  0  0
   -0.7622    1.3763    0.6683 C   0  0  0  0  0  0  0  0  0  0  0  0
   -2.2790    1.4316    0.4591 C   0  0  0  0  0  0  0  0  0  0  0  0
   -2.8954    2.6293    1.1869 C   0  0  0  0  0  0  0  0  0  0  0  0
   -4.4109    2.6700    0.9983 C   0  0  0  0  0  0  0  0  0  0  0  0
   -4.9804    3.8030    1.7179 N   0  0  0  0  0  0  0  0  0  0  0  0
   -1.2794   -1.1113    1.0935 H   0  0  0  0  0  0  0  0  0  0  0  0
   -0.3698    0.2153   -1.1219 H   0  0  0  0  0  0  0  0  0  0  0  0
   -0.3221    2.3192    0.3177 H   0  0  0  0  0  0  0  0  0  0  0  0
   -0.5414    1.3234    1.7430 H   0  0  0  0  0  0  0  0  0  0  0  0
   -2.7451    0.5108    0.8275 H   0  0  0  0  0  0  0  0  0  0  0  0
   -2.4987    1.5021   -0.6130 H   0  0  0  0  0  0  0  0  0  0  0  0
   -2.6544    2.5695    2.2558 H   0  0  0  0  0  0  0  0  0  0  0  0
   -2.4497    3.5573    0.8068 H   0  0  0  0  0  0  0  0  0  0  0  0
   -4.8636    1.7424    1.3655 H   0  0  0  0  0  0  0  0  0  0  0  0
   -4.6560    2.7629   -0.0650 H   0  0  0  0  0  0  0  0  0  0  0  0
   -4.2447    4.2778    2.1869 H   0  0  0  0  0  0  0  0  0  0  0  0
   -5.4188    4.4032    1.0589 H   0  0  0  0  0  0  0  0  0  0  0  0
    2.0674   -0.8902   -0.0065 N   0  0  0  0  0  0  0  0  0  0  0  0
    3.5034   -1.0403    0.0572 C   0  0  2  0  0  0  0  0  0  0  0  0
    3.8884   -2.2453   -0.7908 C   0  0  0  0  0  0  0  0  0  0  0  0
    3.1805   -3.2447   -0.8968 O   0  0  0  0  0  0  0  0  0  0  0  0
    3.9788   -1.2109    1.4916 C   0  0  0  0  0  0  0  0  0  0  0  0
    1.5121   -1.7366   -0.0898 H   0  0  0  0  0  0  0  0  0  0  0  0
    3.9358   -0.1331   -0.3787 H   0  0  0  0  0  0  0  0  0  0  0  0
    3.5559   -2.1148    1.9451 H   0  0  0  0  0  0  0  0  0  0  0  0
    5.0694   -1.2958    1.5407 H   0  0  0  0  0  0  0  0  0  0  0  0
    3.6752   -0.3571    2.1070 H   0  0  0  0  0  0  0  0  0  0  0  0
    5.1352   -2.0914   -1.3807 N   0  0  0  0  0  0  0  0  0  0  0  0
    5.7421   -3.1150   -2.1992 C   0  0  0  0  0  0  0  0  0  0  0  0
    5.6347   -1.2137   -1.2717 H   0  0  0  0  0  0  0  0  0  0  0  0
    6.3813   -3.7549   -1.5729 H   0  0  0  0  0  0  0  0  0  0  0  0
    4.9552   -3.7266   -2.6647 H   0  0  0  0  0  0  0  0  0  0  0  0
    6.3521   -2.6433   -2.9836 H   0  0  0  0  0  0  0  0  0  0  0  0
  1  3  1  0  0  0  0
  1  7  1  0  0  0  0
  1  2  2  0  0  0  0
 39 40  1  0  0  0  0
 40 48  1  0  0  0  0
 40 41  2  0  0  0  0
  8  9  1  0  0  0  0
  9 17  1  0  0  0  0
  9 10  2  0  0  0  0
 18 19  1  0  0  0  0
 19 38  1  0  0  0  0
 19 20  2  0  0  0  0
 39 42  1  0  0  0  0
  8 11  1  0  0  0  0
 48 49  1  0  0  0  0
 22 23  1  0  0  0  0
 21 22  1  0  0  0  0
 23 24  1  0  0  0  0
 18 21  1  0  0  0  0
 24 25  1  0  0  0  0
 38 39  1  0  0  0  0
  7  8  1  0  0  0  0
 17 18  1  0  0  0  0
  3  4  1  0  0  0  0
  3  5  1  0  0  0  0
  3  6  1  0  0  0  0
 42 45  1  0  0  0  0
 42 46  1  0  0  0  0
 42 47  1  0  0  0  0
 11 14  1  0  0  0  0
 11 15  1  0  0  0  0
 11 16  1  0  0  0  0
 49 51  1  0  0  0  0
 49 52  1  0  0  0  0
 49 53  1  0  0  0  0
 22 30  1  0  0  0  0
 22 31  1  0  0  0  0
 23 32  1  0  0  0  0
 23 33  1  0  0  0  0
 21 28  1  0  0  0  0
 21 29  1  0  0  0  0
 24 34  1  0  0  0  0
 24 35  1  0  0  0  0
 39 44  1  0  0  0  0
  8 13  1  0  0  0  0
 18 27  1  0  0  0  0
 25 36  1  0  0  0  0
 25 37  1  0  0  0  0
 48 50  1  0  0  0  0
  7 12  1  0  0  0  0
 38 43  1  0  0  0  0
 17 26  1  0  0  0  0
M  END
$$$$

  -OEChem-05262214473D

 53 52  0     1  0  0  0  0  0999 V2000
   -1.0338   -5.6785    0.1476 C   0  0  0  0  0  0  0  0  0  0  0  0
   -2.0514   -5.7797    0.8227 O   0  0  0  0  0  0  0  0  0  0  0  0
   -0.6558   -6.7819   -0.7841 C   0  0  0  0  0  0  0  0  0  0  0  0
   -0.0111   -7.5354   -0.3038 H   0  0  0  0  0  0  0  0  0  0  0  0
   -1.5317   -7.3401   -1.1520 H   0  0  0  0  0  0  0  0  0  0  0  0
   -0.1109   -6.4687   -1.6890 H   0  0  0  0  0  0  0  0  0  0  0  0
   -0.1543   -4.6083    0.1480 N   0  0  0  0  0  0  0  0  0  0  0  0
   -0.3302   -3.4398    0.9696 C   0  0  2  0  0  0  0  0  0  0  0  0
    0.2328   -2.2439    0.2131 C   0  0  0  0  0  0  0  0  0  0  0  0
    1.2097   -2.3192   -0.5294 O   0  0  0  0  0  0  0  0  0  0  0  0
    0.3557   -3.6024    2.3171 C   0  0  0  0  0  0  0  0  0  0  0  0
    0.6584   -4.6506   -0.4643 H   0  0  0  0  0  0  0  0  0  0  0  0
   -1.4091   -3.3101    1.1082 H   0  0  0  0  0  0  0  0  0  0  0  0
    1.4375   -3.7336    2.1985 H   0  0  0  0  0  0  0  0  0  0  0  0
    0.1969   -2.7243    2.9517 H   0  0  0  0  0  0  0  0  0  0  0  0
   -0.0294   -4.4803    2.8470 H   0  0  0  0  0  0  0  0  0  0  0  0
   -0.4616   -1.0893    0.5050 N   0  0  0  0  0  0  0  0  0  0  0  0
   -0.0884    0.2050   -0.0621 C   0  0  2  0  0  0  0  0  0  0  0  0
    1.4274    0.3401    0.0525 C   0  0  0  0  0  0  0  0  0  0  0  0
    1.9817    1.3715    0.4271 O   0  0  0  0  0  0  0  0  0  0  0  0
   -0.7622    1.3763    0.6683 C   0  0  0  0  0  0  0  0  0  0  0  0
   -2.2790    1.4316    0.4591 C   0  0  0  0  0  0  0  0  0  0  0  0
   -2.8954    2.6293    1.1869 C   0  0  0  0  0  0  0  0  0  0  0  0
   -4.4109    2.6700    0.9983 C   0  0  0  0  0  0  0  0  0  0  0  0
   -4.9804    3.8030    1.7179 N   0  0  0  0  0  0  0  0  0  0  0  0
   -1.2794   -1.1113    1.0935 H   0  0  0  0  0  0  0  0  0  0  0  0
   -0.3698    0.2153   -1.1219 H   0  0  0  0  0  0  0  0  0  0  0  0
   -0.3221    2.3192    0.3177 H   0  0  0  0  0  0  0  0  0  0  0  0
   -0.5414    1.3234    1.7430 H   0  0  0  0  0  0  0  0  0  0  0  0
   -2.7451    0.5108    0.8275 H   0  0  0  0  0  0  0  0  0  0  0  0
   -2.4987    1.5021   -0.6130 H   0  0  0  0  0  0  0  0  0  0  0  0
   -2.6544    2.5695    2.2558 H   0  0  0  0  0  0  0  0  0  0  0  0
   -2.4497    3.5573    0.8068 H   0  0  0  0  0  0  0  0  0  0  0  0
   -4.8636    1.7424    1.3655 H   0  0  0  0  0  0  0  0  0  0  0  0
   -4.6560    2.7629   -0.0650 H   0  0  0  0  0  0  0  0  0  0  0  0
   -4.2447    4.2778    2.1869 H   0  0  0  0  0  0  0  0  0  0  0  0
   -5.4188    4.4032    1.0589 H   0  0  0  0  0  0  0  0  0  0  0  0
    2.0858   -0.8191   -0.3341 N   0  0  0  0  0  0  0  0  0  0  0  0
    3.5253   -0.9483   -0.3404 C   0  0  2  0  0  0  0  0  0  0  0  0
    3.9083   -1.8861   -1.4776 C   0  0  0  0  0  0  0  0  0  0  0  0
    3.2145   -2.8403   -1.8227 O   0  0  0  0  0  0  0  0  0  0  0  0
    4.0398   -1.4708    0.9919 C   0  0  0  0  0  0  0  0  0  0  0  0
    1.5426   -1.6279   -0.6210 H   0  0  0  0  0  0  0  0  0  0  0  0
    3.9315    0.0499   -0.5369 H   0  0  0  0  0  0  0  0  0  0  0  0
    3.6434   -2.4701    1.2060 H   0  0  0  0  0  0  0  0  0  0  0  0
    5.1325   -1.5411    0.9952 H   0  0  0  0  0  0  0  0  0  0  0  0
    3.7380   -0.8108    1.8122 H   0  0  0  0  0  0  0  0  0  0  0  0
    5.1370   -1.5579   -2.0333 N   0  0  0  0  0  0  0  0  0  0  0  0
    5.7397   -2.3231   -3.0997 C   0  0  0  0  0  0  0  0  0  0  0  0
    5.6246   -0.7267   -1.7123 H   0  0  0  0  0  0  0  0  0  0  0  0
    6.4050   -3.0878   -2.6724 H   0  0  0  0  0  0  0  0  0  0  0  0
    4.9513   -2.8121   -3.6908 H   0  0  0  0  0  0  0  0  0  0  0  0
    6.3217   -1.6522   -3.7486 H   0  0  0  0  0  0  0  0  0  0  0  0
  1  3  1  0  0  0  0
  1  7  1  0  0  0  0
  1  2  2  0  0  0  0
 39 40  1  0  0  0  0
 40 48  1  0  0  0  0
 40 41  2  0  0  0  0
  8  9  1  0  0  0  0
  9 17  1  0  0  0  0
  9 10  2  0  0  0  0
 18 19  1  0  0  0  0
 19 38  1  0  0  0  0
 19 20  2  0  0  0  0
 39 42  1  0  0  0  0
  8 11  1  0  0  0  0
 48 49  1  0  0  0  0
 22 23  1  0  0  0  0
 21 22  1  0  0  0  0
 23 24  1  0  0  0  0
 18 21  1  0  0  0  0
 24 25  1  0  0  0  0
 38 39  1  0  0  0  0
  7  8  1  0  0  0  0
 17 18  1  0  0  0  0
  3  4  1  0  0  0  0
  3  5  1  0  0  0  0
  3  6  1  0  0  0  0
 42 45  1  0  0  0  0
 42 46  1  0  0  0  0
 42 47  1  0  0  0  0
 11 14  1  0  0  0  0
 11 15  1  0  0  0  0
 11 16  1  0  0  0  0
 49 51  1  0  0  0  0
 49 52  1  0  0  0  0
 49 53  1  0  0  0  0
 22 30  1  0  0  0  0
 22 31  1  0  0  0  0
 23 32  1  0  0  0  0
 23 33  1  0  0  0  0
 21 28  1  0  0  0  0
 21 29  1  0  0  0  0
 24 34  1  0  0  0  0
 24 35  1  0  0  0  0
 39 44  1  0  0  0  0
  8 13  1  0  0  0  0
 18 27  1  0  0  0  0
 25 36  1  0  0  0  0
 25 37  1  0  0  0  0
 48 50  1  0  0  0  0
  7 12  1  0  0  0  0
 38 43  1  0  0  0  0
 17 26  1  0  0  0  0
M  END
$$$$

  -OEChem-05262214473D

 53 52  0     1  0  0  0  0  0999 V2000
   -1.0338   -5.6785    0.1476 C   0  0  0  0  0  0  0  0  0  0  0  0
   -2.0514   -5.7797    0.8227 O   0  0  0  0  0  0  0  0  0  0  0  0
   -0.6558   -6.7819   -0.7841 C   0  0  0  0  0  0  0  0  0  0  0  0
   -0.0111   -7.5354   -0.3038 H   0  0  0  0  0  0  0  0  0  0  0  0
   -1.5317   -7.3401   -1.1520 H   0  0  0  0  0  0  0  0  0  0  0  0
   -0.1109   -6.4687   -1.6890 H   0  0  0  0  0  0  0  0  0  0  0  0
   -0.1543   -4.6083    0.1480 N   0  0  0  0  0  0  0  0  0  0  0  0
   -0.3302   -3.4398    0.9696 C   0  0  2  0  0  0  0  0  0  0  0  0
    0.2328   -2.2439    0.2131 C   0  0  0  0  0  0  0  0  0  0  0  0
    1.2097   -2.3192   -0.5294 O   0  0  0  0  0  0  0  0  0  0  0  0
    0.3557   -3.6024    2.3171 C   0  0  0  0  0  0  0  0  0  0  0  0
    0.6584   -4.6506   -0.4643 H   0  0  0  0  0  0  0  0  0  0  0  0
   -1.4091   -3.3101    1.1082 H   0  0  0  0  0  0  0  0  0  0  0  0
    1.4375   -3.7336    2.1985 H   0  0  0  0  0  0  0  0  0  0  0  0
    0.1969   -2.7243    2.9517 H   0  0  0  0  0  0  0  0  0  0  0  0
   -0.0294   -4.4803    2.8470 H   0  0  0  0  0  0  0  0  0  0  0  0
   -0.4616   -1.0893    0.5050 N   0  0  0  0  0  0  0  0  0  0  0  0
   -0.0884    0.2050   -0.0621 C   0  0  2  0  0  0  0  0  0  0  0  0
    1.4274    0.3401    0.0525 C   0  0  0  0  0  0  0  0  0  0  0  0
    1.9741    1.2528    0.6685 O   0  0  0  0  0  0  0  0  0  0  0  0
   -0.7622    1.3763    0.6683 C   0  0  0  0  0  0  0  0  0  0  0  0
   -2.2790    1.4316    0.4591 C   0  0  0  0  0  0  0  0  0  0  0  0
   -2.8954    2.6293    1.1869 C   0  0  0  0  0  0  0  0  0  0  0  0
   -4.4109    2.6700    0.9983 C   0  0  0  0  0  0  0  0  0  0  0  0
   -4.9804    3.8030    1.7179 N   0  0  0  0  0  0  0  0  0  0  0  0
   -1.2794   -1.1113    1.0935 H   0  0  0  0  0  0  0  0  0  0  0  0
   -0.3698    0.2153   -1.1219 H   0  0  0  0  0  0  0  0  0  0  0  0
   -0.3221    2.3192    0.3177 H   0  0  0  0  0  0  0  0  0  0  0  0
   -0.5414    1.3234    1.7430 H   0  0  0  0  0  0  0  0  0  0  0  0
   -2.7451    0.5108    0.8275 H   0  0  0  0  0  0  0  0  0  0  0  0
   -2.4987    1.5021   -0.6130 H   0  0  0  0  0  0  0  0  0  0  0  0
   -2.6544    2.5695    2.2558 H   0  0  0  0  0  0  0  0  0  0  0  0
   -2.4497    3.5573    0.8068 H   0  0  0  0  0  0  0  0  0  0  0  0
   -4.8636    1.7424    1.3655 H   0  0  0  0  0  0  0  0  0  0  0  0
   -4.6560    2.7629   -0.0650 H   0  0  0  0  0  0  0  0  0  0  0  0
   -4.2447    4.2778    2.1869 H   0  0  0  0  0  0  0  0  0  0  0  0
   -5.4188    4.4032    1.0589 H   0  0  0  0  0  0  0  0  0  0  0  0
    2.0947   -0.6659   -0.6326 N   0  0  0  0  0  0  0  0  0  0  0  0
    3.5355   -0.7567   -0.7013 C   0  0  2  0  0  0  0  0  0  0  0  0
    3.9049   -1.3622   -2.0490 C   0  0  0  0  0  0  0  0  0  0  0  0
    3.2182   -2.2111   -2.6139 O   0  0  0  0  0  0  0  0  0  0  0  0
    4.0923   -1.5923    0.4409 C   0  0  0  0  0  0  0  0  0  0  0  0
    1.5578   -1.3858   -1.1069 H   0  0  0  0  0  0  0  0  0  0  0  0
    3.9201    0.2673   -0.6426 H   0  0  0  0  0  0  0  0  0  0  0  0
    3.7180   -2.6216    0.3987 H   0  0  0  0  0  0  0  0  0  0  0  0
    5.1858   -1.6365    0.4038 H   0  0  0  0  0  0  0  0  0  0  0  0
    3.8006   -1.1720    1.4095 H   0  0  0  0  0  0  0  0  0  0  0  0
    5.1134   -0.8748   -2.5265 N   0  0  0  0  0  0  0  0  0  0  0  0
    5.7013   -1.3267   -3.7660 C   0  0  0  0  0  0  0  0  0  0  0  0
    5.5953   -0.1432   -2.0124 H   0  0  0  0  0  0  0  0  0  0  0  0
    6.3897   -2.1604   -3.5634 H   0  0  0  0  0  0  0  0  0  0  0  0
    4.9063   -1.6650   -4.4468 H   0  0  0  0  0  0  0  0  0  0  0  0
    6.2555   -0.4987   -4.2321 H   0  0  0  0  0  0  0  0  0  0  0  0
  1  3  1  0  0  0  0
  1  7  1  0  0  0  0
  1  2  2  0  0  0  0
 39 40  1  0  0  0  0
 40 48  1  0  0  0  0
 40 41  2  0  0  0  0
  8  9  1  0  0  0  0
  9 17  1  0  0  0  0
  9 10  2  0  0  0  0
 18 19  1  0  0  0  0
 19 38  1  0  0  0  0
 19 20  2  0  0  0  0
 39 42  1  0  0  0  0
  8 11  1  0  0  0  0
 48 49  1  0  0  0  0
 22 23  1  0  0  0  0
 21 22  1  0  0  0  0
 23 24  1  0  0  0  0
 18 21  1  0  0  0  0
 24 25  1  0  0  0  0
 38 39  1  0  0  0  0
  7  8  1  0  0  0  0
 17 18  1  0  0  0  0
  3  4  1  0  0  0  0
  3  5  1  0  0  0  0
  3  6  1  0  0  0  0
 42 45  1  0  0  0  0
 42 46  1  0  0  0  0
 42 47  1  0  0  0  0
 11 14  1  0  0  0  0
 11 15  1  0  0  0  0
 11 16  1  0  0  0  0
 49 51  1  0  0  0  0
 49 52  1  0  0  0  0
 49 53  1  0  0  0  0
 22 30  1  0  0  0  0
 22 31  1  0  0  0  0
 23 32  1  0  0  0  0
 23 33  1  0  0  0  0
 21 28  1  0  0  0  0
 21 29  1  0  0  0  0
 24 34  1  0  0  0  0
 24 35  1  0  0  0  0
 39 44  1  0  0  0  0
  8 13  1  0  0  0  0
 18 27  1  0  0  0  0
 25 36  1  0  0  0  0
 25 37  1  0  0  0  0
 48 50  1  0  0  0  0
  7 12  1  0  0  0  0
 38 43  1  0  0  0  0
 17 26  1  0  0  0  0
M  END
$$$$

  -OEChem-05262214473D

 53 52  0     1  0  0  0  0  0999 V2000
   -1.0338   -5.6785    0.1476 C   0  0  0  0  0  0  0  0  0  0  0  0
   -2.0514   -5.7797    0.8227 O   0  0  0  0  0  0  0  0  0  0  0  0
   -0.6558   -6.7819   -0.7841 C   0  0  0  0  0  0  0  0  0  0  0  0
   -0.0111   -7.5354   -0.3038 H   0  0  0  0  0  0  0  0  0  0  0  0
   -1.5317   -7.3401   -1.1520 H   0  0  0  0  0  0  0  0  0  0  0  0
   -0.1109   -6.4687   -1.6890 H   0  0  0  0  0  0  0  0  0  0  0  0
   -0.1543   -4.6083    0.1480 N   0  0  0  0  0  0  0  0  0  0  0  0
   -0.3302   -3.4398    0.9696 C   0  0  2  0  0  0  0  0  0  0  0  0
    0.2328   -2.2439    0.2131 C   0  0  0  0  0  0  0  0  0  0  0  0
    1.2097   -2.3192   -0.5294 O   0  0  0  0  0  0  0  0  0  0  0  0
    0.3557   -3.6024    2.3171 C   0  0  0  0  0  0  0  0  0  0  0  0
    0.6584   -4.6506   -0.4643 H   0  0  0  0  0  0  0  0  0  0  0  0
   -1.4091   -3.3101    1.1082 H   0  0  0  0  0  0  0  0  0  0  0  0
    1.4375   -3.7336    2.1985 H   0  0  0  0  0  0  0  0  0  0  0  0
    0.1969   -2.7243    2.9517 H   0  0  0  0  0  0  0  0  0  0  0  0
   -0.0294   -4.4803    2.8470 H   0  0  0  0  0  0  0  0  0  0  0  0
   -0.4616   -1.0893    0.5050 N   0  0  0  0  0  0  0  0  0  0  0  0
   -0.0884    0.2050   -0.0621 C   0  0  2  0  0  0  0  0  0  0  0  0
    1.4274    0.3401    0.0525 C   0  0  0  0  0  0  0  0  0  0  0  0
    1.9745    1.0760    0.8714 O   0  0  0  0  0  0  0  0  0  0  0  0
   -0.7622    1.3763    0.6683 C   0  0  0  0  0  0  0  0  0  0  0  0
   -2.2790    1.4316    0.4591 C   0  0  0  0  0  0  0  0  0  0  0  0
   -2.8954    2.6293    1.1869 C   0  0  0  0  0  0  0  0  0  0  0  0
   -4.4109    2.6700    0.9983 C   0  0  0  0  0  0  0  0  0  0  0  0
   -4.9804    3.8030    1.7179 N   0  0  0  0  0  0  0  0  0  0  0  0
   -1.2794   -1.1113    1.0935 H   0  0  0  0  0  0  0  0  0  0  0  0
   -0.3698    0.2153   -1.1219 H   0  0  0  0  0  0  0  0  0  0  0  0
   -0.3221    2.3192    0.3177 H   0  0  0  0  0  0  0  0  0  0  0  0
   -0.5414    1.3234    1.7430 H   0  0  0  0  0  0  0  0  0  0  0  0
   -2.7451    0.5108    0.8275 H   0  0  0  0  0  0  0  0  0  0  0  0
   -2.4987    1.5021   -0.6130 H   0  0  0  0  0  0  0  0  0  0  0  0
   -2.6544    2.5695    2.2558 H   0  0  0  0  0  0  0  0  0  0  0  0
   -2.4497    3.5573    0.8068 H   0  0  0  0  0  0  0  0  0  0  0  0
   -4.8636    1.7424    1.3655 H   0  0  0  0  0  0  0  0  0  0  0  0
   -4.6560    2.7629   -0.0650 H   0  0  0  0  0  0  0  0  0  0  0  0
   -4.2447    4.2778    2.1869 H   0  0  0  0  0  0  0  0  0  0  0  0
   -5.4188    4.4032    1.0589 H   0  0  0  0  0  0  0  0  0  0  0  0
    2.0935   -0.4409   -0.8818 N   0  0  0  0  0  0  0  0  0  0  0  0
    3.5334   -0.4788   -1.0009 C   0  0  2  0  0  0  0  0  0  0  0  0
    3.8782   -0.7093   -2.4663 C   0  0  0  0  0  0  0  0  0  0  0  0
    3.1915   -1.3998   -3.2164 O   0  0  0  0  0  0  0  0  0  0  0  0
    4.1327   -1.5669   -0.1237 C   0  0  0  0  0  0  0  0  0  0  0  0
    1.5566   -1.0267   -1.5144 H   0  0  0  0  0  0  0  0  0  0  0  0
    3.9025    0.5042   -0.6885 H   0  0  0  0  0  0  0  0  0  0  0  0
    3.7744   -2.5591   -0.4217 H   0  0  0  0  0  0  0  0  0  0  0  0
    5.2255   -1.5756   -0.1932 H   0  0  0  0  0  0  0  0  0  0  0  0
    3.8589   -1.4162    0.9261 H   0  0  0  0  0  0  0  0  0  0  0  0
    5.0661   -0.0886   -2.8268 N   0  0  0  0  0  0  0  0  0  0  0  0
    5.6296   -0.1937   -4.1525 C   0  0  0  0  0  0  0  0  0  0  0  0
    5.5488    0.4970   -2.1517 H   0  0  0  0  0  0  0  0  0  0  0  0
    6.3365   -1.0358   -4.1853 H   0  0  0  0  0  0  0  0  0  0  0  0
    4.8232   -0.3635   -4.8811 H   0  0  0  0  0  0  0  0  0  0  0  0
    6.1580    0.7384   -4.4011 H   0  0  0  0  0  0  0  0  0  0  0  0
  1  3  1  0  0  0  0
  1  7  1  0  0  0  0
  1  2  2  0  0  0  0
 39 40  1  0  0  0  0
 40 48  1  0  0  0  0
 40 41  2  0  0  0  0
  8  9  1  0  0  0  0
  9 17  1  0  0  0  0
  9 10  2  0  0  0  0
 18 19  1  0  0  0  0
 19 38  1  0  0  0  0
 19 20  2  0  0  0  0
 39 42  1  0  0  0  0
  8 11  1  0  0  0  0
 48 49  1  0  0  0  0
 22 23  1  0  0  0  0
 21 22  1  0  0  0  0
 23 24  1  0  0  0  0
 18 21  1  0  0  0  0
 24 25  1  0  0  0  0
 38 39  1  0  0  0  0
  7  8  1  0  0  0  0
 17 18  1  0  0  0  0
  3  4  1  0  0  0  0
  3  5  1  0  0  0  0
  3  6  1  0  0  0  0
 42 45  1  0  0  0  0
 42 46  1  0  0  0  0
 42 47  1  0  0  0  0
 11 14  1  0  0  0  0
 11 15  1  0  0  0  0
 11 16  1  0  0  0  0
 49 51  1  0  0  0  0
 49 52  1  0  0  0  0
 49 53  1  0  0  0  0
 22 30  1  0  0  0  0
 22 31  1  0  0  0  0
 23 32  1  0  0  0  0
 23 33  1  0  0  0  0
 21 28  1  0  0  0  0
 21 29  1  0  0  0  0
 24 34  1  0  0  0  0
 24 35  1  0  0  0  0
 39 44  1  0  0  0  0
  8 13  1  0  0  0  0
 18 27  1  0  0  0  0
 25 36  1  0  0  0  0
 25 37  1  0  0  0  0
 48 50  1  0  0  0  0
  7 12  1  0  0  0  0
 38 43  1  0  0  0  0
 17 26  1  0  0  0  0
M  END
$$$$

  -OEChem-05262214473D

 53 52  0     1  0  0  0  0  0999 V2000
   -1.0338   -5.6785    0.1476 C   0  0  0  0  0  0  0  0  0  0  0  0
   -2.0514   -5.7797    0.8227 O   0  0  0  0  0  0  0  0  0  0  0  0
   -0.6558   -6.7819   -0.7841 C   0  0  0  0  0  0  0  0  0  0  0  0
   -0.0111   -7.5354   -0.3038 H   0  0  0  0  0  0  0  0  0  0  0  0
   -1.5317   -7.3401   -1.1520 H   0  0  0  0  0  0  0  0  0  0  0  0
   -0.1109   -6.4687   -1.6890 H   0  0  0  0  0  0  0  0  0  0  0  0
   -0.1543   -4.6083    0.1480 N   0  0  0  0  0  0  0  0  0  0  0  0
   -0.3302   -3.4398    0.9696 C   0  0  2  0  0  0  0  0  0  0  0  0
    0.2328   -2.2439    0.2131 C   0  0  0  0  0  0  0  0  0  0  0  0
    1.2097   -2.3192   -0.5294 O   0  0  0  0  0  0  0  0  0  0  0  0
    0.3557   -3.6024    2.3171 C   0  0  0  0  0  0  0  0  0  0  0  0
    0.6584   -4.6506   -0.4643 H   0  0  0  0  0  0  0  0  0  0  0  0
   -1.4091   -3.3101    1.1082 H   0  0  0  0  0  0  0  0  0  0  0  0
    1.4375   -3.7336    2.1985 H   0  0  0  0  0  0  0  0  0  0  0  0
    0.1969   -2.7243    2.9517 H   0  0  0  0  0  0  0  0  0  0  0  0
   -0.0294   -4.4803    2.8470 H   0  0  0  0  0  0  0  0  0  0  0  0
   -0.4616   -1.0893    0.5050 N   0  0  0  0  0  0  0  0  0  0  0  0
   -0.0884    0.2050   -0.0621 C   0  0  2  0  0  0  0  0  0  0  0  0
    1.4274    0.3401    0.0525 C   0  0  0  0  0  0  0  0  0  0  0  0
    1.9830    0.8531    1.0218 O   0  0  0  0  0  0  0  0  0  0  0  0
   -0.7622    1.3763    0.6683 C   0  0  0  0  0  0  0  0  0  0  0  0
   -2.2790    1.4316    0.4591 C   0  0  0  0  0  0  0  0  0  0  0  0
   -2.8954    2.6293    1.1869 C   0  0  0  0  0  0  0  0  0  0  0  0
   -4.4109    2.6700    0.9983 C   0  0  0  0  0  0  0  0  0  0  0  0
   -4.9804    3.8030    1.7179 N   0  0  0  0  0  0  0  0  0  0  0  0
   -1.2794   -1.1113    1.0935 H   0  0  0  0  0  0  0  0  0  0  0  0
   -0.3698    0.2153   -1.1219 H   0  0  0  0  0  0  0  0  0  0  0  0
   -0.3221    2.3192    0.3177 H   0  0  0  0  0  0  0  0  0  0  0  0
   -0.5414    1.3234    1.7430 H   0  0  0  0  0  0  0  0  0  0  0  0
   -2.7451    0.5108    0.8275 H   0  0  0  0  0  0  0  0  0  0  0  0
   -2.4987    1.5021   -0.6130 H   0  0  0  0  0  0  0  0  0  0  0  0
   -2.6544    2.5695    2.2558 H   0  0  0  0  0  0  0  0  0  0  0  0
   -2.4497    3.5573    0.8068 H   0  0  0  0  0  0  0  0  0  0  0  0
   -4.8636    1.7424    1.3655 H   0  0  0  0  0  0  0  0  0  0  0  0
   -4.6560    2.7629   -0.0650 H   0  0  0  0  0  0  0  0  0  0  0  0
   -4.2447    4.2778    2.1869 H   0  0  0  0  0  0  0  0  0  0  0  0
   -5.4188    4.4032    1.0589 H   0  0  0  0  0  0  0  0  0  0  0  0
    2.0823   -0.1596   -1.0647 N   0  0  0  0  0  0  0  0  0  0  0  0
    3.5191   -0.1333   -1.2188 C   0  0  2  0  0  0  0  0  0  0  0  0
    3.8303    0.0281   -2.7009 C   0  0  0  0  0  0  0  0  0  0  0  0
    3.1361   -0.4618   -3.5892 O   0  0  0  0  0  0  0  0  0  0  0  0
    4.1583   -1.3965   -0.6635 C   0  0  0  0  0  0  0  0  0  0  0  0
    1.5391   -0.5752   -1.8156 H   0  0  0  0  0  0  0  0  0  0  0  0
    3.8798    0.7445   -0.6716 H   0  0  0  0  0  0  0  0  0  0  0  0
    3.8090   -2.2866   -1.1994 H   0  0  0  0  0  0  0  0  0  0  0  0
    5.2490   -1.3625   -0.7551 H   0  0  0  0  0  0  0  0  0  0  0  0
    3.9089   -1.5266    0.3951 H   0  0  0  0  0  0  0  0  0  0  0  0
    4.9982    0.7470   -2.9136 N   0  0  0  0  0  0  0  0  0  0  0  0
    5.5294    0.9986   -4.2329 C   0  0  0  0  0  0  0  0  0  0  0  0
    5.4882    1.1503   -2.1206 H   0  0  0  0  0  0  0  0  0  0  0  0
    6.2491    0.2093   -4.4957 H   0  0  0  0  0  0  0  0  0  0  0  0
    4.7076    1.0036   -4.9641 H   0  0  0  0  0  0  0  0  0  0  0  0
    6.0360    1.9750   -4.2440 H   0  0  0  0  0  0  0  0  0  0  0  0
  1  3  1  0  0  0  0
  1  7  1  0  0  0  0
  1  2  2  0  0  0  0
 39 40  1  0  0  0  0
 40 48  1  0  0  0  0
 40 41  2  0  0  0  0
  8  9  1  0  0  0  0
  9 17  1  0  0  0  0
  9 10  2  0  0  0  0
 18 19  1  0  0  0  0
 19 38  1  0  0  0  0
 19 20  2  0  0  0  0
 39 42  1  0  0  0  0
  8 11  1  0  0  0  0
 48 49  1  0  0  0  0
 22 23  1  0  0  0  0
 21 22  1  0  0  0  0
 23 24  1  0  0  0  0
 18 21  1  0  0  0  0
 24 25  1  0  0  0  0
 38 39  1  0  0  0  0
  7  8  1  0  0  0  0
 17 18  1  0  0  0  0
  3  4  1  0  0  0  0
  3  5  1  0  0  0  0
  3  6  1  0  0  0  0
 42 45  1  0  0  0  0
 42 46  1  0  0  0  0
 42 47  1  0  0  0  0
 11 14  1  0  0  0  0
 11 15  1  0  0  0  0
 11 16  1  0  0  0  0
 49 51  1  0  0  0  0
 49 52  1  0  0  0  0
 49 53  1  0  0  0  0
 22 30  1  0  0  0  0
 22 31  1  0  0  0  0
 23 32  1  0  0  0  0
 23 33  1  0  0  0  0
 21 28  1  0  0  0  0
 21 29  1  0  0  0  0
 24 34  1  0  0  0  0
 24 35  1  0  0  0  0
 39 44  1  0  0  0  0
  8 13  1  0  0  0  0
 18 27  1  0  0  0  0
 25 36  1  0  0  0  0
 25 37  1  0  0  0  0
 48 50  1  0  0  0  0
  7 12  1  0  0  0  0
 38 43  1  0  0  0  0
 17 26  1  0  0  0  0
M  END
$$$$

  -OEChem-05262214473D

 53 52  0     1  0  0  0  0  0999 V2000
   -1.0338   -5.6785    0.1476 C   0  0  0  0  0  0  0  0  0  0  0  0
   -2.0514   -5.7797    0.8227 O   0  0  0  0  0  0  0  0  0  0  0  0
   -0.6558   -6.7819   -0.7841 C   0  0  0  0  0  0  0  0  0  0  0  0
   -0.0111   -7.5354   -0.3038 H   0  0  0  0  0  0  0  0  0  0  0  0
   -1.5317   -7.3401   -1.1520 H   0  0  0  0  0  0  0  0  0  0  0  0
   -0.1109   -6.4687   -1.6890 H   0  0  0  0  0  0  0  0  0  0  0  0
   -0.1543   -4.6083    0.1480 N   0  0  0  0  0  0  0  0  0  0  0  0
   -0.3302   -3.4398    0.9696 C   0  0  2  0  0  0  0  0  0  0  0  0
    0.2328   -2.2439    0.2131 C   0  0  0  0  0  0  0  0  0  0  0  0
    1.2097   -2.3192   -0.5294 O   0  0  0  0  0  0  0  0  0  0  0  0
    0.3557   -3.6024    2.3171 C   0  0  0  0  0  0  0  0  0  0  0  0
    0.6584   -4.6506   -0.4643 H   0  0  0  0  0  0  0  0  0  0  0  0
   -1.4091   -3.3101    1.1082 H   0  0  0  0  0  0  0  0  0  0  0  0
    1.4375   -3.7336    2.1985 H   0  0  0  0  0  0  0  0  0  0  0  0
    0.1969   -2.7243    2.9517 H   0  0  0  0  0  0  0  0  0  0  0  0
   -0.0294   -4.4803    2.8470 H   0  0  0  0  0  0  0  0  0  0  0  0
   -0.4616   -1.0893    0.5050 N   0  0  0  0  0  0  0  0  0  0  0  0
   -0.0884    0.2050   -0.0621 C   0  0  2  0  0  0  0  0  0  0  0  0
    1.4274    0.3401    0.0525 C   0  0  0  0  0  0  0  0  0  0  0  0
    1.9989    0.5993    1.1097 O   0  0  0  0  0  0  0  0  0  0  0  0
   -0.7622    1.3763    0.6683 C   0  0  0  0  0  0  0  0  0  0  0  0
   -2.2790    1.4316    0.4591 C   0  0  0  0  0  0  0  0  0  0  0  0
   -2.8954    2.6293    1.1869 C   0  0  0  0  0  0  0  0  0  0  0  0
   -4.4109    2.6700    0.9983 C   0  0  0  0  0  0  0  0  0  0  0  0
   -4.9804    3.8030    1.7179 N   0  0  0  0  0  0  0  0  0  0  0  0
   -1.2794   -1.1113    1.0935 H   0  0  0  0  0  0  0  0  0  0  0  0
   -0.3698    0.2153   -1.1219 H   0  0  0  0  0  0  0  0  0  0  0  0
   -0.3221    2.3192    0.3177 H   0  0  0  0  0  0  0  0  0  0  0  0
   -0.5414    1.3234    1.7430 H   0  0  0  0  0  0  0  0  0  0  0  0
   -2.7451    0.5108    0.8275 H   0  0  0  0  0  0  0  0  0  0  0  0
   -2.4987    1.5021   -0.6130 H   0  0  0  0  0  0  0  0  0  0  0  0
   -2.6544    2.5695    2.2558 H   0  0  0  0  0  0  0  0  0  0  0  0
   -2.4497    3.5573    0.8068 H   0  0  0  0  0  0  0  0  0  0  0  0
   -4.8636    1.7424    1.3655 H   0  0  0  0  0  0  0  0  0  0  0  0
   -4.6560    2.7629   -0.0650 H   0  0  0  0  0  0  0  0  0  0  0  0
   -4.2447    4.2778    2.1869 H   0  0  0  0  0  0  0  0  0  0  0  0
   -5.4188    4.4032    1.0589 H   0  0  0  0  0  0  0  0  0  0  0  0
    2.0618    0.1590   -1.1687 N   0  0  0  0  0  0  0  0  0  0  0  0
    3.4936    0.2562   -1.3401 C   0  0  2  0  0  0  0  0  0  0  0  0
    3.7642    0.7997   -2.7368 C   0  0  0  0  0  0  0  0  0  0  0  0
    3.0558    0.5390   -3.7070 O   0  0  0  0  0  0  0  0  0  0  0  0
    4.1674   -1.0926   -1.1417 C   0  0  0  0  0  0  0  0  0  0  0  0
    1.5066   -0.0619   -1.9901 H   0  0  0  0  0  0  0  0  0  0  0  0
    3.8536    0.9718   -0.5929 H   0  0  0  0  0  0  0  0  0  0  0  0
    3.8192   -1.8228   -1.8813 H   0  0  0  0  0  0  0  0  0  0  0  0
    5.2547   -1.0118   -1.2436 H   0  0  0  0  0  0  0  0  0  0  0  0
    3.9472   -1.4958   -0.1473 H   0  0  0  0  0  0  0  0  0  0  0  0
    4.9144    1.5752   -2.7812 N   0  0  0  0  0  0  0  0  0  0  0  0
    5.4076    2.1691   -4.0018 C   0  0  0  0  0  0  0  0  0  0  0  0
    5.4177    1.7721   -1.9212 H   0  0  0  0  0  0  0  0  0  0  0  0
    6.1333    1.4900   -4.4734 H   0  0  0  0  0  0  0  0  0  0  0  0
    4.5676    2.3432   -4.6902 H   0  0  0  0  0  0  0  0  0  0  0  0
    5.8976    3.1266   -3.7716 H   0  0  0  0  0  0  0  0  0  0  0  0
  1  3  1  0  0  0  0
  1  7  1  0  0  0  0
  1  2  2  0  0  0  0
 39 40  1  0  0  0  0
 40 48  1  0  0  0  0
 40 41  2  0  0  0  0
  8  9  1  0  0  0  0
  9 17  1  0  0  0  0
  9 10  2  0  0  0  0
 18 19  1  0  0  0  0
 19 38  1  0  0  0  0
 19 20  2  0  0  0  0
 39 42  1  0  0  0  0
  8 11  1  0  0  0  0
 48 49  1  0  0  0  0
 22 23  1  0  0  0  0
 21 22  1  0  0  0  0
 23 24  1  0  0  0  0
 18 21  1  0  0  0  0
 24 25  1  0  0  0  0
 38 39  1  0  0  0  0
  7  8  1  0  0  0  0
 17 18  1  0  0  0  0
  3  4  1  0  0  0  0
  3  5  1  0  0  0  0
  3  6  1  0  0  0  0
 42 45  1  0  0  0  0
 42 46  1  0  0  0  0
 42 47  1  0  0  0  0
 11 14  1  0  0  0  0
 11 15  1  0  0  0  0
 11 16  1  0  0  0  0
 49 51  1  0  0  0  0
 49 52  1  0  0  0  0
 49 53  1  0  0  0  0
 22 30  1  0  0  0  0
 22 31  1  0  0  0  0
 23 32  1  0  0  0  0
 23 33  1  0  0  0  0
 21 28  1  0  0  0  0
 21 29  1  0  0  0  0
 24 34  1  0  0  0  0
 24 35  1  0  0  0  0
 39 44  1  0  0  0  0
  8 13  1  0  0  0  0
 18 27  1  0  0  0  0
 25 36  1  0  0  0  0
 25 37  1  0  0  0  0
 48 50  1  0  0  0  0
  7 12  1  0  0  0  0
 38 43  1  0  0  0  0
 17 26  1  0  0  0  0
M  END
$$$$

  -OEChem-05262214473D

 53 52  0     1  0  0  0  0  0999 V2000
   -1.0338   -5.6785    0.1476 C   0  0  0  0  0  0  0  0  0  0  0  0
   -2.0514   -5.7797    0.8227 O   0  0  0  0  0  0  0  0  0  0  0  0
   -0.6558   -6.7819   -0.7841 C   0  0  0  0  0  0  0  0  0  0  0  0
   -0.0111   -7.5354   -0.3038 H   0  0  0  0  0  0  0  0  0  0  0  0
   -1.5317   -7.3401   -1.1520 H   0  0  0  0  0  0  0  0  0  0  0  0
   -0.1109   -6.4687   -1.6890 H   0  0  0  0  0  0  0  0  0  0  0  0
   -0.1543   -4.6083    0.1480 N   0  0  0  0  0  0  0  0  0  0  0  0
   -0.3302   -3.4398    0.9696 C   0  0  2  0  0  0  0  0  0  0  0  0
    0.2328   -2.2439    0.2131 C   0  0  0  0  0  0  0  0  0  0  0  0
    1.2097   -2.3192   -0.5294 O   0  0  0  0  0  0  0  0  0  0  0  0
    0.3557   -3.6024    2.3171 C   0  0  0  0  0  0  0  0  0  0  0  0
    0.6584   -4.6506   -0.4643 H   0  0  0  0  0  0  0  0  0  0  0  0
   -1.4091   -3.3101    1.1082 H   0  0  0  0  0  0  0  0  0  0  0  0
    1.4375   -3.7336    2.1985 H   0  0  0  0  0  0  0  0  0  0  0  0
    0.1969   -2.7243    2.9517 H   0  0  0  0  0  0  0  0  0  0  0  0
   -0.0294   -4.4803    2.8470 H   0  0  0  0  0  0  0  0  0  0  0  0
   -0.4616   -1.0893    0.5050 N   0  0  0  0  0  0  0  0  0  0  0  0
   -0.0884    0.2050   -0.0621 C   0  0  2  0  0  0  0  0  0  0  0  0
    1.4274    0.3401    0.0525 C   0  0  0  0  0  0  0  0  0  0  0  0
    2.0213    0.3318    1.1289 O   0  0  0  0  0  0  0  0  0  0  0  0
   -0.7622    1.3763    0.6683 C   0  0  0  0  0  0  0  0  0  0  0  0
   -2.2790    1.4316    0.4591 C   0  0  0  0  0  0  0  0  0  0  0  0
   -2.8954    2.6293    1.1869 C   0  0  0  0  0  0  0  0  0  0  0  0
   -4.4109    2.6700    0.9983 C   0  0  0  0  0  0  0  0  0  0  0  0
   -4.9804    3.8030    1.7179 N   0  0  0  0  0  0  0  0  0  0  0  0
   -1.2794   -1.1113    1.0935 H   0  0  0  0  0  0  0  0  0  0  0  0
   -0.3698    0.2153   -1.1219 H   0  0  0  0  0  0  0  0  0  0  0  0
   -0.3221    2.3192    0.3177 H   0  0  0  0  0  0  0  0  0  0  0  0
   -0.5414    1.3234    1.7430 H   0  0  0  0  0  0  0  0  0  0  0  0
   -2.7451    0.5108    0.8275 H   0  0  0  0  0  0  0  0  0  0  0  0
   -2.4987    1.5021   -0.6130 H   0  0  0  0  0  0  0  0  0  0  0  0
   -2.6544    2.5695    2.2558 H   0  0  0  0  0  0  0  0  0  0  0  0
   -2.4497    3.5573    0.8068 H   0  0  0  0  0  0  0  0  0  0  0  0
   -4.8636    1.7424    1.3655 H   0  0  0  0  0  0  0  0  0  0  0  0
   -4.6560    2.7629   -0.0650 H   0  0  0  0  0  0  0  0  0  0  0  0
   -4.2447    4.2778    2.1869 H   0  0  0  0  0  0  0  0  0  0  0  0
   -5.4188    4.4032    1.0589 H   0  0  0  0  0  0  0  0  0  0  0  0
    2.0334    0.4930   -1.1869 N   0  0  0  0  0  0  0  0  0  0  0  0
    3.4585    0.6630   -1.3566 C   0  0  2  0  0  0  0  0  0  0  0  0
    3.6846    1.5530   -2.5716 C   0  0  0  0  0  0  0  0  0  0  0  0
    2.9562    1.5344   -3.5616 O   0  0  0  0  0  0  0  0  0  0  0  0
    4.1593   -0.6760   -1.5256 C   0  0  0  0  0  0  0  0  0  0  0  0
    1.4612    0.4781   -2.0259 H   0  0  0  0  0  0  0  0  0  0  0  0
    3.8257    1.1707   -0.4579 H   0  0  0  0  0  0  0  0  0  0  0  0
    3.8045   -1.1994   -2.4210 H   0  0  0  0  0  0  0  0  0  0  0  0
    5.2422   -0.5473   -1.6255 H   0  0  0  0  0  0  0  0  0  0  0  0
    3.9711   -1.3259   -0.6642 H   0  0  0  0  0  0  0  0  0  0  0  0
    4.8204    2.3395   -2.4384 N   0  0  0  0  0  0  0  0  0  0  0  0
    5.2726    3.2379   -3.4749 C   0  0  0  0  0  0  0  0  0  0  0  0
    5.3421    2.3202   -1.5671 H   0  0  0  0  0  0  0  0  0  0  0  0
    5.9970    2.7192   -4.1200 H   0  0  0  0  0  0  0  0  0  0  0  0
    4.4125    3.5641   -4.0781 H   0  0  0  0  0  0  0  0  0  0  0  0
    5.7525    4.1149   -3.0161 H   0  0  0  0  0  0  0  0  0  0  0  0
  1  3  1  0  0  0  0
  1  7  1  0  0  0  0
  1  2  2  0  0  0  0
 39 40  1  0  0  0  0
 40 48  1  0  0  0  0
 40 41  2  0  0  0  0
  8  9  1  0  0  0  0
  9 17  1  0  0  0  0
  9 10  2  0  0  0  0
 18 19  1  0  0  0  0
 19 38  1  0  0  0  0
 19 20  2  0  0  0  0
 39 42  1  0  0  0  0
  8 11  1  0  0  0  0
 48 49  1  0  0  0  0
 22 23  1  0  0  0  0
 21 22  1  0  0  0  0
 23 24  1  0  0  0  0
 18 21  1  0  0  0  0
 24 25  1  0  0  0  0
 38 39  1  0  0  0  0
  7  8  1  0  0  0  0
 17 18  1  0  0  0  0
  3  4  1  0  0  0  0
  3  5  1  0  0  0  0
  3  6  1  0  0  0  0
 42 45  1  0  0  0  0
 42 46  1  0  0  0  0
 42 47  1  0  0  0  0
 11 14  1  0  0  0  0
 11 15  1  0  0  0  0
 11 16  1  0  0  0  0
 49 51  1  0  0  0  0
 49 52  1  0  0  0  0
 49 53  1  0  0  0  0
 22 30  1  0  0  0  0
 22 31  1  0  0  0  0
 23 32  1  0  0  0  0
 23 33  1  0  0  0  0
 21 28  1  0  0  0  0
 21 29  1  0  0  0  0
 24 34  1  0  0  0  0
 24 35  1  0  0  0  0
 39 44  1  0  0  0  0
  8 13  1  0  0  0  0
 18 27  1  0  0  0  0
 25 36  1  0  0  0  0
 25 37  1  0  0  0  0
 48 50  1  0  0  0  0
  7 12  1  0  0  0  0
 38 43  1  0  0  0  0
 17 26  1  0  0  0  0
M  END
$$$$

  -OEChem-05262214473D

 53 52  0     1  0  0  0  0  0999 V2000
   -1.0338   -5.6785    0.1476 C   0  0  0  0  0  0  0  0  0  0  0  0
   -2.0514   -5.7797    0.8227 O   0  0  0  0  0  0  0  0  0  0  0  0
   -0.6558   -6.7819   -0.7841 C   0  0  0  0  0  0  0  0  0  0  0  0
   -0.0111   -7.5354   -0.3038 H   0  0  0  0  0  0  0  0  0  0  0  0
   -1.5317   -7.3401   -1.1520 H   0  0  0  0  0  0  0  0  0  0  0  0
   -0.1109   -6.4687   -1.6890 H   0  0  0  0  0  0  0  0  0  0  0  0
   -0.1543   -4.6083    0.1480 N   0  0  0  0  0  0  0  0  0  0  0  0
   -0.3302   -3.4398    0.9696 C   0  0  2  0  0  0  0  0  0  0  0  0
    0.2328   -2.2439    0.2131 C   0  0  0  0  0  0  0  0  0  0  0  0
    1.2097   -2.3192   -0.5294 O   0  0  0  0  0  0  0  0  0  0  0  0
    0.3557   -3.6024    2.3171 C   0  0  0  0  0  0  0  0  0  0  0  0
    0.6584   -4.6506   -0.4643 H   0  0  0  0  0  0  0  0  0  0  0  0
   -1.4091   -3.3101    1.1082 H   0  0  0  0  0  0  0  0  0  0  0  0
    1.4375   -3.7336    2.1985 H   0  0  0  0  0  0  0  0  0  0  0  0
    0.1969   -2.7243    2.9517 H   0  0  0  0  0  0  0  0  0  0  0  0
   -0.0294   -4.4803    2.8470 H   0  0  0  0  0  0  0  0  0  0  0  0
   -0.4616   -1.0893    0.5050 N   0  0  0  0  0  0  0  0  0  0  0  0
   -0.0884    0.2050   -0.0621 C   0  0  2  0  0  0  0  0  0  0  0  0
    1.4274    0.3401    0.0525 C   0  0  0  0  0  0  0  0  0  0  0  0
    2.0486    0.0689    1.0782 O   0  0  0  0  0  0  0  0  0  0  0  0
   -0.7622    1.3763    0.6683 C   0  0  0  0  0  0  0  0  0  0  0  0
   -2.2790    1.4316    0.4591 C   0  0  0  0  0  0  0  0  0  0  0  0
   -2.8954    2.6293    1.1869 C   0  0  0  0  0  0  0  0  0  0  0  0
   -4.4109    2.6700    0.9983 C   0  0  0  0  0  0  0  0  0  0  0  0
   -4.9804    3.8030    1.7179 N   0  0  0  0  0  0  0  0  0  0  0  0
   -1.2794   -1.1113    1.0935 H   0  0  0  0  0  0  0  0  0  0  0  0
   -0.3698    0.2153   -1.1219 H   0  0  0  0  0  0  0  0  0  0  0  0
   -0.3221    2.3192    0.3177 H   0  0  0  0  0  0  0  0  0  0  0  0
   -0.5414    1.3234    1.7430 H   0  0  0  0  0  0  0  0  0  0  0  0
   -2.7451    0.5108    0.8275 H   0  0  0  0  0  0  0  0  0  0  0  0
   -2.4987    1.5021   -0.6130 H   0  0  0  0  0  0  0  0  0  0  0  0
   -2.6544    2.5695    2.2558 H   0  0  0  0  0  0  0  0  0  0  0  0
   -2.4497    3.5573    0.8068 H   0  0  0  0  0  0  0  0  0  0  0  0
   -4.8636    1.7424    1.3655 H   0  0  0  0  0  0  0  0  0  0  0  0
   -4.6560    2.7629   -0.0650 H   0  0  0  0  0  0  0  0  0  0  0  0
   -4.2447    4.2778    2.1869 H   0  0  0  0  0  0  0  0  0  0  0  0
   -5.4188    4.4032    1.0589 H   0  0  0  0  0  0  0  0  0  0  0  0
    1.9991    0.8197   -1.1179 N   0  0  0  0  0  0  0  0  0  0  0  0
    3.4164    1.0596   -1.2671 C   0  0  2  0  0  0  0  0  0  0  0  0
    3.5969    2.2366   -2.2166 C   0  0  0  0  0  0  0  0  0  0  0  0
    2.8439    2.4566   -3.1630 O   0  0  0  0  0  0  0  0  0  0  0  0
    4.1346   -0.1750   -1.7892 C   0  0  0  0  0  0  0  0  0  0  0  0
    1.4060    1.0080   -1.9207 H   0  0  0  0  0  0  0  0  0  0  0  0
    3.7979    1.3275   -0.2758 H   0  0  0  0  0  0  0  0  0  0  0  0
    3.7657   -0.4587   -2.7817 H   0  0  0  0  0  0  0  0  0  0  0  0
    5.2123   -0.0008   -1.8746 H   0  0  0  0  0  0  0  0  0  0  0  0
    3.9791   -1.0284   -1.1204 H   0  0  0  0  0  0  0  0  0  0  0  0
    4.7225    2.9878   -1.9086 N   0  0  0  0  0  0  0  0  0  0  0  0
    5.1334    4.1321   -2.6881 C   0  0  0  0  0  0  0  0  0  0  0  0
    5.2666    2.7570   -1.0825 H   0  0  0  0  0  0  0  0  0  0  0  0
    5.8496    3.8130   -3.4595 H   0  0  0  0  0  0  0  0  0  0  0  0
    4.2530    4.5830   -3.1694 H   0  0  0  0  0  0  0  0  0  0  0  0
    5.6103    4.8725   -2.0290 H   0  0  0  0  0  0  0  0  0  0  0  0
  1  3  1  0  0  0  0
  1  7  1  0  0  0  0
  1  2  2  0  0  0  0
 39 40  1  0  0  0  0
 40 48  1  0  0  0  0
 40 41  2  0  0  0  0
  8  9  1  0  0  0  0
  9 17  1  0  0  0  0
  9 10  2  0  0  0  0
 18 19  1  0  0  0  0
 19 38  1  0  0  0  0
 19 20  2  0  0  0  0
 39 42  1  0  0  0  0
  8 11  1  0  0  0  0
 48 49  1  0  0  0  0
 22 23  1  0  0  0  0
 21 22  1  0  0  0  0
 23 24  1  0  0  0  0
 18 21  1  0  0  0  0
 24 25  1  0  0  0  0
 38 39  1  0  0  0  0
  7  8  1  0  0  0  0
 17 18  1  0  0  0  0
  3  4  1  0  0  0  0
  3  5  1  0  0  0  0
  3  6  1  0  0  0  0
 42 45  1  0  0  0  0
 42 46  1  0  0  0  0
 42 47  1  0  0  0  0
 11 14  1  0  0  0  0
 11 15  1  0  0  0  0
 11 16  1  0  0  0  0
 49 51  1  0  0  0  0
 49 52  1  0  0  0  0
 49 53  1  0  0  0  0
 22 30  1  0  0  0  0
 22 31  1  0  0  0  0
 23 32  1  0  0  0  0
 23 33  1  0  0  0  0
 21 28  1  0  0  0  0
 21 29  1  0  0  0  0
 24 34  1  0  0  0  0
 24 35  1  0  0  0  0
 39 44  1  0  0  0  0
  8 13  1  0  0  0  0
 18 27  1  0  0  0  0
 25 36  1  0  0  0  0
 25 37  1  0  0  0  0
 48 50  1  0  0  0  0
  7 12  1  0  0  0  0
 38 43  1  0  0  0  0
 17 26  1  0  0  0  0
M  END
$$$$

  -OEChem-05262214473D

 53 52  0     1  0  0  0  0  0999 V2000
   -1.0338   -5.6785    0.1476 C   0  0  0  0  0  0  0  0  0  0  0  0
   -2.0514   -5.7797    0.8227 O   0  0  0  0  0  0  0  0  0  0  0  0
   -0.6558   -6.7819   -0.7841 C   0  0  0  0  0  0  0  0  0  0  0  0
   -0.0111   -7.5354   -0.3038 H   0  0  0  0  0  0  0  0  0  0  0  0
   -1.5317   -7.3401   -1.1520 H   0  0  0  0  0  0  0  0  0  0  0  0
   -0.1109   -6.4687   -1.6890 H   0  0  0  0  0  0  0  0  0  0  0  0
   -0.1543   -4.6083    0.1480 N   0  0  0  0  0  0  0  0  0  0  0  0
   -0.3302   -3.4398    0.9696 C   0  0  2  0  0  0  0  0  0  0  0  0
    0.2328   -2.2439    0.2131 C   0  0  0  0  0  0  0  0  0  0  0  0
    1.2097   -2.3192   -0.5294 O   0  0  0  0  0  0  0  0  0  0  0  0
    0.3557   -3.6024    2.3171 C   0  0  0  0  0  0  0  0  0  0  0  0
    0.6584   -4.6506   -0.4643 H   0  0  0  0  0  0  0  0  0  0  0  0
   -1.4091   -3.3101    1.1082 H   0  0  0  0  0  0  0  0  0  0  0  0
    1.4375   -3.7336    2.1985 H   0  0  0  0  0  0  0  0  0  0  0  0
    0.1969   -2.7243    2.9517 H   0  0  0  0  0  0  0  0  0  0  0  0
   -0.0294   -4.4803    2.8470 H   0  0  0  0  0  0  0  0  0  0  0  0
   -0.4616   -1.0893    0.5050 N   0  0  0  0  0  0  0  0  0  0  0  0
   -0.0884    0.2050   -0.0621 C   0  0  2  0  0  0  0  0  0  0  0  0
    1.4274    0.3401    0.0525 C   0  0  0  0  0  0  0  0  0  0  0  0
    2.0788   -0.1714    0.9610 O   0  0  0  0  0  0  0  0  0  0  0  0
   -0.7622    1.3763    0.6683 C   0  0  0  0  0  0  0  0  0  0  0  0
   -2.2790    1.4316    0.4591 C   0  0  0  0  0  0  0  0  0  0  0  0
   -2.8954    2.6293    1.1869 C   0  0  0  0  0  0  0  0  0  0  0  0
   -4.4109    2.6700    0.9983 C   0  0  0  0  0  0  0  0  0  0  0  0
   -4.9804    3.8030    1.7179 N   0  0  0  0  0  0  0  0  0  0  0  0
   -1.2794   -1.1113    1.0935 H   0  0  0  0  0  0  0  0  0  0  0  0
   -0.3698    0.2153   -1.1219 H   0  0  0  0  0  0  0  0  0  0  0  0
   -0.3221    2.3192    0.3177 H   0  0  0  0  0  0  0  0  0  0  0  0
   -0.5414    1.3234    1.7430 H   0  0  0  0  0  0  0  0  0  0  0  0
   -2.7451    0.5108    0.8275 H   0  0  0  0  0  0  0  0  0  0  0  0
   -2.4987    1.5021   -0.6130 H   0  0  0  0  0  0  0  0  0  0  0  0
   -2.6544    2.5695    2.2558 H   0  0  0  0  0  0  0  0  0  0  0  0
   -2.4497    3.5573    0.8068 H   0  0  0  0  0  0  0  0  0  0  0  0
   -4.8636    1.7424    1.3655 H   0  0  0  0  0  0  0  0  0  0  0  0
   -4.6560    2.7629   -0.0650 H   0  0  0  0  0  0  0  0  0  0  0  0
   -4.2447    4.2778    2.1869 H   0  0  0  0  0  0  0  0  0  0  0  0
   -5.4188    4.4032    1.0589 H   0  0  0  0  0  0  0  0  0  0  0  0
    1.9611    1.1170   -0.9665 N   0  0  0  0  0  0  0  0  0  0  0  0
    3.3701    1.4188   -1.0777 C   0  0  2  0  0  0  0  0  0  0  0  0
    3.5070    2.8040   -1.6959 C   0  0  0  0  0  0  0  0  0  0  0  0
    2.7266    3.2427   -2.5383 O   0  0  0  0  0  0  0  0  0  0  0  0
    4.0950    0.3762   -1.9145 C   0  0  0  0  0  0  0  0  0  0  0  0
    1.3448    1.4917   -1.6815 H   0  0  0  0  0  0  0  0  0  0  0  0
    3.7723    1.4316   -0.0588 H   0  0  0  0  0  0  0  0  0  0  0  0
    3.7057    0.3487   -2.9388 H   0  0  0  0  0  0  0  0  0  0  0  0
    5.1671    0.5906   -1.9741 H   0  0  0  0  0  0  0  0  0  0  0  0
    3.9706   -0.6236   -1.4847 H   0  0  0  0  0  0  0  0  0  0  0  0
    4.6276    3.4759   -1.2280 N   0  0  0  0  0  0  0  0  0  0  0  0
    4.9996    4.7910   -1.6950 C   0  0  0  0  0  0  0  0  0  0  0  0
    5.1962    3.0530   -0.5003 H   0  0  0  0  0  0  0  0  0  0  0  0
    5.7011    4.6968   -2.5370 H   0  0  0  0  0  0  0  0  0  0  0  0
    4.0999    5.3305   -2.0261 H   0  0  0  0  0  0  0  0  0  0  0  0
    5.4809    5.3477   -0.8775 H   0  0  0  0  0  0  0  0  0  0  0  0
  1  3  1  0  0  0  0
  1  7  1  0  0  0  0
  1  2  2  0  0  0  0
 39 40  1  0  0  0  0
 40 48  1  0  0  0  0
 40 41  2  0  0  0  0
  8  9  1  0  0  0  0
  9 17  1  0  0  0  0
  9 10  2  0  0  0  0
 18 19  1  0  0  0  0
 19 38  1  0  0  0  0
 19 20  2  0  0  0  0
 39 42  1  0  0  0  0
  8 11  1  0  0  0  0
 48 49  1  0  0  0  0
 22 23  1  0  0  0  0
 21 22  1  0  0  0  0
 23 24  1  0  0  0  0
 18 21  1  0  0  0  0
 24 25  1  0  0  0  0
 38 39  1  0  0  0  0
  7  8  1  0  0  0  0
 17 18  1  0  0  0  0
  3  4  1  0  0  0  0
  3  5  1  0  0  0  0
  3  6  1  0  0  0  0
 42 45  1  0  0  0  0
 42 46  1  0  0  0  0
 42 47  1  0  0  0  0
 11 14  1  0  0  0  0
 11 15  1  0  0  0  0
 11 16  1  0  0  0  0
 49 51  1  0  0  0  0
 49 52  1  0  0  0  0
 49 53  1  0  0  0  0
 22 30  1  0  0  0  0
 22 31  1  0  0  0  0
 23 32  1  0  0  0  0
 23 33  1  0  0  0  0
 21 28  1  0  0  0  0
 21 29  1  0  0  0  0
 24 34  1  0  0  0  0
 24 35  1  0  0  0  0
 39 44  1  0  0  0  0
  8 13  1  0  0  0  0
 18 27  1  0  0  0  0
 25 36  1  0  0  0  0
 25 37  1  0  0  0  0
 48 50  1  0  0  0  0
  7 12  1  0  0  0  0
 38 43  1  0  0  0  0
 17 26  1  0  0  0  0
M  END
$$$$

  -OEChem-05262214473D

 53 52  0     1  0  0  0  0  0999 V2000
   -1.0338   -5.6785    0.1476 C   0  0  0  0  0  0  0  0  0  0  0  0
   -2.0514   -5.7797    0.8227 O   0  0  0  0  0  0  0  0  0  0  0  0
   -0.6558   -6.7819   -0.7841 C   0  0  0  0  0  0  0  0  0  0  0  0
   -0.0111   -7.5354   -0.3038 H   0  0  0  0  0  0  0  0  0  0  0  0
   -1.5317   -7.3401   -1.1520 H   0  0  0  0  0  0  0  0  0  0  0  0
   -0.1109   -6.4687   -1.6890 H   0  0  0  0  0  0  0  0  0  0  0  0
   -0.1543   -4.6083    0.1480 N   0  0  0  0  0  0  0  0  0  0  0  0
   -0.3302   -3.4398    0.9696 C   0  0  2  0  0  0  0  0  0  0  0  0
    0.2328   -2.2439    0.2131 C   0  0  0  0  0  0  0  0  0  0  0  0
    1.2097   -2.3192   -0.5294 O   0  0  0  0  0  0  0  0  0  0  0  0
    0.3557   -3.6024    2.3171 C   0  0  0  0  0  0  0  0  0  0  0  0
    0.6584   -4.6506   -0.4643 H   0  0  0  0  0  0  0  0  0  0  0  0
   -1.4091   -3.3101    1.1082 H   0  0  0  0  0  0  0  0  0  0  0  0
    1.4375   -3.7336    2.1985 H   0  0  0  0  0  0  0  0  0  0  0  0
    0.1969   -2.7243    2.9517 H   0  0  0  0  0  0  0  0  0  0  0  0
   -0.0294   -4.4803    2.8470 H   0  0  0  0  0  0  0  0  0  0  0  0
   -0.4616   -1.0893    0.5050 N   0  0  0  0  0  0  0  0  0  0  0  0
   -0.0884    0.2050   -0.0621 C   0  0  2  0  0  0  0  0  0  0  0  0
    1.4274    0.3401    0.0525 C   0  0  0  0  0  0  0  0  0  0  0  0
    2.1101   -0.3728    0.7854 O   0  0  0  0  0  0  0  0  0  0  0  0
   -0.7622    1.3763    0.6683 C   0  0  0  0  0  0  0  0  0  0  0  0
   -2.2790    1.4316    0.4591 C   0  0  0  0  0  0  0  0  0  0  0  0
   -2.8954    2.6293    1.1869 C   0  0  0  0  0  0  0  0  0  0  0  0
   -4.4109    2.6700    0.9983 C   0  0  0  0  0  0  0  0  0  0  0  0
   -4.9804    3.8030    1.7179 N   0  0  0  0  0  0  0  0  0  0  0  0
   -1.2794   -1.1113    1.0935 H   0  0  0  0  0  0  0  0  0  0  0  0
   -0.3698    0.2153   -1.1219 H   0  0  0  0  0  0  0  0  0  0  0  0
   -0.3221    2.3192    0.3177 H   0  0  0  0  0  0  0  0  0  0  0  0
   -0.5414    1.3234    1.7430 H   0  0  0  0  0  0  0  0  0  0  0  0
   -2.7451    0.5108    0.8275 H   0  0  0  0  0  0  0  0  0  0  0  0
   -2.4987    1.5021   -0.6130 H   0  0  0  0  0  0  0  0  0  0  0  0
   -2.6544    2.5695    2.2558 H   0  0  0  0  0  0  0  0  0  0  0  0
   -2.4497    3.5573    0.8068 H   0  0  0  0  0  0  0  0  0  0  0  0
   -4.8636    1.7424    1.3655 H   0  0  0  0  0  0  0  0  0  0  0  0
   -4.6560    2.7629   -0.0650 H   0  0  0  0  0  0  0  0  0  0  0  0
   -4.2447    4.2778    2.1869 H   0  0  0  0  0  0  0  0  0  0  0  0
   -5.4188    4.4032    1.0589 H   0  0  0  0  0  0  0  0  0  0  0  0
    1.9222    1.3644   -0.7429 N   0  0  0  0  0  0  0  0  0  0  0  0
    3.3227    1.7162   -0.8015 C   0  0  2  0  0  0  0  0  0  0  0  0
    3.4210    3.2164   -1.0450 C   0  0  0  0  0  0  0  0  0  0  0  0
    2.6123    3.8391   -1.7302 O   0  0  0  0  0  0  0  0  0  0  0  0
    4.0431    0.9400   -1.8929 C   0  0  0  0  0  0  0  0  0  0  0  0
    1.2818    1.8963   -1.3248 H   0  0  0  0  0  0  0  0  0  0  0  0
    3.7504    1.4759    0.1780 H   0  0  0  0  0  0  0  0  0  0  0  0
    3.6284    1.1678   -2.8816 H   0  0  0  0  0  0  0  0  0  0  0  0
    5.1097    1.1866   -1.9171 H   0  0  0  0  0  0  0  0  0  0  0  0
    3.9461   -0.1392   -1.7324 H   0  0  0  0  0  0  0  0  0  0  0  0
    4.5420    3.7706   -0.4430 N   0  0  0  0  0  0  0  0  0  0  0  0
    4.8803    5.1695   -0.5634 C   0  0  0  0  0  0  0  0  0  0  0  0
    5.1358    3.1878    0.1397 H   0  0  0  0  0  0  0  0  0  0  0  0
    5.5616    5.3105   -1.4154 H   0  0  0  0  0  0  0  0  0  0  0  0
    3.9638    5.7556   -0.7261 H   0  0  0  0  0  0  0  0  0  0  0  0
    5.3730    5.5082    0.3599 H   0  0  0  0  0  0  0  0  0  0  0  0
  1  3  1  0  0  0  0
  1  7  1  0  0  0  0
  1  2  2  0  0  0  0
 39 40  1  0  0  0  0
 40 48  1  0  0  0  0
 40 41  2  0  0  0  0
  8  9  1  0  0  0  0
  9 17  1  0  0  0  0
  9 10  2  0  0  0  0
 18 19  1  0  0  0  0
 19 38  1  0  0  0  0
 19 20  2  0  0  0  0
 39 42  1  0  0  0  0
  8 11  1  0  0  0  0
 48 49  1  0  0  0  0
 22 23  1  0  0  0  0
 21 22  1  0  0  0  0
 23 24  1  0  0  0  0
 18 21  1  0  0  0  0
 24 25  1  0  0  0  0
 38 39  1  0  0  0  0
  7  8  1  0  0  0  0
 17 18  1  0  0  0  0
  3  4  1  0  0  0  0
  3  5  1  0  0  0  0
  3  6  1  0  0  0  0
 42 45  1  0  0  0  0
 42 46  1  0  0  0  0
 42 47  1  0  0  0  0
 11 14  1  0  0  0  0
 11 15  1  0  0  0  0
 11 16  1  0  0  0  0
 49 51  1  0  0  0  0
 49 52  1  0  0  0  0
 49 53  1  0  0  0  0
 22 30  1  0  0  0  0
 22 31  1  0  0  0  0
 23 32  1  0  0  0  0
 23 33  1  0  0  0  0
 21 28  1  0  0  0  0
 21 29  1  0  0  0  0
 24 34  1  0  0  0  0
 24 35  1  0  0  0  0
 39 44  1  0  0  0  0
  8 13  1  0  0  0  0
 18 27  1  0  0  0  0
 25 36  1  0  0  0  0
 25 37  1  0  0  0  0
 48 50  1  0  0  0  0
  7 12  1  0  0  0  0
 38 43  1  0  0  0  0
 17 26  1  0  0  0  0
M  END
$$$$

  -OEChem-05262214473D

 53 52  0     1  0  0  0  0  0999 V2000
   -1.0338   -5.6785    0.1476 C   0  0  0  0  0  0  0  0  0  0  0  0
   -2.0514   -5.7797    0.8227 O   0  0  0  0  0  0  0  0  0  0  0  0
   -0.6558   -6.7819   -0.7841 C   0  0  0  0  0  0  0  0  0  0  0  0
   -0.0111   -7.5354   -0.3038 H   0  0  0  0  0  0  0  0  0  0  0  0
   -1.5317   -7.3401   -1.1520 H   0  0  0  0  0  0  0  0  0  0  0  0
   -0.1109   -6.4687   -1.6890 H   0  0  0  0  0  0  0  0  0  0  0  0
   -0.1543   -4.6083    0.1480 N   0  0  0  0  0  0  0  0  0  0  0  0
   -0.3302   -3.4398    0.9696 C   0  0  2  0  0  0  0  0  0  0  0  0
    0.2328   -2.2439    0.2131 C   0  0  0  0  0  0  0  0  0  0  0  0
    1.2097   -2.3192   -0.5294 O   0  0  0  0  0  0  0  0  0  0  0  0
    0.3557   -3.6024    2.3171 C   0  0  0  0  0  0  0  0  0  0  0  0
    0.6584   -4.6506   -0.4643 H   0  0  0  0  0  0  0  0  0  0  0  0
   -1.4091   -3.3101    1.1082 H   0  0  0  0  0  0  0  0  0  0  0  0
    1.4375   -3.7336    2.1985 H   0  0  0  0  0  0  0  0  0  0  0  0
    0.1969   -2.7243    2.9517 H   0  0  0  0  0  0  0  0  0  0  0  0
   -0.0294   -4.4803    2.8470 H   0  0  0  0  0  0  0  0  0  0  0  0
   -0.4616   -1.0893    0.5050 N   0  0  0  0  0  0  0  0  0  0  0  0
   -0.0884    0.2050   -0.0621 C   0  0  2  0  0  0  0  0  0  0  0  0
    1.4196    0.1897   -0.2960 C   0  0  0  0  0  0  0  0  0  0  0  0
    2.1318   -0.7716   -0.0127 O   0  0  0  0  0  0  0  0  0  0  0  0
   -0.4491    1.3734    0.8675 C   0  0  0  0  0  0  0  0  0  0  0  0
   -1.9589    1.5851    1.0202 C   0  0  0  0  0  0  0  0  0  0  0  0
   -2.2618    2.7746    1.9355 C   0  0  0  0  0  0  0  0  0  0  0  0
   -3.7672    2.9701    2.1071 C   0  0  0  0  0  0  0  0  0  0  0  0
   -4.0336    4.0917    2.9998 N   0  0  0  0  0  0  0  0  0  0  0  0
   -1.2794   -1.1113    1.0935 H   0  0  0  0  0  0  0  0  0  0  0  0
   -0.5991    0.3238   -1.0252 H   0  0  0  0  0  0  0  0  0  0  0  0
   -0.0003    2.2958    0.4760 H   0  0  0  0  0  0  0  0  0  0  0  0
    0.0016    1.2167    1.8570 H   0  0  0  0  0  0  0  0  0  0  0  0
   -2.4265    0.6857    1.4363 H   0  0  0  0  0  0  0  0  0  0  0  0
   -2.4061    1.7589    0.0341 H   0  0  0  0  0  0  0  0  0  0  0  0
   -1.7936    2.6097    2.9141 H   0  0  0  0  0  0  0  0  0  0  0  0
   -1.8158    3.6840    1.5132 H   0  0  0  0  0  0  0  0  0  0  0  0
   -4.2229    2.0628    2.5184 H   0  0  0  0  0  0  0  0  0  0  0  0
   -4.2346    3.1678    1.1365 H   0  0  0  0  0  0  0  0  0  0  0  0
   -3.1641    4.4582    3.3099 H   0  0  0  0  0  0  0  0  0  0  0  0
   -4.5419    4.7793    2.4946 H   0  0  0  0  0  0  0  0  0  0  0  0
    1.8765    1.3835   -0.8370 N   0  0  0  0  0  0  0  0  0  0  0  0
    3.2678    1.6375   -1.1346 C   0  0  2  0  0  0  0  0  0  0  0  0
    3.5303    3.1228   -0.9235 C   0  0  0  0  0  0  0  0  0  0  0  0
    2.6935    3.9920   -1.1590 O   0  0  0  0  0  0  0  0  0  0  0  0
    3.6148    1.2207   -2.5553 C   0  0  0  0  0  0  0  0  0  0  0  0
    1.2111    2.1214   -1.0476 H   0  0  0  0  0  0  0  0  0  0  0  0
    3.8561    1.0564   -0.4161 H   0  0  0  0  0  0  0  0  0  0  0  0
    3.0351    1.7923   -3.2893 H   0  0  0  0  0  0  0  0  0  0  0  0
    4.6756    1.3873   -2.7698 H   0  0  0  0  0  0  0  0  0  0  0  0
    3.3974    0.1590   -2.7141 H   0  0  0  0  0  0  0  0  0  0  0  0
    4.8234    3.3667   -0.4824 N   0  0  0  0  0  0  0  0  0  0  0  0
    5.3293    4.6993   -0.2494 C   0  0  0  0  0  0  0  0  0  0  0  0
    5.4365    2.5840   -0.2748 H   0  0  0  0  0  0  0  0  0  0  0  0
    5.8246    5.0683   -1.1597 H   0  0  0  0  0  0  0  0  0  0  0  0
    4.4953    5.3678    0.0107 H   0  0  0  0  0  0  0  0  0  0  0  0
    6.0533    4.6770    0.5784 H   0  0  0  0  0  0  0  0  0  0  0  0
  1  3  1  0  0  0  0
  1  7  1  0  0  0  0
  1  2  2  0  0  0  0
 39 40  1  0  0  0  0
 40 48  1  0  0  0  0
 40 41  2  0  0  0  0
  8  9  1  0  0  0  0
  9 17  1  0  0  0  0
  9 10  2  0  0  0  0
 18 19  1  0  0  0  0
 19 38  1  0  0  0  0
 19 20  2  0  0  0  0
 39 42  1  0  0  0  0
  8 11  1  0  0  0  0
 48 49  1  0  0  0  0
 22 23  1  0  0  0  0
 21 22  1  0  0  0  0
 23 24  1  0  0  0  0
 18 21  1  0  0  0  0
 24 25  1  0  0  0  0
 38 39  1  0  0  0  0
  7  8  1  0  0  0  0
 17 18  1  0  0  0  0
  3  4  1  0  0  0  0
  3  5  1  0  0  0  0
  3  6  1  0  0  0  0
 42 45  1  0  0  0  0
 42 46  1  0  0  0  0
 42 47  1  0  0  0  0
 11 14  1  0  0  0  0
 11 15  1  0  0  0  0
 11 16  1  0  0  0  0
 49 51  1  0  0  0  0
 49 52  1  0  0  0  0
 49 53  1  0  0  0  0
 22 30  1  0  0  0  0
 22 31  1  0  0  0  0
 23 32  1  0  0  0  0
 23 33  1  0  0  0  0
 21 28  1  0  0  0  0
 21 29  1  0  0  0  0
 24 34  1  0  0  0  0
 24 35  1  0  0  0  0
 39 44  1  0  0  0  0
  8 13  1  0  0  0  0
 18 27  1  0  0  0  0
 25 36  1  0  0  0  0
 25 37  1  0  0  0  0
 48 50  1  0  0  0  0
  7 12  1  0  0  0  0
 38 43  1  0  0  0  0
 17 26  1  0  0  0  0
M  END
$$$$

  -OEChem-05262214473D

 53 52  0     1  0  0  0  0  0999 V2000
   -1.0338   -5.6785    0.1476 C   0  0  0  0  0  0  0  0  0  0  0  0
   -2.0514   -5.7797    0.8227 O   0  0  0  0  0  0  0  0  0  0  0  0
   -0.6558   -6.7819   -0.7841 C   0  0  0  0  0  0  0  0  0  0  0  0
   -0.0111   -7.5354   -0.3038 H   0  0  0  0  0  0  0  0  0  0  0  0
   -1.5317   -7.3401   -1.1520 H   0  0  0  0  0  0  0  0  0  0  0  0
   -0.1109   -6.4687   -1.6890 H   0  0  0  0  0  0  0  0  0  0  0  0
   -0.1543   -4.6083    0.1480 N   0  0  0  0  0  0  0  0  0  0  0  0
   -0.3302   -3.4398    0.9696 C   0  0  2  0  0  0  0  0  0  0  0  0
    0.2328   -2.2439    0.2131 C   0  0  0  0  0  0  0  0  0  0  0  0
    1.2097   -2.3192   -0.5294 O   0  0  0  0  0  0  0  0  0  0  0  0
    0.3557   -3.6024    2.3171 C   0  0  0  0  0  0  0  0  0  0  0  0
    0.6584   -4.6506   -0.4643 H   0  0  0  0  0  0  0  0  0  0  0  0
   -1.4091   -3.3101    1.1082 H   0  0  0  0  0  0  0  0  0  0  0  0
    1.4375   -3.7336    2.1985 H   0  0  0  0  0  0  0  0  0  0  0  0
    0.1969   -2.7243    2.9517 H   0  0  0  0  0  0  0  0  0  0  0  0
   -0.0294   -4.4803    2.8470 H   0  0  0  0  0  0  0  0  0  0  0  0
   -0.4616   -1.0893    0.5050 N   0  0  0  0  0  0  0  0  0  0  0  0
   -0.0884    0.2050   -0.0621 C   0  0  2  0  0  0  0  0  0  0  0  0
    1.4196    0.1897   -0.2960 C   0  0  0  0  0  0  0  0  0  0  0  0
    2.0912   -0.8398   -0.2698 O   0  0  0  0  0  0  0  0  0  0  0  0
   -0.4491    1.3734    0.8675 C   0  0  0  0  0  0  0  0  0  0  0  0
   -1.9589    1.5851    1.0202 C   0  0  0  0  0  0  0  0  0  0  0  0
   -2.2618    2.7746    1.9355 C   0  0  0  0  0  0  0  0  0  0  0  0
   -3.7672    2.9701    2.1071 C   0  0  0  0  0  0  0  0  0  0  0  0
   -4.0336    4.0917    2.9998 N   0  0  0  0  0  0  0  0  0  0  0  0
   -1.2794   -1.1113    1.0935 H   0  0  0  0  0  0  0  0  0  0  0  0
   -0.5991    0.3238   -1.0252 H   0  0  0  0  0  0  0  0  0  0  0  0
   -0.0003    2.2958    0.4760 H   0  0  0  0  0  0  0  0  0  0  0  0
    0.0016    1.2167    1.8570 H   0  0  0  0  0  0  0  0  0  0  0  0
   -2.4265    0.6857    1.4363 H   0  0  0  0  0  0  0  0  0  0  0  0
   -2.4061    1.7589    0.0341 H   0  0  0  0  0  0  0  0  0  0  0  0
   -1.7936    2.6097    2.9141 H   0  0  0  0  0  0  0  0  0  0  0  0
   -1.8158    3.6840    1.5132 H   0  0  0  0  0  0  0  0  0  0  0  0
   -4.2229    2.0628    2.5184 H   0  0  0  0  0  0  0  0  0  0  0  0
   -4.2346    3.1678    1.1365 H   0  0  0  0  0  0  0  0  0  0  0  0
   -3.1641    4.4582    3.3099 H   0  0  0  0  0  0  0  0  0  0  0  0
   -4.5419    4.7793    2.4946 H   0  0  0  0  0  0  0  0  0  0  0  0
    1.9273    1.4629   -0.5147 N   0  0  0  0  0  0  0  0  0  0  0  0
    3.3298    1.7287   -0.7410 C   0  0  2  0  0  0  0  0  0  0  0  0
    3.6488    3.0989   -0.1577 C   0  0  0  0  0  0  0  0  0  0  0  0
    2.8487    4.0321   -0.1609 O   0  0  0  0  0  0  0  0  0  0  0  0
    3.6711    1.6755   -2.2220 C   0  0  0  0  0  0  0  0  0  0  0  0
    1.2931    2.2561   -0.5280 H   0  0  0  0  0  0  0  0  0  0  0  0
    3.8892    0.9601   -0.1966 H   0  0  0  0  0  0  0  0  0  0  0  0
    3.1201    2.4384   -2.7839 H   0  0  0  0  0  0  0  0  0  0  0  0
    4.7393    1.8488   -2.3894 H   0  0  0  0  0  0  0  0  0  0  0  0
    3.4134    0.6992   -2.6465 H   0  0  0  0  0  0  0  0  0  0  0  0
    4.9470    3.1700    0.3279 N   0  0  0  0  0  0  0  0  0  0  0  0
    5.5032    4.3774    0.8926 C   0  0  0  0  0  0  0  0  0  0  0  0
    5.5273    2.3363    0.3267 H   0  0  0  0  0  0  0  0  0  0  0  0
    6.0196    4.9467    0.1058 H   0  0  0  0  0  0  0  0  0  0  0  0
    4.6941    4.9899    1.3172 H   0  0  0  0  0  0  0  0  0  0  0  0
    6.2192    4.1152    1.6854 H   0  0  0  0  0  0  0  0  0  0  0  0
  1  3  1  0  0  0  0
  1  7  1  0  0  0  0
  1  2  2  0  0  0  0
 39 40  1  0  0  0  0
 40 48  1  0  0  0  0
 40 41  2  0  0  0  0
  8  9  1  0  0  0  0
  9 17  1  0  0  0  0
  9 10  2  0  0  0  0
 18 19  1  0  0  0  0
 19 38  1  0  0  0  0
 19 20  2  0  0  0  0
 39 42  1  0  0  0  0
  8 11  1  0  0  0  0
 48 49  1  0  0  0  0
 22 23  1  0  0  0  0
 21 22  1  0  0  0  0
 23 24  1  0  0  0  0
 18 21  1  0  0  0  0
 24 25  1  0  0  0  0
 38 39  1  0  0  0  0
  7  8  1  0  0  0  0
 17 18  1  0  0  0  0
  3  4  1  0  0  0  0
  3  5  1  0  0  0  0
  3  6  1  0  0  0  0
 42 45  1  0  0  0  0
 42 46  1  0  0  0  0
 42 47  1  0  0  0  0
 11 14  1  0  0  0  0
 11 15  1  0  0  0  0
 11 16  1  0  0  0  0
 49 51  1  0  0  0  0
 49 52  1  0  0  0  0
 49 53  1  0  0  0  0
 22 30  1  0  0  0  0
 22 31  1  0  0  0  0
 23 32  1  0  0  0  0
 23 33  1  0  0  0  0
 21 28  1  0  0  0  0
 21 29  1  0  0  0  0
 24 34  1  0  0  0  0
 24 35  1  0  0  0  0
 39 44  1  0  0  0  0
  8 13  1  0  0  0  0
 18 27  1  0  0  0  0
 25 36  1  0  0  0  0
 25 37  1  0  0  0  0
 48 50  1  0  0  0  0
  7 12  1  0  0  0  0
 38 43  1  0  0  0  0
 17 26  1  0  0  0  0
M  END
$$$$

  -OEChem-05262214473D

 53 52  0     1  0  0  0  0  0999 V2000
   -1.0338   -5.6785    0.1476 C   0  0  0  0  0  0  0  0  0  0  0  0
   -2.0514   -5.7797    0.8227 O   0  0  0  0  0  0  0  0  0  0  0  0
   -0.6558   -6.7819   -0.7841 C   0  0  0  0  0  0  0  0  0  0  0  0
   -0.0111   -7.5354   -0.3038 H   0  0  0  0  0  0  0  0  0  0  0  0
   -1.5317   -7.3401   -1.1520 H   0  0  0  0  0  0  0  0  0  0  0  0
   -0.1109   -6.4687   -1.6890 H   0  0  0  0  0  0  0  0  0  0  0  0
   -0.1543   -4.6083    0.1480 N   0  0  0  0  0  0  0  0  0  0  0  0
   -0.3302   -3.4398    0.9696 C   0  0  2  0  0  0  0  0  0  0  0  0
    0.2328   -2.2439    0.2131 C   0  0  0  0  0  0  0  0  0  0  0  0
    1.2097   -2.3192   -0.5294 O   0  0  0  0  0  0  0  0  0  0  0  0
    0.3557   -3.6024    2.3171 C   0  0  0  0  0  0  0  0  0  0  0  0
    0.6584   -4.6506   -0.4643 H   0  0  0  0  0  0  0  0  0  0  0  0
   -1.4091   -3.3101    1.1082 H   0  0  0  0  0  0  0  0  0  0  0  0
    1.4375   -3.7336    2.1985 H   0  0  0  0  0  0  0  0  0  0  0  0
    0.1969   -2.7243    2.9517 H   0  0  0  0  0  0  0  0  0  0  0  0
   -0.0294   -4.4803    2.8470 H   0  0  0  0  0  0  0  0  0  0  0  0
   -0.4616   -1.0893    0.5050 N   0  0  0  0  0  0  0  0  0  0  0  0
   -0.0884    0.2050   -0.0621 C   0  0  2  0  0  0  0  0  0  0  0  0
    1.4196    0.1897   -0.2960 C   0  0  0  0  0  0  0  0  0  0  0  0
    2.0500   -0.8382   -0.5357 O   0  0  0  0  0  0  0  0  0  0  0  0
   -0.4491    1.3734    0.8675 C   0  0  0  0  0  0  0  0  0  0  0  0
   -1.9589    1.5851    1.0202 C   0  0  0  0  0  0  0  0  0  0  0  0
   -2.2618    2.7746    1.9355 C   0  0  0  0  0  0  0  0  0  0  0  0
   -3.7672    2.9701    2.1071 C   0  0  0  0  0  0  0  0  0  0  0  0
   -4.0336    4.0917    2.9998 N   0  0  0  0  0  0  0  0  0  0  0  0
   -1.2794   -1.1113    1.0935 H   0  0  0  0  0  0  0  0  0  0  0  0
   -0.5991    0.3238   -1.0252 H   0  0  0  0  0  0  0  0  0  0  0  0
   -0.0003    2.2958    0.4760 H   0  0  0  0  0  0  0  0  0  0  0  0
    0.0016    1.2167    1.8570 H   0  0  0  0  0  0  0  0  0  0  0  0
   -2.4265    0.6857    1.4363 H   0  0  0  0  0  0  0  0  0  0  0  0
   -2.4061    1.7589    0.0341 H   0  0  0  0  0  0  0  0  0  0  0  0
   -1.7936    2.6097    2.9141 H   0  0  0  0  0  0  0  0  0  0  0  0
   -1.8158    3.6840    1.5132 H   0  0  0  0  0  0  0  0  0  0  0  0
   -4.2229    2.0628    2.5184 H   0  0  0  0  0  0  0  0  0  0  0  0
   -4.2346    3.1678    1.1365 H   0  0  0  0  0  0  0  0  0  0  0  0
   -3.1641    4.4582    3.3099 H   0  0  0  0  0  0  0  0  0  0  0  0
   -4.5419    4.7793    2.4946 H   0  0  0  0  0  0  0  0  0  0  0  0
    1.9787    1.4551   -0.1831 N   0  0  0  0  0  0  0  0  0  0  0  0
    3.3922    1.7136   -0.3374 C   0  0  2  0  0  0  0  0  0  0  0  0
    3.7604    2.8752    0.5762 C   0  0  0  0  0  0  0  0  0  0  0  0
    2.9976    3.8095    0.8139 O   0  0  0  0  0  0  0  0  0  0  0  0
    3.7427    2.0272   -1.7836 C   0  0  0  0  0  0  0  0  0  0  0  0
    1.3762    2.2501    0.0087 H   0  0  0  0  0  0  0  0  0  0  0  0
    3.9167    0.8096   -0.0091 H   0  0  0  0  0  0  0  0  0  0  0  0
    3.2265    2.9299   -2.1302 H   0  0  0  0  0  0  0  0  0  0  0  0
    4.8181    2.1947   -1.9038 H   0  0  0  0  0  0  0  0  0  0  0  0
    3.4501    1.2031   -2.4431 H   0  0  0  0  0  0  0  0  0  0  0  0
    5.0565    2.7678    1.0605 N   0  0  0  0  0  0  0  0  0  0  0  0
    5.6553    3.7674    1.9139 C   0  0  0  0  0  0  0  0  0  0  0  0
    5.6036    1.9396    0.8446 H   0  0  0  0  0  0  0  0  0  0  0  0
    6.1999    4.4979    1.2976 H   0  0  0  0  0  0  0  0  0  0  0  0
    4.8677    4.2828    2.4831 H   0  0  0  0  0  0  0  0  0  0  0  0
    6.3544    3.2828    2.6114 H   0  0  0  0  0  0  0  0  0  0  0  0
  1  3  1  0  0  0  0
  1  7  1  0  0  0  0
  1  2  2  0  0  0  0
 39 40  1  0  0  0  0
 40 48  1  0  0  0  0
 40 41  2  0  0  0  0
  8  9  1  0  0  0  0
  9 17  1  0  0  0  0
  9 10  2  0  0  0  0
 18 19  1  0  0  0  0
 19 38  1  0  0  0  0
 19 20  2  0  0  0  0
 39 42  1  0  0  0  0
  8 11  1  0  0  0  0
 48 49  1  0  0  0  0
 22 23  1  0  0  0  0
 21 22  1  0  0  0  0
 23 24  1  0  0  0  0
 18 21  1  0  0  0  0
 24 25  1  0  0  0  0
 38 39  1  0  0  0  0
  7  8  1  0  0  0  0
 17 18  1  0  0  0  0
  3  4  1  0  0  0  0
  3  5  1  0  0  0  0
  3  6  1  0  0  0  0
 42 45  1  0  0  0  0
 42 46  1  0  0  0  0
 42 47  1  0  0  0  0
 11 14  1  0  0  0  0
 11 15  1  0  0  0  0
 11 16  1  0  0  0  0
 49 51  1  0  0  0  0
 49 52  1  0  0  0  0
 49 53  1  0  0  0  0
 22 30  1  0  0  0  0
 22 31  1  0  0  0  0
 23 32  1  0  0  0  0
 23 33  1  0  0  0  0
 21 28  1  0  0  0  0
 21 29  1  0  0  0  0
 24 34  1  0  0  0  0
 24 35  1  0  0  0  0
 39 44  1  0  0  0  0
  8 13  1  0  0  0  0
 18 27  1  0  0  0  0
 25 36  1  0  0  0  0
 25 37  1  0  0  0  0
 48 50  1  0  0  0  0
  7 12  1  0  0  0  0
 38 43  1  0  0  0  0
 17 26  1  0  0  0  0
M  END
$$$$

  -OEChem-05262214473D

 53 52  0     1  0  0  0  0  0999 V2000
   -1.0338   -5.6785    0.1476 C   0  0  0  0  0  0  0  0  0  0  0  0
   -2.0514   -5.7797    0.8227 O   0  0  0  0  0  0  0  0  0  0  0  0
   -0.6558   -6.7819   -0.7841 C   0  0  0  0  0  0  0  0  0  0  0  0
   -0.0111   -7.5354   -0.3038 H   0  0  0  0  0  0  0  0  0  0  0  0
   -1.5317   -7.3401   -1.1520 H   0  0  0  0  0  0  0  0  0  0  0  0
   -0.1109   -6.4687   -1.6890 H   0  0  0  0  0  0  0  0  0  0  0  0
   -0.1543   -4.6083    0.1480 N   0  0  0  0  0  0  0  0  0  0  0  0
   -0.3302   -3.4398    0.9696 C   0  0  2  0  0  0  0  0  0  0  0  0
    0.2328   -2.2439    0.2131 C   0  0  0  0  0  0  0  0  0  0  0  0
    1.2097   -2.3192   -0.5294 O   0  0  0  0  0  0  0  0  0  0  0  0
    0.3557   -3.6024    2.3171 C   0  0  0  0  0  0  0  0  0  0  0  0
    0.6584   -4.6506   -0.4643 H   0  0  0  0  0  0  0  0  0  0  0  0
   -1.4091   -3.3101    1.1082 H   0  0  0  0  0  0  0  0  0  0  0  0
    1.4375   -3.7336    2.1985 H   0  0  0  0  0  0  0  0  0  0  0  0
    0.1969   -2.7243    2.9517 H   0  0  0  0  0  0  0  0  0  0  0  0
   -0.0294   -4.4803    2.8470 H   0  0  0  0  0  0  0  0  0  0  0  0
   -0.4616   -1.0893    0.5050 N   0  0  0  0  0  0  0  0  0  0  0  0
   -0.0884    0.2050   -0.0621 C   0  0  2  0  0  0  0  0  0  0  0  0
    1.4196    0.1897   -0.2960 C   0  0  0  0  0  0  0  0  0  0  0  0
    2.0109   -0.7671   -0.7923 O   0  0  0  0  0  0  0  0  0  0  0  0
   -0.4491    1.3734    0.8675 C   0  0  0  0  0  0  0  0  0  0  0  0
   -1.9589    1.5851    1.0202 C   0  0  0  0  0  0  0  0  0  0  0  0
   -2.2618    2.7746    1.9355 C   0  0  0  0  0  0  0  0  0  0  0  0
   -3.7672    2.9701    2.1071 C   0  0  0  0  0  0  0  0  0  0  0  0
   -4.0336    4.0917    2.9998 N   0  0  0  0  0  0  0  0  0  0  0  0
   -1.2794   -1.1113    1.0935 H   0  0  0  0  0  0  0  0  0  0  0  0
   -0.5991    0.3238   -1.0252 H   0  0  0  0  0  0  0  0  0  0  0  0
   -0.0003    2.2958    0.4760 H   0  0  0  0  0  0  0  0  0  0  0  0
    0.0016    1.2167    1.8570 H   0  0  0  0  0  0  0  0  0  0  0  0
   -2.4265    0.6857    1.4363 H   0  0  0  0  0  0  0  0  0  0  0  0
   -2.4061    1.7589    0.0341 H   0  0  0  0  0  0  0  0  0  0  0  0
   -1.7936    2.6097    2.9141 H   0  0  0  0  0  0  0  0  0  0  0  0
   -1.8158    3.6840    1.5132 H   0  0  0  0  0  0  0  0  0  0  0  0
   -4.2229    2.0628    2.5184 H   0  0  0  0  0  0  0  0  0  0  0  0
   -4.2346    3.1678    1.1365 H   0  0  0  0  0  0  0  0  0  0  0  0
   -3.1641    4.4582    3.3099 H   0  0  0  0  0  0  0  0  0  0  0  0
   -4.5419    4.7793    2.4946 H   0  0  0  0  0  0  0  0  0  0  0  0
    2.0271    1.3608    0.1355 N   0  0  0  0  0  0  0  0  0  0  0  0
    3.4509    1.5933    0.0488 C   0  0  2  0  0  0  0  0  0  0  0  0
    3.8573    2.4671    1.2282 C   0  0  0  0  0  0  0  0  0  0  0  0
    3.1301    3.3392    1.6989 O   0  0  0  0  0  0  0  0  0  0  0  0
    3.8247    2.2521   -1.2699 C   0  0  0  0  0  0  0  0  0  0  0  0
    1.4549    2.1037    0.5257 H   0  0  0  0  0  0  0  0  0  0  0  0
    3.9368    0.6152    0.1336 H   0  0  0  0  0  0  0  0  0  0  0  0
    3.3471    3.2333   -1.3729 H   0  0  0  0  0  0  0  0  0  0  0  0
    4.9068    2.4015   -1.3461 H   0  0  0  0  0  0  0  0  0  0  0  0
    3.5050    1.6363   -2.1176 H   0  0  0  0  0  0  0  0  0  0  0  0
    5.1445    2.1876    1.6656 N   0  0  0  0  0  0  0  0  0  0  0  0
    5.7755    2.9110    2.7447 C   0  0  0  0  0  0  0  0  0  0  0  0
    5.6602    1.4209    1.2436 H   0  0  0  0  0  0  0  0  0  0  0  0
    6.3531    3.7524    2.3344 H   0  0  0  0  0  0  0  0  0  0  0  0
    5.0043    3.2948    3.4288 H   0  0  0  0  0  0  0  0  0  0  0  0
    6.4495    2.2366    3.2932 H   0  0  0  0  0  0  0  0  0  0  0  0
  1  3  1  0  0  0  0
  1  7  1  0  0  0  0
  1  2  2  0  0  0  0
 39 40  1  0  0  0  0
 40 48  1  0  0  0  0
 40 41  2  0  0  0  0
  8  9  1  0  0  0  0
  9 17  1  0  0  0  0
  9 10  2  0  0  0  0
 18 19  1  0  0  0  0
 19 38  1  0  0  0  0
 19 20  2  0  0  0  0
 39 42  1  0  0  0  0
  8 11  1  0  0  0  0
 48 49  1  0  0  0  0
 22 23  1  0  0  0  0
 21 22  1  0  0  0  0
 23 24  1  0  0  0  0
 18 21  1  0  0  0  0
 24 25  1  0  0  0  0
 38 39  1  0  0  0  0
  7  8  1  0  0  0  0
 17 18  1  0  0  0  0
  3  4  1  0  0  0  0
  3  5  1  0  0  0  0
  3  6  1  0  0  0  0
 42 45  1  0  0  0  0
 42 46  1  0  0  0  0
 42 47  1  0  0  0  0
 11 14  1  0  0  0  0
 11 15  1  0  0  0  0
 11 16  1  0  0  0  0
 49 51  1  0  0  0  0
 49 52  1  0  0  0  0
 49 53  1  0  0  0  0
 22 30  1  0  0  0  0
 22 31  1  0  0  0  0
 23 32  1  0  0  0  0
 23 33  1  0  0  0  0
 21 28  1  0  0  0  0
 21 29  1  0  0  0  0
 24 34  1  0  0  0  0
 24 35  1  0  0  0  0
 39 44  1  0  0  0  0
  8 13  1  0  0  0  0
 18 27  1  0  0  0  0
 25 36  1  0  0  0  0
 25 37  1  0  0  0  0
 48 50  1  0  0  0  0
  7 12  1  0  0  0  0
 38 43  1  0  0  0  0
 17 26  1  0  0  0  0
M  END
$$$$

  -OEChem-05262214473D

 53 52  0     1  0  0  0  0  0999 V2000
   -1.0338   -5.6785    0.1476 C   0  0  0  0  0  0  0  0  0  0  0  0
   -2.0514   -5.7797    0.8227 O   0  0  0  0  0  0  0  0  0  0  0  0
   -0.6558   -6.7819   -0.7841 C   0  0  0  0  0  0  0  0  0  0  0  0
   -0.0111   -7.5354   -0.3038 H   0  0  0  0  0  0  0  0  0  0  0  0
   -1.5317   -7.3401   -1.1520 H   0  0  0  0  0  0  0  0  0  0  0  0
   -0.1109   -6.4687   -1.6890 H   0  0  0  0  0  0  0  0  0  0  0  0
   -0.1543   -4.6083    0.1480 N   0  0  0  0  0  0  0  0  0  0  0  0
   -0.3302   -3.4398    0.9696 C   0  0  2  0  0  0  0  0  0  0  0  0
    0.2328   -2.2439    0.2131 C   0  0  0  0  0  0  0  0  0  0  0  0
    1.2097   -2.3192   -0.5294 O   0  0  0  0  0  0  0  0  0  0  0  0
    0.3557   -3.6024    2.3171 C   0  0  0  0  0  0  0  0  0  0  0  0
    0.6584   -4.6506   -0.4643 H   0  0  0  0  0  0  0  0  0  0  0  0
   -1.4091   -3.3101    1.1082 H   0  0  0  0  0  0  0  0  0  0  0  0
    1.4375   -3.7336    2.1985 H   0  0  0  0  0  0  0  0  0  0  0  0
    0.1969   -2.7243    2.9517 H   0  0  0  0  0  0  0  0  0  0  0  0
   -0.0294   -4.4803    2.8470 H   0  0  0  0  0  0  0  0  0  0  0  0
   -0.4616   -1.0893    0.5050 N   0  0  0  0  0  0  0  0  0  0  0  0
   -0.0884    0.2050   -0.0621 C   0  0  2  0  0  0  0  0  0  0  0  0
    1.4196    0.1897   -0.2960 C   0  0  0  0  0  0  0  0  0  0  0  0
    1.9767   -0.6313   -1.0221 O   0  0  0  0  0  0  0  0  0  0  0  0
   -0.4491    1.3734    0.8675 C   0  0  0  0  0  0  0  0  0  0  0  0
   -1.9589    1.5851    1.0202 C   0  0  0  0  0  0  0  0  0  0  0  0
   -2.2618    2.7746    1.9355 C   0  0  0  0  0  0  0  0  0  0  0  0
   -3.7672    2.9701    2.1071 C   0  0  0  0  0  0  0  0  0  0  0  0
   -4.0336    4.0917    2.9998 N   0  0  0  0  0  0  0  0  0  0  0  0
   -1.2794   -1.1113    1.0935 H   0  0  0  0  0  0  0  0  0  0  0  0
   -0.5991    0.3238   -1.0252 H   0  0  0  0  0  0  0  0  0  0  0  0
   -0.0003    2.2958    0.4760 H   0  0  0  0  0  0  0  0  0  0  0  0
    0.0016    1.2167    1.8570 H   0  0  0  0  0  0  0  0  0  0  0  0
   -2.4265    0.6857    1.4363 H   0  0  0  0  0  0  0  0  0  0  0  0
   -2.4061    1.7589    0.0341 H   0  0  0  0  0  0  0  0  0  0  0  0
   -1.7936    2.6097    2.9141 H   0  0  0  0  0  0  0  0  0  0  0  0
   -1.8158    3.6840    1.5132 H   0  0  0  0  0  0  0  0  0  0  0  0
   -4.2229    2.0628    2.5184 H   0  0  0  0  0  0  0  0  0  0  0  0
   -4.2346    3.1678    1.1365 H   0  0  0  0  0  0  0  0  0  0  0  0
   -3.1641    4.4582    3.3099 H   0  0  0  0  0  0  0  0  0  0  0  0
   -4.5419    4.7793    2.4946 H   0  0  0  0  0  0  0  0  0  0  0  0
    2.0693    1.1863    0.4191 N   0  0  0  0  0  0  0  0  0  0  0  0
    3.5018    1.3761    0.3912 C   0  0  2  0  0  0  0  0  0  0  0  0
    3.9331    1.9022    1.7538 C   0  0  0  0  0  0  0  0  0  0  0  0
    3.2371    2.6534    2.4338 O   0  0  0  0  0  0  0  0  0  0  0  0
    3.9114    2.3346   -0.7161 C   0  0  0  0  0  0  0  0  0  0  0  0
    1.5238    1.8270    0.9879 H   0  0  0  0  0  0  0  0  0  0  0  0
    3.9482    0.3902    0.2217 H   0  0  0  0  0  0  0  0  0  0  0  0
    3.4736    3.3278   -0.5634 H   0  0  0  0  0  0  0  0  0  0  0  0
    4.9991    2.4552   -0.7542 H   0  0  0  0  0  0  0  0  0  0  0  0
    3.5744    1.9693   -1.6922 H   0  0  0  0  0  0  0  0  0  0  0  0
    5.2048    1.4690    2.1019 N   0  0  0  0  0  0  0  0  0  0  0  0
    5.8554    1.8665    3.3285 C   0  0  0  0  0  0  0  0  0  0  0  0
    5.6932    0.8157    1.4965 H   0  0  0  0  0  0  0  0  0  0  0  0
    6.4688    2.7610    3.1456 H   0  0  0  0  0  0  0  0  0  0  0  0
    5.0946    2.0932    4.0901 H   0  0  0  0  0  0  0  0  0  0  0  0
    6.4980    1.0478    3.6846 H   0  0  0  0  0  0  0  0  0  0  0  0
  1  3  1  0  0  0  0
  1  7  1  0  0  0  0
  1  2  2  0  0  0  0
 39 40  1  0  0  0  0
 40 48  1  0  0  0  0
 40 41  2  0  0  0  0
  8  9  1  0  0  0  0
  9 17  1  0  0  0  0
  9 10  2  0  0  0  0
 18 19  1  0  0  0  0
 19 38  1  0  0  0  0
 19 20  2  0  0  0  0
 39 42  1  0  0  0  0
  8 11  1  0  0  0  0
 48 49  1  0  0  0  0
 22 23  1  0  0  0  0
 21 22  1  0  0  0  0
 23 24  1  0  0  0  0
 18 21  1  0  0  0  0
 24 25  1  0  0  0  0
 38 39  1  0  0  0  0
  7  8  1  0  0  0  0
 17 18  1  0  0  0  0
  3  4  1  0  0  0  0
  3  5  1  0  0  0  0
  3  6  1  0  0  0  0
 42 45  1  0  0  0  0
 42 46  1  0  0  0  0
 42 47  1  0  0  0  0
 11 14  1  0  0  0  0
 11 15  1  0  0  0  0
 11 16  1  0  0  0  0
 49 51  1  0  0  0  0
 49 52  1  0  0  0  0
 49 53  1  0  0  0  0
 22 30  1  0  0  0  0
 22 31  1  0  0  0  0
 23 32  1  0  0  0  0
 23 33  1  0  0  0  0
 21 28  1  0  0  0  0
 21 29  1  0  0  0  0
 24 34  1  0  0  0  0
 24 35  1  0  0  0  0
 39 44  1  0  0  0  0
  8 13  1  0  0  0  0
 18 27  1  0  0  0  0
 25 36  1  0  0  0  0
 25 37  1  0  0  0  0
 48 50  1  0  0  0  0
  7 12  1  0  0  0  0
 38 43  1  0  0  0  0
 17 26  1  0  0  0  0
M  END
$$$$

  -OEChem-05262214473D

 53 52  0     1  0  0  0  0  0999 V2000
   -1.0338   -5.6785    0.1476 C   0  0  0  0  0  0  0  0  0  0  0  0
   -2.0514   -5.7797    0.8227 O   0  0  0  0  0  0  0  0  0  0  0  0
   -0.6558   -6.7819   -0.7841 C   0  0  0  0  0  0  0  0  0  0  0  0
   -0.0111   -7.5354   -0.3038 H   0  0  0  0  0  0  0  0  0  0  0  0
   -1.5317   -7.3401   -1.1520 H   0  0  0  0  0  0  0  0  0  0  0  0
   -0.1109   -6.4687   -1.6890 H   0  0  0  0  0  0  0  0  0  0  0  0
   -0.1543   -4.6083    0.1480 N   0  0  0  0  0  0  0  0  0  0  0  0
   -0.3302   -3.4398    0.9696 C   0  0  2  0  0  0  0  0  0  0  0  0
    0.2328   -2.2439    0.2131 C   0  0  0  0  0  0  0  0  0  0  0  0
    1.2097   -2.3192   -0.5294 O   0  0  0  0  0  0  0  0  0  0  0  0
    0.3557   -3.6024    2.3171 C   0  0  0  0  0  0  0  0  0  0  0  0
    0.6584   -4.6506   -0.4643 H   0  0  0  0  0  0  0  0  0  0  0  0
   -1.4091   -3.3101    1.1082 H   0  0  0  0  0  0  0  0  0  0  0  0
    1.4375   -3.7336    2.1985 H   0  0  0  0  0  0  0  0  0  0  0  0
    0.1969   -2.7243    2.9517 H   0  0  0  0  0  0  0  0  0  0  0  0
   -0.0294   -4.4803    2.8470 H   0  0  0  0  0  0  0  0  0  0  0  0
   -0.4616   -1.0893    0.5050 N   0  0  0  0  0  0  0  0  0  0  0  0
   -0.0884    0.2050   -0.0621 C   0  0  2  0  0  0  0  0  0  0  0  0
    1.4196    0.1897   -0.2960 C   0  0  0  0  0  0  0  0  0  0  0  0
    1.9496   -0.4399   -1.2093 O   0  0  0  0  0  0  0  0  0  0  0  0
   -0.4491    1.3734    0.8675 C   0  0  0  0  0  0  0  0  0  0  0  0
   -1.9589    1.5851    1.0202 C   0  0  0  0  0  0  0  0  0  0  0  0
   -2.2618    2.7746    1.9355 C   0  0  0  0  0  0  0  0  0  0  0  0
   -3.7672    2.9701    2.1071 C   0  0  0  0  0  0  0  0  0  0  0  0
   -4.0336    4.0917    2.9998 N   0  0  0  0  0  0  0  0  0  0  0  0
   -1.2794   -1.1113    1.0935 H   0  0  0  0  0  0  0  0  0  0  0  0
   -0.5991    0.3238   -1.0252 H   0  0  0  0  0  0  0  0  0  0  0  0
   -0.0003    2.2958    0.4760 H   0  0  0  0  0  0  0  0  0  0  0  0
    0.0016    1.2167    1.8570 H   0  0  0  0  0  0  0  0  0  0  0  0
   -2.4265    0.6857    1.4363 H   0  0  0  0  0  0  0  0  0  0  0  0
   -2.4061    1.7589    0.0341 H   0  0  0  0  0  0  0  0  0  0  0  0
   -1.7936    2.6097    2.9141 H   0  0  0  0  0  0  0  0  0  0  0  0
   -1.8158    3.6840    1.5132 H   0  0  0  0  0  0  0  0  0  0  0  0
   -4.2229    2.0628    2.5184 H   0  0  0  0  0  0  0  0  0  0  0  0
   -4.2346    3.1678    1.1365 H   0  0  0  0  0  0  0  0  0  0  0  0
   -3.1641    4.4582    3.3099 H   0  0  0  0  0  0  0  0  0  0  0  0
   -4.5419    4.7793    2.4946 H   0  0  0  0  0  0  0  0  0  0  0  0
    2.1024    0.9435    0.6486 N   0  0  0  0  0  0  0  0  0  0  0  0
    3.5414    1.0767    0.6665 C   0  0  2  0  0  0  0  0  0  0  0  0
    3.9825    1.2192    2.1173 C   0  0  0  0  0  0  0  0  0  0  0  0
    3.3113    1.7987    2.9686 O   0  0  0  0  0  0  0  0  0  0  0  0
    3.9971    2.2692   -0.1598 C   0  0  0  0  0  0  0  0  0  0  0  0
    1.5781    1.4387    1.3637 H   0  0  0  0  0  0  0  0  0  0  0  0
    3.9500    0.1498    0.2494 H   0  0  0  0  0  0  0  0  0  0  0  0
    3.5975    3.2071    0.2430 H   0  0  0  0  0  0  0  0  0  0  0  0
    5.0889    2.3520   -0.1686 H   0  0  0  0  0  0  0  0  0  0  0  0
    3.6535    2.1795   -1.1960 H   0  0  0  0  0  0  0  0  0  0  0  0
    5.2335    0.6608    2.3397 N   0  0  0  0  0  0  0  0  0  0  0  0
    5.8896    0.7051    3.6256 C   0  0  0  0  0  0  0  0  0  0  0  0
    5.7005    0.1650    1.5861 H   0  0  0  0  0  0  0  0  0  0  0  0
    6.5392    1.5914    3.6760 H   0  0  0  0  0  0  0  0  0  0  0  0
    5.1325    0.7598    4.4217 H   0  0  0  0  0  0  0  0  0  0  0  0
    6.4968   -0.2024    3.7587 H   0  0  0  0  0  0  0  0  0  0  0  0
  1  3  1  0  0  0  0
  1  7  1  0  0  0  0
  1  2  2  0  0  0  0
 39 40  1  0  0  0  0
 40 48  1  0  0  0  0
 40 41  2  0  0  0  0
  8  9  1  0  0  0  0
  9 17  1  0  0  0  0
  9 10  2  0  0  0  0
 18 19  1  0  0  0  0
 19 38  1  0  0  0  0
 19 20  2  0  0  0  0
 39 42  1  0  0  0  0
  8 11  1  0  0  0  0
 48 49  1  0  0  0  0
 22 23  1  0  0  0  0
 21 22  1  0  0  0  0
 23 24  1  0  0  0  0
 18 21  1  0  0  0  0
 24 25  1  0  0  0  0
 38 39  1  0  0  0  0
  7  8  1  0  0  0  0
 17 18  1  0  0  0  0
  3  4  1  0  0  0  0
  3  5  1  0  0  0  0
  3  6  1  0  0  0  0
 42 45  1  0  0  0  0
 42 46  1  0  0  0  0
 42 47  1  0  0  0  0
 11 14  1  0  0  0  0
 11 15  1  0  0  0  0
 11 16  1  0  0  0  0
 49 51  1  0  0  0  0
 49 52  1  0  0  0  0
 49 53  1  0  0  0  0
 22 30  1  0  0  0  0
 22 31  1  0  0  0  0
 23 32  1  0  0  0  0
 23 33  1  0  0  0  0
 21 28  1  0  0  0  0
 21 29  1  0  0  0  0
 24 34  1  0  0  0  0
 24 35  1  0  0  0  0
 39 44  1  0  0  0  0
  8 13  1  0  0  0  0
 18 27  1  0  0  0  0
 25 36  1  0  0  0  0
 25 37  1  0  0  0  0
 48 50  1  0  0  0  0
  7 12  1  0  0  0  0
 38 43  1  0  0  0  0
 17 26  1  0  0  0  0
M  END
$$$$

  -OEChem-05262214473D

 53 52  0     1  0  0  0  0  0999 V2000
   -1.0338   -5.6785    0.1476 C   0  0  0  0  0  0  0  0  0  0  0  0
   -2.0514   -5.7797    0.8227 O   0  0  0  0  0  0  0  0  0  0  0  0
   -0.6558   -6.7819   -0.7841 C   0  0  0  0  0  0  0  0  0  0  0  0
   -0.0111   -7.5354   -0.3038 H   0  0  0  0  0  0  0  0  0  0  0  0
   -1.5317   -7.3401   -1.1520 H   0  0  0  0  0  0  0  0  0  0  0  0
   -0.1109   -6.4687   -1.6890 H   0  0  0  0  0  0  0  0  0  0  0  0
   -0.1543   -4.6083    0.1480 N   0  0  0  0  0  0  0  0  0  0  0  0
   -0.3302   -3.4398    0.9696 C   0  0  2  0  0  0  0  0  0  0  0  0
    0.2328   -2.2439    0.2131 C   0  0  0  0  0  0  0  0  0  0  0  0
    1.2097   -2.3192   -0.5294 O   0  0  0  0  0  0  0  0  0  0  0  0
    0.3557   -3.6024    2.3171 C   0  0  0  0  0  0  0  0  0  0  0  0
    0.6584   -4.6506   -0.4643 H   0  0  0  0  0  0  0  0  0  0  0  0
   -1.4091   -3.3101    1.1082 H   0  0  0  0  0  0  0  0  0  0  0  0
    1.4375   -3.7336    2.1985 H   0  0  0  0  0  0  0  0  0  0  0  0
    0.1969   -2.7243    2.9517 H   0  0  0  0  0  0  0  0  0  0  0  0
   -0.0294   -4.4803    2.8470 H   0  0  0  0  0  0  0  0  0  0  0  0
   -0.4616   -1.0893    0.5050 N   0  0  0  0  0  0  0  0  0  0  0  0
   -0.0884    0.2050   -0.0621 C   0  0  2  0  0  0  0  0  0  0  0  0
    1.4196    0.1897   -0.2960 C   0  0  0  0  0  0  0  0  0  0  0  0
    1.9315   -0.2062   -1.3413 O   0  0  0  0  0  0  0  0  0  0  0  0
   -0.4491    1.3734    0.8675 C   0  0  0  0  0  0  0  0  0  0  0  0
   -1.9589    1.5851    1.0202 C   0  0  0  0  0  0  0  0  0  0  0  0
   -2.2618    2.7746    1.9355 C   0  0  0  0  0  0  0  0  0  0  0  0
   -3.7672    2.9701    2.1071 C   0  0  0  0  0  0  0  0  0  0  0  0
   -4.0336    4.0917    2.9998 N   0  0  0  0  0  0  0  0  0  0  0  0
   -1.2794   -1.1113    1.0935 H   0  0  0  0  0  0  0  0  0  0  0  0
   -0.5991    0.3238   -1.0252 H   0  0  0  0  0  0  0  0  0  0  0  0
   -0.0003    2.2958    0.4760 H   0  0  0  0  0  0  0  0  0  0  0  0
    0.0016    1.2167    1.8570 H   0  0  0  0  0  0  0  0  0  0  0  0
   -2.4265    0.6857    1.4363 H   0  0  0  0  0  0  0  0  0  0  0  0
   -2.4061    1.7589    0.0341 H   0  0  0  0  0  0  0  0  0  0  0  0
   -1.7936    2.6097    2.9141 H   0  0  0  0  0  0  0  0  0  0  0  0
   -1.8158    3.6840    1.5132 H   0  0  0  0  0  0  0  0  0  0  0  0
   -4.2229    2.0628    2.5184 H   0  0  0  0  0  0  0  0  0  0  0  0
   -4.2346    3.1678    1.1365 H   0  0  0  0  0  0  0  0  0  0  0  0
   -3.1641    4.4582    3.3099 H   0  0  0  0  0  0  0  0  0  0  0  0
   -4.5419    4.7793    2.4946 H   0  0  0  0  0  0  0  0  0  0  0  0
    2.1242    0.6489    0.8083 N   0  0  0  0  0  0  0  0  0  0  0  0
    3.5671    0.7154    0.8560 C   0  0  2  0  0  0  0  0  0  0  0  0
    4.0022    0.4645    2.2938 C   0  0  0  0  0  0  0  0  0  0  0  0
    3.3477    0.8335    3.2667 O   0  0  0  0  0  0  0  0  0  0  0  0
    4.0757    2.0605    0.3611 C   0  0  0  0  0  0  0  0  0  0  0  0
    1.6142    0.9655    1.6276 H   0  0  0  0  0  0  0  0  0  0  0  0
    3.9422   -0.0895    0.2146 H   0  0  0  0  0  0  0  0  0  0  0  0
    3.7102    2.8793    0.9914 H   0  0  0  0  0  0  0  0  0  0  0  0
    5.1700    2.0989    0.3709 H   0  0  0  0  0  0  0  0  0  0  0  0
    3.7369    2.2525   -0.6628 H   0  0  0  0  0  0  0  0  0  0  0  0
    5.2284   -0.1818    2.3628 N   0  0  0  0  0  0  0  0  0  0  0  0
    5.8758   -0.4940    3.6155 C   0  0  0  0  0  0  0  0  0  0  0  0
    5.6814   -0.4867    1.5063 H   0  0  0  0  0  0  0  0  0  0  0  0
    6.5593    0.3232    3.8893 H   0  0  0  0  0  0  0  0  0  0  0  0
    5.1152   -0.6144    4.4011 H   0  0  0  0  0  0  0  0  0  0  0  0
    6.4458   -1.4289    3.5106 H   0  0  0  0  0  0  0  0  0  0  0  0
  1  3  1  0  0  0  0
  1  7  1  0  0  0  0
  1  2  2  0  0  0  0
 39 40  1  0  0  0  0
 40 48  1  0  0  0  0
 40 41  2  0  0  0  0
  8  9  1  0  0  0  0
  9 17  1  0  0  0  0
  9 10  2  0  0  0  0
 18 19  1  0  0  0  0
 19 38  1  0  0  0  0
 19 20  2  0  0  0  0
 39 42  1  0  0  0  0
  8 11  1  0  0  0  0
 48 49  1  0  0  0  0
 22 23  1  0  0  0  0
 21 22  1  0  0  0  0
 23 24  1  0  0  0  0
 18 21  1  0  0  0  0
 24 25  1  0  0  0  0
 38 39  1  0  0  0  0
  7  8  1  0  0  0  0
 17 18  1  0  0  0  0
  3  4  1  0  0  0  0
  3  5  1  0  0  0  0
  3  6  1  0  0  0  0
 42 45  1  0  0  0  0
 42 46  1  0  0  0  0
 42 47  1  0  0  0  0
 11 14  1  0  0  0  0
 11 15  1  0  0  0  0
 11 16  1  0  0  0  0
 49 51  1  0  0  0  0
 49 52  1  0  0  0  0
 49 53  1  0  0  0  0
 22 30  1  0  0  0  0
 22 31  1  0  0  0  0
 23 32  1  0  0  0  0
 23 33  1  0  0  0  0
 21 28  1  0  0  0  0
 21 29  1  0  0  0  0
 24 34  1  0  0  0  0
 24 35  1  0  0  0  0
 39 44  1  0  0  0  0
  8 13  1  0  0  0  0
 18 27  1  0  0  0  0
 25 36  1  0  0  0  0
 25 37  1  0  0  0  0
 48 50  1  0  0  0  0
  7 12  1  0  0  0  0
 38 43  1  0  0  0  0
 17 26  1  0  0  0  0
M  END
$$$$

  -OEChem-05262214473D

 53 52  0     1  0  0  0  0  0999 V2000
   -1.0338   -5.6785    0.1476 C   0  0  0  0  0  0  0  0  0  0  0  0
   -2.0514   -5.7797    0.8227 O   0  0  0  0  0  0  0  0  0  0  0  0
   -0.6558   -6.7819   -0.7841 C   0  0  0  0  0  0  0  0  0  0  0  0
   -0.0111   -7.5354   -0.3038 H   0  0  0  0  0  0  0  0  0  0  0  0
   -1.5317   -7.3401   -1.1520 H   0  0  0  0  0  0  0  0  0  0  0  0
   -0.1109   -6.4687   -1.6890 H   0  0  0  0  0  0  0  0  0  0  0  0
   -0.1543   -4.6083    0.1480 N   0  0  0  0  0  0  0  0  0  0  0  0
   -0.3302   -3.4398    0.9696 C   0  0  2  0  0  0  0  0  0  0  0  0
    0.2328   -2.2439    0.2131 C   0  0  0  0  0  0  0  0  0  0  0  0
    1.2097   -2.3192   -0.5294 O   0  0  0  0  0  0  0  0  0  0  0  0
    0.3557   -3.6024    2.3171 C   0  0  0  0  0  0  0  0  0  0  0  0
    0.6584   -4.6506   -0.4643 H   0  0  0  0  0  0  0  0  0  0  0  0
   -1.4091   -3.3101    1.1082 H   0  0  0  0  0  0  0  0  0  0  0  0
    1.4375   -3.7336    2.1985 H   0  0  0  0  0  0  0  0  0  0  0  0
    0.1969   -2.7243    2.9517 H   0  0  0  0  0  0  0  0  0  0  0  0
   -0.0294   -4.4803    2.8470 H   0  0  0  0  0  0  0  0  0  0  0  0
   -0.4616   -1.0893    0.5050 N   0  0  0  0  0  0  0  0  0  0  0  0
   -0.0884    0.2050   -0.0621 C   0  0  2  0  0  0  0  0  0  0  0  0
    1.4196    0.1897   -0.2960 C   0  0  0  0  0  0  0  0  0  0  0  0
    1.9236    0.0541   -1.4091 O   0  0  0  0  0  0  0  0  0  0  0  0
   -0.4491    1.3734    0.8675 C   0  0  0  0  0  0  0  0  0  0  0  0
   -1.9589    1.5851    1.0202 C   0  0  0  0  0  0  0  0  0  0  0  0
   -2.2618    2.7746    1.9355 C   0  0  0  0  0  0  0  0  0  0  0  0
   -3.7672    2.9701    2.1071 C   0  0  0  0  0  0  0  0  0  0  0  0
   -4.0336    4.0917    2.9998 N   0  0  0  0  0  0  0  0  0  0  0  0
   -1.2794   -1.1113    1.0935 H   0  0  0  0  0  0  0  0  0  0  0  0
   -0.5991    0.3238   -1.0252 H   0  0  0  0  0  0  0  0  0  0  0  0
   -0.0003    2.2958    0.4760 H   0  0  0  0  0  0  0  0  0  0  0  0
    0.0016    1.2167    1.8570 H   0  0  0  0  0  0  0  0  0  0  0  0
   -2.4265    0.6857    1.4363 H   0  0  0  0  0  0  0  0  0  0  0  0
   -2.4061    1.7589    0.0341 H   0  0  0  0  0  0  0  0  0  0  0  0
   -1.7936    2.6097    2.9141 H   0  0  0  0  0  0  0  0  0  0  0  0
   -1.8158    3.6840    1.5132 H   0  0  0  0  0  0  0  0  0  0  0  0
   -4.2229    2.0628    2.5184 H   0  0  0  0  0  0  0  0  0  0  0  0
   -4.2346    3.1678    1.1365 H   0  0  0  0  0  0  0  0  0  0  0  0
   -3.1641    4.4582    3.3099 H   0  0  0  0  0  0  0  0  0  0  0  0
   -4.5419    4.7793    2.4946 H   0  0  0  0  0  0  0  0  0  0  0  0
    2.1331    0.3227    0.8872 N   0  0  0  0  0  0  0  0  0  0  0  0
    3.5771    0.3170    0.9467 C   0  0  2  0  0  0  0  0  0  0  0  0
    3.9908   -0.3103    2.2713 C   0  0  0  0  0  0  0  0  0  0  0  0
    3.3438   -0.1766    3.3080 O   0  0  0  0  0  0  0  0  0  0  0  0
    4.1420    1.7224    0.8110 C   0  0  0  0  0  0  0  0  0  0  0  0
    1.6296    0.4394    1.7616 H   0  0  0  0  0  0  0  0  0  0  0  0
    3.9252   -0.3115    0.1197 H   0  0  0  0  0  0  0  0  0  0  0  0
    3.8041    2.3669    1.6307 H   0  0  0  0  0  0  0  0  0  0  0  0
    5.2369    1.7133    0.8276 H   0  0  0  0  0  0  0  0  0  0  0  0
    3.8191    2.1833   -0.1288 H   0  0  0  0  0  0  0  0  0  0  0  0
    5.1901   -1.0013    2.1696 N   0  0  0  0  0  0  0  0  0  0  0  0
    5.8149   -1.6491    3.2992 C   0  0  0  0  0  0  0  0  0  0  0  0
    5.6374   -1.0949    1.2624 H   0  0  0  0  0  0  0  0  0  0  0  0
    6.5279   -0.9571    3.7711 H   0  0  0  0  0  0  0  0  0  0  0  0
    5.0442   -1.9359    4.0297 H   0  0  0  0  0  0  0  0  0  0  0  0
    6.3485   -2.5482    2.9571 H   0  0  0  0  0  0  0  0  0  0  0  0
  1  3  1  0  0  0  0
  1  7  1  0  0  0  0
  1  2  2  0  0  0  0
 39 40  1  0  0  0  0
 40 48  1  0  0  0  0
 40 41  2  0  0  0  0
  8  9  1  0  0  0  0
  9 17  1  0  0  0  0
  9 10  2  0  0  0  0
 18 19  1  0  0  0  0
 19 38  1  0  0  0  0
 19 20  2  0  0  0  0
 39 42  1  0  0  0  0
  8 11  1  0  0  0  0
 48 49  1  0  0  0  0
 22 23  1  0  0  0  0
 21 22  1  0  0  0  0
 23 24  1  0  0  0  0
 18 21  1  0  0  0  0
 24 25  1  0  0  0  0
 38 39  1  0  0  0  0
  7  8  1  0  0  0  0
 17 18  1  0  0  0  0
  3  4  1  0  0  0  0
  3  5  1  0  0  0  0
  3  6  1  0  0  0  0
 42 45  1  0  0  0  0
 42 46  1  0  0  0  0
 42 47  1  0  0  0  0
 11 14  1  0  0  0  0
 11 15  1  0  0  0  0
 11 16  1  0  0  0  0
 49 51  1  0  0  0  0
 49 52  1  0  0  0  0
 49 53  1  0  0  0  0
 22 30  1  0  0  0  0
 22 31  1  0  0  0  0
 23 32  1  0  0  0  0
 23 33  1  0  0  0  0
 21 28  1  0  0  0  0
 21 29  1  0  0  0  0
 24 34  1  0  0  0  0
 24 35  1  0  0  0  0
 39 44  1  0  0  0  0
  8 13  1  0  0  0  0
 18 27  1  0  0  0  0
 25 36  1  0  0  0  0
 25 37  1  0  0  0  0
 48 50  1  0  0  0  0
  7 12  1  0  0  0  0
 38 43  1  0  0  0  0
 17 26  1  0  0  0  0
M  END
$$$$

  -OEChem-05262214473D

 53 52  0     1  0  0  0  0  0999 V2000
   -1.0338   -5.6785    0.1476 C   0  0  0  0  0  0  0  0  0  0  0  0
   -2.0514   -5.7797    0.8227 O   0  0  0  0  0  0  0  0  0  0  0  0
   -0.6558   -6.7819   -0.7841 C   0  0  0  0  0  0  0  0  0  0  0  0
   -0.0111   -7.5354   -0.3038 H   0  0  0  0  0  0  0  0  0  0  0  0
   -1.5317   -7.3401   -1.1520 H   0  0  0  0  0  0  0  0  0  0  0  0
   -0.1109   -6.4687   -1.6890 H   0  0  0  0  0  0  0  0  0  0  0  0
   -0.1543   -4.6083    0.1480 N   0  0  0  0  0  0  0  0  0  0  0  0
   -0.3302   -3.4398    0.9696 C   0  0  2  0  0  0  0  0  0  0  0  0
    0.2328   -2.2439    0.2131 C   0  0  0  0  0  0  0  0  0  0  0  0
    1.2097   -2.3192   -0.5294 O   0  0  0  0  0  0  0  0  0  0  0  0
    0.3557   -3.6024    2.3171 C   0  0  0  0  0  0  0  0  0  0  0  0
    0.6584   -4.6506   -0.4643 H   0  0  0  0  0  0  0  0  0  0  0  0
   -1.4091   -3.3101    1.1082 H   0  0  0  0  0  0  0  0  0  0  0  0
    1.4375   -3.7336    2.1985 H   0  0  0  0  0  0  0  0  0  0  0  0
    0.1969   -2.7243    2.9517 H   0  0  0  0  0  0  0  0  0  0  0  0
   -0.0294   -4.4803    2.8470 H   0  0  0  0  0  0  0  0  0  0  0  0
   -0.4616   -1.0893    0.5050 N   0  0  0  0  0  0  0  0  0  0  0  0
   -0.0884    0.2050   -0.0621 C   0  0  2  0  0  0  0  0  0  0  0  0
    1.4196    0.1897   -0.2960 C   0  0  0  0  0  0  0  0  0  0  0  0
    1.9265    0.3232   -1.4080 O   0  0  0  0  0  0  0  0  0  0  0  0
   -0.4491    1.3734    0.8675 C   0  0  0  0  0  0  0  0  0  0  0  0
   -1.9589    1.5851    1.0202 C   0  0  0  0  0  0  0  0  0  0  0  0
   -2.2618    2.7746    1.9355 C   0  0  0  0  0  0  0  0  0  0  0  0
   -3.7672    2.9701    2.1071 C   0  0  0  0  0  0  0  0  0  0  0  0
   -4.0336    4.0917    2.9998 N   0  0  0  0  0  0  0  0  0  0  0  0
   -1.2794   -1.1113    1.0935 H   0  0  0  0  0  0  0  0  0  0  0  0
   -0.5991    0.3238   -1.0252 H   0  0  0  0  0  0  0  0  0  0  0  0
   -0.0003    2.2958    0.4760 H   0  0  0  0  0  0  0  0  0  0  0  0
    0.0016    1.2167    1.8570 H   0  0  0  0  0  0  0  0  0  0  0  0
   -2.4265    0.6857    1.4363 H   0  0  0  0  0  0  0  0  0  0  0  0
   -2.4061    1.7589    0.0341 H   0  0  0  0  0  0  0  0  0  0  0  0
   -1.7936    2.6097    2.9141 H   0  0  0  0  0  0  0  0  0  0  0  0
   -1.8158    3.6840    1.5132 H   0  0  0  0  0  0  0  0  0  0  0  0
   -4.2229    2.0628    2.5184 H   0  0  0  0  0  0  0  0  0  0  0  0
   -4.2346    3.1678    1.1365 H   0  0  0  0  0  0  0  0  0  0  0  0
   -3.1641    4.4582    3.3099 H   0  0  0  0  0  0  0  0  0  0  0  0
   -4.5419    4.7793    2.4946 H   0  0  0  0  0  0  0  0  0  0  0  0
    2.1286   -0.0129    0.8801 N   0  0  0  0  0  0  0  0  0  0  0  0
    3.5707   -0.0914    0.9324 C   0  0  2  0  0  0  0  0  0  0  0  0
    3.9491   -1.0526    2.0515 C   0  0  0  0  0  0  0  0  0  0  0  0
    3.2998   -1.1626    3.0895 O   0  0  0  0  0  0  0  0  0  0  0  0
    4.1915    1.2783    1.1593 C   0  0  0  0  0  0  0  0  0  0  0  0
    1.6233   -0.1036    1.7564 H   0  0  0  0  0  0  0  0  0  0  0  0
    3.9003   -0.5009   -0.0287 H   0  0  0  0  0  0  0  0  0  0  0  0
    3.8729    1.7046    2.1175 H   0  0  0  0  0  0  0  0  0  0  0  0
    5.2850    1.2214    1.1702 H   0  0  0  0  0  0  0  0  0  0  0  0
    3.8942    1.9766    0.3695 H   0  0  0  0  0  0  0  0  0  0  0  0
    5.1211   -1.7420    1.7733 N   0  0  0  0  0  0  0  0  0  0  0  0
    5.7111   -2.6816    2.6980 C   0  0  0  0  0  0  0  0  0  0  0  0
    5.5714   -1.6184    0.8712 H   0  0  0  0  0  0  0  0  0  0  0  0
    6.4471   -2.1624    3.3294 H   0  0  0  0  0  0  0  0  0  0  0  0
    4.9240   -3.1146    3.3328 H   0  0  0  0  0  0  0  0  0  0  0  0
    6.2116   -3.4839    2.1359 H   0  0  0  0  0  0  0  0  0  0  0  0
  1  3  1  0  0  0  0
  1  7  1  0  0  0  0
  1  2  2  0  0  0  0
 39 40  1  0  0  0  0
 40 48  1  0  0  0  0
 40 41  2  0  0  0  0
  8  9  1  0  0  0  0
  9 17  1  0  0  0  0
  9 10  2  0  0  0  0
 18 19  1  0  0  0  0
 19 38  1  0  0  0  0
 19 20  2  0  0  0  0
 39 42  1  0  0  0  0
  8 11  1  0  0  0  0
 48 49  1  0  0  0  0
 22 23  1  0  0  0  0
 21 22  1  0  0  0  0
 23 24  1  0  0  0  0
 18 21  1  0  0  0  0
 24 25  1  0  0  0  0
 38 39  1  0  0  0  0
  7  8  1  0  0  0  0
 17 18  1  0  0  0  0
  3  4  1  0  0  0  0
  3  5  1  0  0  0  0
  3  6  1  0  0  0  0
 42 45  1  0  0  0  0
 42 46  1  0  0  0  0
 42 47  1  0  0  0  0
 11 14  1  0  0  0  0
 11 15  1  0  0  0  0
 11 16  1  0  0  0  0
 49 51  1  0  0  0  0
 49 52  1  0  0  0  0
 49 53  1  0  0  0  0
 22 30  1  0  0  0  0
 22 31  1  0  0  0  0
 23 32  1  0  0  0  0
 23 33  1  0  0  0  0
 21 28  1  0  0  0  0
 21 29  1  0  0  0  0
 24 34  1  0  0  0  0
 24 35  1  0  0  0  0
 39 44  1  0  0  0  0
  8 13  1  0  0  0  0
 18 27  1  0  0  0  0
 25 36  1  0  0  0  0
 25 37  1  0  0  0  0
 48 50  1  0  0  0  0
  7 12  1  0  0  0  0
 38 43  1  0  0  0  0
 17 26  1  0  0  0  0
M  END
$$$$

  -OEChem-05262214473D

 53 52  0     1  0  0  0  0  0999 V2000
   -1.0338   -5.6785    0.1476 C   0  0  0  0  0  0  0  0  0  0  0  0
   -2.0514   -5.7797    0.8227 O   0  0  0  0  0  0  0  0  0  0  0  0
   -0.6558   -6.7819   -0.7841 C   0  0  0  0  0  0  0  0  0  0  0  0
   -0.0111   -7.5354   -0.3038 H   0  0  0  0  0  0  0  0  0  0  0  0
   -1.5317   -7.3401   -1.1520 H   0  0  0  0  0  0  0  0  0  0  0  0
   -0.1109   -6.4687   -1.6890 H   0  0  0  0  0  0  0  0  0  0  0  0
   -0.1543   -4.6083    0.1480 N   0  0  0  0  0  0  0  0  0  0  0  0
   -0.3302   -3.4398    0.9696 C   0  0  2  0  0  0  0  0  0  0  0  0
    0.2328   -2.2439    0.2131 C   0  0  0  0  0  0  0  0  0  0  0  0
    1.2097   -2.3192   -0.5294 O   0  0  0  0  0  0  0  0  0  0  0  0
    0.3557   -3.6024    2.3171 C   0  0  0  0  0  0  0  0  0  0  0  0
    0.6584   -4.6506   -0.4643 H   0  0  0  0  0  0  0  0  0  0  0  0
   -1.4091   -3.3101    1.1082 H   0  0  0  0  0  0  0  0  0  0  0  0
    1.4375   -3.7336    2.1985 H   0  0  0  0  0  0  0  0  0  0  0  0
    0.1969   -2.7243    2.9517 H   0  0  0  0  0  0  0  0  0  0  0  0
   -0.0294   -4.4803    2.8470 H   0  0  0  0  0  0  0  0  0  0  0  0
   -0.4616   -1.0893    0.5050 N   0  0  0  0  0  0  0  0  0  0  0  0
   -0.0884    0.2050   -0.0621 C   0  0  2  0  0  0  0  0  0  0  0  0
    1.4196    0.1897   -0.2960 C   0  0  0  0  0  0  0  0  0  0  0  0
    1.9400    0.5827   -1.3382 O   0  0  0  0  0  0  0  0  0  0  0  0
   -0.4491    1.3734    0.8675 C   0  0  0  0  0  0  0  0  0  0  0  0
   -1.9589    1.5851    1.0202 C   0  0  0  0  0  0  0  0  0  0  0  0
   -2.2618    2.7746    1.9355 C   0  0  0  0  0  0  0  0  0  0  0  0
   -3.7672    2.9701    2.1071 C   0  0  0  0  0  0  0  0  0  0  0  0
   -4.0336    4.0917    2.9998 N   0  0  0  0  0  0  0  0  0  0  0  0
   -1.2794   -1.1113    1.0935 H   0  0  0  0  0  0  0  0  0  0  0  0
   -0.5991    0.3238   -1.0252 H   0  0  0  0  0  0  0  0  0  0  0  0
   -0.0003    2.2958    0.4760 H   0  0  0  0  0  0  0  0  0  0  0  0
    0.0016    1.2167    1.8570 H   0  0  0  0  0  0  0  0  0  0  0  0
   -2.4265    0.6857    1.4363 H   0  0  0  0  0  0  0  0  0  0  0  0
   -2.4061    1.7589    0.0341 H   0  0  0  0  0  0  0  0  0  0  0  0
   -1.7936    2.6097    2.9141 H   0  0  0  0  0  0  0  0  0  0  0  0
   -1.8158    3.6840    1.5132 H   0  0  0  0  0  0  0  0  0  0  0  0
   -4.2229    2.0628    2.5184 H   0  0  0  0  0  0  0  0  0  0  0  0
   -4.2346    3.1678    1.1365 H   0  0  0  0  0  0  0  0  0  0  0  0
   -3.1641    4.4582    3.3099 H   0  0  0  0  0  0  0  0  0  0  0  0
   -4.5419    4.7793    2.4946 H   0  0  0  0  0  0  0  0  0  0  0  0
    2.1109   -0.3351    0.7873 N   0  0  0  0  0  0  0  0  0  0  0  0
    3.5484   -0.4819    0.8142 C   0  0  2  0  0  0  0  0  0  0  0  0
    3.8800   -1.7117    1.6491 C   0  0  0  0  0  0  0  0  0  0  0  0
    3.2188   -2.0574    2.6261 O   0  0  0  0  0  0  0  0  0  0  0  0
    4.2208    0.7582    1.3823 C   0  0  0  0  0  0  0  0  0  0  0  0
    1.5957   -0.6266    1.6126 H   0  0  0  0  0  0  0  0  0  0  0  0
    3.8691   -0.6450   -0.2205 H   0  0  0  0  0  0  0  0  0  0  0  0
    3.9117    0.9378    2.4184 H   0  0  0  0  0  0  0  0  0  0  0  0
    5.3111    0.6567    1.3755 H   0  0  0  0  0  0  0  0  0  0  0  0
    3.9574    1.6465    0.7981 H   0  0  0  0  0  0  0  0  0  0  0  0
    5.0261   -2.3534    1.2009 N   0  0  0  0  0  0  0  0  0  0  0  0
    5.5715   -3.5210    1.8529 C   0  0  0  0  0  0  0  0  0  0  0  0
    5.4879   -2.0214    0.3593 H   0  0  0  0  0  0  0  0  0  0  0  0
    6.3224   -3.2104    2.5943 H   0  0  0  0  0  0  0  0  0  0  0  0
    4.7631   -4.0700    2.3579 H   0  0  0  0  0  0  0  0  0  0  0  0
    6.0443   -4.1723    1.1031 H   0  0  0  0  0  0  0  0  0  0  0  0
  1  3  1  0  0  0  0
  1  7  1  0  0  0  0
  1  2  2  0  0  0  0
 39 40  1  0  0  0  0
 40 48  1  0  0  0  0
 40 41  2  0  0  0  0
  8  9  1  0  0  0  0
  9 17  1  0  0  0  0
  9 10  2  0  0  0  0
 18 19  1  0  0  0  0
 19 38  1  0  0  0  0
 19 20  2  0  0  0  0
 39 42  1  0  0  0  0
  8 11  1  0  0  0  0
 48 49  1  0  0  0  0
 22 23  1  0  0  0  0
 21 22  1  0  0  0  0
 23 24  1  0  0  0  0
 18 21  1  0  0  0  0
 24 25  1  0  0  0  0
 38 39  1  0  0  0  0
  7  8  1  0  0  0  0
 17 18  1  0  0  0  0
  3  4  1  0  0  0  0
  3  5  1  0  0  0  0
  3  6  1  0  0  0  0
 42 45  1  0  0  0  0
 42 46  1  0  0  0  0
 42 47  1  0  0  0  0
 11 14  1  0  0  0  0
 11 15  1  0  0  0  0
 11 16  1  0  0  0  0
 49 51  1  0  0  0  0
 49 52  1  0  0  0  0
 49 53  1  0  0  0  0
 22 30  1  0  0  0  0
 22 31  1  0  0  0  0
 23 32  1  0  0  0  0
 23 33  1  0  0  0  0
 21 28  1  0  0  0  0
 21 29  1  0  0  0  0
 24 34  1  0  0  0  0
 24 35  1  0  0  0  0
 39 44  1  0  0  0  0
  8 13  1  0  0  0  0
 18 27  1  0  0  0  0
 25 36  1  0  0  0  0
 25 37  1  0  0  0  0
 48 50  1  0  0  0  0
  7 12  1  0  0  0  0
 38 43  1  0  0  0  0
 17 26  1  0  0  0  0
M  END
$$$$

  -OEChem-05262214473D

 53 52  0     1  0  0  0  0  0999 V2000
   -1.0338   -5.6785    0.1476 C   0  0  0  0  0  0  0  0  0  0  0  0
   -2.0514   -5.7797    0.8227 O   0  0  0  0  0  0  0  0  0  0  0  0
   -0.6558   -6.7819   -0.7841 C   0  0  0  0  0  0  0  0  0  0  0  0
   -0.0111   -7.5354   -0.3038 H   0  0  0  0  0  0  0  0  0  0  0  0
   -1.5317   -7.3401   -1.1520 H   0  0  0  0  0  0  0  0  0  0  0  0
   -0.1109   -6.4687   -1.6890 H   0  0  0  0  0  0  0  0  0  0  0  0
   -0.1543   -4.6083    0.1480 N   0  0  0  0  0  0  0  0  0  0  0  0
   -0.3302   -3.4398    0.9696 C   0  0  2  0  0  0  0  0  0  0  0  0
    0.2328   -2.2439    0.2131 C   0  0  0  0  0  0  0  0  0  0  0  0
    1.2097   -2.3192   -0.5294 O   0  0  0  0  0  0  0  0  0  0  0  0
    0.3557   -3.6024    2.3171 C   0  0  0  0  0  0  0  0  0  0  0  0
    0.6584   -4.6506   -0.4643 H   0  0  0  0  0  0  0  0  0  0  0  0
   -1.4091   -3.3101    1.1082 H   0  0  0  0  0  0  0  0  0  0  0  0
    1.4375   -3.7336    2.1985 H   0  0  0  0  0  0  0  0  0  0  0  0
    0.1969   -2.7243    2.9517 H   0  0  0  0  0  0  0  0  0  0  0  0
   -0.0294   -4.4803    2.8470 H   0  0  0  0  0  0  0  0  0  0  0  0
   -0.4616   -1.0893    0.5050 N   0  0  0  0  0  0  0  0  0  0  0  0
   -0.0884    0.2050   -0.0621 C   0  0  2  0  0  0  0  0  0  0  0  0
    1.4196    0.1897   -0.2960 C   0  0  0  0  0  0  0  0  0  0  0  0
    1.9632    0.8150   -1.2043 O   0  0  0  0  0  0  0  0  0  0  0  0
   -0.4491    1.3734    0.8675 C   0  0  0  0  0  0  0  0  0  0  0  0
   -1.9589    1.5851    1.0202 C   0  0  0  0  0  0  0  0  0  0  0  0
   -2.2618    2.7746    1.9355 C   0  0  0  0  0  0  0  0  0  0  0  0
   -3.7672    2.9701    2.1071 C   0  0  0  0  0  0  0  0  0  0  0  0
   -4.0336    4.0917    2.9998 N   0  0  0  0  0  0  0  0  0  0  0  0
   -1.2794   -1.1113    1.0935 H   0  0  0  0  0  0  0  0  0  0  0  0
   -0.5991    0.3238   -1.0252 H   0  0  0  0  0  0  0  0  0  0  0  0
   -0.0003    2.2958    0.4760 H   0  0  0  0  0  0  0  0  0  0  0  0
    0.0016    1.2167    1.8570 H   0  0  0  0  0  0  0  0  0  0  0  0
   -2.4265    0.6857    1.4363 H   0  0  0  0  0  0  0  0  0  0  0  0
   -2.4061    1.7589    0.0341 H   0  0  0  0  0  0  0  0  0  0  0  0
   -1.7936    2.6097    2.9141 H   0  0  0  0  0  0  0  0  0  0  0  0
   -1.8158    3.6840    1.5132 H   0  0  0  0  0  0  0  0  0  0  0  0
   -4.2229    2.0628    2.5184 H   0  0  0  0  0  0  0  0  0  0  0  0
   -4.2346    3.1678    1.1365 H   0  0  0  0  0  0  0  0  0  0  0  0
   -3.1641    4.4582    3.3099 H   0  0  0  0  0  0  0  0  0  0  0  0
   -4.5419    4.7793    2.4946 H   0  0  0  0  0  0  0  0  0  0  0  0
    2.0813   -0.6218    0.6153 N   0  0  0  0  0  0  0  0  0  0  0  0
    3.5117   -0.8281    0.6000 C   0  0  2  0  0  0  0  0  0  0  0  0
    3.7881   -2.2427    1.0917 C   0  0  0  0  0  0  0  0  0  0  0  0
    3.1063   -2.8000    1.9495 O   0  0  0  0  0  0  0  0  0  0  0  0
    4.2279    0.1976    1.4647 C   0  0  0  0  0  0  0  0  0  0  0  0
    1.5486   -1.0938    1.3398 H   0  0  0  0  0  0  0  0  0  0  0  0
    3.8337   -0.7339   -0.4428 H   0  0  0  0  0  0  0  0  0  0  0  0
    3.9181    0.1185    2.5131 H   0  0  0  0  0  0  0  0  0  0  0  0
    5.3133    0.0577    1.4294 H   0  0  0  0  0  0  0  0  0  0  0  0
    4.0041    1.2156    1.1279 H   0  0  0  0  0  0  0  0  0  0  0  0
    4.9115   -2.7938    0.4913 N   0  0  0  0  0  0  0  0  0  0  0  0
    5.4055   -4.1101    0.8216 C   0  0  0  0  0  0  0  0  0  0  0  0
    5.3926   -2.2764   -0.2385 H   0  0  0  0  0  0  0  0  0  0  0  0
    6.1623   -4.0297    1.6159 H   0  0  0  0  0  0  0  0  0  0  0  0
    4.5722   -4.7373    1.1714 H   0  0  0  0  0  0  0  0  0  0  0  0
    5.8582   -4.5664   -0.0711 H   0  0  0  0  0  0  0  0  0  0  0  0
  1  3  1  0  0  0  0
  1  7  1  0  0  0  0
  1  2  2  0  0  0  0
 39 40  1  0  0  0  0
 40 48  1  0  0  0  0
 40 41  2  0  0  0  0
  8  9  1  0  0  0  0
  9 17  1  0  0  0  0
  9 10  2  0  0  0  0
 18 19  1  0  0  0  0
 19 38  1  0  0  0  0
 19 20  2  0  0  0  0
 39 42  1  0  0  0  0
  8 11  1  0  0  0  0
 48 49  1  0  0  0  0
 22 23  1  0  0  0  0
 21 22  1  0  0  0  0
 23 24  1  0  0  0  0
 18 21  1  0  0  0  0
 24 25  1  0  0  0  0
 38 39  1  0  0  0  0
  7  8  1  0  0  0  0
 17 18  1  0  0  0  0
  3  4  1  0  0  0  0
  3  5  1  0  0  0  0
  3  6  1  0  0  0  0
 42 45  1  0  0  0  0
 42 46  1  0  0  0  0
 42 47  1  0  0  0  0
 11 14  1  0  0  0  0
 11 15  1  0  0  0  0
 11 16  1  0  0  0  0
 49 51  1  0  0  0  0
 49 52  1  0  0  0  0
 49 53  1  0  0  0  0
 22 30  1  0  0  0  0
 22 31  1  0  0  0  0
 23 32  1  0  0  0  0
 23 33  1  0  0  0  0
 21 28  1  0  0  0  0
 21 29  1  0  0  0  0
 24 34  1  0  0  0  0
 24 35  1  0  0  0  0
 39 44  1  0  0  0  0
  8 13  1  0  0  0  0
 18 27  1  0  0  0  0
 25 36  1  0  0  0  0
 25 37  1  0  0  0  0
 48 50  1  0  0  0  0
  7 12  1  0  0  0  0
 38 43  1  0  0  0  0
 17 26  1  0  0  0  0
M  END
$$$$

  -OEChem-05262214473D

 53 52  0     1  0  0  0  0  0999 V2000
   -1.0338   -5.6785    0.1476 C   0  0  0  0  0  0  0  0  0  0  0  0
   -2.0514   -5.7797    0.8227 O   0  0  0  0  0  0  0  0  0  0  0  0
   -0.6558   -6.7819   -0.7841 C   0  0  0  0  0  0  0  0  0  0  0  0
   -0.0111   -7.5354   -0.3038 H   0  0  0  0  0  0  0  0  0  0  0  0
   -1.5317   -7.3401   -1.1520 H   0  0  0  0  0  0  0  0  0  0  0  0
   -0.1109   -6.4687   -1.6890 H   0  0  0  0  0  0  0  0  0  0  0  0
   -0.1543   -4.6083    0.1480 N   0  0  0  0  0  0  0  0  0  0  0  0
   -0.3302   -3.4398    0.9696 C   0  0  2  0  0  0  0  0  0  0  0  0
    0.2328   -2.2439    0.2131 C   0  0  0  0  0  0  0  0  0  0  0  0
    1.2097   -2.3192   -0.5294 O   0  0  0  0  0  0  0  0  0  0  0  0
    0.3557   -3.6024    2.3171 C   0  0  0  0  0  0  0  0  0  0  0  0
    0.6584   -4.6506   -0.4643 H   0  0  0  0  0  0  0  0  0  0  0  0
   -1.4091   -3.3101    1.1082 H   0  0  0  0  0  0  0  0  0  0  0  0
    1.4375   -3.7336    2.1985 H   0  0  0  0  0  0  0  0  0  0  0  0
    0.1969   -2.7243    2.9517 H   0  0  0  0  0  0  0  0  0  0  0  0
   -0.0294   -4.4803    2.8470 H   0  0  0  0  0  0  0  0  0  0  0  0
   -0.4616   -1.0893    0.5050 N   0  0  0  0  0  0  0  0  0  0  0  0
   -0.0884    0.2050   -0.0621 C   0  0  2  0  0  0  0  0  0  0  0  0
    1.4196    0.1897   -0.2960 C   0  0  0  0  0  0  0  0  0  0  0  0
    1.9944    1.0042   -1.0155 O   0  0  0  0  0  0  0  0  0  0  0  0
   -0.4491    1.3734    0.8675 C   0  0  0  0  0  0  0  0  0  0  0  0
   -1.9589    1.5851    1.0202 C   0  0  0  0  0  0  0  0  0  0  0  0
   -2.2618    2.7746    1.9355 C   0  0  0  0  0  0  0  0  0  0  0  0
   -3.7672    2.9701    2.1071 C   0  0  0  0  0  0  0  0  0  0  0  0
   -4.0336    4.0917    2.9998 N   0  0  0  0  0  0  0  0  0  0  0  0
   -1.2794   -1.1113    1.0935 H   0  0  0  0  0  0  0  0  0  0  0  0
   -0.5991    0.3238   -1.0252 H   0  0  0  0  0  0  0  0  0  0  0  0
   -0.0003    2.2958    0.4760 H   0  0  0  0  0  0  0  0  0  0  0  0
    0.0016    1.2167    1.8570 H   0  0  0  0  0  0  0  0  0  0  0  0
   -2.4265    0.6857    1.4363 H   0  0  0  0  0  0  0  0  0  0  0  0
   -2.4061    1.7589    0.0341 H   0  0  0  0  0  0  0  0  0  0  0  0
   -1.7936    2.6097    2.9141 H   0  0  0  0  0  0  0  0  0  0  0  0
   -1.8158    3.6840    1.5132 H   0  0  0  0  0  0  0  0  0  0  0  0
   -4.2229    2.0628    2.5184 H   0  0  0  0  0  0  0  0  0  0  0  0
   -4.2346    3.1678    1.1365 H   0  0  0  0  0  0  0  0  0  0  0  0
   -3.1641    4.4582    3.3099 H   0  0  0  0  0  0  0  0  0  0  0  0
   -4.5419    4.7793    2.4946 H   0  0  0  0  0  0  0  0  0  0  0  0
    2.0418   -0.8537    0.3757 N   0  0  0  0  0  0  0  0  0  0  0  0
    3.4630   -1.1062    0.3045 C   0  0  2  0  0  0  0  0  0  0  0  0
    3.6798   -2.6095    0.4173 C   0  0  0  0  0  0  0  0  0  0  0  0
    2.9699   -3.3398    1.1057 O   0  0  0  0  0  0  0  0  0  0  0  0
    4.2123   -0.3652    1.4010 C   0  0  0  0  0  0  0  0  0  0  0  0
    1.4853   -1.4736    0.9568 H   0  0  0  0  0  0  0  0  0  0  0  0
    3.7965   -0.7614   -0.6803 H   0  0  0  0  0  0  0  0  0  0  0  0
    3.8914   -0.6973    2.3951 H   0  0  0  0  0  0  0  0  0  0  0  0
    5.2916   -0.5347    1.3283 H   0  0  0  0  0  0  0  0  0  0  0  0
    4.0313    0.7132    1.3364 H   0  0  0  0  0  0  0  0  0  0  0  0
    4.7853   -3.0331   -0.3069 N   0  0  0  0  0  0  0  0  0  0  0  0
    5.2245   -4.4089   -0.3256 C   0  0  0  0  0  0  0  0  0  0  0  0
    5.2919   -2.3660   -0.8813 H   0  0  0  0  0  0  0  0  0  0  0  0
    5.9777   -4.5646    0.4609 H   0  0  0  0  0  0  0  0  0  0  0  0
    4.3645   -5.0707   -0.1457 H   0  0  0  0  0  0  0  0  0  0  0  0
    5.6658   -4.6395   -1.3065 H   0  0  0  0  0  0  0  0  0  0  0  0
  1  3  1  0  0  0  0
  1  7  1  0  0  0  0
  1  2  2  0  0  0  0
 39 40  1  0  0  0  0
 40 48  1  0  0  0  0
 40 41  2  0  0  0  0
  8  9  1  0  0  0  0
  9 17  1  0  0  0  0
  9 10  2  0  0  0  0
 18 19  1  0  0  0  0
 19 38  1  0  0  0  0
 19 20  2  0  0  0  0
 39 42  1  0  0  0  0
  8 11  1  0  0  0  0
 48 49  1  0  0  0  0
 22 23  1  0  0  0  0
 21 22  1  0  0  0  0
 23 24  1  0  0  0  0
 18 21  1  0  0  0  0
 24 25  1  0  0  0  0
 38 39  1  0  0  0  0
  7  8  1  0  0  0  0
 17 18  1  0  0  0  0
  3  4  1  0  0  0  0
  3  5  1  0  0  0  0
  3  6  1  0  0  0  0
 42 45  1  0  0  0  0
 42 46  1  0  0  0  0
 42 47  1  0  0  0  0
 11 14  1  0  0  0  0
 11 15  1  0  0  0  0
 11 16  1  0  0  0  0
 49 51  1  0  0  0  0
 49 52  1  0  0  0  0
 49 53  1  0  0  0  0
 22 30  1  0  0  0  0
 22 31  1  0  0  0  0
 23 32  1  0  0  0  0
 23 33  1  0  0  0  0
 21 28  1  0  0  0  0
 21 29  1  0  0  0  0
 24 34  1  0  0  0  0
 24 35  1  0  0  0  0
 39 44  1  0  0  0  0
  8 13  1  0  0  0  0
 18 27  1  0  0  0  0
 25 36  1  0  0  0  0
 25 37  1  0  0  0  0
 48 50  1  0  0  0  0
  7 12  1  0  0  0  0
 38 43  1  0  0  0  0
 17 26  1  0  0  0  0
M  END
$$$$

  -OEChem-05262214473D

 53 52  0     1  0  0  0  0  0999 V2000
   -1.0338   -5.6785    0.1476 C   0  0  0  0  0  0  0  0  0  0  0  0
   -2.0514   -5.7797    0.8227 O   0  0  0  0  0  0  0  0  0  0  0  0
   -0.6558   -6.7819   -0.7841 C   0  0  0  0  0  0  0  0  0  0  0  0
   -0.0111   -7.5354   -0.3038 H   0  0  0  0  0  0  0  0  0  0  0  0
   -1.5317   -7.3401   -1.1520 H   0  0  0  0  0  0  0  0  0  0  0  0
   -0.1109   -6.4687   -1.6890 H   0  0  0  0  0  0  0  0  0  0  0  0
   -0.1543   -4.6083    0.1480 N   0  0  0  0  0  0  0  0  0  0  0  0
   -0.3302   -3.4398    0.9696 C   0  0  2  0  0  0  0  0  0  0  0  0
    0.2328   -2.2439    0.2131 C   0  0  0  0  0  0  0  0  0  0  0  0
    1.2097   -2.3192   -0.5294 O   0  0  0  0  0  0  0  0  0  0  0  0
    0.3557   -3.6024    2.3171 C   0  0  0  0  0  0  0  0  0  0  0  0
    0.6584   -4.6506   -0.4643 H   0  0  0  0  0  0  0  0  0  0  0  0
   -1.4091   -3.3101    1.1082 H   0  0  0  0  0  0  0  0  0  0  0  0
    1.4375   -3.7336    2.1985 H   0  0  0  0  0  0  0  0  0  0  0  0
    0.1969   -2.7243    2.9517 H   0  0  0  0  0  0  0  0  0  0  0  0
   -0.0294   -4.4803    2.8470 H   0  0  0  0  0  0  0  0  0  0  0  0
   -0.4616   -1.0893    0.5050 N   0  0  0  0  0  0  0  0  0  0  0  0
   -0.0884    0.2050   -0.0621 C   0  0  2  0  0  0  0  0  0  0  0  0
    1.4196    0.1897   -0.2960 C   0  0  0  0  0  0  0  0  0  0  0  0
    2.0315    1.1374   -0.7847 O   0  0  0  0  0  0  0  0  0  0  0  0
   -0.4491    1.3734    0.8675 C   0  0  0  0  0  0  0  0  0  0  0  0
   -1.9589    1.5851    1.0202 C   0  0  0  0  0  0  0  0  0  0  0  0
   -2.2618    2.7746    1.9355 C   0  0  0  0  0  0  0  0  0  0  0  0
   -3.7672    2.9701    2.1071 C   0  0  0  0  0  0  0  0  0  0  0  0
   -4.0336    4.0917    2.9998 N   0  0  0  0  0  0  0  0  0  0  0  0
   -1.2794   -1.1113    1.0935 H   0  0  0  0  0  0  0  0  0  0  0  0
   -0.5991    0.3238   -1.0252 H   0  0  0  0  0  0  0  0  0  0  0  0
   -0.0003    2.2958    0.4760 H   0  0  0  0  0  0  0  0  0  0  0  0
    0.0016    1.2167    1.8570 H   0  0  0  0  0  0  0  0  0  0  0  0
   -2.4265    0.6857    1.4363 H   0  0  0  0  0  0  0  0  0  0  0  0
   -2.4061    1.7589    0.0341 H   0  0  0  0  0  0  0  0  0  0  0  0
   -1.7936    2.6097    2.9141 H   0  0  0  0  0  0  0  0  0  0  0  0
   -1.8158    3.6840    1.5132 H   0  0  0  0  0  0  0  0  0  0  0  0
   -4.2229    2.0628    2.5184 H   0  0  0  0  0  0  0  0  0  0  0  0
   -4.2346    3.1678    1.1365 H   0  0  0  0  0  0  0  0  0  0  0  0
   -3.1641    4.4582    3.3099 H   0  0  0  0  0  0  0  0  0  0  0  0
   -4.5419    4.7793    2.4946 H   0  0  0  0  0  0  0  0  0  0  0  0
    1.9950   -1.0148    0.0849 N   0  0  0  0  0  0  0  0  0  0  0  0
    3.4057   -1.2974   -0.0522 C   0  0  2  0  0  0  0  0  0  0  0  0
    3.5623   -2.7869   -0.3282 C   0  0  0  0  0  0  0  0  0  0  0  0
    2.8190   -3.6399    0.1523 O   0  0  0  0  0  0  0  0  0  0  0  0
    4.1750   -0.8919    1.1955 C   0  0  0  0  0  0  0  0  0  0  0  0
    1.4101   -1.7398    0.4895 H   0  0  0  0  0  0  0  0  0  0  0  0
    3.7602   -0.7259   -0.9169 H   0  0  0  0  0  0  0  0  0  0  0  0
    3.8336   -1.4541    2.0724 H   0  0  0  0  0  0  0  0  0  0  0  0
    5.2474   -1.0803    1.0791 H   0  0  0  0  0  0  0  0  0  0  0  0
    4.0371    0.1734    1.4093 H   0  0  0  0  0  0  0  0  0  0  0  0
    4.6559   -3.0552   -1.1395 N   0  0  0  0  0  0  0  0  0  0  0  0
    5.0409   -4.3969   -1.5106 C   0  0  0  0  0  0  0  0  0  0  0  0
    5.1929   -2.2842   -1.5254 H   0  0  0  0  0  0  0  0  0  0  0  0
    5.7811   -4.7785   -0.7920 H   0  0  0  0  0  0  0  0  0  0  0  0
    4.1541   -5.0477   -1.5039 H   0  0  0  0  0  0  0  0  0  0  0  0
    5.4804   -4.3864   -2.5190 H   0  0  0  0  0  0  0  0  0  0  0  0
  1  3  1  0  0  0  0
  1  7  1  0  0  0  0
  1  2  2  0  0  0  0
 39 40  1  0  0  0  0
 40 48  1  0  0  0  0
 40 41  2  0  0  0  0
  8  9  1  0  0  0  0
  9 17  1  0  0  0  0
  9 10  2  0  0  0  0
 18 19  1  0  0  0  0
 19 38  1  0  0  0  0
 19 20  2  0  0  0  0
 39 42  1  0  0  0  0
  8 11  1  0  0  0  0
 48 49  1  0  0  0  0
 22 23  1  0  0  0  0
 21 22  1  0  0  0  0
 23 24  1  0  0  0  0
 18 21  1  0  0  0  0
 24 25  1  0  0  0  0
 38 39  1  0  0  0  0
  7  8  1  0  0  0  0
 17 18  1  0  0  0  0
  3  4  1  0  0  0  0
  3  5  1  0  0  0  0
  3  6  1  0  0  0  0
 42 45  1  0  0  0  0
 42 46  1  0  0  0  0
 42 47  1  0  0  0  0
 11 14  1  0  0  0  0
 11 15  1  0  0  0  0
 11 16  1  0  0  0  0
 49 51  1  0  0  0  0
 49 52  1  0  0  0  0
 49 53  1  0  0  0  0
 22 30  1  0  0  0  0
 22 31  1  0  0  0  0
 23 32  1  0  0  0  0
 23 33  1  0  0  0  0
 21 28  1  0  0  0  0
 21 29  1  0  0  0  0
 24 34  1  0  0  0  0
 24 35  1  0  0  0  0
 39 44  1  0  0  0  0
  8 13  1  0  0  0  0
 18 27  1  0  0  0  0
 25 36  1  0  0  0  0
 25 37  1  0  0  0  0
 48 50  1  0  0  0  0
  7 12  1  0  0  0  0
 38 43  1  0  0  0  0
 17 26  1  0  0  0  0
M  END
$$$$

  -OEChem-05262214473D

 53 52  0     1  0  0  0  0  0999 V2000
   -1.0338   -5.6785    0.1476 C   0  0  0  0  0  0  0  0  0  0  0  0
   -2.0514   -5.7797    0.8227 O   0  0  0  0  0  0  0  0  0  0  0  0
   -0.6558   -6.7819   -0.7841 C   0  0  0  0  0  0  0  0  0  0  0  0
   -0.0111   -7.5354   -0.3038 H   0  0  0  0  0  0  0  0  0  0  0  0
   -1.5317   -7.3401   -1.1520 H   0  0  0  0  0  0  0  0  0  0  0  0
   -0.1109   -6.4687   -1.6890 H   0  0  0  0  0  0  0  0  0  0  0  0
   -0.1543   -4.6083    0.1480 N   0  0  0  0  0  0  0  0  0  0  0  0
   -0.3302   -3.4398    0.9696 C   0  0  2  0  0  0  0  0  0  0  0  0
    0.2328   -2.2439    0.2131 C   0  0  0  0  0  0  0  0  0  0  0  0
    1.2097   -2.3192   -0.5294 O   0  0  0  0  0  0  0  0  0  0  0  0
    0.3557   -3.6024    2.3171 C   0  0  0  0  0  0  0  0  0  0  0  0
    0.6584   -4.6506   -0.4643 H   0  0  0  0  0  0  0  0  0  0  0  0
   -1.4091   -3.3101    1.1082 H   0  0  0  0  0  0  0  0  0  0  0  0
    1.4375   -3.7336    2.1985 H   0  0  0  0  0  0  0  0  0  0  0  0
    0.1969   -2.7243    2.9517 H   0  0  0  0  0  0  0  0  0  0  0  0
   -0.0294   -4.4803    2.8470 H   0  0  0  0  0  0  0  0  0  0  0  0
   -0.4616   -1.0893    0.5050 N   0  0  0  0  0  0  0  0  0  0  0  0
   -0.0884    0.2050   -0.0621 C   0  0  2  0  0  0  0  0  0  0  0  0
    1.4196    0.1897   -0.2960 C   0  0  0  0  0  0  0  0  0  0  0  0
    2.0721    1.2056   -0.5275 O   0  0  0  0  0  0  0  0  0  0  0  0
   -0.4491    1.3734    0.8675 C   0  0  0  0  0  0  0  0  0  0  0  0
   -1.9589    1.5851    1.0202 C   0  0  0  0  0  0  0  0  0  0  0  0
   -2.2618    2.7746    1.9355 C   0  0  0  0  0  0  0  0  0  0  0  0
   -3.7672    2.9701    2.1071 C   0  0  0  0  0  0  0  0  0  0  0  0
   -4.0336    4.0917    2.9998 N   0  0  0  0  0  0  0  0  0  0  0  0
   -1.2794   -1.1113    1.0935 H   0  0  0  0  0  0  0  0  0  0  0  0
   -0.5991    0.3238   -1.0252 H   0  0  0  0  0  0  0  0  0  0  0  0
   -0.0003    2.2958    0.4760 H   0  0  0  0  0  0  0  0  0  0  0  0
    0.0016    1.2167    1.8570 H   0  0  0  0  0  0  0  0  0  0  0  0
   -2.4265    0.6857    1.4363 H   0  0  0  0  0  0  0  0  0  0  0  0
   -2.4061    1.7589    0.0341 H   0  0  0  0  0  0  0  0  0  0  0  0
   -1.7936    2.6097    2.9141 H   0  0  0  0  0  0  0  0  0  0  0  0
   -1.8158    3.6840    1.5132 H   0  0  0  0  0  0  0  0  0  0  0  0
   -4.2229    2.0628    2.5184 H   0  0  0  0  0  0  0  0  0  0  0  0
   -4.2346    3.1678    1.1365 H   0  0  0  0  0  0  0  0  0  0  0  0
   -3.1641    4.4582    3.3099 H   0  0  0  0  0  0  0  0  0  0  0  0
   -4.5419    4.7793    2.4946 H   0  0  0  0  0  0  0  0  0  0  0  0
    1.9442   -1.0941   -0.2374 N   0  0  0  0  0  0  0  0  0  0  0  0
    3.3437   -1.3885   -0.4457 C   0  0  2  0  0  0  0  0  0  0  0  0
    3.4438   -2.7630   -1.0940 C   0  0  0  0  0  0  0  0  0  0  0  0
    2.6638   -3.6801   -0.8458 O   0  0  0  0  0  0  0  0  0  0  0  0
    4.1187   -1.3467    0.8621 C   0  0  0  0  0  0  0  0  0  0  0  0
    1.3281   -1.8746   -0.0302 H   0  0  0  0  0  0  0  0  0  0  0  0
    3.7272   -0.6295   -1.1364 H   0  0  0  0  0  0  0  0  0  0  0  0
    3.7486   -2.1002    1.5669 H   0  0  0  0  0  0  0  0  0  0  0  0
    5.1837   -1.5418    0.6987 H   0  0  0  0  0  0  0  0  0  0  0  0
    4.0211   -0.3668    1.3418 H   0  0  0  0  0  0  0  0  0  0  0  0
    4.5322   -2.8584   -1.9498 N   0  0  0  0  0  0  0  0  0  0  0  0
    4.8670   -4.0749   -2.6527 C   0  0  0  0  0  0  0  0  0  0  0  0
    5.1021   -2.0365   -2.1270 H   0  0  0  0  0  0  0  0  0  0  0  0
    5.5861   -4.6569   -2.0575 H   0  0  0  0  0  0  0  0  0  0  0  0
    3.9553   -4.6699   -2.8104 H   0  0  0  0  0  0  0  0  0  0  0  0
    5.3144   -3.8246   -3.6259 H   0  0  0  0  0  0  0  0  0  0  0  0
  1  3  1  0  0  0  0
  1  7  1  0  0  0  0
  1  2  2  0  0  0  0
 39 40  1  0  0  0  0
 40 48  1  0  0  0  0
 40 41  2  0  0  0  0
  8  9  1  0  0  0  0
  9 17  1  0  0  0  0
  9 10  2  0  0  0  0
 18 19  1  0  0  0  0
 19 38  1  0  0  0  0
 19 20  2  0  0  0  0
 39 42  1  0  0  0  0
  8 11  1  0  0  0  0
 48 49  1  0  0  0  0
 22 23  1  0  0  0  0
 21 22  1  0  0  0  0
 23 24  1  0  0  0  0
 18 21  1  0  0  0  0
 24 25  1  0  0  0  0
 38 39  1  0  0  0  0
  7  8  1  0  0  0  0
 17 18  1  0  0  0  0
  3  4  1  0  0  0  0
  3  5  1  0  0  0  0
  3  6  1  0  0  0  0
 42 45  1  0  0  0  0
 42 46  1  0  0  0  0
 42 47  1  0  0  0  0
 11 14  1  0  0  0  0
 11 15  1  0  0  0  0
 11 16  1  0  0  0  0
 49 51  1  0  0  0  0
 49 52  1  0  0  0  0
 49 53  1  0  0  0  0
 22 30  1  0  0  0  0
 22 31  1  0  0  0  0
 23 32  1  0  0  0  0
 23 33  1  0  0  0  0
 21 28  1  0  0  0  0
 21 29  1  0  0  0  0
 24 34  1  0  0  0  0
 24 35  1  0  0  0  0
 39 44  1  0  0  0  0
  8 13  1  0  0  0  0
 18 27  1  0  0  0  0
 25 36  1  0  0  0  0
 25 37  1  0  0  0  0
 48 50  1  0  0  0  0
  7 12  1  0  0  0  0
 38 43  1  0  0  0  0
 17 26  1  0  0  0  0
M  END
$$$$

  -OEChem-05262214473D

 53 52  0     1  0  0  0  0  0999 V2000
   -1.0338   -5.6785    0.1476 C   0  0  0  0  0  0  0  0  0  0  0  0
   -2.0514   -5.7797    0.8227 O   0  0  0  0  0  0  0  0  0  0  0  0
   -0.6558   -6.7819   -0.7841 C   0  0  0  0  0  0  0  0  0  0  0  0
   -0.0111   -7.5354   -0.3038 H   0  0  0  0  0  0  0  0  0  0  0  0
   -1.5317   -7.3401   -1.1520 H   0  0  0  0  0  0  0  0  0  0  0  0
   -0.1109   -6.4687   -1.6890 H   0  0  0  0  0  0  0  0  0  0  0  0
   -0.1543   -4.6083    0.1480 N   0  0  0  0  0  0  0  0  0  0  0  0
   -0.3302   -3.4398    0.9696 C   0  0  2  0  0  0  0  0  0  0  0  0
    0.2328   -2.2439    0.2131 C   0  0  0  0  0  0  0  0  0  0  0  0
    1.2097   -2.3192   -0.5294 O   0  0  0  0  0  0  0  0  0  0  0  0
    0.3557   -3.6024    2.3171 C   0  0  0  0  0  0  0  0  0  0  0  0
    0.6584   -4.6506   -0.4643 H   0  0  0  0  0  0  0  0  0  0  0  0
   -1.4091   -3.3101    1.1082 H   0  0  0  0  0  0  0  0  0  0  0  0
    1.4375   -3.7336    2.1985 H   0  0  0  0  0  0  0  0  0  0  0  0
    0.1969   -2.7243    2.9517 H   0  0  0  0  0  0  0  0  0  0  0  0
   -0.0294   -4.4803    2.8470 H   0  0  0  0  0  0  0  0  0  0  0  0
   -0.4616   -1.0893    0.5050 N   0  0  0  0  0  0  0  0  0  0  0  0
   -0.0884    0.2050   -0.0621 C   0  0  2  0  0  0  0  0  0  0  0  0
    1.4196    0.1897   -0.2960 C   0  0  0  0  0  0  0  0  0  0  0  0
    2.1133    1.2040   -0.2616 O   0  0  0  0  0  0  0  0  0  0  0  0
   -0.4491    1.3734    0.8675 C   0  0  0  0  0  0  0  0  0  0  0  0
   -1.9589    1.5851    1.0202 C   0  0  0  0  0  0  0  0  0  0  0  0
   -2.2618    2.7746    1.9355 C   0  0  0  0  0  0  0  0  0  0  0  0
   -3.7672    2.9701    2.1071 C   0  0  0  0  0  0  0  0  0  0  0  0
   -4.0336    4.0917    2.9998 N   0  0  0  0  0  0  0  0  0  0  0  0
   -1.2794   -1.1113    1.0935 H   0  0  0  0  0  0  0  0  0  0  0  0
   -0.5991    0.3238   -1.0252 H   0  0  0  0  0  0  0  0  0  0  0  0
   -0.0003    2.2958    0.4760 H   0  0  0  0  0  0  0  0  0  0  0  0
    0.0016    1.2167    1.8570 H   0  0  0  0  0  0  0  0  0  0  0  0
   -2.4265    0.6857    1.4363 H   0  0  0  0  0  0  0  0  0  0  0  0
   -2.4061    1.7589    0.0341 H   0  0  0  0  0  0  0  0  0  0  0  0
   -1.7936    2.6097    2.9141 H   0  0  0  0  0  0  0  0  0  0  0  0
   -1.8158    3.6840    1.5132 H   0  0  0  0  0  0  0  0  0  0  0  0
   -4.2229    2.0628    2.5184 H   0  0  0  0  0  0  0  0  0  0  0  0
   -4.2346    3.1678    1.1365 H   0  0  0  0  0  0  0  0  0  0  0  0
   -3.1641    4.4582    3.3099 H   0  0  0  0  0  0  0  0  0  0  0  0
   -4.5419    4.7793    2.4946 H   0  0  0  0  0  0  0  0  0  0  0  0
    1.8928   -1.0864   -0.5690 N   0  0  0  0  0  0  0  0  0  0  0  0
    3.2813   -1.3734   -0.8493 C   0  0  2  0  0  0  0  0  0  0  0  0
    3.3322   -2.5393   -1.8279 C   0  0  0  0  0  0  0  0  0  0  0  0
    2.5148   -3.4574   -1.8205 O   0  0  0  0  0  0  0  0  0  0  0  0
    4.0471   -1.6985    0.4237 C   0  0  0  0  0  0  0  0  0  0  0  0
    1.2449   -1.8685   -0.5668 H   0  0  0  0  0  0  0  0  0  0  0  0
    3.6996   -0.4791   -1.3238 H   0  0  0  0  0  0  0  0  0  0  0  0
    3.6422   -2.5917    0.9132 H   0  0  0  0  0  0  0  0  0  0  0  0
    5.1048   -1.8877    0.2131 H   0  0  0  0  0  0  0  0  0  0  0  0
    3.9844   -0.8707    1.1383 H   0  0  0  0  0  0  0  0  0  0  0  0
    4.4227   -2.4563   -2.6824 N   0  0  0  0  0  0  0  0  0  0  0  0
    4.7148   -3.4649   -3.6739 C   0  0  0  0  0  0  0  0  0  0  0  0
    5.0258   -1.6398   -2.6449 H   0  0  0  0  0  0  0  0  0  0  0  0
    5.4058   -4.2080   -3.2493 H   0  0  0  0  0  0  0  0  0  0  0  0
    3.7817   -3.9628   -3.9763 H   0  0  0  0  0  0  0  0  0  0  0  0
    5.1793   -2.9922   -4.5519 H   0  0  0  0  0  0  0  0  0  0  0  0
  1  3  1  0  0  0  0
  1  7  1  0  0  0  0
  1  2  2  0  0  0  0
 39 40  1  0  0  0  0
 40 48  1  0  0  0  0
 40 41  2  0  0  0  0
  8  9  1  0  0  0  0
  9 17  1  0  0  0  0
  9 10  2  0  0  0  0
 18 19  1  0  0  0  0
 19 38  1  0  0  0  0
 19 20  2  0  0  0  0
 39 42  1  0  0  0  0
  8 11  1  0  0  0  0
 48 49  1  0  0  0  0
 22 23  1  0  0  0  0
 21 22  1  0  0  0  0
 23 24  1  0  0  0  0
 18 21  1  0  0  0  0
 24 25  1  0  0  0  0
 38 39  1  0  0  0  0
  7  8  1  0  0  0  0
 17 18  1  0  0  0  0
  3  4  1  0  0  0  0
  3  5  1  0  0  0  0
  3  6  1  0  0  0  0
 42 45  1  0  0  0  0
 42 46  1  0  0  0  0
 42 47  1  0  0  0  0
 11 14  1  0  0  0  0
 11 15  1  0  0  0  0
 11 16  1  0  0  0  0
 49 51  1  0  0  0  0
 49 52  1  0  0  0  0
 49 53  1  0  0  0  0
 22 30  1  0  0  0  0
 22 31  1  0  0  0  0
 23 32  1  0  0  0  0
 23 33  1  0  0  0  0
 21 28  1  0  0  0  0
 21 29  1  0  0  0  0
 24 34  1  0  0  0  0
 24 35  1  0  0  0  0
 39 44  1  0  0  0  0
  8 13  1  0  0  0  0
 18 27  1  0  0  0  0
 25 36  1  0  0  0  0
 25 37  1  0  0  0  0
 48 50  1  0  0  0  0
  7 12  1  0  0  0  0
 38 43  1  0  0  0  0
 17 26  1  0  0  0  0
M  END
$$$$

  -OEChem-05262214473D

 53 52  0     1  0  0  0  0  0999 V2000
   -1.0338   -5.6785    0.1476 C   0  0  0  0  0  0  0  0  0  0  0  0
   -2.0514   -5.7797    0.8227 O   0  0  0  0  0  0  0  0  0  0  0  0
   -0.6558   -6.7819   -0.7841 C   0  0  0  0  0  0  0  0  0  0  0  0
   -0.0111   -7.5354   -0.3038 H   0  0  0  0  0  0  0  0  0  0  0  0
   -1.5317   -7.3401   -1.1520 H   0  0  0  0  0  0  0  0  0  0  0  0
   -0.1109   -6.4687   -1.6890 H   0  0  0  0  0  0  0  0  0  0  0  0
   -0.1543   -4.6083    0.1480 N   0  0  0  0  0  0  0  0  0  0  0  0
   -0.3302   -3.4398    0.9696 C   0  0  2  0  0  0  0  0  0  0  0  0
    0.2328   -2.2439    0.2131 C   0  0  0  0  0  0  0  0  0  0  0  0
    1.2097   -2.3192   -0.5294 O   0  0  0  0  0  0  0  0  0  0  0  0
    0.3557   -3.6024    2.3171 C   0  0  0  0  0  0  0  0  0  0  0  0
    0.6584   -4.6506   -0.4643 H   0  0  0  0  0  0  0  0  0  0  0  0
   -1.4091   -3.3101    1.1082 H   0  0  0  0  0  0  0  0  0  0  0  0
    1.4375   -3.7336    2.1985 H   0  0  0  0  0  0  0  0  0  0  0  0
    0.1969   -2.7243    2.9517 H   0  0  0  0  0  0  0  0  0  0  0  0
   -0.0294   -4.4803    2.8470 H   0  0  0  0  0  0  0  0  0  0  0  0
   -0.4616   -1.0893    0.5050 N   0  0  0  0  0  0  0  0  0  0  0  0
   -0.0884    0.2050   -0.0621 C   0  0  2  0  0  0  0  0  0  0  0  0
    1.4196    0.1897   -0.2960 C   0  0  0  0  0  0  0  0  0  0  0  0
    2.1524    1.1329   -0.0051 O   0  0  0  0  0  0  0  0  0  0  0  0
   -0.4491    1.3734    0.8675 C   0  0  0  0  0  0  0  0  0  0  0  0
   -1.9589    1.5851    1.0202 C   0  0  0  0  0  0  0  0  0  0  0  0
   -2.2618    2.7746    1.9355 C   0  0  0  0  0  0  0  0  0  0  0  0
   -3.7672    2.9701    2.1071 C   0  0  0  0  0  0  0  0  0  0  0  0
   -4.0336    4.0917    2.9998 N   0  0  0  0  0  0  0  0  0  0  0  0
   -1.2794   -1.1113    1.0935 H   0  0  0  0  0  0  0  0  0  0  0  0
   -0.5991    0.3238   -1.0252 H   0  0  0  0  0  0  0  0  0  0  0  0
   -0.0003    2.2958    0.4760 H   0  0  0  0  0  0  0  0  0  0  0  0
    0.0016    1.2167    1.8570 H   0  0  0  0  0  0  0  0  0  0  0  0
   -2.4265    0.6857    1.4363 H   0  0  0  0  0  0  0  0  0  0  0  0
   -2.4061    1.7589    0.0341 H   0  0  0  0  0  0  0  0  0  0  0  0
   -1.7936    2.6097    2.9141 H   0  0  0  0  0  0  0  0  0  0  0  0
   -1.8158    3.6840    1.5132 H   0  0  0  0  0  0  0  0  0  0  0  0
   -4.2229    2.0628    2.5184 H   0  0  0  0  0  0  0  0  0  0  0  0
   -4.2346    3.1678    1.1365 H   0  0  0  0  0  0  0  0  0  0  0  0
   -3.1641    4.4582    3.3099 H   0  0  0  0  0  0  0  0  0  0  0  0
   -4.5419    4.7793    2.4946 H   0  0  0  0  0  0  0  0  0  0  0  0
    1.8444   -0.9920   -0.8876 N   0  0  0  0  0  0  0  0  0  0  0  0
    3.2226   -1.2532   -1.2355 C   0  0  2  0  0  0  0  0  0  0  0  0
    3.2353   -2.1312   -2.4799 C   0  0  0  0  0  0  0  0  0  0  0  0
    2.3824   -2.9872   -2.7055 O   0  0  0  0  0  0  0  0  0  0  0  0
    3.9651   -1.9233   -0.0899 C   0  0  0  0  0  0  0  0  0  0  0  0
    1.1662   -1.7222   -1.0839 H   0  0  0  0  0  0  0  0  0  0  0  0
    3.6795   -0.2847   -1.4665 H   0  0  0  0  0  0  0  0  0  0  0  0
    3.5217   -2.8951    0.1559 H   0  0  0  0  0  0  0  0  0  0  0  0
    5.0162   -2.0945   -0.3446 H   0  0  0  0  0  0  0  0  0  0  0  0
    3.9295   -1.3039    0.8128 H   0  0  0  0  0  0  0  0  0  0  0  0
    4.3348   -1.8761   -3.2874 N   0  0  0  0  0  0  0  0  0  0  0  0
    4.5947   -2.6085   -4.5048 C   0  0  0  0  0  0  0  0  0  0  0  0
    4.9692   -1.1211   -3.0439 H   0  0  0  0  0  0  0  0  0  0  0  0
    5.2526   -3.4625   -4.2861 H   0  0  0  0  0  0  0  0  0  0  0  0
    3.6451   -2.9748   -4.9220 H   0  0  0  0  0  0  0  0  0  0  0  0
    5.0842   -1.9460   -5.2338 H   0  0  0  0  0  0  0  0  0  0  0  0
  1  3  1  0  0  0  0
  1  7  1  0  0  0  0
  1  2  2  0  0  0  0
 39 40  1  0  0  0  0
 40 48  1  0  0  0  0
 40 41  2  0  0  0  0
  8  9  1  0  0  0  0
  9 17  1  0  0  0  0
  9 10  2  0  0  0  0
 18 19  1  0  0  0  0
 19 38  1  0  0  0  0
 19 20  2  0  0  0  0
 39 42  1  0  0  0  0
  8 11  1  0  0  0  0
 48 49  1  0  0  0  0
 22 23  1  0  0  0  0
 21 22  1  0  0  0  0
 23 24  1  0  0  0  0
 18 21  1  0  0  0  0
 24 25  1  0  0  0  0
 38 39  1  0  0  0  0
  7  8  1  0  0  0  0
 17 18  1  0  0  0  0
  3  4  1  0  0  0  0
  3  5  1  0  0  0  0
  3  6  1  0  0  0  0
 42 45  1  0  0  0  0
 42 46  1  0  0  0  0
 42 47  1  0  0  0  0
 11 14  1  0  0  0  0
 11 15  1  0  0  0  0
 11 16  1  0  0  0  0
 49 51  1  0  0  0  0
 49 52  1  0  0  0  0
 49 53  1  0  0  0  0
 22 30  1  0  0  0  0
 22 31  1  0  0  0  0
 23 32  1  0  0  0  0
 23 33  1  0  0  0  0
 21 28  1  0  0  0  0
 21 29  1  0  0  0  0
 24 34  1  0  0  0  0
 24 35  1  0  0  0  0
 39 44  1  0  0  0  0
  8 13  1  0  0  0  0
 18 27  1  0  0  0  0
 25 36  1  0  0  0  0
 25 37  1  0  0  0  0
 48 50  1  0  0  0  0
  7 12  1  0  0  0  0
 38 43  1  0  0  0  0
 17 26  1  0  0  0  0
M  END
$$$$

  -OEChem-05262214473D

 53 52  0     1  0  0  0  0  0999 V2000
   -1.0338   -5.6785    0.1476 C   0  0  0  0  0  0  0  0  0  0  0  0
   -2.0514   -5.7797    0.8227 O   0  0  0  0  0  0  0  0  0  0  0  0
   -0.6558   -6.7819   -0.7841 C   0  0  0  0  0  0  0  0  0  0  0  0
   -0.0111   -7.5354   -0.3038 H   0  0  0  0  0  0  0  0  0  0  0  0
   -1.5317   -7.3401   -1.1520 H   0  0  0  0  0  0  0  0  0  0  0  0
   -0.1109   -6.4687   -1.6890 H   0  0  0  0  0  0  0  0  0  0  0  0
   -0.1543   -4.6083    0.1480 N   0  0  0  0  0  0  0  0  0  0  0  0
   -0.3302   -3.4398    0.9696 C   0  0  2  0  0  0  0  0  0  0  0  0
    0.2328   -2.2439    0.2131 C   0  0  0  0  0  0  0  0  0  0  0  0
    1.2097   -2.3192   -0.5294 O   0  0  0  0  0  0  0  0  0  0  0  0
    0.3557   -3.6024    2.3171 C   0  0  0  0  0  0  0  0  0  0  0  0
    0.6584   -4.6506   -0.4643 H   0  0  0  0  0  0  0  0  0  0  0  0
   -1.4091   -3.3101    1.1082 H   0  0  0  0  0  0  0  0  0  0  0  0
    1.4375   -3.7336    2.1985 H   0  0  0  0  0  0  0  0  0  0  0  0
    0.1969   -2.7243    2.9517 H   0  0  0  0  0  0  0  0  0  0  0  0
   -0.0294   -4.4803    2.8470 H   0  0  0  0  0  0  0  0  0  0  0  0
   -0.4616   -1.0893    0.5050 N   0  0  0  0  0  0  0  0  0  0  0  0
   -0.0884    0.2050   -0.0621 C   0  0  2  0  0  0  0  0  0  0  0  0
    1.4196    0.1897   -0.2960 C   0  0  0  0  0  0  0  0  0  0  0  0
    2.1867    0.9971    0.2247 O   0  0  0  0  0  0  0  0  0  0  0  0
   -0.4491    1.3734    0.8675 C   0  0  0  0  0  0  0  0  0  0  0  0
   -1.9589    1.5851    1.0202 C   0  0  0  0  0  0  0  0  0  0  0  0
   -2.2618    2.7746    1.9355 C   0  0  0  0  0  0  0  0  0  0  0  0
   -3.7672    2.9701    2.1071 C   0  0  0  0  0  0  0  0  0  0  0  0
   -4.0336    4.0917    2.9998 N   0  0  0  0  0  0  0  0  0  0  0  0
   -1.2794   -1.1113    1.0935 H   0  0  0  0  0  0  0  0  0  0  0  0
   -0.5991    0.3238   -1.0252 H   0  0  0  0  0  0  0  0  0  0  0  0
   -0.0003    2.2958    0.4760 H   0  0  0  0  0  0  0  0  0  0  0  0
    0.0016    1.2167    1.8570 H   0  0  0  0  0  0  0  0  0  0  0  0
   -2.4265    0.6857    1.4363 H   0  0  0  0  0  0  0  0  0  0  0  0
   -2.4061    1.7589    0.0341 H   0  0  0  0  0  0  0  0  0  0  0  0
   -1.7936    2.6097    2.9141 H   0  0  0  0  0  0  0  0  0  0  0  0
   -1.8158    3.6840    1.5132 H   0  0  0  0  0  0  0  0  0  0  0  0
   -4.2229    2.0628    2.5184 H   0  0  0  0  0  0  0  0  0  0  0  0
   -4.2346    3.1678    1.1365 H   0  0  0  0  0  0  0  0  0  0  0  0
   -3.1641    4.4582    3.3099 H   0  0  0  0  0  0  0  0  0  0  0  0
   -4.5419    4.7793    2.4946 H   0  0  0  0  0  0  0  0  0  0  0  0
    1.8022   -0.8175   -1.1712 N   0  0  0  0  0  0  0  0  0  0  0  0
    3.1717   -1.0359   -1.5779 C   0  0  2  0  0  0  0  0  0  0  0  0
    3.1595   -1.5663   -3.0055 C   0  0  0  0  0  0  0  0  0  0  0  0
    2.2754   -2.3014   -3.4404 O   0  0  0  0  0  0  0  0  0  0  0  0
    3.8784   -2.0058   -0.6437 C   0  0  0  0  0  0  0  0  0  0  0  0
    1.0974   -1.4454   -1.5461 H   0  0  0  0  0  0  0  0  0  0  0  0
    3.6681   -0.0596   -1.5547 H   0  0  0  0  0  0  0  0  0  0  0  0
    3.3952   -2.9896   -0.6536 H   0  0  0  0  0  0  0  0  0  0  0  0
    4.9239   -2.1482   -0.9365 H   0  0  0  0  0  0  0  0  0  0  0  0
    3.8601   -1.6369    0.3875 H   0  0  0  0  0  0  0  0  0  0  0  0
    4.2744   -1.1574   -3.7238 N   0  0  0  0  0  0  0  0  0  0  0  0
    4.5148   -1.5641   -5.0886 C   0  0  0  0  0  0  0  0  0  0  0  0
    4.9362   -0.5159   -3.2968 H   0  0  0  0  0  0  0  0  0  0  0  0
    5.1369   -2.4712   -5.0973 H   0  0  0  0  0  0  0  0  0  0  0  0
    3.5548   -1.7732   -5.5833 H   0  0  0  0  0  0  0  0  0  0  0  0
    5.0356   -0.7573   -5.6251 H   0  0  0  0  0  0  0  0  0  0  0  0
  1  3  1  0  0  0  0
  1  7  1  0  0  0  0
  1  2  2  0  0  0  0
 39 40  1  0  0  0  0
 40 48  1  0  0  0  0
 40 41  2  0  0  0  0
  8  9  1  0  0  0  0
  9 17  1  0  0  0  0
  9 10  2  0  0  0  0
 18 19  1  0  0  0  0
 19 38  1  0  0  0  0
 19 20  2  0  0  0  0
 39 42  1  0  0  0  0
  8 11  1  0  0  0  0
 48 49  1  0  0  0  0
 22 23  1  0  0  0  0
 21 22  1  0  0  0  0
 23 24  1  0  0  0  0
 18 21  1  0  0  0  0
 24 25  1  0  0  0  0
 38 39  1  0  0  0  0
  7  8  1  0  0  0  0
 17 18  1  0  0  0  0
  3  4  1  0  0  0  0
  3  5  1  0  0  0  0
  3  6  1  0  0  0  0
 42 45  1  0  0  0  0
 42 46  1  0  0  0  0
 42 47  1  0  0  0  0
 11 14  1  0  0  0  0
 11 15  1  0  0  0  0
 11 16  1  0  0  0  0
 49 51  1  0  0  0  0
 49 52  1  0  0  0  0
 49 53  1  0  0  0  0
 22 30  1  0  0  0  0
 22 31  1  0  0  0  0
 23 32  1  0  0  0  0
 23 33  1  0  0  0  0
 21 28  1  0  0  0  0
 21 29  1  0  0  0  0
 24 34  1  0  0  0  0
 24 35  1  0  0  0  0
 39 44  1  0  0  0  0
  8 13  1  0  0  0  0
 18 27  1  0  0  0  0
 25 36  1  0  0  0  0
 25 37  1  0  0  0  0
 48 50  1  0  0  0  0
  7 12  1  0  0  0  0
 38 43  1  0  0  0  0
 17 26  1  0  0  0  0
M  END
$$$$

  -OEChem-05262214473D

 53 52  0     1  0  0  0  0  0999 V2000
   -1.0338   -5.6785    0.1476 C   0  0  0  0  0  0  0  0  0  0  0  0
   -2.0514   -5.7797    0.8227 O   0  0  0  0  0  0  0  0  0  0  0  0
   -0.6558   -6.7819   -0.7841 C   0  0  0  0  0  0  0  0  0  0  0  0
   -0.0111   -7.5354   -0.3038 H   0  0  0  0  0  0  0  0  0  0  0  0
   -1.5317   -7.3401   -1.1520 H   0  0  0  0  0  0  0  0  0  0  0  0
   -0.1109   -6.4687   -1.6890 H   0  0  0  0  0  0  0  0  0  0  0  0
   -0.1543   -4.6083    0.1480 N   0  0  0  0  0  0  0  0  0  0  0  0
   -0.3302   -3.4398    0.9696 C   0  0  2  0  0  0  0  0  0  0  0  0
    0.2328   -2.2439    0.2131 C   0  0  0  0  0  0  0  0  0  0  0  0
    1.2097   -2.3192   -0.5294 O   0  0  0  0  0  0  0  0  0  0  0  0
    0.3557   -3.6024    2.3171 C   0  0  0  0  0  0  0  0  0  0  0  0
    0.6584   -4.6506   -0.4643 H   0  0  0  0  0  0  0  0  0  0  0  0
   -1.4091   -3.3101    1.1082 H   0  0  0  0  0  0  0  0  0  0  0  0
    1.4375   -3.7336    2.1985 H   0  0  0  0  0  0  0  0  0  0  0  0
    0.1969   -2.7243    2.9517 H   0  0  0  0  0  0  0  0  0  0  0  0
   -0.0294   -4.4803    2.8470 H   0  0  0  0  0  0  0  0  0  0  0  0
   -0.4616   -1.0893    0.5050 N   0  0  0  0  0  0  0  0  0  0  0  0
   -0.0884    0.2050   -0.0621 C   0  0  2  0  0  0  0  0  0  0  0  0
    1.4196    0.1897   -0.2960 C   0  0  0  0  0  0  0  0  0  0  0  0
    2.2138    0.8057    0.4119 O   0  0  0  0  0  0  0  0  0  0  0  0
   -0.4491    1.3734    0.8675 C   0  0  0  0  0  0  0  0  0  0  0  0
   -1.9589    1.5851    1.0202 C   0  0  0  0  0  0  0  0  0  0  0  0
   -2.2618    2.7746    1.9355 C   0  0  0  0  0  0  0  0  0  0  0  0
   -3.7672    2.9701    2.1071 C   0  0  0  0  0  0  0  0  0  0  0  0
   -4.0336    4.0917    2.9998 N   0  0  0  0  0  0  0  0  0  0  0  0
   -1.2794   -1.1113    1.0935 H   0  0  0  0  0  0  0  0  0  0  0  0
   -0.5991    0.3238   -1.0252 H   0  0  0  0  0  0  0  0  0  0  0  0
   -0.0003    2.2958    0.4760 H   0  0  0  0  0  0  0  0  0  0  0  0
    0.0016    1.2167    1.8570 H   0  0  0  0  0  0  0  0  0  0  0  0
   -2.4265    0.6857    1.4363 H   0  0  0  0  0  0  0  0  0  0  0  0
   -2.4061    1.7589    0.0341 H   0  0  0  0  0  0  0  0  0  0  0  0
   -1.7936    2.6097    2.9141 H   0  0  0  0  0  0  0  0  0  0  0  0
   -1.8158    3.6840    1.5132 H   0  0  0  0  0  0  0  0  0  0  0  0
   -4.2229    2.0628    2.5184 H   0  0  0  0  0  0  0  0  0  0  0  0
   -4.2346    3.1678    1.1365 H   0  0  0  0  0  0  0  0  0  0  0  0
   -3.1641    4.4582    3.3099 H   0  0  0  0  0  0  0  0  0  0  0  0
   -4.5419    4.7793    2.4946 H   0  0  0  0  0  0  0  0  0  0  0  0
    1.7691   -0.5747   -1.4007 N   0  0  0  0  0  0  0  0  0  0  0  0
    3.1321   -0.7365   -1.8532 C   0  0  2  0  0  0  0  0  0  0  0  0
    3.1101   -0.8833   -3.3690 C   0  0  0  0  0  0  0  0  0  0  0  0
    2.2012   -1.4467   -3.9752 O   0  0  0  0  0  0  0  0  0  0  0  0
    3.7927   -1.9405   -1.2000 C   0  0  0  0  0  0  0  0  0  0  0  0
    1.0431   -1.0572   -1.9219 H   0  0  0  0  0  0  0  0  0  0  0  0
    3.6663    0.1807   -1.5823 H   0  0  0  0  0  0  0  0  0  0  0  0
    3.2713   -2.8689   -1.4600 H   0  0  0  0  0  0  0  0  0  0  0  0
    4.8341   -2.0449   -1.5221 H   0  0  0  0  0  0  0  0  0  0  0  0
    3.7810   -1.8471   -0.1087 H   0  0  0  0  0  0  0  0  0  0  0  0
    4.2458   -0.3493   -3.9616 N   0  0  0  0  0  0  0  0  0  0  0  0
    4.4806   -0.4027   -5.3856 C   0  0  0  0  0  0  0  0  0  0  0  0
    4.9289    0.1348   -3.3864 H   0  0  0  0  0  0  0  0  0  0  0  0
    5.0666   -1.3016   -5.6277 H   0  0  0  0  0  0  0  0  0  0  0  0
    3.5170   -0.4398   -5.9149 H   0  0  0  0  0  0  0  0  0  0  0  0
    5.0369    0.4930   -5.6993 H   0  0  0  0  0  0  0  0  0  0  0  0
  1  3  1  0  0  0  0
  1  7  1  0  0  0  0
  1  2  2  0  0  0  0
 39 40  1  0  0  0  0
 40 48  1  0  0  0  0
 40 41  2  0  0  0  0
  8  9  1  0  0  0  0
  9 17  1  0  0  0  0
  9 10  2  0  0  0  0
 18 19  1  0  0  0  0
 19 38  1  0  0  0  0
 19 20  2  0  0  0  0
 39 42  1  0  0  0  0
  8 11  1  0  0  0  0
 48 49  1  0  0  0  0
 22 23  1  0  0  0  0
 21 22  1  0  0  0  0
 23 24  1  0  0  0  0
 18 21  1  0  0  0  0
 24 25  1  0  0  0  0
 38 39  1  0  0  0  0
  7  8  1  0  0  0  0
 17 18  1  0  0  0  0
  3  4  1  0  0  0  0
  3  5  1  0  0  0  0
  3  6  1  0  0  0  0
 42 45  1  0  0  0  0
 42 46  1  0  0  0  0
 42 47  1  0  0  0  0
 11 14  1  0  0  0  0
 11 15  1  0  0  0  0
 11 16  1  0  0  0  0
 49 51  1  0  0  0  0
 49 52  1  0  0  0  0
 49 53  1  0  0  0  0
 22 30  1  0  0  0  0
 22 31  1  0  0  0  0
 23 32  1  0  0  0  0
 23 33  1  0  0  0  0
 21 28  1  0  0  0  0
 21 29  1  0  0  0  0
 24 34  1  0  0  0  0
 24 35  1  0  0  0  0
 39 44  1  0  0  0  0
  8 13  1  0  0  0  0
 18 27  1  0  0  0  0
 25 36  1  0  0  0  0
 25 37  1  0  0  0  0
 48 50  1  0  0  0  0
  7 12  1  0  0  0  0
 38 43  1  0  0  0  0
 17 26  1  0  0  0  0
M  END
$$$$

  -OEChem-05262214473D

 53 52  0     1  0  0  0  0  0999 V2000
   -1.0338   -5.6785    0.1476 C   0  0  0  0  0  0  0  0  0  0  0  0
   -2.0514   -5.7797    0.8227 O   0  0  0  0  0  0  0  0  0  0  0  0
   -0.6558   -6.7819   -0.7841 C   0  0  0  0  0  0  0  0  0  0  0  0
   -0.0111   -7.5354   -0.3038 H   0  0  0  0  0  0  0  0  0  0  0  0
   -1.5317   -7.3401   -1.1520 H   0  0  0  0  0  0  0  0  0  0  0  0
   -0.1109   -6.4687   -1.6890 H   0  0  0  0  0  0  0  0  0  0  0  0
   -0.1543   -4.6083    0.1480 N   0  0  0  0  0  0  0  0  0  0  0  0
   -0.3302   -3.4398    0.9696 C   0  0  2  0  0  0  0  0  0  0  0  0
    0.2328   -2.2439    0.2131 C   0  0  0  0  0  0  0  0  0  0  0  0
    1.2097   -2.3192   -0.5294 O   0  0  0  0  0  0  0  0  0  0  0  0
    0.3557   -3.6024    2.3171 C   0  0  0  0  0  0  0  0  0  0  0  0
    0.6584   -4.6506   -0.4643 H   0  0  0  0  0  0  0  0  0  0  0  0
   -1.4091   -3.3101    1.1082 H   0  0  0  0  0  0  0  0  0  0  0  0
    1.4375   -3.7336    2.1985 H   0  0  0  0  0  0  0  0  0  0  0  0
    0.1969   -2.7243    2.9517 H   0  0  0  0  0  0  0  0  0  0  0  0
   -0.0294   -4.4803    2.8470 H   0  0  0  0  0  0  0  0  0  0  0  0
   -0.4616   -1.0893    0.5050 N   0  0  0  0  0  0  0  0  0  0  0  0
   -0.0884    0.2050   -0.0621 C   0  0  2  0  0  0  0  0  0  0  0  0
    1.4196    0.1897   -0.2960 C   0  0  0  0  0  0  0  0  0  0  0  0
    2.2318    0.5720    0.5440 O   0  0  0  0  0  0  0  0  0  0  0  0
   -0.4491    1.3734    0.8675 C   0  0  0  0  0  0  0  0  0  0  0  0
   -1.9589    1.5851    1.0202 C   0  0  0  0  0  0  0  0  0  0  0  0
   -2.2618    2.7746    1.9355 C   0  0  0  0  0  0  0  0  0  0  0  0
   -3.7672    2.9701    2.1071 C   0  0  0  0  0  0  0  0  0  0  0  0
   -4.0336    4.0917    2.9998 N   0  0  0  0  0  0  0  0  0  0  0  0
   -1.2794   -1.1113    1.0935 H   0  0  0  0  0  0  0  0  0  0  0  0
   -0.5991    0.3238   -1.0252 H   0  0  0  0  0  0  0  0  0  0  0  0
   -0.0003    2.2958    0.4760 H   0  0  0  0  0  0  0  0  0  0  0  0
    0.0016    1.2167    1.8570 H   0  0  0  0  0  0  0  0  0  0  0  0
   -2.4265    0.6857    1.4363 H   0  0  0  0  0  0  0  0  0  0  0  0
   -2.4061    1.7589    0.0341 H   0  0  0  0  0  0  0  0  0  0  0  0
   -1.7936    2.6097    2.9141 H   0  0  0  0  0  0  0  0  0  0  0  0
   -1.8158    3.6840    1.5132 H   0  0  0  0  0  0  0  0  0  0  0  0
   -4.2229    2.0628    2.5184 H   0  0  0  0  0  0  0  0  0  0  0  0
   -4.2346    3.1678    1.1365 H   0  0  0  0  0  0  0  0  0  0  0  0
   -3.1641    4.4582    3.3099 H   0  0  0  0  0  0  0  0  0  0  0  0
   -4.5419    4.7793    2.4946 H   0  0  0  0  0  0  0  0  0  0  0  0
    1.7473   -0.2801   -1.5604 N   0  0  0  0  0  0  0  0  0  0  0  0
    3.1064   -0.3753   -2.0427 C   0  0  2  0  0  0  0  0  0  0  0  0
    3.0904   -0.1286   -3.5455 C   0  0  0  0  0  0  0  0  0  0  0  0
    2.1648   -0.4815   -4.2734 O   0  0  0  0  0  0  0  0  0  0  0  0
    3.7141   -1.7317   -1.7209 C   0  0  0  0  0  0  0  0  0  0  0  0
    1.0070   -0.5839   -2.1858 H   0  0  0  0  0  0  0  0  0  0  0  0
    3.6741    0.4201   -1.5475 H   0  0  0  0  0  0  0  0  0  0  0  0
    3.1586   -2.5411   -2.2084 H   0  0  0  0  0  0  0  0  0  0  0  0
    4.7530   -1.7919   -2.0616 H   0  0  0  0  0  0  0  0  0  0  0  0
    3.6976   -1.9201   -0.6420 H   0  0  0  0  0  0  0  0  0  0  0  0
    4.2508    0.4933   -3.9847 N   0  0  0  0  0  0  0  0  0  0  0  0
    4.4944    0.7964   -5.3756 C   0  0  0  0  0  0  0  0  0  0  0  0
    4.9479    0.7865   -3.3066 H   0  0  0  0  0  0  0  0  0  0  0  0
    5.0464   -0.0334   -5.8411 H   0  0  0  0  0  0  0  0  0  0  0  0
    3.5342    0.9344   -5.8943 H   0  0  0  0  0  0  0  0  0  0  0  0
    5.0879    1.7195   -5.4511 H   0  0  0  0  0  0  0  0  0  0  0  0
  1  3  1  0  0  0  0
  1  7  1  0  0  0  0
  1  2  2  0  0  0  0
 39 40  1  0  0  0  0
 40 48  1  0  0  0  0
 40 41  2  0  0  0  0
  8  9  1  0  0  0  0
  9 17  1  0  0  0  0
  9 10  2  0  0  0  0
 18 19  1  0  0  0  0
 19 38  1  0  0  0  0
 19 20  2  0  0  0  0
 39 42  1  0  0  0  0
  8 11  1  0  0  0  0
 48 49  1  0  0  0  0
 22 23  1  0  0  0  0
 21 22  1  0  0  0  0
 23 24  1  0  0  0  0
 18 21  1  0  0  0  0
 24 25  1  0  0  0  0
 38 39  1  0  0  0  0
  7  8  1  0  0  0  0
 17 18  1  0  0  0  0
  3  4  1  0  0  0  0
  3  5  1  0  0  0  0
  3  6  1  0  0  0  0
 42 45  1  0  0  0  0
 42 46  1  0  0  0  0
 42 47  1  0  0  0  0
 11 14  1  0  0  0  0
 11 15  1  0  0  0  0
 11 16  1  0  0  0  0
 49 51  1  0  0  0  0
 49 52  1  0  0  0  0
 49 53  1  0  0  0  0
 22 30  1  0  0  0  0
 22 31  1  0  0  0  0
 23 32  1  0  0  0  0
 23 33  1  0  0  0  0
 21 28  1  0  0  0  0
 21 29  1  0  0  0  0
 24 34  1  0  0  0  0
 24 35  1  0  0  0  0
 39 44  1  0  0  0  0
  8 13  1  0  0  0  0
 18 27  1  0  0  0  0
 25 36  1  0  0  0  0
 25 37  1  0  0  0  0
 48 50  1  0  0  0  0
  7 12  1  0  0  0  0
 38 43  1  0  0  0  0
 17 26  1  0  0  0  0
M  END
$$$$

  -OEChem-05262214473D

 53 52  0     1  0  0  0  0  0999 V2000
   -1.0338   -5.6785    0.1476 C   0  0  0  0  0  0  0  0  0  0  0  0
   -2.0514   -5.7797    0.8227 O   0  0  0  0  0  0  0  0  0  0  0  0
   -0.6558   -6.7819   -0.7841 C   0  0  0  0  0  0  0  0  0  0  0  0
   -0.0111   -7.5354   -0.3038 H   0  0  0  0  0  0  0  0  0  0  0  0
   -1.5317   -7.3401   -1.1520 H   0  0  0  0  0  0  0  0  0  0  0  0
   -0.1109   -6.4687   -1.6890 H   0  0  0  0  0  0  0  0  0  0  0  0
   -0.1543   -4.6083    0.1480 N   0  0  0  0  0  0  0  0  0  0  0  0
   -0.3302   -3.4398    0.9696 C   0  0  2  0  0  0  0  0  0  0  0  0
    0.2328   -2.2439    0.2131 C   0  0  0  0  0  0  0  0  0  0  0  0
    1.2097   -2.3192   -0.5294 O   0  0  0  0  0  0  0  0  0  0  0  0
    0.3557   -3.6024    2.3171 C   0  0  0  0  0  0  0  0  0  0  0  0
    0.6584   -4.6506   -0.4643 H   0  0  0  0  0  0  0  0  0  0  0  0
   -1.4091   -3.3101    1.1082 H   0  0  0  0  0  0  0  0  0  0  0  0
    1.4375   -3.7336    2.1985 H   0  0  0  0  0  0  0  0  0  0  0  0
    0.1969   -2.7243    2.9517 H   0  0  0  0  0  0  0  0  0  0  0  0
   -0.0294   -4.4803    2.8470 H   0  0  0  0  0  0  0  0  0  0  0  0
   -0.4616   -1.0893    0.5050 N   0  0  0  0  0  0  0  0  0  0  0  0
   -0.0884    0.2050   -0.0621 C   0  0  2  0  0  0  0  0  0  0  0  0
    1.4196    0.1897   -0.2960 C   0  0  0  0  0  0  0  0  0  0  0  0
    2.2397    0.3117    0.6117 O   0  0  0  0  0  0  0  0  0  0  0  0
   -0.4491    1.3734    0.8675 C   0  0  0  0  0  0  0  0  0  0  0  0
   -1.9589    1.5851    1.0202 C   0  0  0  0  0  0  0  0  0  0  0  0
   -2.2618    2.7746    1.9355 C   0  0  0  0  0  0  0  0  0  0  0  0
   -3.7672    2.9701    2.1071 C   0  0  0  0  0  0  0  0  0  0  0  0
   -4.0336    4.0917    2.9998 N   0  0  0  0  0  0  0  0  0  0  0  0
   -1.2794   -1.1113    1.0935 H   0  0  0  0  0  0  0  0  0  0  0  0
   -0.5991    0.3238   -1.0252 H   0  0  0  0  0  0  0  0  0  0  0  0
   -0.0003    2.2958    0.4760 H   0  0  0  0  0  0  0  0  0  0  0  0
    0.0016    1.2167    1.8570 H   0  0  0  0  0  0  0  0  0  0  0  0
   -2.4265    0.6857    1.4363 H   0  0  0  0  0  0  0  0  0  0  0  0
   -2.4061    1.7589    0.0341 H   0  0  0  0  0  0  0  0  0  0  0  0
   -1.7936    2.6097    2.9141 H   0  0  0  0  0  0  0  0  0  0  0  0
   -1.8158    3.6840    1.5132 H   0  0  0  0  0  0  0  0  0  0  0  0
   -4.2229    2.0628    2.5184 H   0  0  0  0  0  0  0  0  0  0  0  0
   -4.2346    3.1678    1.1365 H   0  0  0  0  0  0  0  0  0  0  0  0
   -3.1641    4.4582    3.3099 H   0  0  0  0  0  0  0  0  0  0  0  0
   -4.5419    4.7793    2.4946 H   0  0  0  0  0  0  0  0  0  0  0  0
    1.7384    0.0460   -1.6393 N   0  0  0  0  0  0  0  0  0  0  0  0
    3.0964    0.0231   -2.1334 C   0  0  2  0  0  0  0  0  0  0  0  0
    3.1018    0.6462   -3.5231 C   0  0  0  0  0  0  0  0  0  0  0  0
    2.1687    0.5286   -4.3146 O   0  0  0  0  0  0  0  0  0  0  0  0
    3.6478   -1.3937   -2.1708 C   0  0  0  0  0  0  0  0  0  0  0  0
    0.9915   -0.0578   -2.3197 H   0  0  0  0  0  0  0  0  0  0  0  0
    3.6911    0.6420   -1.4527 H   0  0  0  0  0  0  0  0  0  0  0  0
    3.0646   -2.0287   -2.8477 H   0  0  0  0  0  0  0  0  0  0  0  0
    4.6861   -1.4063   -2.5183 H   0  0  0  0  0  0  0  0  0  0  0  0
    3.6155   -1.8508   -1.1760 H   0  0  0  0  0  0  0  0  0  0  0  0
    4.2891    1.3129   -3.7915 N   0  0  0  0  0  0  0  0  0  0  0  0
    4.5552    1.9516   -5.0592 C   0  0  0  0  0  0  0  0  0  0  0  0
    4.9920    1.3948   -3.0627 H   0  0  0  0  0  0  0  0  0  0  0  0
    5.0778    1.2470   -5.7229 H   0  0  0  0  0  0  0  0  0  0  0  0
    3.6053    2.2559   -5.5229 H   0  0  0  0  0  0  0  0  0  0  0  0
    5.1852    2.8388   -4.8976 H   0  0  0  0  0  0  0  0  0  0  0  0
  1  3  1  0  0  0  0
  1  7  1  0  0  0  0
  1  2  2  0  0  0  0
 39 40  1  0  0  0  0
 40 48  1  0  0  0  0
 40 41  2  0  0  0  0
  8  9  1  0  0  0  0
  9 17  1  0  0  0  0
  9 10  2  0  0  0  0
 18 19  1  0  0  0  0
 19 38  1  0  0  0  0
 19 20  2  0  0  0  0
 39 42  1  0  0  0  0
  8 11  1  0  0  0  0
 48 49  1  0  0  0  0
 22 23  1  0  0  0  0
 21 22  1  0  0  0  0
 23 24  1  0  0  0  0
 18 21  1  0  0  0  0
 24 25  1  0  0  0  0
 38 39  1  0  0  0  0
  7  8  1  0  0  0  0
 17 18  1  0  0  0  0
  3  4  1  0  0  0  0
  3  5  1  0  0  0  0
  3  6  1  0  0  0  0
 42 45  1  0  0  0  0
 42 46  1  0  0  0  0
 42 47  1  0  0  0  0
 11 14  1  0  0  0  0
 11 15  1  0  0  0  0
 11 16  1  0  0  0  0
 49 51  1  0  0  0  0
 49 52  1  0  0  0  0
 49 53  1  0  0  0  0
 22 30  1  0  0  0  0
 22 31  1  0  0  0  0
 23 32  1  0  0  0  0
 23 33  1  0  0  0  0
 21 28  1  0  0  0  0
 21 29  1  0  0  0  0
 24 34  1  0  0  0  0
 24 35  1  0  0  0  0
 39 44  1  0  0  0  0
  8 13  1  0  0  0  0
 18 27  1  0  0  0  0
 25 36  1  0  0  0  0
 25 37  1  0  0  0  0
 48 50  1  0  0  0  0
  7 12  1  0  0  0  0
 38 43  1  0  0  0  0
 17 26  1  0  0  0  0
M  END
$$$$

  -OEChem-05262214473D

 53 52  0     1  0  0  0  0  0999 V2000
   -1.0338   -5.6785    0.1476 C   0  0  0  0  0  0  0  0  0  0  0  0
   -2.0514   -5.7797    0.8227 O   0  0  0  0  0  0  0  0  0  0  0  0
   -0.6558   -6.7819   -0.7841 C   0  0  0  0  0  0  0  0  0  0  0  0
   -0.0111   -7.5354   -0.3038 H   0  0  0  0  0  0  0  0  0  0  0  0
   -1.5317   -7.3401   -1.1520 H   0  0  0  0  0  0  0  0  0  0  0  0
   -0.1109   -6.4687   -1.6890 H   0  0  0  0  0  0  0  0  0  0  0  0
   -0.1543   -4.6083    0.1480 N   0  0  0  0  0  0  0  0  0  0  0  0
   -0.3302   -3.4398    0.9696 C   0  0  2  0  0  0  0  0  0  0  0  0
    0.2328   -2.2439    0.2131 C   0  0  0  0  0  0  0  0  0  0  0  0
    1.2097   -2.3192   -0.5294 O   0  0  0  0  0  0  0  0  0  0  0  0
    0.3557   -3.6024    2.3171 C   0  0  0  0  0  0  0  0  0  0  0  0
    0.6584   -4.6506   -0.4643 H   0  0  0  0  0  0  0  0  0  0  0  0
   -1.4091   -3.3101    1.1082 H   0  0  0  0  0  0  0  0  0  0  0  0
    1.4375   -3.7336    2.1985 H   0  0  0  0  0  0  0  0  0  0  0  0
    0.1969   -2.7243    2.9517 H   0  0  0  0  0  0  0  0  0  0  0  0
   -0.0294   -4.4803    2.8470 H   0  0  0  0  0  0  0  0  0  0  0  0
   -0.4616   -1.0893    0.5050 N   0  0  0  0  0  0  0  0  0  0  0  0
   -0.0884    0.2050   -0.0621 C   0  0  2  0  0  0  0  0  0  0  0  0
    1.4196    0.1897   -0.2960 C   0  0  0  0  0  0  0  0  0  0  0  0
    2.2368    0.0426    0.6107 O   0  0  0  0  0  0  0  0  0  0  0  0
   -0.4491    1.3734    0.8675 C   0  0  0  0  0  0  0  0  0  0  0  0
   -1.9589    1.5851    1.0202 C   0  0  0  0  0  0  0  0  0  0  0  0
   -2.2618    2.7746    1.9355 C   0  0  0  0  0  0  0  0  0  0  0  0
   -3.7672    2.9701    2.1071 C   0  0  0  0  0  0  0  0  0  0  0  0
   -4.0336    4.0917    2.9998 N   0  0  0  0  0  0  0  0  0  0  0  0
   -1.2794   -1.1113    1.0935 H   0  0  0  0  0  0  0  0  0  0  0  0
   -0.5991    0.3238   -1.0252 H   0  0  0  0  0  0  0  0  0  0  0  0
   -0.0003    2.2958    0.4760 H   0  0  0  0  0  0  0  0  0  0  0  0
    0.0016    1.2167    1.8570 H   0  0  0  0  0  0  0  0  0  0  0  0
   -2.4265    0.6857    1.4363 H   0  0  0  0  0  0  0  0  0  0  0  0
   -2.4061    1.7589    0.0341 H   0  0  0  0  0  0  0  0  0  0  0  0
   -1.7936    2.6097    2.9141 H   0  0  0  0  0  0  0  0  0  0  0  0
   -1.8158    3.6840    1.5132 H   0  0  0  0  0  0  0  0  0  0  0  0
   -4.2229    2.0628    2.5184 H   0  0  0  0  0  0  0  0  0  0  0  0
   -4.2346    3.1678    1.1365 H   0  0  0  0  0  0  0  0  0  0  0  0
   -3.1641    4.4582    3.3099 H   0  0  0  0  0  0  0  0  0  0  0  0
   -4.5419    4.7793    2.4946 H   0  0  0  0  0  0  0  0  0  0  0  0
    1.7429    0.3817   -1.6322 N   0  0  0  0  0  0  0  0  0  0  0  0
    3.1028    0.4315   -2.1191 C   0  0  2  0  0  0  0  0  0  0  0  0
    3.1435    1.3885   -3.3032 C   0  0  0  0  0  0  0  0  0  0  0  0
    2.2126    1.5146   -4.0961 O   0  0  0  0  0  0  0  0  0  0  0  0
    3.5983   -0.9495   -2.5191 C   0  0  0  0  0  0  0  0  0  0  0  0
    0.9979    0.4852   -2.3146 H   0  0  0  0  0  0  0  0  0  0  0  0
    3.7160    0.8315   -1.3043 H   0  0  0  0  0  0  0  0  0  0  0  0
    2.9959   -1.3664   -3.3345 H   0  0  0  0  0  0  0  0  0  0  0  0
    4.6380   -0.9144   -2.8609 H   0  0  0  0  0  0  0  0  0  0  0  0
    3.5403   -1.6442   -1.6742 H   0  0  0  0  0  0  0  0  0  0  0  0
    4.3582    2.0536   -3.3952 N   0  0  0  0  0  0  0  0  0  0  0  0
    4.6590    2.9840   -4.4580 C   0  0  0  0  0  0  0  0  0  0  0  0
    5.0580    1.9182   -2.6715 H   0  0  0  0  0  0  0  0  0  0  0  0
    5.1586    2.4522   -5.2812 H   0  0  0  0  0  0  0  0  0  0  0  0
    3.7254    3.4346   -4.8260 H   0  0  0  0  0  0  0  0  0  0  0  0
    5.3221    3.7745   -4.0764 H   0  0  0  0  0  0  0  0  0  0  0  0
  1  3  1  0  0  0  0
  1  7  1  0  0  0  0
  1  2  2  0  0  0  0
 39 40  1  0  0  0  0
 40 48  1  0  0  0  0
 40 41  2  0  0  0  0
  8  9  1  0  0  0  0
  9 17  1  0  0  0  0
  9 10  2  0  0  0  0
 18 19  1  0  0  0  0
 19 38  1  0  0  0  0
 19 20  2  0  0  0  0
 39 42  1  0  0  0  0
  8 11  1  0  0  0  0
 48 49  1  0  0  0  0
 22 23  1  0  0  0  0
 21 22  1  0  0  0  0
 23 24  1  0  0  0  0
 18 21  1  0  0  0  0
 24 25  1  0  0  0  0
 38 39  1  0  0  0  0
  7  8  1  0  0  0  0
 17 18  1  0  0  0  0
  3  4  1  0  0  0  0
  3  5  1  0  0  0  0
  3  6  1  0  0  0  0
 42 45  1  0  0  0  0
 42 46  1  0  0  0  0
 42 47  1  0  0  0  0
 11 14  1  0  0  0  0
 11 15  1  0  0  0  0
 11 16  1  0  0  0  0
 49 51  1  0  0  0  0
 49 52  1  0  0  0  0
 49 53  1  0  0  0  0
 22 30  1  0  0  0  0
 22 31  1  0  0  0  0
 23 32  1  0  0  0  0
 23 33  1  0  0  0  0
 21 28  1  0  0  0  0
 21 29  1  0  0  0  0
 24 34  1  0  0  0  0
 24 35  1  0  0  0  0
 39 44  1  0  0  0  0
  8 13  1  0  0  0  0
 18 27  1  0  0  0  0
 25 36  1  0  0  0  0
 25 37  1  0  0  0  0
 48 50  1  0  0  0  0
  7 12  1  0  0  0  0
 38 43  1  0  0  0  0
 17 26  1  0  0  0  0
M  END
$$$$

  -OEChem-05262214473D

 53 52  0     1  0  0  0  0  0999 V2000
   -1.0338   -5.6785    0.1476 C   0  0  0  0  0  0  0  0  0  0  0  0
   -2.0514   -5.7797    0.8227 O   0  0  0  0  0  0  0  0  0  0  0  0
   -0.6558   -6.7819   -0.7841 C   0  0  0  0  0  0  0  0  0  0  0  0
   -0.0111   -7.5354   -0.3038 H   0  0  0  0  0  0  0  0  0  0  0  0
   -1.5317   -7.3401   -1.1520 H   0  0  0  0  0  0  0  0  0  0  0  0
   -0.1109   -6.4687   -1.6890 H   0  0  0  0  0  0  0  0  0  0  0  0
   -0.1543   -4.6083    0.1480 N   0  0  0  0  0  0  0  0  0  0  0  0
   -0.3302   -3.4398    0.9696 C   0  0  2  0  0  0  0  0  0  0  0  0
    0.2328   -2.2439    0.2131 C   0  0  0  0  0  0  0  0  0  0  0  0
    1.2097   -2.3192   -0.5294 O   0  0  0  0  0  0  0  0  0  0  0  0
    0.3557   -3.6024    2.3171 C   0  0  0  0  0  0  0  0  0  0  0  0
    0.6584   -4.6506   -0.4643 H   0  0  0  0  0  0  0  0  0  0  0  0
   -1.4091   -3.3101    1.1082 H   0  0  0  0  0  0  0  0  0  0  0  0
    1.4375   -3.7336    2.1985 H   0  0  0  0  0  0  0  0  0  0  0  0
    0.1969   -2.7243    2.9517 H   0  0  0  0  0  0  0  0  0  0  0  0
   -0.0294   -4.4803    2.8470 H   0  0  0  0  0  0  0  0  0  0  0  0
   -0.4616   -1.0893    0.5050 N   0  0  0  0  0  0  0  0  0  0  0  0
   -0.0884    0.2050   -0.0621 C   0  0  2  0  0  0  0  0  0  0  0  0
    1.4196    0.1897   -0.2960 C   0  0  0  0  0  0  0  0  0  0  0  0
    2.2233   -0.2169    0.5408 O   0  0  0  0  0  0  0  0  0  0  0  0
   -0.4491    1.3734    0.8675 C   0  0  0  0  0  0  0  0  0  0  0  0
   -1.9589    1.5851    1.0202 C   0  0  0  0  0  0  0  0  0  0  0  0
   -2.2618    2.7746    1.9355 C   0  0  0  0  0  0  0  0  0  0  0  0
   -3.7672    2.9701    2.1071 C   0  0  0  0  0  0  0  0  0  0  0  0
   -4.0336    4.0917    2.9998 N   0  0  0  0  0  0  0  0  0  0  0  0
   -1.2794   -1.1113    1.0935 H   0  0  0  0  0  0  0  0  0  0  0  0
   -0.5991    0.3238   -1.0252 H   0  0  0  0  0  0  0  0  0  0  0  0
   -0.0003    2.2958    0.4760 H   0  0  0  0  0  0  0  0  0  0  0  0
    0.0016    1.2167    1.8570 H   0  0  0  0  0  0  0  0  0  0  0  0
   -2.4265    0.6857    1.4363 H   0  0  0  0  0  0  0  0  0  0  0  0
   -2.4061    1.7589    0.0341 H   0  0  0  0  0  0  0  0  0  0  0  0
   -1.7936    2.6097    2.9141 H   0  0  0  0  0  0  0  0  0  0  0  0
   -1.8158    3.6840    1.5132 H   0  0  0  0  0  0  0  0  0  0  0  0
   -4.2229    2.0628    2.5184 H   0  0  0  0  0  0  0  0  0  0  0  0
   -4.2346    3.1678    1.1365 H   0  0  0  0  0  0  0  0  0  0  0  0
   -3.1641    4.4582    3.3099 H   0  0  0  0  0  0  0  0  0  0  0  0
   -4.5419    4.7793    2.4946 H   0  0  0  0  0  0  0  0  0  0  0  0
    1.7606    0.7038   -1.5394 N   0  0  0  0  0  0  0  0  0  0  0  0
    3.1251    0.8221   -2.0009 C   0  0  2  0  0  0  0  0  0  0  0  0
    3.2126    2.0476   -2.9008 C   0  0  0  0  0  0  0  0  0  0  0  0
    2.2936    2.4094   -3.6327 O   0  0  0  0  0  0  0  0  0  0  0  0
    3.5690   -0.4294   -2.7421 C   0  0  0  0  0  0  0  0  0  0  0  0
    1.0255    1.0081   -2.1708 H   0  0  0  0  0  0  0  0  0  0  0  0
    3.7473    0.9756   -1.1124 H   0  0  0  0  0  0  0  0  0  0  0  0
    2.9571   -0.5996   -3.6354 H   0  0  0  0  0  0  0  0  0  0  0  0
    4.6119   -0.3497   -3.0662 H   0  0  0  0  0  0  0  0  0  0  0  0
    3.4772   -1.3141   -2.1029 H   0  0  0  0  0  0  0  0  0  0  0  0
    4.4532    2.6649   -2.8228 N   0  0  0  0  0  0  0  0  0  0  0  0
    4.7987    3.8234   -3.6130 C   0  0  0  0  0  0  0  0  0  0  0  0
    5.1415    2.3212   -2.1596 H   0  0  0  0  0  0  0  0  0  0  0  0
    5.2834    3.5002   -4.5461 H   0  0  0  0  0  0  0  0  0  0  0  0
    3.8864    4.3901   -3.8511 H   0  0  0  0  0  0  0  0  0  0  0  0
    5.4893    4.4628   -3.0436 H   0  0  0  0  0  0  0  0  0  0  0  0
  1  3  1  0  0  0  0
  1  7  1  0  0  0  0
  1  2  2  0  0  0  0
 39 40  1  0  0  0  0
 40 48  1  0  0  0  0
 40 41  2  0  0  0  0
  8  9  1  0  0  0  0
  9 17  1  0  0  0  0
  9 10  2  0  0  0  0
 18 19  1  0  0  0  0
 19 38  1  0  0  0  0
 19 20  2  0  0  0  0
 39 42  1  0  0  0  0
  8 11  1  0  0  0  0
 48 49  1  0  0  0  0
 22 23  1  0  0  0  0
 21 22  1  0  0  0  0
 23 24  1  0  0  0  0
 18 21  1  0  0  0  0
 24 25  1  0  0  0  0
 38 39  1  0  0  0  0
  7  8  1  0  0  0  0
 17 18  1  0  0  0  0
  3  4  1  0  0  0  0
  3  5  1  0  0  0  0
  3  6  1  0  0  0  0
 42 45  1  0  0  0  0
 42 46  1  0  0  0  0
 42 47  1  0  0  0  0
 11 14  1  0  0  0  0
 11 15  1  0  0  0  0
 11 16  1  0  0  0  0
 49 51  1  0  0  0  0
 49 52  1  0  0  0  0
 49 53  1  0  0  0  0
 22 30  1  0  0  0  0
 22 31  1  0  0  0  0
 23 32  1  0  0  0  0
 23 33  1  0  0  0  0
 21 28  1  0  0  0  0
 21 29  1  0  0  0  0
 24 34  1  0  0  0  0
 24 35  1  0  0  0  0
 39 44  1  0  0  0  0
  8 13  1  0  0  0  0
 18 27  1  0  0  0  0
 25 36  1  0  0  0  0
 25 37  1  0  0  0  0
 48 50  1  0  0  0  0
  7 12  1  0  0  0  0
 38 43  1  0  0  0  0
 17 26  1  0  0  0  0
M  END
$$$$

  -OEChem-05262214473D

 53 52  0     1  0  0  0  0  0999 V2000
   -1.0338   -5.6785    0.1476 C   0  0  0  0  0  0  0  0  0  0  0  0
   -2.0514   -5.7797    0.8227 O   0  0  0  0  0  0  0  0  0  0  0  0
   -0.6558   -6.7819   -0.7841 C   0  0  0  0  0  0  0  0  0  0  0  0
   -0.0111   -7.5354   -0.3038 H   0  0  0  0  0  0  0  0  0  0  0  0
   -1.5317   -7.3401   -1.1520 H   0  0  0  0  0  0  0  0  0  0  0  0
   -0.1109   -6.4687   -1.6890 H   0  0  0  0  0  0  0  0  0  0  0  0
   -0.1543   -4.6083    0.1480 N   0  0  0  0  0  0  0  0  0  0  0  0
   -0.3302   -3.4398    0.9696 C   0  0  2  0  0  0  0  0  0  0  0  0
    0.2328   -2.2439    0.2131 C   0  0  0  0  0  0  0  0  0  0  0  0
    1.2097   -2.3192   -0.5294 O   0  0  0  0  0  0  0  0  0  0  0  0
    0.3557   -3.6024    2.3171 C   0  0  0  0  0  0  0  0  0  0  0  0
    0.6584   -4.6506   -0.4643 H   0  0  0  0  0  0  0  0  0  0  0  0
   -1.4091   -3.3101    1.1082 H   0  0  0  0  0  0  0  0  0  0  0  0
    1.4375   -3.7336    2.1985 H   0  0  0  0  0  0  0  0  0  0  0  0
    0.1969   -2.7243    2.9517 H   0  0  0  0  0  0  0  0  0  0  0  0
   -0.0294   -4.4803    2.8470 H   0  0  0  0  0  0  0  0  0  0  0  0
   -0.4616   -1.0893    0.5050 N   0  0  0  0  0  0  0  0  0  0  0  0
   -0.0884    0.2050   -0.0621 C   0  0  2  0  0  0  0  0  0  0  0  0
    1.4196    0.1897   -0.2960 C   0  0  0  0  0  0  0  0  0  0  0  0
    2.2002   -0.4492    0.4069 O   0  0  0  0  0  0  0  0  0  0  0  0
   -0.4491    1.3734    0.8675 C   0  0  0  0  0  0  0  0  0  0  0  0
   -1.9589    1.5851    1.0202 C   0  0  0  0  0  0  0  0  0  0  0  0
   -2.2618    2.7746    1.9355 C   0  0  0  0  0  0  0  0  0  0  0  0
   -3.7672    2.9701    2.1071 C   0  0  0  0  0  0  0  0  0  0  0  0
   -4.0336    4.0917    2.9998 N   0  0  0  0  0  0  0  0  0  0  0  0
   -1.2794   -1.1113    1.0935 H   0  0  0  0  0  0  0  0  0  0  0  0
   -0.5991    0.3238   -1.0252 H   0  0  0  0  0  0  0  0  0  0  0  0
   -0.0003    2.2958    0.4760 H   0  0  0  0  0  0  0  0  0  0  0  0
    0.0016    1.2167    1.8570 H   0  0  0  0  0  0  0  0  0  0  0  0
   -2.4265    0.6857    1.4363 H   0  0  0  0  0  0  0  0  0  0  0  0
   -2.4061    1.7589    0.0341 H   0  0  0  0  0  0  0  0  0  0  0  0
   -1.7936    2.6097    2.9141 H   0  0  0  0  0  0  0  0  0  0  0  0
   -1.8158    3.6840    1.5132 H   0  0  0  0  0  0  0  0  0  0  0  0
   -4.2229    2.0628    2.5184 H   0  0  0  0  0  0  0  0  0  0  0  0
   -4.2346    3.1678    1.1365 H   0  0  0  0  0  0  0  0  0  0  0  0
   -3.1641    4.4582    3.3099 H   0  0  0  0  0  0  0  0  0  0  0  0
   -4.5419    4.7793    2.4946 H   0  0  0  0  0  0  0  0  0  0  0  0
    1.7902    0.9906   -1.3674 N   0  0  0  0  0  0  0  0  0  0  0  0
    3.1618    1.1683   -1.7867 C   0  0  2  0  0  0  0  0  0  0  0  0
    3.3045    2.5786   -2.3435 C   0  0  0  0  0  0  0  0  0  0  0  0
    2.4062    3.1520   -2.9561 O   0  0  0  0  0  0  0  0  0  0  0  0
    3.5619    0.1312   -2.8245 C   0  0  0  0  0  0  0  0  0  0  0  0
    1.0726    1.4754   -1.8980 H   0  0  0  0  0  0  0  0  0  0  0  0
    3.7826    1.0644   -0.8901 H   0  0  0  0  0  0  0  0  0  0  0  0
    2.9507    0.2197   -3.7301 H   0  0  0  0  0  0  0  0  0  0  0  0
    4.6096    0.2493   -3.1201 H   0  0  0  0  0  0  0  0  0  0  0  0
    3.4304   -0.8832   -2.4327 H   0  0  0  0  0  0  0  0  0  0  0  0
    4.5677    3.1053   -2.1132 N   0  0  0  0  0  0  0  0  0  0  0  0
    4.9646    4.4126   -2.5817 C   0  0  0  0  0  0  0  0  0  0  0  0
    5.2368    2.5762   -1.5618 H   0  0  0  0  0  0  0  0  0  0  0  0
    5.4435    4.3196   -3.5677 H   0  0  0  0  0  0  0  0  0  0  0  0
    4.0772    5.0573   -2.6646 H   0  0  0  0  0  0  0  0  0  0  0  0
    5.6754    4.8570   -1.8695 H   0  0  0  0  0  0  0  0  0  0  0  0
  1  3  1  0  0  0  0
  1  7  1  0  0  0  0
  1  2  2  0  0  0  0
 39 40  1  0  0  0  0
 40 48  1  0  0  0  0
 40 41  2  0  0  0  0
  8  9  1  0  0  0  0
  9 17  1  0  0  0  0
  9 10  2  0  0  0  0
 18 19  1  0  0  0  0
 19 38  1  0  0  0  0
 19 20  2  0  0  0  0
 39 42  1  0  0  0  0
  8 11  1  0  0  0  0
 48 49  1  0  0  0  0
 22 23  1  0  0  0  0
 21 22  1  0  0  0  0
 23 24  1  0  0  0  0
 18 21  1  0  0  0  0
 24 25  1  0  0  0  0
 38 39  1  0  0  0  0
  7  8  1  0  0  0  0
 17 18  1  0  0  0  0
  3  4  1  0  0  0  0
  3  5  1  0  0  0  0
  3  6  1  0  0  0  0
 42 45  1  0  0  0  0
 42 46  1  0  0  0  0
 42 47  1  0  0  0  0
 11 14  1  0  0  0  0
 11 15  1  0  0  0  0
 11 16  1  0  0  0  0
 49 51  1  0  0  0  0
 49 52  1  0  0  0  0
 49 53  1  0  0  0  0
 22 30  1  0  0  0  0
 22 31  1  0  0  0  0
 23 32  1  0  0  0  0
 23 33  1  0  0  0  0
 21 28  1  0  0  0  0
 21 29  1  0  0  0  0
 24 34  1  0  0  0  0
 24 35  1  0  0  0  0
 39 44  1  0  0  0  0
  8 13  1  0  0  0  0
 18 27  1  0  0  0  0
 25 36  1  0  0  0  0
 25 37  1  0  0  0  0
 48 50  1  0  0  0  0
  7 12  1  0  0  0  0
 38 43  1  0  0  0  0
 17 26  1  0  0  0  0
M  END
$$$$

  -OEChem-05262214473D

 53 52  0     1  0  0  0  0  0999 V2000
   -1.0338   -5.6785    0.1476 C   0  0  0  0  0  0  0  0  0  0  0  0
   -2.0514   -5.7797    0.8227 O   0  0  0  0  0  0  0  0  0  0  0  0
   -0.6558   -6.7819   -0.7841 C   0  0  0  0  0  0  0  0  0  0  0  0
   -0.0111   -7.5354   -0.3038 H   0  0  0  0  0  0  0  0  0  0  0  0
   -1.5317   -7.3401   -1.1520 H   0  0  0  0  0  0  0  0  0  0  0  0
   -0.1109   -6.4687   -1.6890 H   0  0  0  0  0  0  0  0  0  0  0  0
   -0.1543   -4.6083    0.1480 N   0  0  0  0  0  0  0  0  0  0  0  0
   -0.3302   -3.4398    0.9696 C   0  0  2  0  0  0  0  0  0  0  0  0
    0.2328   -2.2439    0.2131 C   0  0  0  0  0  0  0  0  0  0  0  0
    1.2097   -2.3192   -0.5294 O   0  0  0  0  0  0  0  0  0  0  0  0
    0.3557   -3.6024    2.3171 C   0  0  0  0  0  0  0  0  0  0  0  0
    0.6584   -4.6506   -0.4643 H   0  0  0  0  0  0  0  0  0  0  0  0
   -1.4091   -3.3101    1.1082 H   0  0  0  0  0  0  0  0  0  0  0  0
    1.4375   -3.7336    2.1985 H   0  0  0  0  0  0  0  0  0  0  0  0
    0.1969   -2.7243    2.9517 H   0  0  0  0  0  0  0  0  0  0  0  0
   -0.0294   -4.4803    2.8470 H   0  0  0  0  0  0  0  0  0  0  0  0
   -0.4616   -1.0893    0.5050 N   0  0  0  0  0  0  0  0  0  0  0  0
   -0.0884    0.2050   -0.0621 C   0  0  2  0  0  0  0  0  0  0  0  0
    1.4196    0.1897   -0.2960 C   0  0  0  0  0  0  0  0  0  0  0  0
    2.1690   -0.6384    0.2181 O   0  0  0  0  0  0  0  0  0  0  0  0
   -0.4491    1.3734    0.8675 C   0  0  0  0  0  0  0  0  0  0  0  0
   -1.9589    1.5851    1.0202 C   0  0  0  0  0  0  0  0  0  0  0  0
   -2.2618    2.7746    1.9355 C   0  0  0  0  0  0  0  0  0  0  0  0
   -3.7672    2.9701    2.1071 C   0  0  0  0  0  0  0  0  0  0  0  0
   -4.0336    4.0917    2.9998 N   0  0  0  0  0  0  0  0  0  0  0  0
   -1.2794   -1.1113    1.0935 H   0  0  0  0  0  0  0  0  0  0  0  0
   -0.5991    0.3238   -1.0252 H   0  0  0  0  0  0  0  0  0  0  0  0
   -0.0003    2.2958    0.4760 H   0  0  0  0  0  0  0  0  0  0  0  0
    0.0016    1.2167    1.8570 H   0  0  0  0  0  0  0  0  0  0  0  0
   -2.4265    0.6857    1.4363 H   0  0  0  0  0  0  0  0  0  0  0  0
   -2.4061    1.7589    0.0341 H   0  0  0  0  0  0  0  0  0  0  0  0
   -1.7936    2.6097    2.9141 H   0  0  0  0  0  0  0  0  0  0  0  0
   -1.8158    3.6840    1.5132 H   0  0  0  0  0  0  0  0  0  0  0  0
   -4.2229    2.0628    2.5184 H   0  0  0  0  0  0  0  0  0  0  0  0
   -4.2346    3.1678    1.1365 H   0  0  0  0  0  0  0  0  0  0  0  0
   -3.1641    4.4582    3.3099 H   0  0  0  0  0  0  0  0  0  0  0  0
   -4.5419    4.7793    2.4946 H   0  0  0  0  0  0  0  0  0  0  0  0
    1.8297    1.2224   -1.1278 N   0  0  0  0  0  0  0  0  0  0  0  0
    3.2105    1.4464   -1.4912 C   0  0  2  0  0  0  0  0  0  0  0  0
    3.4128    2.9454   -1.6690 C   0  0  0  0  0  0  0  0  0  0  0  0
    2.5426    3.6918   -2.1124 O   0  0  0  0  0  0  0  0  0  0  0  0
    3.5775    0.6940   -2.7608 C   0  0  0  0  0  0  0  0  0  0  0  0
    1.1359    1.8551   -1.5149 H   0  0  0  0  0  0  0  0  0  0  0  0
    3.8198    1.0920   -0.6526 H   0  0  0  0  0  0  0  0  0  0  0  0
    2.9774    1.0355   -3.6121 H   0  0  0  0  0  0  0  0  0  0  0  0
    4.6314    0.8418   -3.0190 H   0  0  0  0  0  0  0  0  0  0  0  0
    3.4032   -0.3808   -2.6411 H   0  0  0  0  0  0  0  0  0  0  0  0
    4.6940    3.3447   -1.3150 N   0  0  0  0  0  0  0  0  0  0  0  0
    5.1456    4.7113   -1.4345 C   0  0  0  0  0  0  0  0  0  0  0  0
    5.3375    2.6658   -0.9190 H   0  0  0  0  0  0  0  0  0  0  0  0
    5.6281    4.8544   -2.4126 H   0  0  0  0  0  0  0  0  0  0  0  0
    4.2849    5.3907   -1.3474 H   0  0  0  0  0  0  0  0  0  0  0  0
    5.8678    4.9300   -0.6341 H   0  0  0  0  0  0  0  0  0  0  0  0
  1  3  1  0  0  0  0
  1  7  1  0  0  0  0
  1  2  2  0  0  0  0
 39 40  1  0  0  0  0
 40 48  1  0  0  0  0
 40 41  2  0  0  0  0
  8  9  1  0  0  0  0
  9 17  1  0  0  0  0
  9 10  2  0  0  0  0
 18 19  1  0  0  0  0
 19 38  1  0  0  0  0
 19 20  2  0  0  0  0
 39 42  1  0  0  0  0
  8 11  1  0  0  0  0
 48 49  1  0  0  0  0
 22 23  1  0  0  0  0
 21 22  1  0  0  0  0
 23 24  1  0  0  0  0
 18 21  1  0  0  0  0
 24 25  1  0  0  0  0
 38 39  1  0  0  0  0
  7  8  1  0  0  0  0
 17 18  1  0  0  0  0
  3  4  1  0  0  0  0
  3  5  1  0  0  0  0
  3  6  1  0  0  0  0
 42 45  1  0  0  0  0
 42 46  1  0  0  0  0
 42 47  1  0  0  0  0
 11 14  1  0  0  0  0
 11 15  1  0  0  0  0
 11 16  1  0  0  0  0
 49 51  1  0  0  0  0
 49 52  1  0  0  0  0
 49 53  1  0  0  0  0
 22 30  1  0  0  0  0
 22 31  1  0  0  0  0
 23 32  1  0  0  0  0
 23 33  1  0  0  0  0
 21 28  1  0  0  0  0
 21 29  1  0  0  0  0
 24 34  1  0  0  0  0
 24 35  1  0  0  0  0
 39 44  1  0  0  0  0
  8 13  1  0  0  0  0
 18 27  1  0  0  0  0
 25 36  1  0  0  0  0
 25 37  1  0  0  0  0
 48 50  1  0  0  0  0
  7 12  1  0  0  0  0
 38 43  1  0  0  0  0
 17 26  1  0  0  0  0
M  END
$$$$

  -OEChem-05262214473D

 53 52  0     1  0  0  0  0  0999 V2000
   -1.0338   -5.6785    0.1476 C   0  0  0  0  0  0  0  0  0  0  0  0
   -2.0514   -5.7797    0.8227 O   0  0  0  0  0  0  0  0  0  0  0  0
   -0.6558   -6.7819   -0.7841 C   0  0  0  0  0  0  0  0  0  0  0  0
   -0.0111   -7.5354   -0.3038 H   0  0  0  0  0  0  0  0  0  0  0  0
   -1.5317   -7.3401   -1.1520 H   0  0  0  0  0  0  0  0  0  0  0  0
   -0.1109   -6.4687   -1.6890 H   0  0  0  0  0  0  0  0  0  0  0  0
   -0.1543   -4.6083    0.1480 N   0  0  0  0  0  0  0  0  0  0  0  0
   -0.3302   -3.4398    0.9696 C   0  0  2  0  0  0  0  0  0  0  0  0
    0.2328   -2.2439    0.2131 C   0  0  0  0  0  0  0  0  0  0  0  0
    1.2097   -2.3192   -0.5294 O   0  0  0  0  0  0  0  0  0  0  0  0
    0.3557   -3.6024    2.3171 C   0  0  0  0  0  0  0  0  0  0  0  0
    0.6584   -4.6506   -0.4643 H   0  0  0  0  0  0  0  0  0  0  0  0
   -1.4091   -3.3101    1.1082 H   0  0  0  0  0  0  0  0  0  0  0  0
    1.4375   -3.7336    2.1985 H   0  0  0  0  0  0  0  0  0  0  0  0
    0.1969   -2.7243    2.9517 H   0  0  0  0  0  0  0  0  0  0  0  0
   -0.0294   -4.4803    2.8470 H   0  0  0  0  0  0  0  0  0  0  0  0
   -0.4616   -1.0893    0.5050 N   0  0  0  0  0  0  0  0  0  0  0  0
   -0.0884    0.2050   -0.0621 C   0  0  2  0  0  0  0  0  0  0  0  0
    1.3171    0.0682   -0.6408 C   0  0  0  0  0  0  0  0  0  0  0  0
    1.9666   -0.9741   -0.5836 O   0  0  0  0  0  0  0  0  0  0  0  0
   -0.1014    1.3259    0.9881 C   0  0  0  0  0  0  0  0  0  0  0  0
   -1.5057    1.6642    1.4990 C   0  0  0  0  0  0  0  0  0  0  0  0
   -1.4636    2.8018    2.5229 C   0  0  0  0  0  0  0  0  0  0  0  0
   -2.8612    3.1221    3.0503 C   0  0  0  0  0  0  0  0  0  0  0  0
   -2.7962    4.1906    4.0402 N   0  0  0  0  0  0  0  0  0  0  0  0
   -1.2794   -1.1113    1.0935 H   0  0  0  0  0  0  0  0  0  0  0  0
   -0.7875    0.4452   -0.8721 H   0  0  0  0  0  0  0  0  0  0  0  0
    0.3445    2.2304    0.5537 H   0  0  0  0  0  0  0  0  0  0  0  0
    0.5415    1.0516    1.8355 H   0  0  0  0  0  0  0  0  0  0  0  0
   -1.9617    0.7823    1.9629 H   0  0  0  0  0  0  0  0  0  0  0  0
   -2.1425    1.9549    0.6549 H   0  0  0  0  0  0  0  0  0  0  0  0
   -0.8071    2.5185    3.3553 H   0  0  0  0  0  0  0  0  0  0  0  0
   -1.0288    3.6960    2.0585 H   0  0  0  0  0  0  0  0  0  0  0  0
   -3.3076    2.2317    3.5064 H   0  0  0  0  0  0  0  0  0  0  0  0
   -3.5115    3.4371    2.2273 H   0  0  0  0  0  0  0  0  0  0  0  0
   -1.8447    4.4497    4.1590 H   0  0  0  0  0  0  0  0  0  0  0  0
   -3.3281    4.9597    3.7051 H   0  0  0  0  0  0  0  0  0  0  0  0
    1.7663    1.2530   -1.2074 N   0  0  0  0  0  0  0  0  0  0  0  0
    3.0736    1.3993   -1.8062 C   0  0  2  0  0  0  0  0  0  0  0  0
    3.5360    2.8329   -1.5815 C   0  0  0  0  0  0  0  0  0  0  0  0
    2.7667    3.7915   -1.5683 O   0  0  0  0  0  0  0  0  0  0  0  0
    3.0436    1.0639   -3.2892 C   0  0  0  0  0  0  0  0  0  0  0  0
    1.1543    2.0635   -1.2171 H   0  0  0  0  0  0  0  0  0  0  0  0
    3.7426    0.7120   -1.2769 H   0  0  0  0  0  0  0  0  0  0  0  0
    2.3785    1.7421   -3.8361 H   0  0  0  0  0  0  0  0  0  0  0  0
    4.0402    1.1476   -3.7351 H   0  0  0  0  0  0  0  0  0  0  0  0
    2.6825    0.0425   -3.4505 H   0  0  0  0  0  0  0  0  0  0  0  0
    4.9139    2.9208   -1.4406 N   0  0  0  0  0  0  0  0  0  0  0  0
    5.6004    4.1786   -1.2597 C   0  0  0  0  0  0  0  0  0  0  0  0
    5.4697    2.0708   -1.4243 H   0  0  0  0  0  0  0  0  0  0  0  0
    5.9142    4.5698   -2.2387 H   0  0  0  0  0  0  0  0  0  0  0  0
    4.9240    4.8992   -0.7767 H   0  0  0  0  0  0  0  0  0  0  0  0
    6.4858    4.0249   -0.6253 H   0  0  0  0  0  0  0  0  0  0  0  0
  1  3  1  0  0  0  0
  1  7  1  0  0  0  0
  1  2  2  0  0  0  0
 39 40  1  0  0  0  0
 40 48  1  0  0  0  0
 40 41  2  0  0  0  0
  8  9  1  0  0  0  0
  9 17  1  0  0  0  0
  9 10  2  0  0  0  0
 18 19  1  0  0  0  0
 19 38  1  0  0  0  0
 19 20  2  0  0  0  0
 39 42  1  0  0  0  0
  8 11  1  0  0  0  0
 48 49  1  0  0  0  0
 22 23  1  0  0  0  0
 21 22  1  0  0  0  0
 23 24  1  0  0  0  0
 18 21  1  0  0  0  0
 24 25  1  0  0  0  0
 38 39  1  0  0  0  0
  7  8  1  0  0  0  0
 17 18  1  0  0  0  0
  3  4  1  0  0  0  0
  3  5  1  0  0  0  0
  3  6  1  0  0  0  0
 42 45  1  0  0  0  0
 42 46  1  0  0  0  0
 42 47  1  0  0  0  0
 11 14  1  0  0  0  0
 11 15  1  0  0  0  0
 11 16  1  0  0  0  0
 49 51  1  0  0  0  0
 49 52  1  0  0  0  0
 49 53  1  0  0  0  0
 22 30  1  0  0  0  0
 22 31  1  0  0  0  0
 23 32  1  0  0  0  0
 23 33  1  0  0  0  0
 21 28  1  0  0  0  0
 21 29  1  0  0  0  0
 24 34  1  0  0  0  0
 24 35  1  0  0  0  0
 39 44  1  0  0  0  0
  8 13  1  0  0  0  0
 18 27  1  0  0  0  0
 25 36  1  0  0  0  0
 25 37  1  0  0  0  0
 48 50  1  0  0  0  0
  7 12  1  0  0  0  0
 38 43  1  0  0  0  0
 17 26  1  0  0  0  0
M  END
$$$$

  -OEChem-05262214473D

 53 52  0     1  0  0  0  0  0999 V2000
   -1.0338   -5.6785    0.1476 C   0  0  0  0  0  0  0  0  0  0  0  0
   -2.0514   -5.7797    0.8227 O   0  0  0  0  0  0  0  0  0  0  0  0
   -0.6558   -6.7819   -0.7841 C   0  0  0  0  0  0  0  0  0  0  0  0
   -0.0111   -7.5354   -0.3038 H   0  0  0  0  0  0  0  0  0  0  0  0
   -1.5317   -7.3401   -1.1520 H   0  0  0  0  0  0  0  0  0  0  0  0
   -0.1109   -6.4687   -1.6890 H   0  0  0  0  0  0  0  0  0  0  0  0
   -0.1543   -4.6083    0.1480 N   0  0  0  0  0  0  0  0  0  0  0  0
   -0.3302   -3.4398    0.9696 C   0  0  2  0  0  0  0  0  0  0  0  0
    0.2328   -2.2439    0.2131 C   0  0  0  0  0  0  0  0  0  0  0  0
    1.2097   -2.3192   -0.5294 O   0  0  0  0  0  0  0  0  0  0  0  0
    0.3557   -3.6024    2.3171 C   0  0  0  0  0  0  0  0  0  0  0  0
    0.6584   -4.6506   -0.4643 H   0  0  0  0  0  0  0  0  0  0  0  0
   -1.4091   -3.3101    1.1082 H   0  0  0  0  0  0  0  0  0  0  0  0
    1.4375   -3.7336    2.1985 H   0  0  0  0  0  0  0  0  0  0  0  0
    0.1969   -2.7243    2.9517 H   0  0  0  0  0  0  0  0  0  0  0  0
   -0.0294   -4.4803    2.8470 H   0  0  0  0  0  0  0  0  0  0  0  0
   -0.4616   -1.0893    0.5050 N   0  0  0  0  0  0  0  0  0  0  0  0
   -0.0884    0.2050   -0.0621 C   0  0  2  0  0  0  0  0  0  0  0  0
    1.3171    0.0682   -0.6408 C   0  0  0  0  0  0  0  0  0  0  0  0
    1.8619   -1.0180   -0.8276 O   0  0  0  0  0  0  0  0  0  0  0  0
   -0.1014    1.3259    0.9881 C   0  0  0  0  0  0  0  0  0  0  0  0
   -1.5057    1.6642    1.4990 C   0  0  0  0  0  0  0  0  0  0  0  0
   -1.4636    2.8018    2.5229 C   0  0  0  0  0  0  0  0  0  0  0  0
   -2.8612    3.1221    3.0503 C   0  0  0  0  0  0  0  0  0  0  0  0
   -2.7962    4.1906    4.0402 N   0  0  0  0  0  0  0  0  0  0  0  0
   -1.2794   -1.1113    1.0935 H   0  0  0  0  0  0  0  0  0  0  0  0
   -0.7875    0.4452   -0.8721 H   0  0  0  0  0  0  0  0  0  0  0  0
    0.3445    2.2304    0.5537 H   0  0  0  0  0  0  0  0  0  0  0  0
    0.5415    1.0516    1.8355 H   0  0  0  0  0  0  0  0  0  0  0  0
   -1.9617    0.7823    1.9629 H   0  0  0  0  0  0  0  0  0  0  0  0
   -2.1425    1.9549    0.6549 H   0  0  0  0  0  0  0  0  0  0  0  0
   -0.8071    2.5185    3.3553 H   0  0  0  0  0  0  0  0  0  0  0  0
   -1.0288    3.6960    2.0585 H   0  0  0  0  0  0  0  0  0  0  0  0
   -3.3076    2.2317    3.5064 H   0  0  0  0  0  0  0  0  0  0  0  0
   -3.5115    3.4371    2.2273 H   0  0  0  0  0  0  0  0  0  0  0  0
   -1.8447    4.4497    4.1590 H   0  0  0  0  0  0  0  0  0  0  0  0
   -3.3281    4.9597    3.7051 H   0  0  0  0  0  0  0  0  0  0  0  0
    1.8969    1.3020   -0.9020 N   0  0  0  0  0  0  0  0  0  0  0  0
    3.2323    1.4534   -1.4335 C   0  0  2  0  0  0  0  0  0  0  0  0
    3.8211    2.7386   -0.8668 C   0  0  0  0  0  0  0  0  0  0  0  0
    3.1467    3.7394   -0.6330 O   0  0  0  0  0  0  0  0  0  0  0  0
    3.2226    1.4841   -2.9539 C   0  0  0  0  0  0  0  0  0  0  0  0
    1.3656    2.1492   -0.7242 H   0  0  0  0  0  0  0  0  0  0  0  0
    3.8137    0.5962   -1.0767 H   0  0  0  0  0  0  0  0  0  0  0  0
    2.6448    2.3363   -3.3299 H   0  0  0  0  0  0  0  0  0  0  0  0
    4.2377    1.5702   -3.3555 H   0  0  0  0  0  0  0  0  0  0  0  0
    2.7717    0.5720   -3.3593 H   0  0  0  0  0  0  0  0  0  0  0  0
    5.1953    2.6510   -0.6933 N   0  0  0  0  0  0  0  0  0  0  0  0
    5.9918    3.7540   -0.2086 C   0  0  0  0  0  0  0  0  0  0  0  0
    5.6667    1.7697   -0.8748 H   0  0  0  0  0  0  0  0  0  0  0  0
    6.3757    4.3325   -1.0618 H   0  0  0  0  0  0  0  0  0  0  0  0
    5.3706    4.4040    0.4252 H   0  0  0  0  0  0  0  0  0  0  0  0
    6.8357    3.3657    0.3804 H   0  0  0  0  0  0  0  0  0  0  0  0
  1  3  1  0  0  0  0
  1  7  1  0  0  0  0
  1  2  2  0  0  0  0
 39 40  1  0  0  0  0
 40 48  1  0  0  0  0
 40 41  2  0  0  0  0
  8  9  1  0  0  0  0
  9 17  1  0  0  0  0
  9 10  2  0  0  0  0
 18 19  1  0  0  0  0
 19 38  1  0  0  0  0
 19 20  2  0  0  0  0
 39 42  1  0  0  0  0
  8 11  1  0  0  0  0
 48 49  1  0  0  0  0
 22 23  1  0  0  0  0
 21 22  1  0  0  0  0
 23 24  1  0  0  0  0
 18 21  1  0  0  0  0
 24 25  1  0  0  0  0
 38 39  1  0  0  0  0
  7  8  1  0  0  0  0
 17 18  1  0  0  0  0
  3  4  1  0  0  0  0
  3  5  1  0  0  0  0
  3  6  1  0  0  0  0
 42 45  1  0  0  0  0
 42 46  1  0  0  0  0
 42 47  1  0  0  0  0
 11 14  1  0  0  0  0
 11 15  1  0  0  0  0
 11 16  1  0  0  0  0
 49 51  1  0  0  0  0
 49 52  1  0  0  0  0
 49 53  1  0  0  0  0
 22 30  1  0  0  0  0
 22 31  1  0  0  0  0
 23 32  1  0  0  0  0
 23 33  1  0  0  0  0
 21 28  1  0  0  0  0
 21 29  1  0  0  0  0
 24 34  1  0  0  0  0
 24 35  1  0  0  0  0
 39 44  1  0  0  0  0
  8 13  1  0  0  0  0
 18 27  1  0  0  0  0
 25 36  1  0  0  0  0
 25 37  1  0  0  0  0
 48 50  1  0  0  0  0
  7 12  1  0  0  0  0
 38 43  1  0  0  0  0
 17 26  1  0  0  0  0
M  END
$$$$

  -OEChem-05262214473D

 53 52  0     1  0  0  0  0  0999 V2000
   -1.0338   -5.6785    0.1476 C   0  0  0  0  0  0  0  0  0  0  0  0
   -2.0514   -5.7797    0.8227 O   0  0  0  0  0  0  0  0  0  0  0  0
   -0.6558   -6.7819   -0.7841 C   0  0  0  0  0  0  0  0  0  0  0  0
   -0.0111   -7.5354   -0.3038 H   0  0  0  0  0  0  0  0  0  0  0  0
   -1.5317   -7.3401   -1.1520 H   0  0  0  0  0  0  0  0  0  0  0  0
   -0.1109   -6.4687   -1.6890 H   0  0  0  0  0  0  0  0  0  0  0  0
   -0.1543   -4.6083    0.1480 N   0  0  0  0  0  0  0  0  0  0  0  0
   -0.3302   -3.4398    0.9696 C   0  0  2  0  0  0  0  0  0  0  0  0
    0.2328   -2.2439    0.2131 C   0  0  0  0  0  0  0  0  0  0  0  0
    1.2097   -2.3192   -0.5294 O   0  0  0  0  0  0  0  0  0  0  0  0
    0.3557   -3.6024    2.3171 C   0  0  0  0  0  0  0  0  0  0  0  0
    0.6584   -4.6506   -0.4643 H   0  0  0  0  0  0  0  0  0  0  0  0
   -1.4091   -3.3101    1.1082 H   0  0  0  0  0  0  0  0  0  0  0  0
    1.4375   -3.7336    2.1985 H   0  0  0  0  0  0  0  0  0  0  0  0
    0.1969   -2.7243    2.9517 H   0  0  0  0  0  0  0  0  0  0  0  0
   -0.0294   -4.4803    2.8470 H   0  0  0  0  0  0  0  0  0  0  0  0
   -0.4616   -1.0893    0.5050 N   0  0  0  0  0  0  0  0  0  0  0  0
   -0.0884    0.2050   -0.0621 C   0  0  2  0  0  0  0  0  0  0  0  0
    1.3171    0.0682   -0.6408 C   0  0  0  0  0  0  0  0  0  0  0  0
    1.7621   -0.9920   -1.0761 O   0  0  0  0  0  0  0  0  0  0  0  0
   -0.1014    1.3259    0.9881 C   0  0  0  0  0  0  0  0  0  0  0  0
   -1.5057    1.6642    1.4990 C   0  0  0  0  0  0  0  0  0  0  0  0
   -1.4636    2.8018    2.5229 C   0  0  0  0  0  0  0  0  0  0  0  0
   -2.8612    3.1221    3.0503 C   0  0  0  0  0  0  0  0  0  0  0  0
   -2.7962    4.1906    4.0402 N   0  0  0  0  0  0  0  0  0  0  0  0
   -1.2794   -1.1113    1.0935 H   0  0  0  0  0  0  0  0  0  0  0  0
   -0.7875    0.4452   -0.8721 H   0  0  0  0  0  0  0  0  0  0  0  0
    0.3445    2.2304    0.5537 H   0  0  0  0  0  0  0  0  0  0  0  0
    0.5415    1.0516    1.8355 H   0  0  0  0  0  0  0  0  0  0  0  0
   -1.9617    0.7823    1.9629 H   0  0  0  0  0  0  0  0  0  0  0  0
   -2.1425    1.9549    0.6549 H   0  0  0  0  0  0  0  0  0  0  0  0
   -0.8071    2.5185    3.3553 H   0  0  0  0  0  0  0  0  0  0  0  0
   -1.0288    3.6960    2.0585 H   0  0  0  0  0  0  0  0  0  0  0  0
   -3.3076    2.2317    3.5064 H   0  0  0  0  0  0  0  0  0  0  0  0
   -3.5115    3.4371    2.2273 H   0  0  0  0  0  0  0  0  0  0  0  0
   -1.8447    4.4497    4.1590 H   0  0  0  0  0  0  0  0  0  0  0  0
   -3.3281    4.9597    3.7051 H   0  0  0  0  0  0  0  0  0  0  0  0
    2.0207    1.2637   -0.5923 N   0  0  0  0  0  0  0  0  0  0  0  0
    3.3823    1.4012   -1.0569 C   0  0  2  0  0  0  0  0  0  0  0  0
    4.0706    2.4491   -0.1922 C   0  0  0  0  0  0  0  0  0  0  0  0
    3.4869    3.4287    0.2668 O   0  0  0  0  0  0  0  0  0  0  0  0
    3.4290    1.7926   -2.5257 C   0  0  0  0  0  0  0  0  0  0  0  0
    1.5667    2.0937   -0.2228 H   0  0  0  0  0  0  0  0  0  0  0  0
    3.8665    0.4297   -0.9093 H   0  0  0  0  0  0  0  0  0  0  0  0
    2.9485    2.7635   -2.6932 H   0  0  0  0  0  0  0  0  0  0  0  0
    4.4611    1.8685   -2.8835 H   0  0  0  0  0  0  0  0  0  0  0  0
    2.9076    1.0529   -3.1428 H   0  0  0  0  0  0  0  0  0  0  0  0
    5.4233    2.1846   -0.0292 N   0  0  0  0  0  0  0  0  0  0  0  0
    6.3038    3.0549    0.7145 C   0  0  0  0  0  0  0  0  0  0  0  0
    5.8146    1.3286   -0.4112 H   0  0  0  0  0  0  0  0  0  0  0  0
    6.7708    3.7775    0.0291 H   0  0  0  0  0  0  0  0  0  0  0  0
    5.7256    3.5953    1.4785 H   0  0  0  0  0  0  0  0  0  0  0  0
    7.0857    2.4548    1.2029 H   0  0  0  0  0  0  0  0  0  0  0  0
  1  3  1  0  0  0  0
  1  7  1  0  0  0  0
  1  2  2  0  0  0  0
 39 40  1  0  0  0  0
 40 48  1  0  0  0  0
 40 41  2  0  0  0  0
  8  9  1  0  0  0  0
  9 17  1  0  0  0  0
  9 10  2  0  0  0  0
 18 19  1  0  0  0  0
 19 38  1  0  0  0  0
 19 20  2  0  0  0  0
 39 42  1  0  0  0  0
  8 11  1  0  0  0  0
 48 49  1  0  0  0  0
 22 23  1  0  0  0  0
 21 22  1  0  0  0  0
 23 24  1  0  0  0  0
 18 21  1  0  0  0  0
 24 25  1  0  0  0  0
 38 39  1  0  0  0  0
  7  8  1  0  0  0  0
 17 18  1  0  0  0  0
  3  4  1  0  0  0  0
  3  5  1  0  0  0  0
  3  6  1  0  0  0  0
 42 45  1  0  0  0  0
 42 46  1  0  0  0  0
 42 47  1  0  0  0  0
 11 14  1  0  0  0  0
 11 15  1  0  0  0  0
 11 16  1  0  0  0  0
 49 51  1  0  0  0  0
 49 52  1  0  0  0  0
 49 53  1  0  0  0  0
 22 30  1  0  0  0  0
 22 31  1  0  0  0  0
 23 32  1  0  0  0  0
 23 33  1  0  0  0  0
 21 28  1  0  0  0  0
 21 29  1  0  0  0  0
 24 34  1  0  0  0  0
 24 35  1  0  0  0  0
 39 44  1  0  0  0  0
  8 13  1  0  0  0  0
 18 27  1  0  0  0  0
 25 36  1  0  0  0  0
 25 37  1  0  0  0  0
 48 50  1  0  0  0  0
  7 12  1  0  0  0  0
 38 43  1  0  0  0  0
 17 26  1  0  0  0  0
M  END
$$$$

  -OEChem-05262214473D

 53 52  0     1  0  0  0  0  0999 V2000
   -1.0338   -5.6785    0.1476 C   0  0  0  0  0  0  0  0  0  0  0  0
   -2.0514   -5.7797    0.8227 O   0  0  0  0  0  0  0  0  0  0  0  0
   -0.6558   -6.7819   -0.7841 C   0  0  0  0  0  0  0  0  0  0  0  0
   -0.0111   -7.5354   -0.3038 H   0  0  0  0  0  0  0  0  0  0  0  0
   -1.5317   -7.3401   -1.1520 H   0  0  0  0  0  0  0  0  0  0  0  0
   -0.1109   -6.4687   -1.6890 H   0  0  0  0  0  0  0  0  0  0  0  0
   -0.1543   -4.6083    0.1480 N   0  0  0  0  0  0  0  0  0  0  0  0
   -0.3302   -3.4398    0.9696 C   0  0  2  0  0  0  0  0  0  0  0  0
    0.2328   -2.2439    0.2131 C   0  0  0  0  0  0  0  0  0  0  0  0
    1.2097   -2.3192   -0.5294 O   0  0  0  0  0  0  0  0  0  0  0  0
    0.3557   -3.6024    2.3171 C   0  0  0  0  0  0  0  0  0  0  0  0
    0.6584   -4.6506   -0.4643 H   0  0  0  0  0  0  0  0  0  0  0  0
   -1.4091   -3.3101    1.1082 H   0  0  0  0  0  0  0  0  0  0  0  0
    1.4375   -3.7336    2.1985 H   0  0  0  0  0  0  0  0  0  0  0  0
    0.1969   -2.7243    2.9517 H   0  0  0  0  0  0  0  0  0  0  0  0
   -0.0294   -4.4803    2.8470 H   0  0  0  0  0  0  0  0  0  0  0  0
   -0.4616   -1.0893    0.5050 N   0  0  0  0  0  0  0  0  0  0  0  0
   -0.0884    0.2050   -0.0621 C   0  0  2  0  0  0  0  0  0  0  0  0
    1.3171    0.0682   -0.6408 C   0  0  0  0  0  0  0  0  0  0  0  0
    1.6740   -0.8978   -1.3123 O   0  0  0  0  0  0  0  0  0  0  0  0
   -0.1014    1.3259    0.9881 C   0  0  0  0  0  0  0  0  0  0  0  0
   -1.5057    1.6642    1.4990 C   0  0  0  0  0  0  0  0  0  0  0  0
   -1.4636    2.8018    2.5229 C   0  0  0  0  0  0  0  0  0  0  0  0
   -2.8612    3.1221    3.0503 C   0  0  0  0  0  0  0  0  0  0  0  0
   -2.7962    4.1906    4.0402 N   0  0  0  0  0  0  0  0  0  0  0  0
   -1.2794   -1.1113    1.0935 H   0  0  0  0  0  0  0  0  0  0  0  0
   -0.7875    0.4452   -0.8721 H   0  0  0  0  0  0  0  0  0  0  0  0
    0.3445    2.2304    0.5537 H   0  0  0  0  0  0  0  0  0  0  0  0
    0.5415    1.0516    1.8355 H   0  0  0  0  0  0  0  0  0  0  0  0
   -1.9617    0.7823    1.9629 H   0  0  0  0  0  0  0  0  0  0  0  0
   -2.1425    1.9549    0.6549 H   0  0  0  0  0  0  0  0  0  0  0  0
   -0.8071    2.5185    3.3553 H   0  0  0  0  0  0  0  0  0  0  0  0
   -1.0288    3.6960    2.0585 H   0  0  0  0  0  0  0  0  0  0  0  0
   -3.3076    2.2317    3.5064 H   0  0  0  0  0  0  0  0  0  0  0  0
   -3.5115    3.4371    2.2273 H   0  0  0  0  0  0  0  0  0  0  0  0
   -1.8447    4.4497    4.1590 H   0  0  0  0  0  0  0  0  0  0  0  0
   -3.3281    4.9597    3.7051 H   0  0  0  0  0  0  0  0  0  0  0  0
    2.1293    1.1408   -0.2994 N   0  0  0  0  0  0  0  0  0  0  0  0
    3.5133    1.2464   -0.7021 C   0  0  2  0  0  0  0  0  0  0  0  0
    4.2676    1.9842    0.3961 C   0  0  0  0  0  0  0  0  0  0  0  0
    3.7642    2.8808    1.0698 O   0  0  0  0  0  0  0  0  0  0  0  0
    3.6486    1.9682   -2.0338 C   0  0  0  0  0  0  0  0  0  0  0  0
    1.7438    1.9009    0.2530 H   0  0  0  0  0  0  0  0  0  0  0  0
    3.8972    0.2238   -0.7860 H   0  0  0  0  0  0  0  0  0  0  0  0
    3.2691    2.9945   -1.9692 H   0  0  0  0  0  0  0  0  0  0  0  0
    4.6952    2.0222   -2.3512 H   0  0  0  0  0  0  0  0  0  0  0  0
    3.0811    1.4525   -2.8160 H   0  0  0  0  0  0  0  0  0  0  0  0
    5.5823    1.5535    0.5063 N   0  0  0  0  0  0  0  0  0  0  0  0
    6.5151    2.1291    1.4468 C   0  0  0  0  0  0  0  0  0  0  0  0
    5.9034    0.7775   -0.0651 H   0  0  0  0  0  0  0  0  0  0  0  0
    7.0727    2.9426    0.9598 H   0  0  0  0  0  0  0  0  0  0  0  0
    5.9646    2.5284    2.3114 H   0  0  0  0  0  0  0  0  0  0  0  0
    7.2186    1.3544    1.7860 H   0  0  0  0  0  0  0  0  0  0  0  0
  1  3  1  0  0  0  0
  1  7  1  0  0  0  0
  1  2  2  0  0  0  0
 39 40  1  0  0  0  0
 40 48  1  0  0  0  0
 40 41  2  0  0  0  0
  8  9  1  0  0  0  0
  9 17  1  0  0  0  0
  9 10  2  0  0  0  0
 18 19  1  0  0  0  0
 19 38  1  0  0  0  0
 19 20  2  0  0  0  0
 39 42  1  0  0  0  0
  8 11  1  0  0  0  0
 48 49  1  0  0  0  0
 22 23  1  0  0  0  0
 21 22  1  0  0  0  0
 23 24  1  0  0  0  0
 18 21  1  0  0  0  0
 24 25  1  0  0  0  0
 38 39  1  0  0  0  0
  7  8  1  0  0  0  0
 17 18  1  0  0  0  0
  3  4  1  0  0  0  0
  3  5  1  0  0  0  0
  3  6  1  0  0  0  0
 42 45  1  0  0  0  0
 42 46  1  0  0  0  0
 42 47  1  0  0  0  0
 11 14  1  0  0  0  0
 11 15  1  0  0  0  0
 11 16  1  0  0  0  0
 49 51  1  0  0  0  0
 49 52  1  0  0  0  0
 49 53  1  0  0  0  0
 22 30  1  0  0  0  0
 22 31  1  0  0  0  0
 23 32  1  0  0  0  0
 23 33  1  0  0  0  0
 21 28  1  0  0  0  0
 21 29  1  0  0  0  0
 24 34  1  0  0  0  0
 24 35  1  0  0  0  0
 39 44  1  0  0  0  0
  8 13  1  0  0  0  0
 18 27  1  0  0  0  0
 25 36  1  0  0  0  0
 25 37  1  0  0  0  0
 48 50  1  0  0  0  0
  7 12  1  0  0  0  0
 38 43  1  0  0  0  0
 17 26  1  0  0  0  0
M  END
$$$$

  -OEChem-05262214473D

 53 52  0     1  0  0  0  0  0999 V2000
   -1.0338   -5.6785    0.1476 C   0  0  0  0  0  0  0  0  0  0  0  0
   -2.0514   -5.7797    0.8227 O   0  0  0  0  0  0  0  0  0  0  0  0
   -0.6558   -6.7819   -0.7841 C   0  0  0  0  0  0  0  0  0  0  0  0
   -0.0111   -7.5354   -0.3038 H   0  0  0  0  0  0  0  0  0  0  0  0
   -1.5317   -7.3401   -1.1520 H   0  0  0  0  0  0  0  0  0  0  0  0
   -0.1109   -6.4687   -1.6890 H   0  0  0  0  0  0  0  0  0  0  0  0
   -0.1543   -4.6083    0.1480 N   0  0  0  0  0  0  0  0  0  0  0  0
   -0.3302   -3.4398    0.9696 C   0  0  2  0  0  0  0  0  0  0  0  0
    0.2328   -2.2439    0.2131 C   0  0  0  0  0  0  0  0  0  0  0  0
    1.2097   -2.3192   -0.5294 O   0  0  0  0  0  0  0  0  0  0  0  0
    0.3557   -3.6024    2.3171 C   0  0  0  0  0  0  0  0  0  0  0  0
    0.6584   -4.6506   -0.4643 H   0  0  0  0  0  0  0  0  0  0  0  0
   -1.4091   -3.3101    1.1082 H   0  0  0  0  0  0  0  0  0  0  0  0
    1.4375   -3.7336    2.1985 H   0  0  0  0  0  0  0  0  0  0  0  0
    0.1969   -2.7243    2.9517 H   0  0  0  0  0  0  0  0  0  0  0  0
   -0.0294   -4.4803    2.8470 H   0  0  0  0  0  0  0  0  0  0  0  0
   -0.4616   -1.0893    0.5050 N   0  0  0  0  0  0  0  0  0  0  0  0
   -0.0884    0.2050   -0.0621 C   0  0  2  0  0  0  0  0  0  0  0  0
    1.3171    0.0682   -0.6408 C   0  0  0  0  0  0  0  0  0  0  0  0
    1.6037   -0.7419   -1.5200 O   0  0  0  0  0  0  0  0  0  0  0  0
   -0.1014    1.3259    0.9881 C   0  0  0  0  0  0  0  0  0  0  0  0
   -1.5057    1.6642    1.4990 C   0  0  0  0  0  0  0  0  0  0  0  0
   -1.4636    2.8018    2.5229 C   0  0  0  0  0  0  0  0  0  0  0  0
   -2.8612    3.1221    3.0503 C   0  0  0  0  0  0  0  0  0  0  0  0
   -2.7962    4.1906    4.0402 N   0  0  0  0  0  0  0  0  0  0  0  0
   -1.2794   -1.1113    1.0935 H   0  0  0  0  0  0  0  0  0  0  0  0
   -0.7875    0.4452   -0.8721 H   0  0  0  0  0  0  0  0  0  0  0  0
    0.3445    2.2304    0.5537 H   0  0  0  0  0  0  0  0  0  0  0  0
    0.5415    1.0516    1.8355 H   0  0  0  0  0  0  0  0  0  0  0  0
   -1.9617    0.7823    1.9629 H   0  0  0  0  0  0  0  0  0  0  0  0
   -2.1425    1.9549    0.6549 H   0  0  0  0  0  0  0  0  0  0  0  0
   -0.8071    2.5185    3.3553 H   0  0  0  0  0  0  0  0  0  0  0  0
   -1.0288    3.6960    2.0585 H   0  0  0  0  0  0  0  0  0  0  0  0
   -3.3076    2.2317    3.5064 H   0  0  0  0  0  0  0  0  0  0  0  0
   -3.5115    3.4371    2.2273 H   0  0  0  0  0  0  0  0  0  0  0  0
   -1.8447    4.4497    4.1590 H   0  0  0  0  0  0  0  0  0  0  0  0
   -3.3281    4.9597    3.7051 H   0  0  0  0  0  0  0  0  0  0  0  0
    2.2154    0.9416   -0.0433 N   0  0  0  0  0  0  0  0  0  0  0  0
    3.6164    0.9994   -0.3932 C   0  0  2  0  0  0  0  0  0  0  0  0
    4.3986    1.3756    0.8582 C   0  0  0  0  0  0  0  0  0  0  0  0
    3.9595    2.1329    1.7213 O   0  0  0  0  0  0  0  0  0  0  0  0
    3.8666    1.9990   -1.5116 C   0  0  0  0  0  0  0  0  0  0  0  0
    1.8849    1.5839    0.6707 H   0  0  0  0  0  0  0  0  0  0  0  0
    3.9038   -0.0075   -0.7152 H   0  0  0  0  0  0  0  0  0  0  0  0
    3.5846    3.0136   -1.2075 H   0  0  0  0  0  0  0  0  0  0  0  0
    4.9241    2.0208   -1.7951 H   0  0  0  0  0  0  0  0  0  0  0  0
    3.2804    1.7436   -2.4010 H   0  0  0  0  0  0  0  0  0  0  0  0
    5.6616    0.8006    0.8769 N   0  0  0  0  0  0  0  0  0  0  0  0
    6.6114    1.0394    1.9384 C   0  0  0  0  0  0  0  0  0  0  0  0
    5.9271    0.1539    0.1399 H   0  0  0  0  0  0  0  0  0  0  0  0
    7.2607    1.8847    1.6667 H   0  0  0  0  0  0  0  0  0  0  0  0
    6.0714    1.2757    2.8671 H   0  0  0  0  0  0  0  0  0  0  0  0
    7.2255    0.1395    2.0901 H   0  0  0  0  0  0  0  0  0  0  0  0
  1  3  1  0  0  0  0
  1  7  1  0  0  0  0
  1  2  2  0  0  0  0
 39 40  1  0  0  0  0
 40 48  1  0  0  0  0
 40 41  2  0  0  0  0
  8  9  1  0  0  0  0
  9 17  1  0  0  0  0
  9 10  2  0  0  0  0
 18 19  1  0  0  0  0
 19 38  1  0  0  0  0
 19 20  2  0  0  0  0
 39 42  1  0  0  0  0
  8 11  1  0  0  0  0
 48 49  1  0  0  0  0
 22 23  1  0  0  0  0
 21 22  1  0  0  0  0
 23 24  1  0  0  0  0
 18 21  1  0  0  0  0
 24 25  1  0  0  0  0
 38 39  1  0  0  0  0
  7  8  1  0  0  0  0
 17 18  1  0  0  0  0
  3  4  1  0  0  0  0
  3  5  1  0  0  0  0
  3  6  1  0  0  0  0
 42 45  1  0  0  0  0
 42 46  1  0  0  0  0
 42 47  1  0  0  0  0
 11 14  1  0  0  0  0
 11 15  1  0  0  0  0
 11 16  1  0  0  0  0
 49 51  1  0  0  0  0
 49 52  1  0  0  0  0
 49 53  1  0  0  0  0
 22 30  1  0  0  0  0
 22 31  1  0  0  0  0
 23 32  1  0  0  0  0
 23 33  1  0  0  0  0
 21 28  1  0  0  0  0
 21 29  1  0  0  0  0
 24 34  1  0  0  0  0
 24 35  1  0  0  0  0
 39 44  1  0  0  0  0
  8 13  1  0  0  0  0
 18 27  1  0  0  0  0
 25 36  1  0  0  0  0
 25 37  1  0  0  0  0
 48 50  1  0  0  0  0
  7 12  1  0  0  0  0
 38 43  1  0  0  0  0
 17 26  1  0  0  0  0
M  END
$$$$

  -OEChem-05262214473D

 53 52  0     1  0  0  0  0  0999 V2000
   -1.0338   -5.6785    0.1476 C   0  0  0  0  0  0  0  0  0  0  0  0
   -2.0514   -5.7797    0.8227 O   0  0  0  0  0  0  0  0  0  0  0  0
   -0.6558   -6.7819   -0.7841 C   0  0  0  0  0  0  0  0  0  0  0  0
   -0.0111   -7.5354   -0.3038 H   0  0  0  0  0  0  0  0  0  0  0  0
   -1.5317   -7.3401   -1.1520 H   0  0  0  0  0  0  0  0  0  0  0  0
   -0.1109   -6.4687   -1.6890 H   0  0  0  0  0  0  0  0  0  0  0  0
   -0.1543   -4.6083    0.1480 N   0  0  0  0  0  0  0  0  0  0  0  0
   -0.3302   -3.4398    0.9696 C   0  0  2  0  0  0  0  0  0  0  0  0
    0.2328   -2.2439    0.2131 C   0  0  0  0  0  0  0  0  0  0  0  0
    1.2097   -2.3192   -0.5294 O   0  0  0  0  0  0  0  0  0  0  0  0
    0.3557   -3.6024    2.3171 C   0  0  0  0  0  0  0  0  0  0  0  0
    0.6584   -4.6506   -0.4643 H   0  0  0  0  0  0  0  0  0  0  0  0
   -1.4091   -3.3101    1.1082 H   0  0  0  0  0  0  0  0  0  0  0  0
    1.4375   -3.7336    2.1985 H   0  0  0  0  0  0  0  0  0  0  0  0
    0.1969   -2.7243    2.9517 H   0  0  0  0  0  0  0  0  0  0  0  0
   -0.0294   -4.4803    2.8470 H   0  0  0  0  0  0  0  0  0  0  0  0
   -0.4616   -1.0893    0.5050 N   0  0  0  0  0  0  0  0  0  0  0  0
   -0.0884    0.2050   -0.0621 C   0  0  2  0  0  0  0  0  0  0  0  0
    1.3171    0.0682   -0.6408 C   0  0  0  0  0  0  0  0  0  0  0  0
    1.5559   -0.5349   -1.6852 O   0  0  0  0  0  0  0  0  0  0  0  0
   -0.1014    1.3259    0.9881 C   0  0  0  0  0  0  0  0  0  0  0  0
   -1.5057    1.6642    1.4990 C   0  0  0  0  0  0  0  0  0  0  0  0
   -1.4636    2.8018    2.5229 C   0  0  0  0  0  0  0  0  0  0  0  0
   -2.8612    3.1221    3.0503 C   0  0  0  0  0  0  0  0  0  0  0  0
   -2.7962    4.1906    4.0402 N   0  0  0  0  0  0  0  0  0  0  0  0
   -1.2794   -1.1113    1.0935 H   0  0  0  0  0  0  0  0  0  0  0  0
   -0.7875    0.4452   -0.8721 H   0  0  0  0  0  0  0  0  0  0  0  0
    0.3445    2.2304    0.5537 H   0  0  0  0  0  0  0  0  0  0  0  0
    0.5415    1.0516    1.8355 H   0  0  0  0  0  0  0  0  0  0  0  0
   -1.9617    0.7823    1.9629 H   0  0  0  0  0  0  0  0  0  0  0  0
   -2.1425    1.9549    0.6549 H   0  0  0  0  0  0  0  0  0  0  0  0
   -0.8071    2.5185    3.3553 H   0  0  0  0  0  0  0  0  0  0  0  0
   -1.0288    3.6960    2.0585 H   0  0  0  0  0  0  0  0  0  0  0  0
   -3.3076    2.2317    3.5064 H   0  0  0  0  0  0  0  0  0  0  0  0
   -3.5115    3.4371    2.2273 H   0  0  0  0  0  0  0  0  0  0  0  0
   -1.8447    4.4497    4.1590 H   0  0  0  0  0  0  0  0  0  0  0  0
   -3.3281    4.9597    3.7051 H   0  0  0  0  0  0  0  0  0  0  0  0
    2.2730    0.6796    0.1587 N   0  0  0  0  0  0  0  0  0  0  0  0
    3.6846    0.6770   -0.1514 C   0  0  2  0  0  0  0  0  0  0  0  0
    4.4547    0.6648    1.1625 C   0  0  0  0  0  0  0  0  0  0  0  0
    4.0598    1.2360    2.1768 O   0  0  0  0  0  0  0  0  0  0  0  0
    4.0681    1.8829   -0.9949 C   0  0  0  0  0  0  0  0  0  0  0  0
    1.9804    1.1642    1.0019 H   0  0  0  0  0  0  0  0  0  0  0  0
    3.8858   -0.2484   -0.7019 H   0  0  0  0  0  0  0  0  0  0  0  0
    3.8736    2.8195   -0.4598 H   0  0  0  0  0  0  0  0  0  0  0  0
    5.1321    1.8645   -1.2529 H   0  0  0  0  0  0  0  0  0  0  0  0
    3.4917    1.9063   -1.9261 H   0  0  0  0  0  0  0  0  0  0  0  0
    5.6556   -0.0228    1.0572 N   0  0  0  0  0  0  0  0  0  0  0  0
    6.5860   -0.1397    2.1557 C   0  0  0  0  0  0  0  0  0  0  0  0
    5.8840   -0.4996    0.1899 H   0  0  0  0  0  0  0  0  0  0  0  0
    7.3221    0.6759    2.1018 H   0  0  0  0  0  0  0  0  0  0  0  0
    6.0387   -0.0771    3.1078 H   0  0  0  0  0  0  0  0  0  0  0  0
    7.1058   -1.1072    2.0944 H   0  0  0  0  0  0  0  0  0  0  0  0
  1  3  1  0  0  0  0
  1  7  1  0  0  0  0
  1  2  2  0  0  0  0
 39 40  1  0  0  0  0
 40 48  1  0  0  0  0
 40 41  2  0  0  0  0
  8  9  1  0  0  0  0
  9 17  1  0  0  0  0
  9 10  2  0  0  0  0
 18 19  1  0  0  0  0
 19 38  1  0  0  0  0
 19 20  2  0  0  0  0
 39 42  1  0  0  0  0
  8 11  1  0  0  0  0
 48 49  1  0  0  0  0
 22 23  1  0  0  0  0
 21 22  1  0  0  0  0
 23 24  1  0  0  0  0
 18 21  1  0  0  0  0
 24 25  1  0  0  0  0
 38 39  1  0  0  0  0
  7  8  1  0  0  0  0
 17 18  1  0  0  0  0
  3  4  1  0  0  0  0
  3  5  1  0  0  0  0
  3  6  1  0  0  0  0
 42 45  1  0  0  0  0
 42 46  1  0  0  0  0
 42 47  1  0  0  0  0
 11 14  1  0  0  0  0
 11 15  1  0  0  0  0
 11 16  1  0  0  0  0
 49 51  1  0  0  0  0
 49 52  1  0  0  0  0
 49 53  1  0  0  0  0
 22 30  1  0  0  0  0
 22 31  1  0  0  0  0
 23 32  1  0  0  0  0
 23 33  1  0  0  0  0
 21 28  1  0  0  0  0
 21 29  1  0  0  0  0
 24 34  1  0  0  0  0
 24 35  1  0  0  0  0
 39 44  1  0  0  0  0
  8 13  1  0  0  0  0
 18 27  1  0  0  0  0
 25 36  1  0  0  0  0
 25 37  1  0  0  0  0
 48 50  1  0  0  0  0
  7 12  1  0  0  0  0
 38 43  1  0  0  0  0
 17 26  1  0  0  0  0
M  END
$$$$

  -OEChem-05262214473D

 53 52  0     1  0  0  0  0  0999 V2000
   -1.0338   -5.6785    0.1476 C   0  0  0  0  0  0  0  0  0  0  0  0
   -2.0514   -5.7797    0.8227 O   0  0  0  0  0  0  0  0  0  0  0  0
   -0.6558   -6.7819   -0.7841 C   0  0  0  0  0  0  0  0  0  0  0  0
   -0.0111   -7.5354   -0.3038 H   0  0  0  0  0  0  0  0  0  0  0  0
   -1.5317   -7.3401   -1.1520 H   0  0  0  0  0  0  0  0  0  0  0  0
   -0.1109   -6.4687   -1.6890 H   0  0  0  0  0  0  0  0  0  0  0  0
   -0.1543   -4.6083    0.1480 N   0  0  0  0  0  0  0  0  0  0  0  0
   -0.3302   -3.4398    0.9696 C   0  0  2  0  0  0  0  0  0  0  0  0
    0.2328   -2.2439    0.2131 C   0  0  0  0  0  0  0  0  0  0  0  0
    1.2097   -2.3192   -0.5294 O   0  0  0  0  0  0  0  0  0  0  0  0
    0.3557   -3.6024    2.3171 C   0  0  0  0  0  0  0  0  0  0  0  0
    0.6584   -4.6506   -0.4643 H   0  0  0  0  0  0  0  0  0  0  0  0
   -1.4091   -3.3101    1.1082 H   0  0  0  0  0  0  0  0  0  0  0  0
    1.4375   -3.7336    2.1985 H   0  0  0  0  0  0  0  0  0  0  0  0
    0.1969   -2.7243    2.9517 H   0  0  0  0  0  0  0  0  0  0  0  0
   -0.0294   -4.4803    2.8470 H   0  0  0  0  0  0  0  0  0  0  0  0
   -0.4616   -1.0893    0.5050 N   0  0  0  0  0  0  0  0  0  0  0  0
   -0.0884    0.2050   -0.0621 C   0  0  2  0  0  0  0  0  0  0  0  0
    1.3171    0.0682   -0.6408 C   0  0  0  0  0  0  0  0  0  0  0  0
    1.5338   -0.2909   -1.7964 O   0  0  0  0  0  0  0  0  0  0  0  0
   -0.1014    1.3259    0.9881 C   0  0  0  0  0  0  0  0  0  0  0  0
   -1.5057    1.6642    1.4990 C   0  0  0  0  0  0  0  0  0  0  0  0
   -1.4636    2.8018    2.5229 C   0  0  0  0  0  0  0  0  0  0  0  0
   -2.8612    3.1221    3.0503 C   0  0  0  0  0  0  0  0  0  0  0  0
   -2.7962    4.1906    4.0402 N   0  0  0  0  0  0  0  0  0  0  0  0
   -1.2794   -1.1113    1.0935 H   0  0  0  0  0  0  0  0  0  0  0  0
   -0.7875    0.4452   -0.8721 H   0  0  0  0  0  0  0  0  0  0  0  0
    0.3445    2.2304    0.5537 H   0  0  0  0  0  0  0  0  0  0  0  0
    0.5415    1.0516    1.8355 H   0  0  0  0  0  0  0  0  0  0  0  0
   -1.9617    0.7823    1.9629 H   0  0  0  0  0  0  0  0  0  0  0  0
   -2.1425    1.9549    0.6549 H   0  0  0  0  0  0  0  0  0  0  0  0
   -0.8071    2.5185    3.3553 H   0  0  0  0  0  0  0  0  0  0  0  0
   -1.0288    3.6960    2.0585 H   0  0  0  0  0  0  0  0  0  0  0  0
   -3.3076    2.2317    3.5064 H   0  0  0  0  0  0  0  0  0  0  0  0
   -3.5115    3.4371    2.2273 H   0  0  0  0  0  0  0  0  0  0  0  0
   -1.8447    4.4497    4.1590 H   0  0  0  0  0  0  0  0  0  0  0  0
   -3.3281    4.9597    3.7051 H   0  0  0  0  0  0  0  0  0  0  0  0
    2.2983    0.3728    0.2926 N   0  0  0  0  0  0  0  0  0  0  0  0
    3.7132    0.3013    0.0070 C   0  0  2  0  0  0  0  0  0  0  0  0
    4.4320   -0.0999    1.2883 C   0  0  0  0  0  0  0  0  0  0  0  0
    4.0580    0.2513    2.4054 O   0  0  0  0  0  0  0  0  0  0  0  0
    4.2393    1.6278   -0.5188 C   0  0  0  0  0  0  0  0  0  0  0  0
    2.0238    0.6705    1.2241 H   0  0  0  0  0  0  0  0  0  0  0  0
    3.8445   -0.4825   -0.7469 H   0  0  0  0  0  0  0  0  0  0  0  0
    4.1163    2.4255    0.2229 H   0  0  0  0  0  0  0  0  0  0  0  0
    5.3051    1.5638   -0.7616 H   0  0  0  0  0  0  0  0  0  0  0  0
    3.7008    1.9295   -1.4237 H   0  0  0  0  0  0  0  0  0  0  0  0
    5.5649   -0.8605    1.0350 N   0  0  0  0  0  0  0  0  0  0  0  0
    6.4407   -1.3279    2.0839 C   0  0  0  0  0  0  0  0  0  0  0  0
    5.7771   -1.1385    0.0813 H   0  0  0  0  0  0  0  0  0  0  0  0
    7.2527   -0.6014    2.2353 H   0  0  0  0  0  0  0  0  0  0  0  0
    5.8688   -1.4381    3.0171 H   0  0  0  0  0  0  0  0  0  0  0  0
    6.8678   -2.3007    1.7986 H   0  0  0  0  0  0  0  0  0  0  0  0
  1  3  1  0  0  0  0
  1  7  1  0  0  0  0
  1  2  2  0  0  0  0
 39 40  1  0  0  0  0
 40 48  1  0  0  0  0
 40 41  2  0  0  0  0
  8  9  1  0  0  0  0
  9 17  1  0  0  0  0
  9 10  2  0  0  0  0
 18 19  1  0  0  0  0
 19 38  1  0  0  0  0
 19 20  2  0  0  0  0
 39 42  1  0  0  0  0
  8 11  1  0  0  0  0
 48 49  1  0  0  0  0
 22 23  1  0  0  0  0
 21 22  1  0  0  0  0
 23 24  1  0  0  0  0
 18 21  1  0  0  0  0
 24 25  1  0  0  0  0
 38 39  1  0  0  0  0
  7  8  1  0  0  0  0
 17 18  1  0  0  0  0
  3  4  1  0  0  0  0
  3  5  1  0  0  0  0
  3  6  1  0  0  0  0
 42 45  1  0  0  0  0
 42 46  1  0  0  0  0
 42 47  1  0  0  0  0
 11 14  1  0  0  0  0
 11 15  1  0  0  0  0
 11 16  1  0  0  0  0
 49 51  1  0  0  0  0
 49 52  1  0  0  0  0
 49 53  1  0  0  0  0
 22 30  1  0  0  0  0
 22 31  1  0  0  0  0
 23 32  1  0  0  0  0
 23 33  1  0  0  0  0
 21 28  1  0  0  0  0
 21 29  1  0  0  0  0
 24 34  1  0  0  0  0
 24 35  1  0  0  0  0
 39 44  1  0  0  0  0
  8 13  1  0  0  0  0
 18 27  1  0  0  0  0
 25 36  1  0  0  0  0
 25 37  1  0  0  0  0
 48 50  1  0  0  0  0
  7 12  1  0  0  0  0
 38 43  1  0  0  0  0
 17 26  1  0  0  0  0
M  END
$$$$

  -OEChem-05262214473D

 53 52  0     1  0  0  0  0  0999 V2000
   -1.0338   -5.6785    0.1476 C   0  0  0  0  0  0  0  0  0  0  0  0
   -2.0514   -5.7797    0.8227 O   0  0  0  0  0  0  0  0  0  0  0  0
   -0.6558   -6.7819   -0.7841 C   0  0  0  0  0  0  0  0  0  0  0  0
   -0.0111   -7.5354   -0.3038 H   0  0  0  0  0  0  0  0  0  0  0  0
   -1.5317   -7.3401   -1.1520 H   0  0  0  0  0  0  0  0  0  0  0  0
   -0.1109   -6.4687   -1.6890 H   0  0  0  0  0  0  0  0  0  0  0  0
   -0.1543   -4.6083    0.1480 N   0  0  0  0  0  0  0  0  0  0  0  0
   -0.3302   -3.4398    0.9696 C   0  0  2  0  0  0  0  0  0  0  0  0
    0.2328   -2.2439    0.2131 C   0  0  0  0  0  0  0  0  0  0  0  0
    1.2097   -2.3192   -0.5294 O   0  0  0  0  0  0  0  0  0  0  0  0
    0.3557   -3.6024    2.3171 C   0  0  0  0  0  0  0  0  0  0  0  0
    0.6584   -4.6506   -0.4643 H   0  0  0  0  0  0  0  0  0  0  0  0
   -1.4091   -3.3101    1.1082 H   0  0  0  0  0  0  0  0  0  0  0  0
    1.4375   -3.7336    2.1985 H   0  0  0  0  0  0  0  0  0  0  0  0
    0.1969   -2.7243    2.9517 H   0  0  0  0  0  0  0  0  0  0  0  0
   -0.0294   -4.4803    2.8470 H   0  0  0  0  0  0  0  0  0  0  0  0
   -0.4616   -1.0893    0.5050 N   0  0  0  0  0  0  0  0  0  0  0  0
   -0.0884    0.2050   -0.0621 C   0  0  2  0  0  0  0  0  0  0  0  0
    1.3171    0.0682   -0.6408 C   0  0  0  0  0  0  0  0  0  0  0  0
    1.5390   -0.0265   -1.8463 O   0  0  0  0  0  0  0  0  0  0  0  0
   -0.1014    1.3259    0.9881 C   0  0  0  0  0  0  0  0  0  0  0  0
   -1.5057    1.6642    1.4990 C   0  0  0  0  0  0  0  0  0  0  0  0
   -1.4636    2.8018    2.5229 C   0  0  0  0  0  0  0  0  0  0  0  0
   -2.8612    3.1221    3.0503 C   0  0  0  0  0  0  0  0  0  0  0  0
   -2.7962    4.1906    4.0402 N   0  0  0  0  0  0  0  0  0  0  0  0
   -1.2794   -1.1113    1.0935 H   0  0  0  0  0  0  0  0  0  0  0  0
   -0.7875    0.4452   -0.8721 H   0  0  0  0  0  0  0  0  0  0  0  0
    0.3445    2.2304    0.5537 H   0  0  0  0  0  0  0  0  0  0  0  0
    0.5415    1.0516    1.8355 H   0  0  0  0  0  0  0  0  0  0  0  0
   -1.9617    0.7823    1.9629 H   0  0  0  0  0  0  0  0  0  0  0  0
   -2.1425    1.9549    0.6549 H   0  0  0  0  0  0  0  0  0  0  0  0
   -0.8071    2.5185    3.3553 H   0  0  0  0  0  0  0  0  0  0  0  0
   -1.0288    3.6960    2.0585 H   0  0  0  0  0  0  0  0  0  0  0  0
   -3.3076    2.2317    3.5064 H   0  0  0  0  0  0  0  0  0  0  0  0
   -3.5115    3.4371    2.2273 H   0  0  0  0  0  0  0  0  0  0  0  0
   -1.8447    4.4497    4.1590 H   0  0  0  0  0  0  0  0  0  0  0  0
   -3.3281    4.9597    3.7051 H   0  0  0  0  0  0  0  0  0  0  0  0
    2.2894    0.0421    0.3495 N   0  0  0  0  0  0  0  0  0  0  0  0
    3.7003   -0.1021    0.0710 C   0  0  2  0  0  0  0  0  0  0  0  0
    4.3321   -0.8663    1.2270 C   0  0  0  0  0  0  0  0  0  0  0  0
    3.9543   -0.7542    2.3914 O   0  0  0  0  0  0  0  0  0  0  0  0
    4.3685    1.2511   -0.1157 C   0  0  0  0  0  0  0  0  0  0  0  0
    2.0121    0.1365    1.3219 H   0  0  0  0  0  0  0  0  0  0  0  0
    3.7826   -0.6939   -0.8471 H   0  0  0  0  0  0  0  0  0  0  0  0
    4.2962    1.8584    0.7940 H   0  0  0  0  0  0  0  0  0  0  0  0
    5.4313    1.1393   -0.3547 H   0  0  0  0  0  0  0  0  0  0  0  0
    3.8934    1.8116   -0.9281 H   0  0  0  0  0  0  0  0  0  0  0  0
    5.3955   -1.6555    0.8117 N   0  0  0  0  0  0  0  0  0  0  0  0
    6.1855   -2.4443    1.7280 C   0  0  0  0  0  0  0  0  0  0  0  0
    5.6136   -1.7193   -0.1783 H   0  0  0  0  0  0  0  0  0  0  0  0
    7.0572   -1.8602    2.0582 H   0  0  0  0  0  0  0  0  0  0  0  0
    5.5732   -2.7144    2.6011 H   0  0  0  0  0  0  0  0  0  0  0  0
    6.5276   -3.3596    1.2228 H   0  0  0  0  0  0  0  0  0  0  0  0
  1  3  1  0  0  0  0
  1  7  1  0  0  0  0
  1  2  2  0  0  0  0
 39 40  1  0  0  0  0
 40 48  1  0  0  0  0
 40 41  2  0  0  0  0
  8  9  1  0  0  0  0
  9 17  1  0  0  0  0
  9 10  2  0  0  0  0
 18 19  1  0  0  0  0
 19 38  1  0  0  0  0
 19 20  2  0  0  0  0
 39 42  1  0  0  0  0
  8 11  1  0  0  0  0
 48 49  1  0  0  0  0
 22 23  1  0  0  0  0
 21 22  1  0  0  0  0
 23 24  1  0  0  0  0
 18 21  1  0  0  0  0
 24 25  1  0  0  0  0
 38 39  1  0  0  0  0
  7  8  1  0  0  0  0
 17 18  1  0  0  0  0
  3  4  1  0  0  0  0
  3  5  1  0  0  0  0
  3  6  1  0  0  0  0
 42 45  1  0  0  0  0
 42 46  1  0  0  0  0
 42 47  1  0  0  0  0
 11 14  1  0  0  0  0
 11 15  1  0  0  0  0
 11 16  1  0  0  0  0
 49 51  1  0  0  0  0
 49 52  1  0  0  0  0
 49 53  1  0  0  0  0
 22 30  1  0  0  0  0
 22 31  1  0  0  0  0
 23 32  1  0  0  0  0
 23 33  1  0  0  0  0
 21 28  1  0  0  0  0
 21 29  1  0  0  0  0
 24 34  1  0  0  0  0
 24 35  1  0  0  0  0
 39 44  1  0  0  0  0
  8 13  1  0  0  0  0
 18 27  1  0  0  0  0
 25 36  1  0  0  0  0
 25 37  1  0  0  0  0
 48 50  1  0  0  0  0
  7 12  1  0  0  0  0
 38 43  1  0  0  0  0
 17 26  1  0  0  0  0
M  END
$$$$

  -OEChem-05262214473D

 53 52  0     1  0  0  0  0  0999 V2000
   -1.0338   -5.6785    0.1476 C   0  0  0  0  0  0  0  0  0  0  0  0
   -2.0514   -5.7797    0.8227 O   0  0  0  0  0  0  0  0  0  0  0  0
   -0.6558   -6.7819   -0.7841 C   0  0  0  0  0  0  0  0  0  0  0  0
   -0.0111   -7.5354   -0.3038 H   0  0  0  0  0  0  0  0  0  0  0  0
   -1.5317   -7.3401   -1.1520 H   0  0  0  0  0  0  0  0  0  0  0  0
   -0.1109   -6.4687   -1.6890 H   0  0  0  0  0  0  0  0  0  0  0  0
   -0.1543   -4.6083    0.1480 N   0  0  0  0  0  0  0  0  0  0  0  0
   -0.3302   -3.4398    0.9696 C   0  0  2  0  0  0  0  0  0  0  0  0
    0.2328   -2.2439    0.2131 C   0  0  0  0  0  0  0  0  0  0  0  0
    1.2097   -2.3192   -0.5294 O   0  0  0  0  0  0  0  0  0  0  0  0
    0.3557   -3.6024    2.3171 C   0  0  0  0  0  0  0  0  0  0  0  0
    0.6584   -4.6506   -0.4643 H   0  0  0  0  0  0  0  0  0  0  0  0
   -1.4091   -3.3101    1.1082 H   0  0  0  0  0  0  0  0  0  0  0  0
    1.4375   -3.7336    2.1985 H   0  0  0  0  0  0  0  0  0  0  0  0
    0.1969   -2.7243    2.9517 H   0  0  0  0  0  0  0  0  0  0  0  0
   -0.0294   -4.4803    2.8470 H   0  0  0  0  0  0  0  0  0  0  0  0
   -0.4616   -1.0893    0.5050 N   0  0  0  0  0  0  0  0  0  0  0  0
   -0.0884    0.2050   -0.0621 C   0  0  2  0  0  0  0  0  0  0  0  0
    1.3171    0.0682   -0.6408 C   0  0  0  0  0  0  0  0  0  0  0  0
    1.5712    0.2402   -1.8313 O   0  0  0  0  0  0  0  0  0  0  0  0
   -0.1014    1.3259    0.9881 C   0  0  0  0  0  0  0  0  0  0  0  0
   -1.5057    1.6642    1.4990 C   0  0  0  0  0  0  0  0  0  0  0  0
   -1.4636    2.8018    2.5229 C   0  0  0  0  0  0  0  0  0  0  0  0
   -2.8612    3.1221    3.0503 C   0  0  0  0  0  0  0  0  0  0  0  0
   -2.7962    4.1906    4.0402 N   0  0  0  0  0  0  0  0  0  0  0  0
   -1.2794   -1.1113    1.0935 H   0  0  0  0  0  0  0  0  0  0  0  0
   -0.7875    0.4452   -0.8721 H   0  0  0  0  0  0  0  0  0  0  0  0
    0.3445    2.2304    0.5537 H   0  0  0  0  0  0  0  0  0  0  0  0
    0.5415    1.0516    1.8355 H   0  0  0  0  0  0  0  0  0  0  0  0
   -1.9617    0.7823    1.9629 H   0  0  0  0  0  0  0  0  0  0  0  0
   -2.1425    1.9549    0.6549 H   0  0  0  0  0  0  0  0  0  0  0  0
   -0.8071    2.5185    3.3553 H   0  0  0  0  0  0  0  0  0  0  0  0
   -1.0288    3.6960    2.0585 H   0  0  0  0  0  0  0  0  0  0  0  0
   -3.3076    2.2317    3.5064 H   0  0  0  0  0  0  0  0  0  0  0  0
   -3.5115    3.4371    2.2273 H   0  0  0  0  0  0  0  0  0  0  0  0
   -1.8447    4.4497    4.1590 H   0  0  0  0  0  0  0  0  0  0  0  0
   -3.3281    4.9597    3.7051 H   0  0  0  0  0  0  0  0  0  0  0  0
    2.2472   -0.2901    0.3253 N   0  0  0  0  0  0  0  0  0  0  0  0
    3.6467   -0.5058    0.0365 C   0  0  2  0  0  0  0  0  0  0  0  0
    4.1618   -1.5822    0.9828 C   0  0  0  0  0  0  0  0  0  0  0  0
    3.7558   -1.7119    2.1358 O   0  0  0  0  0  0  0  0  0  0  0  0
    4.4471    0.7785    0.1869 C   0  0  0  0  0  0  0  0  0  0  0  0
    1.9461   -0.4016    1.2889 H   0  0  0  0  0  0  0  0  0  0  0  0
    3.7044   -0.8681   -0.9957 H   0  0  0  0  0  0  0  0  0  0  0  0
    4.4011    1.1568    1.2146 H   0  0  0  0  0  0  0  0  0  0  0  0
    5.5020    0.6198   -0.0600 H   0  0  0  0  0  0  0  0  0  0  0  0
    4.0564    1.5607   -0.4729 H   0  0  0  0  0  0  0  0  0  0  0  0
    5.1591   -2.3535    0.4026 N   0  0  0  0  0  0  0  0  0  0  0  0
    5.8376   -3.4128    1.1122 C   0  0  0  0  0  0  0  0  0  0  0  0
    5.4047   -2.2024   -0.5713 H   0  0  0  0  0  0  0  0  0  0  0  0
    6.7489   -3.0148    1.5825 H   0  0  0  0  0  0  0  0  0  0  0  0
    5.1721   -3.8190    1.8882 H   0  0  0  0  0  0  0  0  0  0  0  0
    6.1084   -4.2119    0.4064 H   0  0  0  0  0  0  0  0  0  0  0  0
  1  3  1  0  0  0  0
  1  7  1  0  0  0  0
  1  2  2  0  0  0  0
 39 40  1  0  0  0  0
 40 48  1  0  0  0  0
 40 41  2  0  0  0  0
  8  9  1  0  0  0  0
  9 17  1  0  0  0  0
  9 10  2  0  0  0  0
 18 19  1  0  0  0  0
 19 38  1  0  0  0  0
 19 20  2  0  0  0  0
 39 42  1  0  0  0  0
  8 11  1  0  0  0  0
 48 49  1  0  0  0  0
 22 23  1  0  0  0  0
 21 22  1  0  0  0  0
 23 24  1  0  0  0  0
 18 21  1  0  0  0  0
 24 25  1  0  0  0  0
 38 39  1  0  0  0  0
  7  8  1  0  0  0  0
 17 18  1  0  0  0  0
  3  4  1  0  0  0  0
  3  5  1  0  0  0  0
  3  6  1  0  0  0  0
 42 45  1  0  0  0  0
 42 46  1  0  0  0  0
 42 47  1  0  0  0  0
 11 14  1  0  0  0  0
 11 15  1  0  0  0  0
 11 16  1  0  0  0  0
 49 51  1  0  0  0  0
 49 52  1  0  0  0  0
 49 53  1  0  0  0  0
 22 30  1  0  0  0  0
 22 31  1  0  0  0  0
 23 32  1  0  0  0  0
 23 33  1  0  0  0  0
 21 28  1  0  0  0  0
 21 29  1  0  0  0  0
 24 34  1  0  0  0  0
 24 35  1  0  0  0  0
 39 44  1  0  0  0  0
  8 13  1  0  0  0  0
 18 27  1  0  0  0  0
 25 36  1  0  0  0  0
 25 37  1  0  0  0  0
 48 50  1  0  0  0  0
  7 12  1  0  0  0  0
 38 43  1  0  0  0  0
 17 26  1  0  0  0  0
M  END
$$$$

  -OEChem-05262214473D

 53 52  0     1  0  0  0  0  0999 V2000
   -1.0338   -5.6785    0.1476 C   0  0  0  0  0  0  0  0  0  0  0  0
   -2.0514   -5.7797    0.8227 O   0  0  0  0  0  0  0  0  0  0  0  0
   -0.6558   -6.7819   -0.7841 C   0  0  0  0  0  0  0  0  0  0  0  0
   -0.0111   -7.5354   -0.3038 H   0  0  0  0  0  0  0  0  0  0  0  0
   -1.5317   -7.3401   -1.1520 H   0  0  0  0  0  0  0  0  0  0  0  0
   -0.1109   -6.4687   -1.6890 H   0  0  0  0  0  0  0  0  0  0  0  0
   -0.1543   -4.6083    0.1480 N   0  0  0  0  0  0  0  0  0  0  0  0
   -0.3302   -3.4398    0.9696 C   0  0  2  0  0  0  0  0  0  0  0  0
    0.2328   -2.2439    0.2131 C   0  0  0  0  0  0  0  0  0  0  0  0
    1.2097   -2.3192   -0.5294 O   0  0  0  0  0  0  0  0  0  0  0  0
    0.3557   -3.6024    2.3171 C   0  0  0  0  0  0  0  0  0  0  0  0
    0.6584   -4.6506   -0.4643 H   0  0  0  0  0  0  0  0  0  0  0  0
   -1.4091   -3.3101    1.1082 H   0  0  0  0  0  0  0  0  0  0  0  0
    1.4375   -3.7336    2.1985 H   0  0  0  0  0  0  0  0  0  0  0  0
    0.1969   -2.7243    2.9517 H   0  0  0  0  0  0  0  0  0  0  0  0
   -0.0294   -4.4803    2.8470 H   0  0  0  0  0  0  0  0  0  0  0  0
   -0.4616   -1.0893    0.5050 N   0  0  0  0  0  0  0  0  0  0  0  0
   -0.0884    0.2050   -0.0621 C   0  0  2  0  0  0  0  0  0  0  0  0
    1.3171    0.0682   -0.6408 C   0  0  0  0  0  0  0  0  0  0  0  0
    1.6281    0.4911   -1.7524 O   0  0  0  0  0  0  0  0  0  0  0  0
   -0.1014    1.3259    0.9881 C   0  0  0  0  0  0  0  0  0  0  0  0
   -1.5057    1.6642    1.4990 C   0  0  0  0  0  0  0  0  0  0  0  0
   -1.4636    2.8018    2.5229 C   0  0  0  0  0  0  0  0  0  0  0  0
   -2.8612    3.1221    3.0503 C   0  0  0  0  0  0  0  0  0  0  0  0
   -2.7962    4.1906    4.0402 N   0  0  0  0  0  0  0  0  0  0  0  0
   -1.2794   -1.1113    1.0935 H   0  0  0  0  0  0  0  0  0  0  0  0
   -0.7875    0.4452   -0.8721 H   0  0  0  0  0  0  0  0  0  0  0  0
    0.3445    2.2304    0.5537 H   0  0  0  0  0  0  0  0  0  0  0  0
    0.5415    1.0516    1.8355 H   0  0  0  0  0  0  0  0  0  0  0  0
   -1.9617    0.7823    1.9629 H   0  0  0  0  0  0  0  0  0  0  0  0
   -2.1425    1.9549    0.6549 H   0  0  0  0  0  0  0  0  0  0  0  0
   -0.8071    2.5185    3.3553 H   0  0  0  0  0  0  0  0  0  0  0  0
   -1.0288    3.6960    2.0585 H   0  0  0  0  0  0  0  0  0  0  0  0
   -3.3076    2.2317    3.5064 H   0  0  0  0  0  0  0  0  0  0  0  0
   -3.5115    3.4371    2.2273 H   0  0  0  0  0  0  0  0  0  0  0  0
   -1.8447    4.4497    4.1590 H   0  0  0  0  0  0  0  0  0  0  0  0
   -3.3281    4.9597    3.7051 H   0  0  0  0  0  0  0  0  0  0  0  0
    2.1743   -0.6011    0.2218 N   0  0  0  0  0  0  0  0  0  0  0  0
    3.5562   -0.8822   -0.0944 C   0  0  2  0  0  0  0  0  0  0  0  0
    3.9328   -2.1987    0.5724 C   0  0  0  0  0  0  0  0  0  0  0  0
    3.4759   -2.5565    1.6561 O   0  0  0  0  0  0  0  0  0  0  0  0
    4.4695    0.2422    0.3683 C   0  0  0  0  0  0  0  0  0  0  0  0
    1.8303   -0.9069    1.1272 H   0  0  0  0  0  0  0  0  0  0  0  0
    3.6153   -0.9933   -1.1826 H   0  0  0  0  0  0  0  0  0  0  0  0
    4.4237    0.3685    1.4561 H   0  0  0  0  0  0  0  0  0  0  0  0
    5.5126    0.0409    0.1026 H   0  0  0  0  0  0  0  0  0  0  0  0
    4.1786    1.1939   -0.0893 H   0  0  0  0  0  0  0  0  0  0  0  0
    4.8717   -2.9070   -0.1644 N   0  0  0  0  0  0  0  0  0  0  0  0
    5.4208   -4.1673    0.2785 C   0  0  0  0  0  0  0  0  0  0  0  0
    5.1647   -2.5548   -1.0709 H   0  0  0  0  0  0  0  0  0  0  0  0
    6.3488   -3.9863    0.8407 H   0  0  0  0  0  0  0  0  0  0  0  0
    4.6928   -4.6767    0.9270 H   0  0  0  0  0  0  0  0  0  0  0  0
    5.6388   -4.7993   -0.5951 H   0  0  0  0  0  0  0  0  0  0  0  0
  1  3  1  0  0  0  0
  1  7  1  0  0  0  0
  1  2  2  0  0  0  0
 39 40  1  0  0  0  0
 40 48  1  0  0  0  0
 40 41  2  0  0  0  0
  8  9  1  0  0  0  0
  9 17  1  0  0  0  0
  9 10  2  0  0  0  0
 18 19  1  0  0  0  0
 19 38  1  0  0  0  0
 19 20  2  0  0  0  0
 39 42  1  0  0  0  0
  8 11  1  0  0  0  0
 48 49  1  0  0  0  0
 22 23  1  0  0  0  0
 21 22  1  0  0  0  0
 23 24  1  0  0  0  0
 18 21  1  0  0  0  0
 24 25  1  0  0  0  0
 38 39  1  0  0  0  0
  7  8  1  0  0  0  0
 17 18  1  0  0  0  0
  3  4  1  0  0  0  0
  3  5  1  0  0  0  0
  3  6  1  0  0  0  0
 42 45  1  0  0  0  0
 42 46  1  0  0  0  0
 42 47  1  0  0  0  0
 11 14  1  0  0  0  0
 11 15  1  0  0  0  0
 11 16  1  0  0  0  0
 49 51  1  0  0  0  0
 49 52  1  0  0  0  0
 49 53  1  0  0  0  0
 22 30  1  0  0  0  0
 22 31  1  0  0  0  0
 23 32  1  0  0  0  0
 23 33  1  0  0  0  0
 21 28  1  0  0  0  0
 21 29  1  0  0  0  0
 24 34  1  0  0  0  0
 24 35  1  0  0  0  0
 39 44  1  0  0  0  0
  8 13  1  0  0  0  0
 18 27  1  0  0  0  0
 25 36  1  0  0  0  0
 25 37  1  0  0  0  0
 48 50  1  0  0  0  0
  7 12  1  0  0  0  0
 38 43  1  0  0  0  0
 17 26  1  0  0  0  0
M  END
$$$$

  -OEChem-05262214473D

 53 52  0     1  0  0  0  0  0999 V2000
   -1.0338   -5.6785    0.1476 C   0  0  0  0  0  0  0  0  0  0  0  0
   -2.0514   -5.7797    0.8227 O   0  0  0  0  0  0  0  0  0  0  0  0
   -0.6558   -6.7819   -0.7841 C   0  0  0  0  0  0  0  0  0  0  0  0
   -0.0111   -7.5354   -0.3038 H   0  0  0  0  0  0  0  0  0  0  0  0
   -1.5317   -7.3401   -1.1520 H   0  0  0  0  0  0  0  0  0  0  0  0
   -0.1109   -6.4687   -1.6890 H   0  0  0  0  0  0  0  0  0  0  0  0
   -0.1543   -4.6083    0.1480 N   0  0  0  0  0  0  0  0  0  0  0  0
   -0.3302   -3.4398    0.9696 C   0  0  2  0  0  0  0  0  0  0  0  0
    0.2328   -2.2439    0.2131 C   0  0  0  0  0  0  0  0  0  0  0  0
    1.2097   -2.3192   -0.5294 O   0  0  0  0  0  0  0  0  0  0  0  0
    0.3557   -3.6024    2.3171 C   0  0  0  0  0  0  0  0  0  0  0  0
    0.6584   -4.6506   -0.4643 H   0  0  0  0  0  0  0  0  0  0  0  0
   -1.4091   -3.3101    1.1082 H   0  0  0  0  0  0  0  0  0  0  0  0
    1.4375   -3.7336    2.1985 H   0  0  0  0  0  0  0  0  0  0  0  0
    0.1969   -2.7243    2.9517 H   0  0  0  0  0  0  0  0  0  0  0  0
   -0.0294   -4.4803    2.8470 H   0  0  0  0  0  0  0  0  0  0  0  0
   -0.4616   -1.0893    0.5050 N   0  0  0  0  0  0  0  0  0  0  0  0
   -0.0884    0.2050   -0.0621 C   0  0  2  0  0  0  0  0  0  0  0  0
    1.3171    0.0682   -0.6408 C   0  0  0  0  0  0  0  0  0  0  0  0
    1.7058    0.7091   -1.6152 O   0  0  0  0  0  0  0  0  0  0  0  0
   -0.1014    1.3259    0.9881 C   0  0  0  0  0  0  0  0  0  0  0  0
   -1.5057    1.6642    1.4990 C   0  0  0  0  0  0  0  0  0  0  0  0
   -1.4636    2.8018    2.5229 C   0  0  0  0  0  0  0  0  0  0  0  0
   -2.8612    3.1221    3.0503 C   0  0  0  0  0  0  0  0  0  0  0  0
   -2.7962    4.1906    4.0402 N   0  0  0  0  0  0  0  0  0  0  0  0
   -1.2794   -1.1113    1.0935 H   0  0  0  0  0  0  0  0  0  0  0  0
   -0.7875    0.4452   -0.8721 H   0  0  0  0  0  0  0  0  0  0  0  0
    0.3445    2.2304    0.5537 H   0  0  0  0  0  0  0  0  0  0  0  0
    0.5415    1.0516    1.8355 H   0  0  0  0  0  0  0  0  0  0  0  0
   -1.9617    0.7823    1.9629 H   0  0  0  0  0  0  0  0  0  0  0  0
   -2.1425    1.9549    0.6549 H   0  0  0  0  0  0  0  0  0  0  0  0
   -0.8071    2.5185    3.3553 H   0  0  0  0  0  0  0  0  0  0  0  0
   -1.0288    3.6960    2.0585 H   0  0  0  0  0  0  0  0  0  0  0  0
   -3.3076    2.2317    3.5064 H   0  0  0  0  0  0  0  0  0  0  0  0
   -3.5115    3.4371    2.2273 H   0  0  0  0  0  0  0  0  0  0  0  0
   -1.8447    4.4497    4.1590 H   0  0  0  0  0  0  0  0  0  0  0  0
   -3.3281    4.9597    3.7051 H   0  0  0  0  0  0  0  0  0  0  0  0
    2.0757   -0.8696    0.0461 N   0  0  0  0  0  0  0  0  0  0  0  0
    3.4348   -1.2058   -0.3126 C   0  0  2  0  0  0  0  0  0  0  0  0
    3.6605   -2.6739    0.0236 C   0  0  0  0  0  0  0  0  0  0  0  0
    3.1339   -3.2306    0.9848 O   0  0  0  0  0  0  0  0  0  0  0  0
    4.4344   -0.3213    0.4162 C   0  0  0  0  0  0  0  0  0  0  0  0
    1.6726   -1.3451    0.8479 H   0  0  0  0  0  0  0  0  0  0  0  0
    3.5213   -1.0610   -1.3950 H   0  0  0  0  0  0  0  0  0  0  0  0
    4.3626   -0.4527    1.5021 H   0  0  0  0  0  0  0  0  0  0  0  0
    5.4622   -0.5581    0.1219 H   0  0  0  0  0  0  0  0  0  0  0  0
    4.2518    0.7362    0.1966 H   0  0  0  0  0  0  0  0  0  0  0  0
    4.5530   -3.2783   -0.8506 N   0  0  0  0  0  0  0  0  0  0  0  0
    4.9635   -4.6565   -0.7164 C   0  0  0  0  0  0  0  0  0  0  0  0
    4.9099   -2.7526   -1.6431 H   0  0  0  0  0  0  0  0  0  0  0  0
    5.8842   -4.7087   -0.1167 H   0  0  0  0  0  0  0  0  0  0  0  0
    4.1680   -5.2290   -0.2170 H   0  0  0  0  0  0  0  0  0  0  0  0
    5.1509   -5.0820   -1.7133 H   0  0  0  0  0  0  0  0  0  0  0  0
  1  3  1  0  0  0  0
  1  7  1  0  0  0  0
  1  2  2  0  0  0  0
 39 40  1  0  0  0  0
 40 48  1  0  0  0  0
 40 41  2  0  0  0  0
  8  9  1  0  0  0  0
  9 17  1  0  0  0  0
  9 10  2  0  0  0  0
 18 19  1  0  0  0  0
 19 38  1  0  0  0  0
 19 20  2  0  0  0  0
 39 42  1  0  0  0  0
  8 11  1  0  0  0  0
 48 49  1  0  0  0  0
 22 23  1  0  0  0  0
 21 22  1  0  0  0  0
 23 24  1  0  0  0  0
 18 21  1  0  0  0  0
 24 25  1  0  0  0  0
 38 39  1  0  0  0  0
  7  8  1  0  0  0  0
 17 18  1  0  0  0  0
  3  4  1  0  0  0  0
  3  5  1  0  0  0  0
  3  6  1  0  0  0  0
 42 45  1  0  0  0  0
 42 46  1  0  0  0  0
 42 47  1  0  0  0  0
 11 14  1  0  0  0  0
 11 15  1  0  0  0  0
 11 16  1  0  0  0  0
 49 51  1  0  0  0  0
 49 52  1  0  0  0  0
 49 53  1  0  0  0  0
 22 30  1  0  0  0  0
 22 31  1  0  0  0  0
 23 32  1  0  0  0  0
 23 33  1  0  0  0  0
 21 28  1  0  0  0  0
 21 29  1  0  0  0  0
 24 34  1  0  0  0  0
 24 35  1  0  0  0  0
 39 44  1  0  0  0  0
  8 13  1  0  0  0  0
 18 27  1  0  0  0  0
 25 36  1  0  0  0  0
 25 37  1  0  0  0  0
 48 50  1  0  0  0  0
  7 12  1  0  0  0  0
 38 43  1  0  0  0  0
 17 26  1  0  0  0  0
M  END
$$$$

  -OEChem-05262214473D

 53 52  0     1  0  0  0  0  0999 V2000
   -1.0338   -5.6785    0.1476 C   0  0  0  0  0  0  0  0  0  0  0  0
   -2.0514   -5.7797    0.8227 O   0  0  0  0  0  0  0  0  0  0  0  0
   -0.6558   -6.7819   -0.7841 C   0  0  0  0  0  0  0  0  0  0  0  0
   -0.0111   -7.5354   -0.3038 H   0  0  0  0  0  0  0  0  0  0  0  0
   -1.5317   -7.3401   -1.1520 H   0  0  0  0  0  0  0  0  0  0  0  0
   -0.1109   -6.4687   -1.6890 H   0  0  0  0  0  0  0  0  0  0  0  0
   -0.1543   -4.6083    0.1480 N   0  0  0  0  0  0  0  0  0  0  0  0
   -0.3302   -3.4398    0.9696 C   0  0  2  0  0  0  0  0  0  0  0  0
    0.2328   -2.2439    0.2131 C   0  0  0  0  0  0  0  0  0  0  0  0
    1.2097   -2.3192   -0.5294 O   0  0  0  0  0  0  0  0  0  0  0  0
    0.3557   -3.6024    2.3171 C   0  0  0  0  0  0  0  0  0  0  0  0
    0.6584   -4.6506   -0.4643 H   0  0  0  0  0  0  0  0  0  0  0  0
   -1.4091   -3.3101    1.1082 H   0  0  0  0  0  0  0  0  0  0  0  0
    1.4375   -3.7336    2.1985 H   0  0  0  0  0  0  0  0  0  0  0  0
    0.1969   -2.7243    2.9517 H   0  0  0  0  0  0  0  0  0  0  0  0
   -0.0294   -4.4803    2.8470 H   0  0  0  0  0  0  0  0  0  0  0  0
   -0.4616   -1.0893    0.5050 N   0  0  0  0  0  0  0  0  0  0  0  0
   -0.0884    0.2050   -0.0621 C   0  0  2  0  0  0  0  0  0  0  0  0
    1.3171    0.0682   -0.6408 C   0  0  0  0  0  0  0  0  0  0  0  0
    1.7991    0.8794   -1.4288 O   0  0  0  0  0  0  0  0  0  0  0  0
   -0.1014    1.3259    0.9881 C   0  0  0  0  0  0  0  0  0  0  0  0
   -1.5057    1.6642    1.4990 C   0  0  0  0  0  0  0  0  0  0  0  0
   -1.4636    2.8018    2.5229 C   0  0  0  0  0  0  0  0  0  0  0  0
   -2.8612    3.1221    3.0503 C   0  0  0  0  0  0  0  0  0  0  0  0
   -2.7962    4.1906    4.0402 N   0  0  0  0  0  0  0  0  0  0  0  0
   -1.2794   -1.1113    1.0935 H   0  0  0  0  0  0  0  0  0  0  0  0
   -0.7875    0.4452   -0.8721 H   0  0  0  0  0  0  0  0  0  0  0  0
    0.3445    2.2304    0.5537 H   0  0  0  0  0  0  0  0  0  0  0  0
    0.5415    1.0516    1.8355 H   0  0  0  0  0  0  0  0  0  0  0  0
   -1.9617    0.7823    1.9629 H   0  0  0  0  0  0  0  0  0  0  0  0
   -2.1425    1.9549    0.6549 H   0  0  0  0  0  0  0  0  0  0  0  0
   -0.8071    2.5185    3.3553 H   0  0  0  0  0  0  0  0  0  0  0  0
   -1.0288    3.6960    2.0585 H   0  0  0  0  0  0  0  0  0  0  0  0
   -3.3076    2.2317    3.5064 H   0  0  0  0  0  0  0  0  0  0  0  0
   -3.5115    3.4371    2.2273 H   0  0  0  0  0  0  0  0  0  0  0  0
   -1.8447    4.4497    4.1590 H   0  0  0  0  0  0  0  0  0  0  0  0
   -3.3281    4.9597    3.7051 H   0  0  0  0  0  0  0  0  0  0  0  0
    1.9583   -1.0774   -0.1900 N   0  0  0  0  0  0  0  0  0  0  0  0
    3.2909   -1.4544   -0.6034 C   0  0  2  0  0  0  0  0  0  0  0  0
    3.3637   -2.9754   -0.6260 C   0  0  0  0  0  0  0  0  0  0  0  0
    2.7530   -3.6881    0.1679 O   0  0  0  0  0  0  0  0  0  0  0  0
    4.3440   -0.8736    0.3274 C   0  0  0  0  0  0  0  0  0  0  0  0
    1.4838   -1.6864    0.4700 H   0  0  0  0  0  0  0  0  0  0  0  0
    3.4287   -1.0664   -1.6185 H   0  0  0  0  0  0  0  0  0  0  0  0
    4.2220   -1.2508    1.3493 H   0  0  0  0  0  0  0  0  0  0  0  0
    5.3542   -1.1363   -0.0035 H   0  0  0  0  0  0  0  0  0  0  0  0
    4.2709    0.2187    0.3654 H   0  0  0  0  0  0  0  0  0  0  0  0
    4.2246   -3.4421   -1.6095 N   0  0  0  0  0  0  0  0  0  0  0  0
    4.4969   -4.8471   -1.8046 C   0  0  0  0  0  0  0  0  0  0  0  0
    4.6576   -2.7822   -2.2488 H   0  0  0  0  0  0  0  0  0  0  0  0
    5.3868   -5.1326   -1.2245 H   0  0  0  0  0  0  0  0  0  0  0  0
    3.6334   -5.4383   -1.4659 H   0  0  0  0  0  0  0  0  0  0  0  0
    4.6777   -5.0405   -2.8722 H   0  0  0  0  0  0  0  0  0  0  0  0
  1  3  1  0  0  0  0
  1  7  1  0  0  0  0
  1  2  2  0  0  0  0
 39 40  1  0  0  0  0
 40 48  1  0  0  0  0
 40 41  2  0  0  0  0
  8  9  1  0  0  0  0
  9 17  1  0  0  0  0
  9 10  2  0  0  0  0
 18 19  1  0  0  0  0
 19 38  1  0  0  0  0
 19 20  2  0  0  0  0
 39 42  1  0  0  0  0
  8 11  1  0  0  0  0
 48 49  1  0  0  0  0
 22 23  1  0  0  0  0
 21 22  1  0  0  0  0
 23 24  1  0  0  0  0
 18 21  1  0  0  0  0
 24 25  1  0  0  0  0
 38 39  1  0  0  0  0
  7  8  1  0  0  0  0
 17 18  1  0  0  0  0
  3  4  1  0  0  0  0
  3  5  1  0  0  0  0
  3  6  1  0  0  0  0
 42 45  1  0  0  0  0
 42 46  1  0  0  0  0
 42 47  1  0  0  0  0
 11 14  1  0  0  0  0
 11 15  1  0  0  0  0
 11 16  1  0  0  0  0
 49 51  1  0  0  0  0
 49 52  1  0  0  0  0
 49 53  1  0  0  0  0
 22 30  1  0  0  0  0
 22 31  1  0  0  0  0
 23 32  1  0  0  0  0
 23 33  1  0  0  0  0
 21 28  1  0  0  0  0
 21 29  1  0  0  0  0
 24 34  1  0  0  0  0
 24 35  1  0  0  0  0
 39 44  1  0  0  0  0
  8 13  1  0  0  0  0
 18 27  1  0  0  0  0
 25 36  1  0  0  0  0
 25 37  1  0  0  0  0
 48 50  1  0  0  0  0
  7 12  1  0  0  0  0
 38 43  1  0  0  0  0
 17 26  1  0  0  0  0
M  END
$$$$

  -OEChem-05262214473D

 53 52  0     1  0  0  0  0  0999 V2000
   -1.0338   -5.6785    0.1476 C   0  0  0  0  0  0  0  0  0  0  0  0
   -2.0514   -5.7797    0.8227 O   0  0  0  0  0  0  0  0  0  0  0  0
   -0.6558   -6.7819   -0.7841 C   0  0  0  0  0  0  0  0  0  0  0  0
   -0.0111   -7.5354   -0.3038 H   0  0  0  0  0  0  0  0  0  0  0  0
   -1.5317   -7.3401   -1.1520 H   0  0  0  0  0  0  0  0  0  0  0  0
   -0.1109   -6.4687   -1.6890 H   0  0  0  0  0  0  0  0  0  0  0  0
   -0.1543   -4.6083    0.1480 N   0  0  0  0  0  0  0  0  0  0  0  0
   -0.3302   -3.4398    0.9696 C   0  0  2  0  0  0  0  0  0  0  0  0
    0.2328   -2.2439    0.2131 C   0  0  0  0  0  0  0  0  0  0  0  0
    1.2097   -2.3192   -0.5294 O   0  0  0  0  0  0  0  0  0  0  0  0
    0.3557   -3.6024    2.3171 C   0  0  0  0  0  0  0  0  0  0  0  0
    0.6584   -4.6506   -0.4643 H   0  0  0  0  0  0  0  0  0  0  0  0
   -1.4091   -3.3101    1.1082 H   0  0  0  0  0  0  0  0  0  0  0  0
    1.4375   -3.7336    2.1985 H   0  0  0  0  0  0  0  0  0  0  0  0
    0.1969   -2.7243    2.9517 H   0  0  0  0  0  0  0  0  0  0  0  0
   -0.0294   -4.4803    2.8470 H   0  0  0  0  0  0  0  0  0  0  0  0
   -0.4616   -1.0893    0.5050 N   0  0  0  0  0  0  0  0  0  0  0  0
   -0.0884    0.2050   -0.0621 C   0  0  2  0  0  0  0  0  0  0  0  0
    1.3171    0.0682   -0.6408 C   0  0  0  0  0  0  0  0  0  0  0  0
    1.9017    0.9902   -1.2061 O   0  0  0  0  0  0  0  0  0  0  0  0
   -0.1014    1.3259    0.9881 C   0  0  0  0  0  0  0  0  0  0  0  0
   -1.5057    1.6642    1.4990 C   0  0  0  0  0  0  0  0  0  0  0  0
   -1.4636    2.8018    2.5229 C   0  0  0  0  0  0  0  0  0  0  0  0
   -2.8612    3.1221    3.0503 C   0  0  0  0  0  0  0  0  0  0  0  0
   -2.7962    4.1906    4.0402 N   0  0  0  0  0  0  0  0  0  0  0  0
   -1.2794   -1.1113    1.0935 H   0  0  0  0  0  0  0  0  0  0  0  0
   -0.7875    0.4452   -0.8721 H   0  0  0  0  0  0  0  0  0  0  0  0
    0.3445    2.2304    0.5537 H   0  0  0  0  0  0  0  0  0  0  0  0
    0.5415    1.0516    1.8355 H   0  0  0  0  0  0  0  0  0  0  0  0
   -1.9617    0.7823    1.9629 H   0  0  0  0  0  0  0  0  0  0  0  0
   -2.1425    1.9549    0.6549 H   0  0  0  0  0  0  0  0  0  0  0  0
   -0.8071    2.5185    3.3553 H   0  0  0  0  0  0  0  0  0  0  0  0
   -1.0288    3.6960    2.0585 H   0  0  0  0  0  0  0  0  0  0  0  0
   -3.3076    2.2317    3.5064 H   0  0  0  0  0  0  0  0  0  0  0  0
   -3.5115    3.4371    2.2273 H   0  0  0  0  0  0  0  0  0  0  0  0
   -1.8447    4.4497    4.1590 H   0  0  0  0  0  0  0  0  0  0  0  0
   -3.3281    4.9597    3.7051 H   0  0  0  0  0  0  0  0  0  0  0  0
    1.8299   -1.2104   -0.4703 N   0  0  0  0  0  0  0  0  0  0  0  0
    3.1342   -1.6110   -0.9468 C   0  0  2  0  0  0  0  0  0  0  0  0
    3.0624   -3.0827   -1.3323 C   0  0  0  0  0  0  0  0  0  0  0  0
    2.3591   -3.8979   -0.7392 O   0  0  0  0  0  0  0  0  0  0  0  0
    4.2046   -1.3770    0.1078 C   0  0  0  0  0  0  0  0  0  0  0  0
    1.2766   -1.9074    0.0192 H   0  0  0  0  0  0  0  0  0  0  0  0
    3.3439   -1.0093   -1.8379 H   0  0  0  0  0  0  0  0  0  0  0  0
    4.0113   -1.9716    1.0082 H   0  0  0  0  0  0  0  0  0  0  0  0
    5.1962   -1.6543   -0.2649 H   0  0  0  0  0  0  0  0  0  0  0  0
    4.2346   -0.3233    0.4055 H   0  0  0  0  0  0  0  0  0  0  0  0
    3.9089   -3.3873   -2.3891 N   0  0  0  0  0  0  0  0  0  0  0  0
    4.0528   -4.7259   -2.9119 C   0  0  0  0  0  0  0  0  0  0  0  0
    4.4250   -2.6417   -2.8468 H   0  0  0  0  0  0  0  0  0  0  0  0
    4.8905   -5.2292   -2.4071 H   0  0  0  0  0  0  0  0  0  0  0  0
    3.1254   -5.2903   -2.7345 H   0  0  0  0  0  0  0  0  0  0  0  0
    4.2517   -4.6778   -3.9927 H   0  0  0  0  0  0  0  0  0  0  0  0
  1  3  1  0  0  0  0
  1  7  1  0  0  0  0
  1  2  2  0  0  0  0
 39 40  1  0  0  0  0
 40 48  1  0  0  0  0
 40 41  2  0  0  0  0
  8  9  1  0  0  0  0
  9 17  1  0  0  0  0
  9 10  2  0  0  0  0
 18 19  1  0  0  0  0
 19 38  1  0  0  0  0
 19 20  2  0  0  0  0
 39 42  1  0  0  0  0
  8 11  1  0  0  0  0
 48 49  1  0  0  0  0
 22 23  1  0  0  0  0
 21 22  1  0  0  0  0
 23 24  1  0  0  0  0
 18 21  1  0  0  0  0
 24 25  1  0  0  0  0
 38 39  1  0  0  0  0
  7  8  1  0  0  0  0
 17 18  1  0  0  0  0
  3  4  1  0  0  0  0
  3  5  1  0  0  0  0
  3  6  1  0  0  0  0
 42 45  1  0  0  0  0
 42 46  1  0  0  0  0
 42 47  1  0  0  0  0
 11 14  1  0  0  0  0
 11 15  1  0  0  0  0
 11 16  1  0  0  0  0
 49 51  1  0  0  0  0
 49 52  1  0  0  0  0
 49 53  1  0  0  0  0
 22 30  1  0  0  0  0
 22 31  1  0  0  0  0
 23 32  1  0  0  0  0
 23 33  1  0  0  0  0
 21 28  1  0  0  0  0
 21 29  1  0  0  0  0
 24 34  1  0  0  0  0
 24 35  1  0  0  0  0
 39 44  1  0  0  0  0
  8 13  1  0  0  0  0
 18 27  1  0  0  0  0
 25 36  1  0  0  0  0
 25 37  1  0  0  0  0
 48 50  1  0  0  0  0
  7 12  1  0  0  0  0
 38 43  1  0  0  0  0
 17 26  1  0  0  0  0
M  END
$$$$

  -OEChem-05262214473D

 53 52  0     1  0  0  0  0  0999 V2000
   -1.0338   -5.6785    0.1476 C   0  0  0  0  0  0  0  0  0  0  0  0
   -2.0514   -5.7797    0.8227 O   0  0  0  0  0  0  0  0  0  0  0  0
   -0.6558   -6.7819   -0.7841 C   0  0  0  0  0  0  0  0  0  0  0  0
   -0.0111   -7.5354   -0.3038 H   0  0  0  0  0  0  0  0  0  0  0  0
   -1.5317   -7.3401   -1.1520 H   0  0  0  0  0  0  0  0  0  0  0  0
   -0.1109   -6.4687   -1.6890 H   0  0  0  0  0  0  0  0  0  0  0  0
   -0.1543   -4.6083    0.1480 N   0  0  0  0  0  0  0  0  0  0  0  0
   -0.3302   -3.4398    0.9696 C   0  0  2  0  0  0  0  0  0  0  0  0
    0.2328   -2.2439    0.2131 C   0  0  0  0  0  0  0  0  0  0  0  0
    1.2097   -2.3192   -0.5294 O   0  0  0  0  0  0  0  0  0  0  0  0
    0.3557   -3.6024    2.3171 C   0  0  0  0  0  0  0  0  0  0  0  0
    0.6584   -4.6506   -0.4643 H   0  0  0  0  0  0  0  0  0  0  0  0
   -1.4091   -3.3101    1.1082 H   0  0  0  0  0  0  0  0  0  0  0  0
    1.4375   -3.7336    2.1985 H   0  0  0  0  0  0  0  0  0  0  0  0
    0.1969   -2.7243    2.9517 H   0  0  0  0  0  0  0  0  0  0  0  0
   -0.0294   -4.4803    2.8470 H   0  0  0  0  0  0  0  0  0  0  0  0
   -0.4616   -1.0893    0.5050 N   0  0  0  0  0  0  0  0  0  0  0  0
   -0.0884    0.2050   -0.0621 C   0  0  2  0  0  0  0  0  0  0  0  0
    1.3171    0.0682   -0.6408 C   0  0  0  0  0  0  0  0  0  0  0  0
    2.0064    1.0341   -0.9621 O   0  0  0  0  0  0  0  0  0  0  0  0
   -0.1014    1.3259    0.9881 C   0  0  0  0  0  0  0  0  0  0  0  0
   -1.5057    1.6642    1.4990 C   0  0  0  0  0  0  0  0  0  0  0  0
   -1.4636    2.8018    2.5229 C   0  0  0  0  0  0  0  0  0  0  0  0
   -2.8612    3.1221    3.0503 C   0  0  0  0  0  0  0  0  0  0  0  0
   -2.7962    4.1906    4.0402 N   0  0  0  0  0  0  0  0  0  0  0  0
   -1.2794   -1.1113    1.0935 H   0  0  0  0  0  0  0  0  0  0  0  0
   -0.7875    0.4452   -0.8721 H   0  0  0  0  0  0  0  0  0  0  0  0
    0.3445    2.2304    0.5537 H   0  0  0  0  0  0  0  0  0  0  0  0
    0.5415    1.0516    1.8355 H   0  0  0  0  0  0  0  0  0  0  0  0
   -1.9617    0.7823    1.9629 H   0  0  0  0  0  0  0  0  0  0  0  0
   -2.1425    1.9549    0.6549 H   0  0  0  0  0  0  0  0  0  0  0  0
   -0.8071    2.5185    3.3553 H   0  0  0  0  0  0  0  0  0  0  0  0
   -1.0288    3.6960    2.0585 H   0  0  0  0  0  0  0  0  0  0  0  0
   -3.3076    2.2317    3.5064 H   0  0  0  0  0  0  0  0  0  0  0  0
   -3.5115    3.4371    2.2273 H   0  0  0  0  0  0  0  0  0  0  0  0
   -1.8447    4.4497    4.1590 H   0  0  0  0  0  0  0  0  0  0  0  0
   -3.3281    4.9597    3.7051 H   0  0  0  0  0  0  0  0  0  0  0  0
    1.6994   -1.2594   -0.7757 N   0  0  0  0  0  0  0  0  0  0  0  0
    2.9755   -1.6651   -1.3195 C   0  0  2  0  0  0  0  0  0  0  0  0
    2.7773   -2.9884   -2.0471 C   0  0  0  0  0  0  0  0  0  0  0  0
    1.9790   -3.8457   -1.6745 O   0  0  0  0  0  0  0  0  0  0  0  0
    4.0256   -1.7972   -0.2275 C   0  0  0  0  0  0  0  0  0  0  0  0
    1.0653   -1.9931   -0.4737 H   0  0  0  0  0  0  0  0  0  0  0  0
    3.2728   -0.8936   -2.0381 H   0  0  0  0  0  0  0  0  0  0  0  0
    3.7451   -2.5658    0.5020 H   0  0  0  0  0  0  0  0  0  0  0  0
    4.9987   -2.0769   -0.6445 H   0  0  0  0  0  0  0  0  0  0  0  0
    4.1454   -0.8528    0.3142 H   0  0  0  0  0  0  0  0  0  0  0  0
    3.6275   -3.1174   -3.1364 N   0  0  0  0  0  0  0  0  0  0  0  0
    3.6614   -4.3013   -3.9630 C   0  0  0  0  0  0  0  0  0  0  0  0
    4.2281   -2.3406   -3.3963 H   0  0  0  0  0  0  0  0  0  0  0  0
    4.4290   -4.9920   -3.5840 H   0  0  0  0  0  0  0  0  0  0  0  0
    2.6788   -4.7951   -3.9364 H   0  0  0  0  0  0  0  0  0  0  0  0
    3.9018   -4.0186   -4.9985 H   0  0  0  0  0  0  0  0  0  0  0  0
  1  3  1  0  0  0  0
  1  7  1  0  0  0  0
  1  2  2  0  0  0  0
 39 40  1  0  0  0  0
 40 48  1  0  0  0  0
 40 41  2  0  0  0  0
  8  9  1  0  0  0  0
  9 17  1  0  0  0  0
  9 10  2  0  0  0  0
 18 19  1  0  0  0  0
 19 38  1  0  0  0  0
 19 20  2  0  0  0  0
 39 42  1  0  0  0  0
  8 11  1  0  0  0  0
 48 49  1  0  0  0  0
 22 23  1  0  0  0  0
 21 22  1  0  0  0  0
 23 24  1  0  0  0  0
 18 21  1  0  0  0  0
 24 25  1  0  0  0  0
 38 39  1  0  0  0  0
  7  8  1  0  0  0  0
 17 18  1  0  0  0  0
  3  4  1  0  0  0  0
  3  5  1  0  0  0  0
  3  6  1  0  0  0  0
 42 45  1  0  0  0  0
 42 46  1  0  0  0  0
 42 47  1  0  0  0  0
 11 14  1  0  0  0  0
 11 15  1  0  0  0  0
 11 16  1  0  0  0  0
 49 51  1  0  0  0  0
 49 52  1  0  0  0  0
 49 53  1  0  0  0  0
 22 30  1  0  0  0  0
 22 31  1  0  0  0  0
 23 32  1  0  0  0  0
 23 33  1  0  0  0  0
 21 28  1  0  0  0  0
 21 29  1  0  0  0  0
 24 34  1  0  0  0  0
 24 35  1  0  0  0  0
 39 44  1  0  0  0  0
  8 13  1  0  0  0  0
 18 27  1  0  0  0  0
 25 36  1  0  0  0  0
 25 37  1  0  0  0  0
 48 50  1  0  0  0  0
  7 12  1  0  0  0  0
 38 43  1  0  0  0  0
 17 26  1  0  0  0  0
M  END
$$$$

  -OEChem-05262214473D

 53 52  0     1  0  0  0  0  0999 V2000
   -1.0338   -5.6785    0.1476 C   0  0  0  0  0  0  0  0  0  0  0  0
   -2.0514   -5.7797    0.8227 O   0  0  0  0  0  0  0  0  0  0  0  0
   -0.6558   -6.7819   -0.7841 C   0  0  0  0  0  0  0  0  0  0  0  0
   -0.0111   -7.5354   -0.3038 H   0  0  0  0  0  0  0  0  0  0  0  0
   -1.5317   -7.3401   -1.1520 H   0  0  0  0  0  0  0  0  0  0  0  0
   -0.1109   -6.4687   -1.6890 H   0  0  0  0  0  0  0  0  0  0  0  0
   -0.1543   -4.6083    0.1480 N   0  0  0  0  0  0  0  0  0  0  0  0
   -0.3302   -3.4398    0.9696 C   0  0  2  0  0  0  0  0  0  0  0  0
    0.2328   -2.2439    0.2131 C   0  0  0  0  0  0  0  0  0  0  0  0
    1.2097   -2.3192   -0.5294 O   0  0  0  0  0  0  0  0  0  0  0  0
    0.3557   -3.6024    2.3171 C   0  0  0  0  0  0  0  0  0  0  0  0
    0.6584   -4.6506   -0.4643 H   0  0  0  0  0  0  0  0  0  0  0  0
   -1.4091   -3.3101    1.1082 H   0  0  0  0  0  0  0  0  0  0  0  0
    1.4375   -3.7336    2.1985 H   0  0  0  0  0  0  0  0  0  0  0  0
    0.1969   -2.7243    2.9517 H   0  0  0  0  0  0  0  0  0  0  0  0
   -0.0294   -4.4803    2.8470 H   0  0  0  0  0  0  0  0  0  0  0  0
   -0.4616   -1.0893    0.5050 N   0  0  0  0  0  0  0  0  0  0  0  0
   -0.0884    0.2050   -0.0621 C   0  0  2  0  0  0  0  0  0  0  0  0
    1.3171    0.0682   -0.6408 C   0  0  0  0  0  0  0  0  0  0  0  0
    2.1062    1.0081   -0.7136 O   0  0  0  0  0  0  0  0  0  0  0  0
   -0.1014    1.3259    0.9881 C   0  0  0  0  0  0  0  0  0  0  0  0
   -1.5057    1.6642    1.4990 C   0  0  0  0  0  0  0  0  0  0  0  0
   -1.4636    2.8018    2.5229 C   0  0  0  0  0  0  0  0  0  0  0  0
   -2.8612    3.1221    3.0503 C   0  0  0  0  0  0  0  0  0  0  0  0
   -2.7962    4.1906    4.0402 N   0  0  0  0  0  0  0  0  0  0  0  0
   -1.2794   -1.1113    1.0935 H   0  0  0  0  0  0  0  0  0  0  0  0
   -0.7875    0.4452   -0.8721 H   0  0  0  0  0  0  0  0  0  0  0  0
    0.3445    2.2304    0.5537 H   0  0  0  0  0  0  0  0  0  0  0  0
    0.5415    1.0516    1.8355 H   0  0  0  0  0  0  0  0  0  0  0  0
   -1.9617    0.7823    1.9629 H   0  0  0  0  0  0  0  0  0  0  0  0
   -2.1425    1.9549    0.6549 H   0  0  0  0  0  0  0  0  0  0  0  0
   -0.8071    2.5185    3.3553 H   0  0  0  0  0  0  0  0  0  0  0  0
   -1.0288    3.6960    2.0585 H   0  0  0  0  0  0  0  0  0  0  0  0
   -3.3076    2.2317    3.5064 H   0  0  0  0  0  0  0  0  0  0  0  0
   -3.5115    3.4371    2.2273 H   0  0  0  0  0  0  0  0  0  0  0  0
   -1.8447    4.4497    4.1590 H   0  0  0  0  0  0  0  0  0  0  0  0
   -3.3281    4.9597    3.7051 H   0  0  0  0  0  0  0  0  0  0  0  0
    1.5756   -1.2211   -1.0854 N   0  0  0  0  0  0  0  0  0  0  0  0
    2.8255   -1.6130   -1.6961 C   0  0  2  0  0  0  0  0  0  0  0  0
    2.5278   -2.6989   -2.7216 C   0  0  0  0  0  0  0  0  0  0  0  0
    1.6388   -3.5351   -2.5743 O   0  0  0  0  0  0  0  0  0  0  0  0
    3.8192   -2.1057   -0.6557 C   0  0  0  0  0  0  0  0  0  0  0  0
    0.8643   -1.9376   -0.9751 H   0  0  0  0  0  0  0  0  0  0  0  0
    3.2201   -0.7271   -2.2055 H   0  0  0  0  0  0  0  0  0  0  0  0
    3.4413   -2.9929   -0.1348 H   0  0  0  0  0  0  0  0  0  0  0  0
    4.7753   -2.3752   -1.1165 H   0  0  0  0  0  0  0  0  0  0  0  0
    4.0095   -1.3337    0.0978 H   0  0  0  0  0  0  0  0  0  0  0  0
    3.3995   -2.6511   -3.8004 N   0  0  0  0  0  0  0  0  0  0  0  0
    3.3494   -3.6023   -4.8861 C   0  0  0  0  0  0  0  0  0  0  0  0
    4.0802   -1.8995   -3.8599 H   0  0  0  0  0  0  0  0  0  0  0  0
    4.0339   -4.4370   -4.6749 H   0  0  0  0  0  0  0  0  0  0  0  0
    2.3239   -3.9865   -4.9897 H   0  0  0  0  0  0  0  0  0  0  0  0
    3.6519   -3.1078   -5.8210 H   0  0  0  0  0  0  0  0  0  0  0  0
  1  3  1  0  0  0  0
  1  7  1  0  0  0  0
  1  2  2  0  0  0  0
 39 40  1  0  0  0  0
 40 48  1  0  0  0  0
 40 41  2  0  0  0  0
  8  9  1  0  0  0  0
  9 17  1  0  0  0  0
  9 10  2  0  0  0  0
 18 19  1  0  0  0  0
 19 38  1  0  0  0  0
 19 20  2  0  0  0  0
 39 42  1  0  0  0  0
  8 11  1  0  0  0  0
 48 49  1  0  0  0  0
 22 23  1  0  0  0  0
 21 22  1  0  0  0  0
 23 24  1  0  0  0  0
 18 21  1  0  0  0  0
 24 25  1  0  0  0  0
 38 39  1  0  0  0  0
  7  8  1  0  0  0  0
 17 18  1  0  0  0  0
  3  4  1  0  0  0  0
  3  5  1  0  0  0  0
  3  6  1  0  0  0  0
 42 45  1  0  0  0  0
 42 46  1  0  0  0  0
 42 47  1  0  0  0  0
 11 14  1  0  0  0  0
 11 15  1  0  0  0  0
 11 16  1  0  0  0  0
 49 51  1  0  0  0  0
 49 52  1  0  0  0  0
 49 53  1  0  0  0  0
 22 30  1  0  0  0  0
 22 31  1  0  0  0  0
 23 32  1  0  0  0  0
 23 33  1  0  0  0  0
 21 28  1  0  0  0  0
 21 29  1  0  0  0  0
 24 34  1  0  0  0  0
 24 35  1  0  0  0  0
 39 44  1  0  0  0  0
  8 13  1  0  0  0  0
 18 27  1  0  0  0  0
 25 36  1  0  0  0  0
 25 37  1  0  0  0  0
 48 50  1  0  0  0  0
  7 12  1  0  0  0  0
 38 43  1  0  0  0  0
 17 26  1  0  0  0  0
M  END
$$$$

  -OEChem-05262214473D

 53 52  0     1  0  0  0  0  0999 V2000
   -1.0338   -5.6785    0.1476 C   0  0  0  0  0  0  0  0  0  0  0  0
   -2.0514   -5.7797    0.8227 O   0  0  0  0  0  0  0  0  0  0  0  0
   -0.6558   -6.7819   -0.7841 C   0  0  0  0  0  0  0  0  0  0  0  0
   -0.0111   -7.5354   -0.3038 H   0  0  0  0  0  0  0  0  0  0  0  0
   -1.5317   -7.3401   -1.1520 H   0  0  0  0  0  0  0  0  0  0  0  0
   -0.1109   -6.4687   -1.6890 H   0  0  0  0  0  0  0  0  0  0  0  0
   -0.1543   -4.6083    0.1480 N   0  0  0  0  0  0  0  0  0  0  0  0
   -0.3302   -3.4398    0.9696 C   0  0  2  0  0  0  0  0  0  0  0  0
    0.2328   -2.2439    0.2131 C   0  0  0  0  0  0  0  0  0  0  0  0
    1.2097   -2.3192   -0.5294 O   0  0  0  0  0  0  0  0  0  0  0  0
    0.3557   -3.6024    2.3171 C   0  0  0  0  0  0  0  0  0  0  0  0
    0.6584   -4.6506   -0.4643 H   0  0  0  0  0  0  0  0  0  0  0  0
   -1.4091   -3.3101    1.1082 H   0  0  0  0  0  0  0  0  0  0  0  0
    1.4375   -3.7336    2.1985 H   0  0  0  0  0  0  0  0  0  0  0  0
    0.1969   -2.7243    2.9517 H   0  0  0  0  0  0  0  0  0  0  0  0
   -0.0294   -4.4803    2.8470 H   0  0  0  0  0  0  0  0  0  0  0  0
   -0.4616   -1.0893    0.5050 N   0  0  0  0  0  0  0  0  0  0  0  0
   -0.0884    0.2050   -0.0621 C   0  0  2  0  0  0  0  0  0  0  0  0
    1.3171    0.0682   -0.6408 C   0  0  0  0  0  0  0  0  0  0  0  0
    2.1943    0.9139   -0.4774 O   0  0  0  0  0  0  0  0  0  0  0  0
   -0.1014    1.3259    0.9881 C   0  0  0  0  0  0  0  0  0  0  0  0
   -1.5057    1.6642    1.4990 C   0  0  0  0  0  0  0  0  0  0  0  0
   -1.4636    2.8018    2.5229 C   0  0  0  0  0  0  0  0  0  0  0  0
   -2.8612    3.1221    3.0503 C   0  0  0  0  0  0  0  0  0  0  0  0
   -2.7962    4.1906    4.0402 N   0  0  0  0  0  0  0  0  0  0  0  0
   -1.2794   -1.1113    1.0935 H   0  0  0  0  0  0  0  0  0  0  0  0
   -0.7875    0.4452   -0.8721 H   0  0  0  0  0  0  0  0  0  0  0  0
    0.3445    2.2304    0.5537 H   0  0  0  0  0  0  0  0  0  0  0  0
    0.5415    1.0516    1.8355 H   0  0  0  0  0  0  0  0  0  0  0  0
   -1.9617    0.7823    1.9629 H   0  0  0  0  0  0  0  0  0  0  0  0
   -2.1425    1.9549    0.6549 H   0  0  0  0  0  0  0  0  0  0  0  0
   -0.8071    2.5185    3.3553 H   0  0  0  0  0  0  0  0  0  0  0  0
   -1.0288    3.6960    2.0585 H   0  0  0  0  0  0  0  0  0  0  0  0
   -3.3076    2.2317    3.5064 H   0  0  0  0  0  0  0  0  0  0  0  0
   -3.5115    3.4371    2.2273 H   0  0  0  0  0  0  0  0  0  0  0  0
   -1.8447    4.4497    4.1590 H   0  0  0  0  0  0  0  0  0  0  0  0
   -3.3281    4.9597    3.7051 H   0  0  0  0  0  0  0  0  0  0  0  0
    1.4670   -1.0982   -1.3783 N   0  0  0  0  0  0  0  0  0  0  0  0
    2.6945   -1.4581   -2.0509 C   0  0  2  0  0  0  0  0  0  0  0  0
    2.3308   -2.2340   -3.3100 C   0  0  0  0  0  0  0  0  0  0  0  0
    1.3616   -2.9871   -3.3773 O   0  0  0  0  0  0  0  0  0  0  0  0
    3.5996   -2.2813   -1.1476 C   0  0  0  0  0  0  0  0  0  0  0  0
    0.6872   -1.7448   -1.4509 H   0  0  0  0  0  0  0  0  0  0  0  0
    3.1893   -0.5212   -2.3288 H   0  0  0  0  0  0  0  0  0  0  0  0
    3.1207   -3.2240   -0.8587 H   0  0  0  0  0  0  0  0  0  0  0  0
    4.5412   -2.5289   -1.6487 H   0  0  0  0  0  0  0  0  0  0  0  0
    3.8360   -1.7334   -0.2291 H   0  0  0  0  0  0  0  0  0  0  0  0
    3.2405   -2.0199   -4.3360 N   0  0  0  0  0  0  0  0  0  0  0  0
    3.1380   -2.6764   -5.6184 C   0  0  0  0  0  0  0  0  0  0  0  0
    3.9913   -1.3483   -4.2060 H   0  0  0  0  0  0  0  0  0  0  0  0
    3.7320   -3.6021   -5.6055 H   0  0  0  0  0  0  0  0  0  0  0  0
    2.0848   -2.9195   -5.8226 H   0  0  0  0  0  0  0  0  0  0  0  0
    3.5189   -2.0074   -6.4041 H   0  0  0  0  0  0  0  0  0  0  0  0
  1  3  1  0  0  0  0
  1  7  1  0  0  0  0
  1  2  2  0  0  0  0
 39 40  1  0  0  0  0
 40 48  1  0  0  0  0
 40 41  2  0  0  0  0
  8  9  1  0  0  0  0
  9 17  1  0  0  0  0
  9 10  2  0  0  0  0
 18 19  1  0  0  0  0
 19 38  1  0  0  0  0
 19 20  2  0  0  0  0
 39 42  1  0  0  0  0
  8 11  1  0  0  0  0
 48 49  1  0  0  0  0
 22 23  1  0  0  0  0
 21 22  1  0  0  0  0
 23 24  1  0  0  0  0
 18 21  1  0  0  0  0
 24 25  1  0  0  0  0
 38 39  1  0  0  0  0
  7  8  1  0  0  0  0
 17 18  1  0  0  0  0
  3  4  1  0  0  0  0
  3  5  1  0  0  0  0
  3  6  1  0  0  0  0
 42 45  1  0  0  0  0
 42 46  1  0  0  0  0
 42 47  1  0  0  0  0
 11 14  1  0  0  0  0
 11 15  1  0  0  0  0
 11 16  1  0  0  0  0
 49 51  1  0  0  0  0
 49 52  1  0  0  0  0
 49 53  1  0  0  0  0
 22 30  1  0  0  0  0
 22 31  1  0  0  0  0
 23 32  1  0  0  0  0
 23 33  1  0  0  0  0
 21 28  1  0  0  0  0
 21 29  1  0  0  0  0
 24 34  1  0  0  0  0
 24 35  1  0  0  0  0
 39 44  1  0  0  0  0
  8 13  1  0  0  0  0
 18 27  1  0  0  0  0
 25 36  1  0  0  0  0
 25 37  1  0  0  0  0
 48 50  1  0  0  0  0
  7 12  1  0  0  0  0
 38 43  1  0  0  0  0
 17 26  1  0  0  0  0
M  END
$$$$

  -OEChem-05262214473D

 53 52  0     1  0  0  0  0  0999 V2000
   -1.0338   -5.6785    0.1476 C   0  0  0  0  0  0  0  0  0  0  0  0
   -2.0514   -5.7797    0.8227 O   0  0  0  0  0  0  0  0  0  0  0  0
   -0.6558   -6.7819   -0.7841 C   0  0  0  0  0  0  0  0  0  0  0  0
   -0.0111   -7.5354   -0.3038 H   0  0  0  0  0  0  0  0  0  0  0  0
   -1.5317   -7.3401   -1.1520 H   0  0  0  0  0  0  0  0  0  0  0  0
   -0.1109   -6.4687   -1.6890 H   0  0  0  0  0  0  0  0  0  0  0  0
   -0.1543   -4.6083    0.1480 N   0  0  0  0  0  0  0  0  0  0  0  0
   -0.3302   -3.4398    0.9696 C   0  0  2  0  0  0  0  0  0  0  0  0
    0.2328   -2.2439    0.2131 C   0  0  0  0  0  0  0  0  0  0  0  0
    1.2097   -2.3192   -0.5294 O   0  0  0  0  0  0  0  0  0  0  0  0
    0.3557   -3.6024    2.3171 C   0  0  0  0  0  0  0  0  0  0  0  0
    0.6584   -4.6506   -0.4643 H   0  0  0  0  0  0  0  0  0  0  0  0
   -1.4091   -3.3101    1.1082 H   0  0  0  0  0  0  0  0  0  0  0  0
    1.4375   -3.7336    2.1985 H   0  0  0  0  0  0  0  0  0  0  0  0
    0.1969   -2.7243    2.9517 H   0  0  0  0  0  0  0  0  0  0  0  0
   -0.0294   -4.4803    2.8470 H   0  0  0  0  0  0  0  0  0  0  0  0
   -0.4616   -1.0893    0.5050 N   0  0  0  0  0  0  0  0  0  0  0  0
   -0.0884    0.2050   -0.0621 C   0  0  2  0  0  0  0  0  0  0  0  0
    1.3171    0.0682   -0.6408 C   0  0  0  0  0  0  0  0  0  0  0  0
    2.2646    0.7580   -0.2697 O   0  0  0  0  0  0  0  0  0  0  0  0
   -0.1014    1.3259    0.9881 C   0  0  0  0  0  0  0  0  0  0  0  0
   -1.5057    1.6642    1.4990 C   0  0  0  0  0  0  0  0  0  0  0  0
   -1.4636    2.8018    2.5229 C   0  0  0  0  0  0  0  0  0  0  0  0
   -2.8612    3.1221    3.0503 C   0  0  0  0  0  0  0  0  0  0  0  0
   -2.7962    4.1906    4.0402 N   0  0  0  0  0  0  0  0  0  0  0  0
   -1.2794   -1.1113    1.0935 H   0  0  0  0  0  0  0  0  0  0  0  0
   -0.7875    0.4452   -0.8721 H   0  0  0  0  0  0  0  0  0  0  0  0
    0.3445    2.2304    0.5537 H   0  0  0  0  0  0  0  0  0  0  0  0
    0.5415    1.0516    1.8355 H   0  0  0  0  0  0  0  0  0  0  0  0
   -1.9617    0.7823    1.9629 H   0  0  0  0  0  0  0  0  0  0  0  0
   -2.1425    1.9549    0.6549 H   0  0  0  0  0  0  0  0  0  0  0  0
   -0.8071    2.5185    3.3553 H   0  0  0  0  0  0  0  0  0  0  0  0
   -1.0288    3.6960    2.0585 H   0  0  0  0  0  0  0  0  0  0  0  0
   -3.3076    2.2317    3.5064 H   0  0  0  0  0  0  0  0  0  0  0  0
   -3.5115    3.4371    2.2273 H   0  0  0  0  0  0  0  0  0  0  0  0
   -1.8447    4.4497    4.1590 H   0  0  0  0  0  0  0  0  0  0  0  0
   -3.3281    4.9597    3.7051 H   0  0  0  0  0  0  0  0  0  0  0  0
    1.3809   -0.8990   -1.6344 N   0  0  0  0  0  0  0  0  0  0  0  0
    2.5914   -1.2111   -2.3598 C   0  0  2  0  0  0  0  0  0  0  0  0
    2.1998   -1.6254   -3.7720 C   0  0  0  0  0  0  0  0  0  0  0  0
    1.1662   -2.2392   -4.0287 O   0  0  0  0  0  0  0  0  0  0  0  0
    3.3816   -2.3121   -1.6697 C   0  0  0  0  0  0  0  0  0  0  0  0
    0.5460   -1.4278   -1.8686 H   0  0  0  0  0  0  0  0  0  0  0  0
    3.1828   -0.2899   -2.3995 H   0  0  0  0  0  0  0  0  0  0  0  0
    2.8052   -3.2431   -1.6204 H   0  0  0  0  0  0  0  0  0  0  0  0
    4.3123   -2.5275   -2.2049 H   0  0  0  0  0  0  0  0  0  0  0  0
    3.6367   -2.0245   -0.6441 H   0  0  0  0  0  0  0  0  0  0  0  0
    3.1612   -1.2670   -4.7066 N   0  0  0  0  0  0  0  0  0  0  0  0
    3.0418   -1.5868   -6.1100 C   0  0  0  0  0  0  0  0  0  0  0  0
    3.9677   -0.7247   -4.4110 H   0  0  0  0  0  0  0  0  0  0  0  0
    3.5440   -2.5442   -6.3125 H   0  0  0  0  0  0  0  0  0  0  0  0
    1.9780   -1.6669   -6.3784 H   0  0  0  0  0  0  0  0  0  0  0  0
    3.5121   -0.7924   -6.7082 H   0  0  0  0  0  0  0  0  0  0  0  0
  1  3  1  0  0  0  0
  1  7  1  0  0  0  0
  1  2  2  0  0  0  0
 39 40  1  0  0  0  0
 40 48  1  0  0  0  0
 40 41  2  0  0  0  0
  8  9  1  0  0  0  0
  9 17  1  0  0  0  0
  9 10  2  0  0  0  0
 18 19  1  0  0  0  0
 19 38  1  0  0  0  0
 19 20  2  0  0  0  0
 39 42  1  0  0  0  0
  8 11  1  0  0  0  0
 48 49  1  0  0  0  0
 22 23  1  0  0  0  0
 21 22  1  0  0  0  0
 23 24  1  0  0  0  0
 18 21  1  0  0  0  0
 24 25  1  0  0  0  0
 38 39  1  0  0  0  0
  7  8  1  0  0  0  0
 17 18  1  0  0  0  0
  3  4  1  0  0  0  0
  3  5  1  0  0  0  0
  3  6  1  0  0  0  0
 42 45  1  0  0  0  0
 42 46  1  0  0  0  0
 42 47  1  0  0  0  0
 11 14  1  0  0  0  0
 11 15  1  0  0  0  0
 11 16  1  0  0  0  0
 49 51  1  0  0  0  0
 49 52  1  0  0  0  0
 49 53  1  0  0  0  0
 22 30  1  0  0  0  0
 22 31  1  0  0  0  0
 23 32  1  0  0  0  0
 23 33  1  0  0  0  0
 21 28  1  0  0  0  0
 21 29  1  0  0  0  0
 24 34  1  0  0  0  0
 24 35  1  0  0  0  0
 39 44  1  0  0  0  0
  8 13  1  0  0  0  0
 18 27  1  0  0  0  0
 25 36  1  0  0  0  0
 25 37  1  0  0  0  0
 48 50  1  0  0  0  0
  7 12  1  0  0  0  0
 38 43  1  0  0  0  0
 17 26  1  0  0  0  0
M  END
$$$$

  -OEChem-05262214473D

 53 52  0     1  0  0  0  0  0999 V2000
   -1.0338   -5.6785    0.1476 C   0  0  0  0  0  0  0  0  0  0  0  0
   -2.0514   -5.7797    0.8227 O   0  0  0  0  0  0  0  0  0  0  0  0
   -0.6558   -6.7819   -0.7841 C   0  0  0  0  0  0  0  0  0  0  0  0
   -0.0111   -7.5354   -0.3038 H   0  0  0  0  0  0  0  0  0  0  0  0
   -1.5317   -7.3401   -1.1520 H   0  0  0  0  0  0  0  0  0  0  0  0
   -0.1109   -6.4687   -1.6890 H   0  0  0  0  0  0  0  0  0  0  0  0
   -0.1543   -4.6083    0.1480 N   0  0  0  0  0  0  0  0  0  0  0  0
   -0.3302   -3.4398    0.9696 C   0  0  2  0  0  0  0  0  0  0  0  0
    0.2328   -2.2439    0.2131 C   0  0  0  0  0  0  0  0  0  0  0  0
    1.2097   -2.3192   -0.5294 O   0  0  0  0  0  0  0  0  0  0  0  0
    0.3557   -3.6024    2.3171 C   0  0  0  0  0  0  0  0  0  0  0  0
    0.6584   -4.6506   -0.4643 H   0  0  0  0  0  0  0  0  0  0  0  0
   -1.4091   -3.3101    1.1082 H   0  0  0  0  0  0  0  0  0  0  0  0
    1.4375   -3.7336    2.1985 H   0  0  0  0  0  0  0  0  0  0  0  0
    0.1969   -2.7243    2.9517 H   0  0  0  0  0  0  0  0  0  0  0  0
   -0.0294   -4.4803    2.8470 H   0  0  0  0  0  0  0  0  0  0  0  0
   -0.4616   -1.0893    0.5050 N   0  0  0  0  0  0  0  0  0  0  0  0
   -0.0884    0.2050   -0.0621 C   0  0  2  0  0  0  0  0  0  0  0  0
    1.3171    0.0682   -0.6408 C   0  0  0  0  0  0  0  0  0  0  0  0
    2.3124    0.5510   -0.1045 O   0  0  0  0  0  0  0  0  0  0  0  0
   -0.1014    1.3259    0.9881 C   0  0  0  0  0  0  0  0  0  0  0  0
   -1.5057    1.6642    1.4990 C   0  0  0  0  0  0  0  0  0  0  0  0
   -1.4636    2.8018    2.5229 C   0  0  0  0  0  0  0  0  0  0  0  0
   -2.8612    3.1221    3.0503 C   0  0  0  0  0  0  0  0  0  0  0  0
   -2.7962    4.1906    4.0402 N   0  0  0  0  0  0  0  0  0  0  0  0
   -1.2794   -1.1113    1.0935 H   0  0  0  0  0  0  0  0  0  0  0  0
   -0.7875    0.4452   -0.8721 H   0  0  0  0  0  0  0  0  0  0  0  0
    0.3445    2.2304    0.5537 H   0  0  0  0  0  0  0  0  0  0  0  0
    0.5415    1.0516    1.8355 H   0  0  0  0  0  0  0  0  0  0  0  0
   -1.9617    0.7823    1.9629 H   0  0  0  0  0  0  0  0  0  0  0  0
   -2.1425    1.9549    0.6549 H   0  0  0  0  0  0  0  0  0  0  0  0
   -0.8071    2.5185    3.3553 H   0  0  0  0  0  0  0  0  0  0  0  0
   -1.0288    3.6960    2.0585 H   0  0  0  0  0  0  0  0  0  0  0  0
   -3.3076    2.2317    3.5064 H   0  0  0  0  0  0  0  0  0  0  0  0
   -3.5115    3.4371    2.2273 H   0  0  0  0  0  0  0  0  0  0  0  0
   -1.8447    4.4497    4.1590 H   0  0  0  0  0  0  0  0  0  0  0  0
   -3.3281    4.9597    3.7051 H   0  0  0  0  0  0  0  0  0  0  0  0
    1.3233   -0.6370   -1.8364 N   0  0  0  0  0  0  0  0  0  0  0  0
    2.5232   -0.8888   -2.6016 C   0  0  2  0  0  0  0  0  0  0  0  0
    2.1438   -0.9146   -4.0763 C   0  0  0  0  0  0  0  0  0  0  0  0
    1.0660   -1.3424   -4.4843 O   0  0  0  0  0  0  0  0  0  0  0  0
    3.1802   -2.1960   -2.1865 C   0  0  0  0  0  0  0  0  0  0  0  0
    0.4505   -1.0081   -2.1999 H   0  0  0  0  0  0  0  0  0  0  0  0
    3.2007   -0.0489   -2.4129 H   0  0  0  0  0  0  0  0  0  0  0  0
    2.5162   -3.0490   -2.3681 H   0  0  0  0  0  0  0  0  0  0  0  0
    4.1043   -2.3712   -2.7471 H   0  0  0  0  0  0  0  0  0  0  0  0
    3.4254   -2.1871   -1.1189 H   0  0  0  0  0  0  0  0  0  0  0  0
    3.1672   -0.4436   -4.8869 N   0  0  0  0  0  0  0  0  0  0  0  0
    3.0671   -0.4076   -6.3273 C   0  0  0  0  0  0  0  0  0  0  0  0
    4.0108   -0.0712   -4.4609 H   0  0  0  0  0  0  0  0  0  0  0  0
    3.4826   -1.3354   -6.7475 H   0  0  0  0  0  0  0  0  0  0  0  0
    2.0107   -0.3140   -6.6191 H   0  0  0  0  0  0  0  0  0  0  0  0
    3.6317    0.4542   -6.7125 H   0  0  0  0  0  0  0  0  0  0  0  0
  1  3  1  0  0  0  0
  1  7  1  0  0  0  0
  1  2  2  0  0  0  0
 39 40  1  0  0  0  0
 40 48  1  0  0  0  0
 40 41  2  0  0  0  0
  8  9  1  0  0  0  0
  9 17  1  0  0  0  0
  9 10  2  0  0  0  0
 18 19  1  0  0  0  0
 19 38  1  0  0  0  0
 19 20  2  0  0  0  0
 39 42  1  0  0  0  0
  8 11  1  0  0  0  0
 48 49  1  0  0  0  0
 22 23  1  0  0  0  0
 21 22  1  0  0  0  0
 23 24  1  0  0  0  0
 18 21  1  0  0  0  0
 24 25  1  0  0  0  0
 38 39  1  0  0  0  0
  7  8  1  0  0  0  0
 17 18  1  0  0  0  0
  3  4  1  0  0  0  0
  3  5  1  0  0  0  0
  3  6  1  0  0  0  0
 42 45  1  0  0  0  0
 42 46  1  0  0  0  0
 42 47  1  0  0  0  0
 11 14  1  0  0  0  0
 11 15  1  0  0  0  0
 11 16  1  0  0  0  0
 49 51  1  0  0  0  0
 49 52  1  0  0  0  0
 49 53  1  0  0  0  0
 22 30  1  0  0  0  0
 22 31  1  0  0  0  0
 23 32  1  0  0  0  0
 23 33  1  0  0  0  0
 21 28  1  0  0  0  0
 21 29  1  0  0  0  0
 24 34  1  0  0  0  0
 24 35  1  0  0  0  0
 39 44  1  0  0  0  0
  8 13  1  0  0  0  0
 18 27  1  0  0  0  0
 25 36  1  0  0  0  0
 25 37  1  0  0  0  0
 48 50  1  0  0  0  0
  7 12  1  0  0  0  0
 38 43  1  0  0  0  0
 17 26  1  0  0  0  0
M  END
$$$$

  -OEChem-05262214473D

 53 52  0     1  0  0  0  0  0999 V2000
   -1.0338   -5.6785    0.1476 C   0  0  0  0  0  0  0  0  0  0  0  0
   -2.0514   -5.7797    0.8227 O   0  0  0  0  0  0  0  0  0  0  0  0
   -0.6558   -6.7819   -0.7841 C   0  0  0  0  0  0  0  0  0  0  0  0
   -0.0111   -7.5354   -0.3038 H   0  0  0  0  0  0  0  0  0  0  0  0
   -1.5317   -7.3401   -1.1520 H   0  0  0  0  0  0  0  0  0  0  0  0
   -0.1109   -6.4687   -1.6890 H   0  0  0  0  0  0  0  0  0  0  0  0
   -0.1543   -4.6083    0.1480 N   0  0  0  0  0  0  0  0  0  0  0  0
   -0.3302   -3.4398    0.9696 C   0  0  2  0  0  0  0  0  0  0  0  0
    0.2328   -2.2439    0.2131 C   0  0  0  0  0  0  0  0  0  0  0  0
    1.2097   -2.3192   -0.5294 O   0  0  0  0  0  0  0  0  0  0  0  0
    0.3557   -3.6024    2.3171 C   0  0  0  0  0  0  0  0  0  0  0  0
    0.6584   -4.6506   -0.4643 H   0  0  0  0  0  0  0  0  0  0  0  0
   -1.4091   -3.3101    1.1082 H   0  0  0  0  0  0  0  0  0  0  0  0
    1.4375   -3.7336    2.1985 H   0  0  0  0  0  0  0  0  0  0  0  0
    0.1969   -2.7243    2.9517 H   0  0  0  0  0  0  0  0  0  0  0  0
   -0.0294   -4.4803    2.8470 H   0  0  0  0  0  0  0  0  0  0  0  0
   -0.4616   -1.0893    0.5050 N   0  0  0  0  0  0  0  0  0  0  0  0
   -0.0884    0.2050   -0.0621 C   0  0  2  0  0  0  0  0  0  0  0  0
    1.3171    0.0682   -0.6408 C   0  0  0  0  0  0  0  0  0  0  0  0
    2.3345    0.3070    0.0067 O   0  0  0  0  0  0  0  0  0  0  0  0
   -0.1014    1.3259    0.9881 C   0  0  0  0  0  0  0  0  0  0  0  0
   -1.5057    1.6642    1.4990 C   0  0  0  0  0  0  0  0  0  0  0  0
   -1.4636    2.8018    2.5229 C   0  0  0  0  0  0  0  0  0  0  0  0
   -2.8612    3.1221    3.0503 C   0  0  0  0  0  0  0  0  0  0  0  0
   -2.7962    4.1906    4.0402 N   0  0  0  0  0  0  0  0  0  0  0  0
   -1.2794   -1.1113    1.0935 H   0  0  0  0  0  0  0  0  0  0  0  0
   -0.7875    0.4452   -0.8721 H   0  0  0  0  0  0  0  0  0  0  0  0
    0.3445    2.2304    0.5537 H   0  0  0  0  0  0  0  0  0  0  0  0
    0.5415    1.0516    1.8355 H   0  0  0  0  0  0  0  0  0  0  0  0
   -1.9617    0.7823    1.9629 H   0  0  0  0  0  0  0  0  0  0  0  0
   -2.1425    1.9549    0.6549 H   0  0  0  0  0  0  0  0  0  0  0  0
   -0.8071    2.5185    3.3553 H   0  0  0  0  0  0  0  0  0  0  0  0
   -1.0288    3.6960    2.0585 H   0  0  0  0  0  0  0  0  0  0  0  0
   -3.3076    2.2317    3.5064 H   0  0  0  0  0  0  0  0  0  0  0  0
   -3.5115    3.4371    2.2273 H   0  0  0  0  0  0  0  0  0  0  0  0
   -1.8447    4.4497    4.1590 H   0  0  0  0  0  0  0  0  0  0  0  0
   -3.3281    4.9597    3.7051 H   0  0  0  0  0  0  0  0  0  0  0  0
    1.2980   -0.3302   -1.9703 N   0  0  0  0  0  0  0  0  0  0  0  0
    2.4946   -0.5131   -2.7600 C   0  0  2  0  0  0  0  0  0  0  0  0
    2.1664   -0.1499   -4.2021 C   0  0  0  0  0  0  0  0  0  0  0  0
    1.0678   -0.3577   -4.7128 O   0  0  0  0  0  0  0  0  0  0  0  0
    3.0090   -1.9409   -2.6626 C   0  0  0  0  0  0  0  0  0  0  0  0
    0.4072   -0.5144   -2.4220 H   0  0  0  0  0  0  0  0  0  0  0  0
    3.2421    0.1852   -2.3679 H   0  0  0  0  0  0  0  0  0  0  0  0
    2.2735   -2.6550   -3.0508 H   0  0  0  0  0  0  0  0  0  0  0  0
    3.9313   -2.0705   -3.2384 H   0  0  0  0  0  0  0  0  0  0  0  0
    3.2163   -2.2103   -1.6213 H   0  0  0  0  0  0  0  0  0  0  0  0
    3.2579    0.3941   -4.8647 N   0  0  0  0  0  0  0  0  0  0  0  0
    3.2124    0.7806   -6.2555 C   0  0  0  0  0  0  0  0  0  0  0  0
    4.1177    0.5677   -4.3524 H   0  0  0  0  0  0  0  0  0  0  0  0
    3.5520   -0.0581   -6.8810 H   0  0  0  0  0  0  0  0  0  0  0  0
    2.1806    1.0470   -6.5283 H   0  0  0  0  0  0  0  0  0  0  0  0
    3.8698    1.6477   -6.4167 H   0  0  0  0  0  0  0  0  0  0  0  0
  1  3  1  0  0  0  0
  1  7  1  0  0  0  0
  1  2  2  0  0  0  0
 39 40  1  0  0  0  0
 40 48  1  0  0  0  0
 40 41  2  0  0  0  0
  8  9  1  0  0  0  0
  9 17  1  0  0  0  0
  9 10  2  0  0  0  0
 18 19  1  0  0  0  0
 19 38  1  0  0  0  0
 19 20  2  0  0  0  0
 39 42  1  0  0  0  0
  8 11  1  0  0  0  0
 48 49  1  0  0  0  0
 22 23  1  0  0  0  0
 21 22  1  0  0  0  0
 23 24  1  0  0  0  0
 18 21  1  0  0  0  0
 24 25  1  0  0  0  0
 38 39  1  0  0  0  0
  7  8  1  0  0  0  0
 17 18  1  0  0  0  0
  3  4  1  0  0  0  0
  3  5  1  0  0  0  0
  3  6  1  0  0  0  0
 42 45  1  0  0  0  0
 42 46  1  0  0  0  0
 42 47  1  0  0  0  0
 11 14  1  0  0  0  0
 11 15  1  0  0  0  0
 11 16  1  0  0  0  0
 49 51  1  0  0  0  0
 49 52  1  0  0  0  0
 49 53  1  0  0  0  0
 22 30  1  0  0  0  0
 22 31  1  0  0  0  0
 23 32  1  0  0  0  0
 23 33  1  0  0  0  0
 21 28  1  0  0  0  0
 21 29  1  0  0  0  0
 24 34  1  0  0  0  0
 24 35  1  0  0  0  0
 39 44  1  0  0  0  0
  8 13  1  0  0  0  0
 18 27  1  0  0  0  0
 25 36  1  0  0  0  0
 25 37  1  0  0  0  0
 48 50  1  0  0  0  0
  7 12  1  0  0  0  0
 38 43  1  0  0  0  0
 17 26  1  0  0  0  0
M  END
$$$$

  -OEChem-05262214473D

 53 52  0     1  0  0  0  0  0999 V2000
   -1.0338   -5.6785    0.1476 C   0  0  0  0  0  0  0  0  0  0  0  0
   -2.0514   -5.7797    0.8227 O   0  0  0  0  0  0  0  0  0  0  0  0
   -0.6558   -6.7819   -0.7841 C   0  0  0  0  0  0  0  0  0  0  0  0
   -0.0111   -7.5354   -0.3038 H   0  0  0  0  0  0  0  0  0  0  0  0
   -1.5317   -7.3401   -1.1520 H   0  0  0  0  0  0  0  0  0  0  0  0
   -0.1109   -6.4687   -1.6890 H   0  0  0  0  0  0  0  0  0  0  0  0
   -0.1543   -4.6083    0.1480 N   0  0  0  0  0  0  0  0  0  0  0  0
   -0.3302   -3.4398    0.9696 C   0  0  2  0  0  0  0  0  0  0  0  0
    0.2328   -2.2439    0.2131 C   0  0  0  0  0  0  0  0  0  0  0  0
    1.2097   -2.3192   -0.5294 O   0  0  0  0  0  0  0  0  0  0  0  0
    0.3557   -3.6024    2.3171 C   0  0  0  0  0  0  0  0  0  0  0  0
    0.6584   -4.6506   -0.4643 H   0  0  0  0  0  0  0  0  0  0  0  0
   -1.4091   -3.3101    1.1082 H   0  0  0  0  0  0  0  0  0  0  0  0
    1.4375   -3.7336    2.1985 H   0  0  0  0  0  0  0  0  0  0  0  0
    0.1969   -2.7243    2.9517 H   0  0  0  0  0  0  0  0  0  0  0  0
   -0.0294   -4.4803    2.8470 H   0  0  0  0  0  0  0  0  0  0  0  0
   -0.4616   -1.0893    0.5050 N   0  0  0  0  0  0  0  0  0  0  0  0
   -0.0884    0.2050   -0.0621 C   0  0  2  0  0  0  0  0  0  0  0  0
    1.3171    0.0682   -0.6408 C   0  0  0  0  0  0  0  0  0  0  0  0
    2.3293    0.0426    0.0566 O   0  0  0  0  0  0  0  0  0  0  0  0
   -0.1014    1.3259    0.9881 C   0  0  0  0  0  0  0  0  0  0  0  0
   -1.5057    1.6642    1.4990 C   0  0  0  0  0  0  0  0  0  0  0  0
   -1.4636    2.8018    2.5229 C   0  0  0  0  0  0  0  0  0  0  0  0
   -2.8612    3.1221    3.0503 C   0  0  0  0  0  0  0  0  0  0  0  0
   -2.7962    4.1906    4.0402 N   0  0  0  0  0  0  0  0  0  0  0  0
   -1.2794   -1.1113    1.0935 H   0  0  0  0  0  0  0  0  0  0  0  0
   -0.7875    0.4452   -0.8721 H   0  0  0  0  0  0  0  0  0  0  0  0
    0.3445    2.2304    0.5537 H   0  0  0  0  0  0  0  0  0  0  0  0
    0.5415    1.0516    1.8355 H   0  0  0  0  0  0  0  0  0  0  0  0
   -1.9617    0.7823    1.9629 H   0  0  0  0  0  0  0  0  0  0  0  0
   -2.1425    1.9549    0.6549 H   0  0  0  0  0  0  0  0  0  0  0  0
   -0.8071    2.5185    3.3553 H   0  0  0  0  0  0  0  0  0  0  0  0
   -1.0288    3.6960    2.0585 H   0  0  0  0  0  0  0  0  0  0  0  0
   -3.3076    2.2317    3.5064 H   0  0  0  0  0  0  0  0  0  0  0  0
   -3.5115    3.4371    2.2273 H   0  0  0  0  0  0  0  0  0  0  0  0
   -1.8447    4.4497    4.1590 H   0  0  0  0  0  0  0  0  0  0  0  0
   -3.3281    4.9597    3.7051 H   0  0  0  0  0  0  0  0  0  0  0  0
    1.3068    0.0005   -2.0272 N   0  0  0  0  0  0  0  0  0  0  0  0
    2.5075   -0.1097   -2.8240 C   0  0  2  0  0  0  0  0  0  0  0  0
    2.2663    0.6165   -4.1409 C   0  0  0  0  0  0  0  0  0  0  0  0
    1.1714    0.6478   -4.6989 O   0  0  0  0  0  0  0  0  0  0  0  0
    2.8797   -1.5642   -3.0657 C   0  0  0  0  0  0  0  0  0  0  0  0
    0.4189    0.0196   -2.5198 H   0  0  0  0  0  0  0  0  0  0  0  0
    3.3039    0.3966   -2.2677 H   0  0  0  0  0  0  0  0  0  0  0  0
    2.0936   -2.0879   -3.6219 H   0  0  0  0  0  0  0  0  0  0  0  0
    3.8051   -1.6460   -3.6453 H   0  0  0  0  0  0  0  0  0  0  0  0
    3.0237   -2.0925   -2.1170 H   0  0  0  0  0  0  0  0  0  0  0  0
    3.4273    1.1890   -4.6414 N   0  0  0  0  0  0  0  0  0  0  0  0
    3.4677    1.8970   -5.8996 C   0  0  0  0  0  0  0  0  0  0  0  0
    4.2812    1.1484   -4.0928 H   0  0  0  0  0  0  0  0  0  0  0  0
    3.7476    1.2007   -6.7039 H   0  0  0  0  0  0  0  0  0  0  0  0
    2.4762    2.3232   -6.1123 H   0  0  0  0  0  0  0  0  0  0  0  0
    4.2100    2.7067   -5.8409 H   0  0  0  0  0  0  0  0  0  0  0  0
  1  3  1  0  0  0  0
  1  7  1  0  0  0  0
  1  2  2  0  0  0  0
 39 40  1  0  0  0  0
 40 48  1  0  0  0  0
 40 41  2  0  0  0  0
  8  9  1  0  0  0  0
  9 17  1  0  0  0  0
  9 10  2  0  0  0  0
 18 19  1  0  0  0  0
 19 38  1  0  0  0  0
 19 20  2  0  0  0  0
 39 42  1  0  0  0  0
  8 11  1  0  0  0  0
 48 49  1  0  0  0  0
 22 23  1  0  0  0  0
 21 22  1  0  0  0  0
 23 24  1  0  0  0  0
 18 21  1  0  0  0  0
 24 25  1  0  0  0  0
 38 39  1  0  0  0  0
  7  8  1  0  0  0  0
 17 18  1  0  0  0  0
  3  4  1  0  0  0  0
  3  5  1  0  0  0  0
  3  6  1  0  0  0  0
 42 45  1  0  0  0  0
 42 46  1  0  0  0  0
 42 47  1  0  0  0  0
 11 14  1  0  0  0  0
 11 15  1  0  0  0  0
 11 16  1  0  0  0  0
 49 51  1  0  0  0  0
 49 52  1  0  0  0  0
 49 53  1  0  0  0  0
 22 30  1  0  0  0  0
 22 31  1  0  0  0  0
 23 32  1  0  0  0  0
 23 33  1  0  0  0  0
 21 28  1  0  0  0  0
 21 29  1  0  0  0  0
 24 34  1  0  0  0  0
 24 35  1  0  0  0  0
 39 44  1  0  0  0  0
  8 13  1  0  0  0  0
 18 27  1  0  0  0  0
 25 36  1  0  0  0  0
 25 37  1  0  0  0  0
 48 50  1  0  0  0  0
  7 12  1  0  0  0  0
 38 43  1  0  0  0  0
 17 26  1  0  0  0  0
M  END
$$$$

  -OEChem-05262214473D

 53 52  0     1  0  0  0  0  0999 V2000
   -1.0338   -5.6785    0.1476 C   0  0  0  0  0  0  0  0  0  0  0  0
   -2.0514   -5.7797    0.8227 O   0  0  0  0  0  0  0  0  0  0  0  0
   -0.6558   -6.7819   -0.7841 C   0  0  0  0  0  0  0  0  0  0  0  0
   -0.0111   -7.5354   -0.3038 H   0  0  0  0  0  0  0  0  0  0  0  0
   -1.5317   -7.3401   -1.1520 H   0  0  0  0  0  0  0  0  0  0  0  0
   -0.1109   -6.4687   -1.6890 H   0  0  0  0  0  0  0  0  0  0  0  0
   -0.1543   -4.6083    0.1480 N   0  0  0  0  0  0  0  0  0  0  0  0
   -0.3302   -3.4398    0.9696 C   0  0  2  0  0  0  0  0  0  0  0  0
    0.2328   -2.2439    0.2131 C   0  0  0  0  0  0  0  0  0  0  0  0
    1.2097   -2.3192   -0.5294 O   0  0  0  0  0  0  0  0  0  0  0  0
    0.3557   -3.6024    2.3171 C   0  0  0  0  0  0  0  0  0  0  0  0
    0.6584   -4.6506   -0.4643 H   0  0  0  0  0  0  0  0  0  0  0  0
   -1.4091   -3.3101    1.1082 H   0  0  0  0  0  0  0  0  0  0  0  0
    1.4375   -3.7336    2.1985 H   0  0  0  0  0  0  0  0  0  0  0  0
    0.1969   -2.7243    2.9517 H   0  0  0  0  0  0  0  0  0  0  0  0
   -0.0294   -4.4803    2.8470 H   0  0  0  0  0  0  0  0  0  0  0  0
   -0.4616   -1.0893    0.5050 N   0  0  0  0  0  0  0  0  0  0  0  0
   -0.0884    0.2050   -0.0621 C   0  0  2  0  0  0  0  0  0  0  0  0
    1.3171    0.0682   -0.6408 C   0  0  0  0  0  0  0  0  0  0  0  0
    2.2971   -0.2241    0.0416 O   0  0  0  0  0  0  0  0  0  0  0  0
   -0.1014    1.3259    0.9881 C   0  0  0  0  0  0  0  0  0  0  0  0
   -1.5057    1.6642    1.4990 C   0  0  0  0  0  0  0  0  0  0  0  0
   -1.4636    2.8018    2.5229 C   0  0  0  0  0  0  0  0  0  0  0  0
   -2.8612    3.1221    3.0503 C   0  0  0  0  0  0  0  0  0  0  0  0
   -2.7962    4.1906    4.0402 N   0  0  0  0  0  0  0  0  0  0  0  0
   -1.2794   -1.1113    1.0935 H   0  0  0  0  0  0  0  0  0  0  0  0
   -0.7875    0.4452   -0.8721 H   0  0  0  0  0  0  0  0  0  0  0  0
    0.3445    2.2304    0.5537 H   0  0  0  0  0  0  0  0  0  0  0  0
    0.5415    1.0516    1.8355 H   0  0  0  0  0  0  0  0  0  0  0  0
   -1.9617    0.7823    1.9629 H   0  0  0  0  0  0  0  0  0  0  0  0
   -2.1425    1.9549    0.6549 H   0  0  0  0  0  0  0  0  0  0  0  0
   -0.8071    2.5185    3.3553 H   0  0  0  0  0  0  0  0  0  0  0  0
   -1.0288    3.6960    2.0585 H   0  0  0  0  0  0  0  0  0  0  0  0
   -3.3076    2.2317    3.5064 H   0  0  0  0  0  0  0  0  0  0  0  0
   -3.5115    3.4371    2.2273 H   0  0  0  0  0  0  0  0  0  0  0  0
   -1.8447    4.4497    4.1590 H   0  0  0  0  0  0  0  0  0  0  0  0
   -3.3281    4.9597    3.7051 H   0  0  0  0  0  0  0  0  0  0  0  0
    1.3491    0.3327   -2.0030 N   0  0  0  0  0  0  0  0  0  0  0  0
    2.5611    0.2940   -2.7895 C   0  0  2  0  0  0  0  0  0  0  0  0
    2.4366    1.3324   -3.8967 C   0  0  0  0  0  0  0  0  0  0  0  0
    1.3700    1.6055   -4.4433 O   0  0  0  0  0  0  0  0  0  0  0  0
    2.8011   -1.0916   -3.3682 C   0  0  0  0  0  0  0  0  0  0  0  0
    0.4849    0.5577   -2.4868 H   0  0  0  0  0  0  0  0  0  0  0  0
    3.3821    0.5708   -2.1191 H   0  0  0  0  0  0  0  0  0  0  0  0
    1.9888   -1.3863   -4.0426 H   0  0  0  0  0  0  0  0  0  0  0  0
    3.7343   -1.1266   -3.9400 H   0  0  0  0  0  0  0  0  0  0  0  0
    2.8607   -1.8416   -2.5721 H   0  0  0  0  0  0  0  0  0  0  0  0
    3.6637    1.8870   -4.2323 N   0  0  0  0  0  0  0  0  0  0  0  0
    3.8156    2.8655   -5.2838 C   0  0  0  0  0  0  0  0  0  0  0  0
    4.4900    1.6315   -3.6998 H   0  0  0  0  0  0  0  0  0  0  0  0
    4.0559    2.3553   -6.2282 H   0  0  0  0  0  0  0  0  0  0  0  0
    2.8773    3.4279   -5.3995 H   0  0  0  0  0  0  0  0  0  0  0  0
    4.6291    3.5589   -5.0245 H   0  0  0  0  0  0  0  0  0  0  0  0
  1  3  1  0  0  0  0
  1  7  1  0  0  0  0
  1  2  2  0  0  0  0
 39 40  1  0  0  0  0
 40 48  1  0  0  0  0
 40 41  2  0  0  0  0
  8  9  1  0  0  0  0
  9 17  1  0  0  0  0
  9 10  2  0  0  0  0
 18 19  1  0  0  0  0
 19 38  1  0  0  0  0
 19 20  2  0  0  0  0
 39 42  1  0  0  0  0
  8 11  1  0  0  0  0
 48 49  1  0  0  0  0
 22 23  1  0  0  0  0
 21 22  1  0  0  0  0
 23 24  1  0  0  0  0
 18 21  1  0  0  0  0
 24 25  1  0  0  0  0
 38 39  1  0  0  0  0
  7  8  1  0  0  0  0
 17 18  1  0  0  0  0
  3  4  1  0  0  0  0
  3  5  1  0  0  0  0
  3  6  1  0  0  0  0
 42 45  1  0  0  0  0
 42 46  1  0  0  0  0
 42 47  1  0  0  0  0
 11 14  1  0  0  0  0
 11 15  1  0  0  0  0
 11 16  1  0  0  0  0
 49 51  1  0  0  0  0
 49 52  1  0  0  0  0
 49 53  1  0  0  0  0
 22 30  1  0  0  0  0
 22 31  1  0  0  0  0
 23 32  1  0  0  0  0
 23 33  1  0  0  0  0
 21 28  1  0  0  0  0
 21 29  1  0  0  0  0
 24 34  1  0  0  0  0
 24 35  1  0  0  0  0
 39 44  1  0  0  0  0
  8 13  1  0  0  0  0
 18 27  1  0  0  0  0
 25 36  1  0  0  0  0
 25 37  1  0  0  0  0
 48 50  1  0  0  0  0
  7 12  1  0  0  0  0
 38 43  1  0  0  0  0
 17 26  1  0  0  0  0
M  END
$$$$

  -OEChem-05262214473D

 53 52  0     1  0  0  0  0  0999 V2000
   -1.0338   -5.6785    0.1476 C   0  0  0  0  0  0  0  0  0  0  0  0
   -2.0514   -5.7797    0.8227 O   0  0  0  0  0  0  0  0  0  0  0  0
   -0.6558   -6.7819   -0.7841 C   0  0  0  0  0  0  0  0  0  0  0  0
   -0.0111   -7.5354   -0.3038 H   0  0  0  0  0  0  0  0  0  0  0  0
   -1.5317   -7.3401   -1.1520 H   0  0  0  0  0  0  0  0  0  0  0  0
   -0.1109   -6.4687   -1.6890 H   0  0  0  0  0  0  0  0  0  0  0  0
   -0.1543   -4.6083    0.1480 N   0  0  0  0  0  0  0  0  0  0  0  0
   -0.3302   -3.4398    0.9696 C   0  0  2  0  0  0  0  0  0  0  0  0
    0.2328   -2.2439    0.2131 C   0  0  0  0  0  0  0  0  0  0  0  0
    1.2097   -2.3192   -0.5294 O   0  0  0  0  0  0  0  0  0  0  0  0
    0.3557   -3.6024    2.3171 C   0  0  0  0  0  0  0  0  0  0  0  0
    0.6584   -4.6506   -0.4643 H   0  0  0  0  0  0  0  0  0  0  0  0
   -1.4091   -3.3101    1.1082 H   0  0  0  0  0  0  0  0  0  0  0  0
    1.4375   -3.7336    2.1985 H   0  0  0  0  0  0  0  0  0  0  0  0
    0.1969   -2.7243    2.9517 H   0  0  0  0  0  0  0  0  0  0  0  0
   -0.0294   -4.4803    2.8470 H   0  0  0  0  0  0  0  0  0  0  0  0
   -0.4616   -1.0893    0.5050 N   0  0  0  0  0  0  0  0  0  0  0  0
   -0.0884    0.2050   -0.0621 C   0  0  2  0  0  0  0  0  0  0  0  0
    1.3171    0.0682   -0.6408 C   0  0  0  0  0  0  0  0  0  0  0  0
    2.2402   -0.4750   -0.0373 O   0  0  0  0  0  0  0  0  0  0  0  0
   -0.1014    1.3259    0.9881 C   0  0  0  0  0  0  0  0  0  0  0  0
   -1.5057    1.6642    1.4990 C   0  0  0  0  0  0  0  0  0  0  0  0
   -1.4636    2.8018    2.5229 C   0  0  0  0  0  0  0  0  0  0  0  0
   -2.8612    3.1221    3.0503 C   0  0  0  0  0  0  0  0  0  0  0  0
   -2.7962    4.1906    4.0402 N   0  0  0  0  0  0  0  0  0  0  0  0
   -1.2794   -1.1113    1.0935 H   0  0  0  0  0  0  0  0  0  0  0  0
   -0.7875    0.4452   -0.8721 H   0  0  0  0  0  0  0  0  0  0  0  0
    0.3445    2.2304    0.5537 H   0  0  0  0  0  0  0  0  0  0  0  0
    0.5415    1.0516    1.8355 H   0  0  0  0  0  0  0  0  0  0  0  0
   -1.9617    0.7823    1.9629 H   0  0  0  0  0  0  0  0  0  0  0  0
   -2.1425    1.9549    0.6549 H   0  0  0  0  0  0  0  0  0  0  0  0
   -0.8071    2.5185    3.3553 H   0  0  0  0  0  0  0  0  0  0  0  0
   -1.0288    3.6960    2.0585 H   0  0  0  0  0  0  0  0  0  0  0  0
   -3.3076    2.2317    3.5064 H   0  0  0  0  0  0  0  0  0  0  0  0
   -3.5115    3.4371    2.2273 H   0  0  0  0  0  0  0  0  0  0  0  0
   -1.8447    4.4497    4.1590 H   0  0  0  0  0  0  0  0  0  0  0  0
   -3.3281    4.9597    3.7051 H   0  0  0  0  0  0  0  0  0  0  0  0
    1.4220    0.6437   -1.8996 N   0  0  0  0  0  0  0  0  0  0  0  0
    2.6516    0.6705   -2.6586 C   0  0  2  0  0  0  0  0  0  0  0  0
    2.6656    1.9489   -3.4862 C   0  0  0  0  0  0  0  0  0  0  0  0
    1.6498    2.4501   -3.9635 O   0  0  0  0  0  0  0  0  0  0  0  0
    2.7787   -0.5553   -3.5497 C   0  0  0  0  0  0  0  0  0  0  0  0
    0.6007    1.0630   -2.3251 H   0  0  0  0  0  0  0  0  0  0  0  0
    3.4712    0.6960   -1.9322 H   0  0  0  0  0  0  0  0  0  0  0  0
    1.9661   -0.5980   -4.2841 H   0  0  0  0  0  0  0  0  0  0  0  0
    3.7238   -0.5477   -4.1026 H   0  0  0  0  0  0  0  0  0  0  0  0
    2.7385   -1.4748   -2.9557 H   0  0  0  0  0  0  0  0  0  0  0  0
    3.9511    2.4406   -3.6653 N   0  0  0  0  0  0  0  0  0  0  0  0
    4.2323    3.6200   -4.4501 C   0  0  0  0  0  0  0  0  0  0  0  0
    4.7301    1.9839   -3.2002 H   0  0  0  0  0  0  0  0  0  0  0  0
    4.4559    3.3268   -5.4864 H   0  0  0  0  0  0  0  0  0  0  0  0
    3.3566    4.2856   -4.4383 H   0  0  0  0  0  0  0  0  0  0  0  0
    5.0987    4.1464   -4.0230 H   0  0  0  0  0  0  0  0  0  0  0  0
  1  3  1  0  0  0  0
  1  7  1  0  0  0  0
  1  2  2  0  0  0  0
 39 40  1  0  0  0  0
 40 48  1  0  0  0  0
 40 41  2  0  0  0  0
  8  9  1  0  0  0  0
  9 17  1  0  0  0  0
  9 10  2  0  0  0  0
 18 19  1  0  0  0  0
 19 38  1  0  0  0  0
 19 20  2  0  0  0  0
 39 42  1  0  0  0  0
  8 11  1  0  0  0  0
 48 49  1  0  0  0  0
 22 23  1  0  0  0  0
 21 22  1  0  0  0  0
 23 24  1  0  0  0  0
 18 21  1  0  0  0  0
 24 25  1  0  0  0  0
 38 39  1  0  0  0  0
  7  8  1  0  0  0  0
 17 18  1  0  0  0  0
  3  4  1  0  0  0  0
  3  5  1  0  0  0  0
  3  6  1  0  0  0  0
 42 45  1  0  0  0  0
 42 46  1  0  0  0  0
 42 47  1  0  0  0  0
 11 14  1  0  0  0  0
 11 15  1  0  0  0  0
 11 16  1  0  0  0  0
 49 51  1  0  0  0  0
 49 52  1  0  0  0  0
 49 53  1  0  0  0  0
 22 30  1  0  0  0  0
 22 31  1  0  0  0  0
 23 32  1  0  0  0  0
 23 33  1  0  0  0  0
 21 28  1  0  0  0  0
 21 29  1  0  0  0  0
 24 34  1  0  0  0  0
 24 35  1  0  0  0  0
 39 44  1  0  0  0  0
  8 13  1  0  0  0  0
 18 27  1  0  0  0  0
 25 36  1  0  0  0  0
 25 37  1  0  0  0  0
 48 50  1  0  0  0  0
  7 12  1  0  0  0  0
 38 43  1  0  0  0  0
 17 26  1  0  0  0  0
M  END
$$$$

  -OEChem-05262214473D

 53 52  0     1  0  0  0  0  0999 V2000
   -1.0338   -5.6785    0.1476 C   0  0  0  0  0  0  0  0  0  0  0  0
   -2.0514   -5.7797    0.8227 O   0  0  0  0  0  0  0  0  0  0  0  0
   -0.6558   -6.7819   -0.7841 C   0  0  0  0  0  0  0  0  0  0  0  0
   -0.0111   -7.5354   -0.3038 H   0  0  0  0  0  0  0  0  0  0  0  0
   -1.5317   -7.3401   -1.1520 H   0  0  0  0  0  0  0  0  0  0  0  0
   -0.1109   -6.4687   -1.6890 H   0  0  0  0  0  0  0  0  0  0  0  0
   -0.1543   -4.6083    0.1480 N   0  0  0  0  0  0  0  0  0  0  0  0
   -0.3302   -3.4398    0.9696 C   0  0  2  0  0  0  0  0  0  0  0  0
    0.2328   -2.2439    0.2131 C   0  0  0  0  0  0  0  0  0  0  0  0
    1.2097   -2.3192   -0.5294 O   0  0  0  0  0  0  0  0  0  0  0  0
    0.3557   -3.6024    2.3171 C   0  0  0  0  0  0  0  0  0  0  0  0
    0.6584   -4.6506   -0.4643 H   0  0  0  0  0  0  0  0  0  0  0  0
   -1.4091   -3.3101    1.1082 H   0  0  0  0  0  0  0  0  0  0  0  0
    1.4375   -3.7336    2.1985 H   0  0  0  0  0  0  0  0  0  0  0  0
    0.1969   -2.7243    2.9517 H   0  0  0  0  0  0  0  0  0  0  0  0
   -0.0294   -4.4803    2.8470 H   0  0  0  0  0  0  0  0  0  0  0  0
   -0.4616   -1.0893    0.5050 N   0  0  0  0  0  0  0  0  0  0  0  0
   -0.0884    0.2050   -0.0621 C   0  0  2  0  0  0  0  0  0  0  0  0
    1.3171    0.0682   -0.6408 C   0  0  0  0  0  0  0  0  0  0  0  0
    2.1624   -0.6930   -0.1745 O   0  0  0  0  0  0  0  0  0  0  0  0
   -0.1014    1.3259    0.9881 C   0  0  0  0  0  0  0  0  0  0  0  0
   -1.5057    1.6642    1.4990 C   0  0  0  0  0  0  0  0  0  0  0  0
   -1.4636    2.8018    2.5229 C   0  0  0  0  0  0  0  0  0  0  0  0
   -2.8612    3.1221    3.0503 C   0  0  0  0  0  0  0  0  0  0  0  0
   -2.7962    4.1906    4.0402 N   0  0  0  0  0  0  0  0  0  0  0  0
   -1.2794   -1.1113    1.0935 H   0  0  0  0  0  0  0  0  0  0  0  0
   -0.7875    0.4452   -0.8721 H   0  0  0  0  0  0  0  0  0  0  0  0
    0.3445    2.2304    0.5537 H   0  0  0  0  0  0  0  0  0  0  0  0
    0.5415    1.0516    1.8355 H   0  0  0  0  0  0  0  0  0  0  0  0
   -1.9617    0.7823    1.9629 H   0  0  0  0  0  0  0  0  0  0  0  0
   -2.1425    1.9549    0.6549 H   0  0  0  0  0  0  0  0  0  0  0  0
   -0.8071    2.5185    3.3553 H   0  0  0  0  0  0  0  0  0  0  0  0
   -1.0288    3.6960    2.0585 H   0  0  0  0  0  0  0  0  0  0  0  0
   -3.3076    2.2317    3.5064 H   0  0  0  0  0  0  0  0  0  0  0  0
   -3.5115    3.4371    2.2273 H   0  0  0  0  0  0  0  0  0  0  0  0
   -1.8447    4.4497    4.1590 H   0  0  0  0  0  0  0  0  0  0  0  0
   -3.3281    4.9597    3.7051 H   0  0  0  0  0  0  0  0  0  0  0  0
    1.5205    0.9122   -1.7238 N   0  0  0  0  0  0  0  0  0  0  0  0
    2.7730    0.9940   -2.4403 C   0  0  2  0  0  0  0  0  0  0  0  0
    2.9379    2.4241   -2.9375 C   0  0  0  0  0  0  0  0  0  0  0  0
    1.9918    3.1242   -3.2923 O   0  0  0  0  0  0  0  0  0  0  0  0
    2.8138    0.0082   -3.5976 C   0  0  0  0  0  0  0  0  0  0  0  0
    0.7584    1.5012   -2.0458 H   0  0  0  0  0  0  0  0  0  0  0  0
    3.5653    0.7636   -1.7198 H   0  0  0  0  0  0  0  0  0  0  0  0
    2.0272    0.2232   -4.3300 H   0  0  0  0  0  0  0  0  0  0  0  0
    3.7742    0.0513   -4.1218 H   0  0  0  0  0  0  0  0  0  0  0  0
    2.6653   -1.0170   -3.2416 H   0  0  0  0  0  0  0  0  0  0  0  0
    4.2698    2.8119   -2.9791 N   0  0  0  0  0  0  0  0  0  0  0  0
    4.6896    4.1092   -3.4552 C   0  0  0  0  0  0  0  0  0  0  0  0
    4.9849    2.1817   -2.6280 H   0  0  0  0  0  0  0  0  0  0  0  0
    4.9205    4.0492   -4.5290 H   0  0  0  0  0  0  0  0  0  0  0  0
    3.8815    4.8379   -3.2942 H   0  0  0  0  0  0  0  0  0  0  0  0
    5.5867    4.4290   -2.9047 H   0  0  0  0  0  0  0  0  0  0  0  0
  1  3  1  0  0  0  0
  1  7  1  0  0  0  0
  1  2  2  0  0  0  0
 39 40  1  0  0  0  0
 40 48  1  0  0  0  0
 40 41  2  0  0  0  0
  8  9  1  0  0  0  0
  9 17  1  0  0  0  0
  9 10  2  0  0  0  0
 18 19  1  0  0  0  0
 19 38  1  0  0  0  0
 19 20  2  0  0  0  0
 39 42  1  0  0  0  0
  8 11  1  0  0  0  0
 48 49  1  0  0  0  0
 22 23  1  0  0  0  0
 21 22  1  0  0  0  0
 23 24  1  0  0  0  0
 18 21  1  0  0  0  0
 24 25  1  0  0  0  0
 38 39  1  0  0  0  0
  7  8  1  0  0  0  0
 17 18  1  0  0  0  0
  3  4  1  0  0  0  0
  3  5  1  0  0  0  0
  3  6  1  0  0  0  0
 42 45  1  0  0  0  0
 42 46  1  0  0  0  0
 42 47  1  0  0  0  0
 11 14  1  0  0  0  0
 11 15  1  0  0  0  0
 11 16  1  0  0  0  0
 49 51  1  0  0  0  0
 49 52  1  0  0  0  0
 49 53  1  0  0  0  0
 22 30  1  0  0  0  0
 22 31  1  0  0  0  0
 23 32  1  0  0  0  0
 23 33  1  0  0  0  0
 21 28  1  0  0  0  0
 21 29  1  0  0  0  0
 24 34  1  0  0  0  0
 24 35  1  0  0  0  0
 39 44  1  0  0  0  0
  8 13  1  0  0  0  0
 18 27  1  0  0  0  0
 25 36  1  0  0  0  0
 25 37  1  0  0  0  0
 48 50  1  0  0  0  0
  7 12  1  0  0  0  0
 38 43  1  0  0  0  0
 17 26  1  0  0  0  0
M  END
$$$$

  -OEChem-05262214473D

 53 52  0     1  0  0  0  0  0999 V2000
   -1.0338   -5.6785    0.1476 C   0  0  0  0  0  0  0  0  0  0  0  0
   -2.0514   -5.7797    0.8227 O   0  0  0  0  0  0  0  0  0  0  0  0
   -0.6558   -6.7819   -0.7841 C   0  0  0  0  0  0  0  0  0  0  0  0
   -0.0111   -7.5354   -0.3038 H   0  0  0  0  0  0  0  0  0  0  0  0
   -1.5317   -7.3401   -1.1520 H   0  0  0  0  0  0  0  0  0  0  0  0
   -0.1109   -6.4687   -1.6890 H   0  0  0  0  0  0  0  0  0  0  0  0
   -0.1543   -4.6083    0.1480 N   0  0  0  0  0  0  0  0  0  0  0  0
   -0.3302   -3.4398    0.9696 C   0  0  2  0  0  0  0  0  0  0  0  0
    0.2328   -2.2439    0.2131 C   0  0  0  0  0  0  0  0  0  0  0  0
    1.2097   -2.3192   -0.5294 O   0  0  0  0  0  0  0  0  0  0  0  0
    0.3557   -3.6024    2.3171 C   0  0  0  0  0  0  0  0  0  0  0  0
    0.6584   -4.6506   -0.4643 H   0  0  0  0  0  0  0  0  0  0  0  0
   -1.4091   -3.3101    1.1082 H   0  0  0  0  0  0  0  0  0  0  0  0
    1.4375   -3.7336    2.1985 H   0  0  0  0  0  0  0  0  0  0  0  0
    0.1969   -2.7243    2.9517 H   0  0  0  0  0  0  0  0  0  0  0  0
   -0.0294   -4.4803    2.8470 H   0  0  0  0  0  0  0  0  0  0  0  0
   -0.4616   -1.0893    0.5050 N   0  0  0  0  0  0  0  0  0  0  0  0
   -0.0884    0.2050   -0.0621 C   0  0  2  0  0  0  0  0  0  0  0  0
    1.3171    0.0682   -0.6408 C   0  0  0  0  0  0  0  0  0  0  0  0
    2.0691   -0.8632   -0.3609 O   0  0  0  0  0  0  0  0  0  0  0  0
   -0.1014    1.3259    0.9881 C   0  0  0  0  0  0  0  0  0  0  0  0
   -1.5057    1.6642    1.4990 C   0  0  0  0  0  0  0  0  0  0  0  0
   -1.4636    2.8018    2.5229 C   0  0  0  0  0  0  0  0  0  0  0  0
   -2.8612    3.1221    3.0503 C   0  0  0  0  0  0  0  0  0  0  0  0
   -2.7962    4.1906    4.0402 N   0  0  0  0  0  0  0  0  0  0  0  0
   -1.2794   -1.1113    1.0935 H   0  0  0  0  0  0  0  0  0  0  0  0
   -0.7875    0.4452   -0.8721 H   0  0  0  0  0  0  0  0  0  0  0  0
    0.3445    2.2304    0.5537 H   0  0  0  0  0  0  0  0  0  0  0  0
    0.5415    1.0516    1.8355 H   0  0  0  0  0  0  0  0  0  0  0  0
   -1.9617    0.7823    1.9629 H   0  0  0  0  0  0  0  0  0  0  0  0
   -2.1425    1.9549    0.6549 H   0  0  0  0  0  0  0  0  0  0  0  0
   -0.8071    2.5185    3.3553 H   0  0  0  0  0  0  0  0  0  0  0  0
   -1.0288    3.6960    2.0585 H   0  0  0  0  0  0  0  0  0  0  0  0
   -3.3076    2.2317    3.5064 H   0  0  0  0  0  0  0  0  0  0  0  0
   -3.5115    3.4371    2.2273 H   0  0  0  0  0  0  0  0  0  0  0  0
   -1.8447    4.4497    4.1590 H   0  0  0  0  0  0  0  0  0  0  0  0
   -3.3281    4.9597    3.7051 H   0  0  0  0  0  0  0  0  0  0  0  0
    1.6380    1.1200   -1.4877 N   0  0  0  0  0  0  0  0  0  0  0  0
    2.9169    1.2426   -2.1496 C   0  0  2  0  0  0  0  0  0  0  0  0
    3.2347    2.7256   -2.2878 C   0  0  0  0  0  0  0  0  0  0  0  0
    2.3727    3.5817   -2.4753 O   0  0  0  0  0  0  0  0  0  0  0  0
    2.9042    0.5605   -3.5087 C   0  0  0  0  0  0  0  0  0  0  0  0
    0.9472    1.8425   -1.6679 H   0  0  0  0  0  0  0  0  0  0  0  0
    3.6578    0.7691   -1.4963 H   0  0  0  0  0  0  0  0  0  0  0  0
    2.1678    1.0214   -4.1772 H   0  0  0  0  0  0  0  0  0  0  0  0
    3.8821    0.6295   -3.9965 H   0  0  0  0  0  0  0  0  0  0  0  0
    2.6462   -0.4995   -3.4104 H   0  0  0  0  0  0  0  0  0  0  0  0
    4.5982    2.9757   -2.2202 N   0  0  0  0  0  0  0  0  0  0  0  0
    5.1562    4.2997   -2.3670 C   0  0  0  0  0  0  0  0  0  0  0  0
    5.2372    2.2113   -2.0223 H   0  0  0  0  0  0  0  0  0  0  0  0
    5.4179    4.4731   -3.4213 H   0  0  0  0  0  0  0  0  0  0  0  0
    4.4161    5.0472   -2.0453 H   0  0  0  0  0  0  0  0  0  0  0  0
    6.0598    4.3876   -1.7458 H   0  0  0  0  0  0  0  0  0  0  0  0
  1  3  1  0  0  0  0
  1  7  1  0  0  0  0
  1  2  2  0  0  0  0
 39 40  1  0  0  0  0
 40 48  1  0  0  0  0
 40 41  2  0  0  0  0
  8  9  1  0  0  0  0
  9 17  1  0  0  0  0
  9 10  2  0  0  0  0
 18 19  1  0  0  0  0
 19 38  1  0  0  0  0
 19 20  2  0  0  0  0
 39 42  1  0  0  0  0
  8 11  1  0  0  0  0
 48 49  1  0  0  0  0
 22 23  1  0  0  0  0
 21 22  1  0  0  0  0
 23 24  1  0  0  0  0
 18 21  1  0  0  0  0
 24 25  1  0  0  0  0
 38 39  1  0  0  0  0
  7  8  1  0  0  0  0
 17 18  1  0  0  0  0
  3  4  1  0  0  0  0
  3  5  1  0  0  0  0
  3  6  1  0  0  0  0
 42 45  1  0  0  0  0
 42 46  1  0  0  0  0
 42 47  1  0  0  0  0
 11 14  1  0  0  0  0
 11 15  1  0  0  0  0
 11 16  1  0  0  0  0
 49 51  1  0  0  0  0
 49 52  1  0  0  0  0
 49 53  1  0  0  0  0
 22 30  1  0  0  0  0
 22 31  1  0  0  0  0
 23 32  1  0  0  0  0
 23 33  1  0  0  0  0
 21 28  1  0  0  0  0
 21 29  1  0  0  0  0
 24 34  1  0  0  0  0
 24 35  1  0  0  0  0
 39 44  1  0  0  0  0
  8 13  1  0  0  0  0
 18 27  1  0  0  0  0
 25 36  1  0  0  0  0
 25 37  1  0  0  0  0
 48 50  1  0  0  0  0
  7 12  1  0  0  0  0
 38 43  1  0  0  0  0
 17 26  1  0  0  0  0
M  END
$$$$

  -OEChem-05262214473D

 53 52  0     1  0  0  0  0  0999 V2000
   -1.0338   -5.6785    0.1476 C   0  0  0  0  0  0  0  0  0  0  0  0
   -2.0514   -5.7797    0.8227 O   0  0  0  0  0  0  0  0  0  0  0  0
   -0.6558   -6.7819   -0.7841 C   0  0  0  0  0  0  0  0  0  0  0  0
   -0.0111   -7.5354   -0.3038 H   0  0  0  0  0  0  0  0  0  0  0  0
   -1.5317   -7.3401   -1.1520 H   0  0  0  0  0  0  0  0  0  0  0  0
   -0.1109   -6.4687   -1.6890 H   0  0  0  0  0  0  0  0  0  0  0  0
   -0.1543   -4.6083    0.1480 N   0  0  0  0  0  0  0  0  0  0  0  0
   -0.3302   -3.4398    0.9696 C   0  0  2  0  0  0  0  0  0  0  0  0
    0.2328   -2.2439    0.2131 C   0  0  0  0  0  0  0  0  0  0  0  0
    1.2097   -2.3192   -0.5294 O   0  0  0  0  0  0  0  0  0  0  0  0
    0.3557   -3.6024    2.3171 C   0  0  0  0  0  0  0  0  0  0  0  0
    0.6584   -4.6506   -0.4643 H   0  0  0  0  0  0  0  0  0  0  0  0
   -1.4091   -3.3101    1.1082 H   0  0  0  0  0  0  0  0  0  0  0  0
    1.4375   -3.7336    2.1985 H   0  0  0  0  0  0  0  0  0  0  0  0
    0.1969   -2.7243    2.9517 H   0  0  0  0  0  0  0  0  0  0  0  0
   -0.0294   -4.4803    2.8470 H   0  0  0  0  0  0  0  0  0  0  0  0
   -0.4616   -1.0893    0.5050 N   0  0  0  0  0  0  0  0  0  0  0  0
   -0.0884    0.2050   -0.0621 C   0  0  2  0  0  0  0  0  0  0  0  0
    1.1268   -0.0161   -0.9583 C   0  0  0  0  0  0  0  0  0  0  0  0
    1.6559   -1.1154   -1.1106 O   0  0  0  0  0  0  0  0  0  0  0  0
    0.2574    1.2372    1.0216 C   0  0  0  0  0  0  0  0  0  0  0  0
   -0.9503    1.6634    1.8628 C   0  0  0  0  0  0  0  0  0  0  0  0
   -0.5553    2.7091    2.9091 C   0  0  0  0  0  0  0  0  0  0  0  0
   -1.7546    3.1156    3.7638 C   0  0  0  0  0  0  0  0  0  0  0  0
   -1.3526    4.0932    4.7680 N   0  0  0  0  0  0  0  0  0  0  0  0
   -1.2794   -1.1113    1.0935 H   0  0  0  0  0  0  0  0  0  0  0  0
   -0.9222    0.5713   -0.6730 H   0  0  0  0  0  0  0  0  0  0  0  0
    0.6888    2.1274    0.5453 H   0  0  0  0  0  0  0  0  0  0  0  0
    1.0415    0.8394    1.6801 H   0  0  0  0  0  0  0  0  0  0  0  0
   -1.3823    0.7942    2.3714 H   0  0  0  0  0  0  0  0  0  0  0  0
   -1.7260    2.0767    1.2070 H   0  0  0  0  0  0  0  0  0  0  0  0
    0.2377    2.3023    3.5494 H   0  0  0  0  0  0  0  0  0  0  0  0
   -0.1425    3.5925    2.4057 H   0  0  0  0  0  0  0  0  0  0  0  0
   -2.1801    2.2376    4.2620 H   0  0  0  0  0  0  0  0  0  0  0  0
   -2.5360    3.5526    3.1330 H   0  0  0  0  0  0  0  0  0  0  0  0
   -0.3766    4.2530    4.6762 H   0  0  0  0  0  0  0  0  0  0  0  0
   -1.8601    4.9320    4.6082 H   0  0  0  0  0  0  0  0  0  0  0  0
    1.5619    1.1624   -1.5487 N   0  0  0  0  0  0  0  0  0  0  0  0
    2.7081    1.2330   -2.4262 C   0  0  2  0  0  0  0  0  0  0  0  0
    3.3615    2.5958   -2.2376 C   0  0  0  0  0  0  0  0  0  0  0  0
    2.7234    3.6177   -1.9936 O   0  0  0  0  0  0  0  0  0  0  0  0
    2.3080    1.0183   -3.8775 C   0  0  0  0  0  0  0  0  0  0  0  0
    1.0549    2.0245   -1.3717 H   0  0  0  0  0  0  0  0  0  0  0  0
    3.4010    0.4476   -2.1052 H   0  0  0  0  0  0  0  0  0  0  0  0
    1.6138    1.7957   -4.2170 H   0  0  0  0  0  0  0  0  0  0  0  0
    3.1811    1.0436   -4.5378 H   0  0  0  0  0  0  0  0  0  0  0  0
    1.8115    0.0504   -4.0058 H   0  0  0  0  0  0  0  0  0  0  0  0
    4.7369    2.5443   -2.4164 N   0  0  0  0  0  0  0  0  0  0  0  0
    5.5784    3.7151   -2.3320 C   0  0  0  0  0  0  0  0  0  0  0  0
    5.1868    1.6478   -2.5761 H   0  0  0  0  0  0  0  0  0  0  0  0
    5.7035    4.1505   -3.3344 H   0  0  0  0  0  0  0  0  0  0  0  0
    5.1105    4.4555   -1.6665 H   0  0  0  0  0  0  0  0  0  0  0  0
    6.5623    3.4311   -1.9303 H   0  0  0  0  0  0  0  0  0  0  0  0
  1  3  1  0  0  0  0
  1  7  1  0  0  0  0
  1  2  2  0  0  0  0
 39 40  1  0  0  0  0
 40 48  1  0  0  0  0
 40 41  2  0  0  0  0
  8  9  1  0  0  0  0
  9 17  1  0  0  0  0
  9 10  2  0  0  0  0
 18 19  1  0  0  0  0
 19 38  1  0  0  0  0
 19 20  2  0  0  0  0
 39 42  1  0  0  0  0
  8 11  1  0  0  0  0
 48 49  1  0  0  0  0
 22 23  1  0  0  0  0
 21 22  1  0  0  0  0
 23 24  1  0  0  0  0
 18 21  1  0  0  0  0
 24 25  1  0  0  0  0
 38 39  1  0  0  0  0
  7  8  1  0  0  0  0
 17 18  1  0  0  0  0
  3  4  1  0  0  0  0
  3  5  1  0  0  0  0
  3  6  1  0  0  0  0
 42 45  1  0  0  0  0
 42 46  1  0  0  0  0
 42 47  1  0  0  0  0
 11 14  1  0  0  0  0
 11 15  1  0  0  0  0
 11 16  1  0  0  0  0
 49 51  1  0  0  0  0
 49 52  1  0  0  0  0
 49 53  1  0  0  0  0
 22 30  1  0  0  0  0
 22 31  1  0  0  0  0
 23 32  1  0  0  0  0
 23 33  1  0  0  0  0
 21 28  1  0  0  0  0
 21 29  1  0  0  0  0
 24 34  1  0  0  0  0
 24 35  1  0  0  0  0
 39 44  1  0  0  0  0
  8 13  1  0  0  0  0
 18 27  1  0  0  0  0
 25 36  1  0  0  0  0
 25 37  1  0  0  0  0
 48 50  1  0  0  0  0
  7 12  1  0  0  0  0
 38 43  1  0  0  0  0
 17 26  1  0  0  0  0
M  END
$$$$

  -OEChem-05262214473D

 53 52  0     1  0  0  0  0  0999 V2000
   -1.0338   -5.6785    0.1476 C   0  0  0  0  0  0  0  0  0  0  0  0
   -2.0514   -5.7797    0.8227 O   0  0  0  0  0  0  0  0  0  0  0  0
   -0.6558   -6.7819   -0.7841 C   0  0  0  0  0  0  0  0  0  0  0  0
   -0.0111   -7.5354   -0.3038 H   0  0  0  0  0  0  0  0  0  0  0  0
   -1.5317   -7.3401   -1.1520 H   0  0  0  0  0  0  0  0  0  0  0  0
   -0.1109   -6.4687   -1.6890 H   0  0  0  0  0  0  0  0  0  0  0  0
   -0.1543   -4.6083    0.1480 N   0  0  0  0  0  0  0  0  0  0  0  0
   -0.3302   -3.4398    0.9696 C   0  0  2  0  0  0  0  0  0  0  0  0
    0.2328   -2.2439    0.2131 C   0  0  0  0  0  0  0  0  0  0  0  0
    1.2097   -2.3192   -0.5294 O   0  0  0  0  0  0  0  0  0  0  0  0
    0.3557   -3.6024    2.3171 C   0  0  0  0  0  0  0  0  0  0  0  0
    0.6584   -4.6506   -0.4643 H   0  0  0  0  0  0  0  0  0  0  0  0
   -1.4091   -3.3101    1.1082 H   0  0  0  0  0  0  0  0  0  0  0  0
    1.4375   -3.7336    2.1985 H   0  0  0  0  0  0  0  0  0  0  0  0
    0.1969   -2.7243    2.9517 H   0  0  0  0  0  0  0  0  0  0  0  0
   -0.0294   -4.4803    2.8470 H   0  0  0  0  0  0  0  0  0  0  0  0
   -0.4616   -1.0893    0.5050 N   0  0  0  0  0  0  0  0  0  0  0  0
   -0.0884    0.2050   -0.0621 C   0  0  2  0  0  0  0  0  0  0  0  0
    1.1268   -0.0161   -0.9583 C   0  0  0  0  0  0  0  0  0  0  0  0
    1.4947   -1.1303   -1.3255 O   0  0  0  0  0  0  0  0  0  0  0  0
    0.2574    1.2372    1.0216 C   0  0  0  0  0  0  0  0  0  0  0  0
   -0.9503    1.6634    1.8628 C   0  0  0  0  0  0  0  0  0  0  0  0
   -0.5553    2.7091    2.9091 C   0  0  0  0  0  0  0  0  0  0  0  0
   -1.7546    3.1156    3.7638 C   0  0  0  0  0  0  0  0  0  0  0  0
   -1.3526    4.0932    4.7680 N   0  0  0  0  0  0  0  0  0  0  0  0
   -1.2794   -1.1113    1.0935 H   0  0  0  0  0  0  0  0  0  0  0  0
   -0.9222    0.5713   -0.6730 H   0  0  0  0  0  0  0  0  0  0  0  0
    0.6888    2.1274    0.5453 H   0  0  0  0  0  0  0  0  0  0  0  0
    1.0415    0.8394    1.6801 H   0  0  0  0  0  0  0  0  0  0  0  0
   -1.3823    0.7942    2.3714 H   0  0  0  0  0  0  0  0  0  0  0  0
   -1.7260    2.0767    1.2070 H   0  0  0  0  0  0  0  0  0  0  0  0
    0.2377    2.3023    3.5494 H   0  0  0  0  0  0  0  0  0  0  0  0
   -0.1425    3.5925    2.4057 H   0  0  0  0  0  0  0  0  0  0  0  0
   -2.1801    2.2376    4.2620 H   0  0  0  0  0  0  0  0  0  0  0  0
   -2.5360    3.5526    3.1330 H   0  0  0  0  0  0  0  0  0  0  0  0
   -0.3766    4.2530    4.6762 H   0  0  0  0  0  0  0  0  0  0  0  0
   -1.8601    4.9320    4.6082 H   0  0  0  0  0  0  0  0  0  0  0  0
    1.7626    1.1752   -1.2798 N   0  0  0  0  0  0  0  0  0  0  0  0
    2.9518    1.2430   -2.0982 C   0  0  2  0  0  0  0  0  0  0  0  0
    3.7888    2.4201   -1.6150 C   0  0  0  0  0  0  0  0  0  0  0  0
    3.2969    3.4579   -1.1766 O   0  0  0  0  0  0  0  0  0  0  0  0
    2.6024    1.3927   -3.5707 C   0  0  0  0  0  0  0  0  0  0  0  0
    1.3800    2.0516   -0.9375 H   0  0  0  0  0  0  0  0  0  0  0  0
    3.5026    0.3105   -1.9336 H   0  0  0  0  0  0  0  0  0  0  0  0
    2.0502    2.3215   -3.7551 H   0  0  0  0  0  0  0  0  0  0  0  0
    3.5038    1.4153   -4.1921 H   0  0  0  0  0  0  0  0  0  0  0  0
    1.9756    0.5606   -3.9091 H   0  0  0  0  0  0  0  0  0  0  0  0
    5.1489    2.1922   -1.7709 N   0  0  0  0  0  0  0  0  0  0  0  0
    6.1488    3.1756   -1.4255 C   0  0  0  0  0  0  0  0  0  0  0  0
    5.4690    1.2879   -2.1047 H   0  0  0  0  0  0  0  0  0  0  0  0
    6.3903    3.7806   -2.3118 H   0  0  0  0  0  0  0  0  0  0  0  0
    5.7608    3.8291   -0.6302 H   0  0  0  0  0  0  0  0  0  0  0  0
    7.0569    2.6660   -1.0709 H   0  0  0  0  0  0  0  0  0  0  0  0
  1  3  1  0  0  0  0
  1  7  1  0  0  0  0
  1  2  2  0  0  0  0
 39 40  1  0  0  0  0
 40 48  1  0  0  0  0
 40 41  2  0  0  0  0
  8  9  1  0  0  0  0
  9 17  1  0  0  0  0
  9 10  2  0  0  0  0
 18 19  1  0  0  0  0
 19 38  1  0  0  0  0
 19 20  2  0  0  0  0
 39 42  1  0  0  0  0
  8 11  1  0  0  0  0
 48 49  1  0  0  0  0
 22 23  1  0  0  0  0
 21 22  1  0  0  0  0
 23 24  1  0  0  0  0
 18 21  1  0  0  0  0
 24 25  1  0  0  0  0
 38 39  1  0  0  0  0
  7  8  1  0  0  0  0
 17 18  1  0  0  0  0
  3  4  1  0  0  0  0
  3  5  1  0  0  0  0
  3  6  1  0  0  0  0
 42 45  1  0  0  0  0
 42 46  1  0  0  0  0
 42 47  1  0  0  0  0
 11 14  1  0  0  0  0
 11 15  1  0  0  0  0
 11 16  1  0  0  0  0
 49 51  1  0  0  0  0
 49 52  1  0  0  0  0
 49 53  1  0  0  0  0
 22 30  1  0  0  0  0
 22 31  1  0  0  0  0
 23 32  1  0  0  0  0
 23 33  1  0  0  0  0
 21 28  1  0  0  0  0
 21 29  1  0  0  0  0
 24 34  1  0  0  0  0
 24 35  1  0  0  0  0
 39 44  1  0  0  0  0
  8 13  1  0  0  0  0
 18 27  1  0  0  0  0
 25 36  1  0  0  0  0
 25 37  1  0  0  0  0
 48 50  1  0  0  0  0
  7 12  1  0  0  0  0
 38 43  1  0  0  0  0
 17 26  1  0  0  0  0
M  END
$$$$

  -OEChem-05262214473D

 53 52  0     1  0  0  0  0  0999 V2000
   -1.0338   -5.6785    0.1476 C   0  0  0  0  0  0  0  0  0  0  0  0
   -2.0514   -5.7797    0.8227 O   0  0  0  0  0  0  0  0  0  0  0  0
   -0.6558   -6.7819   -0.7841 C   0  0  0  0  0  0  0  0  0  0  0  0
   -0.0111   -7.5354   -0.3038 H   0  0  0  0  0  0  0  0  0  0  0  0
   -1.5317   -7.3401   -1.1520 H   0  0  0  0  0  0  0  0  0  0  0  0
   -0.1109   -6.4687   -1.6890 H   0  0  0  0  0  0  0  0  0  0  0  0
   -0.1543   -4.6083    0.1480 N   0  0  0  0  0  0  0  0  0  0  0  0
   -0.3302   -3.4398    0.9696 C   0  0  2  0  0  0  0  0  0  0  0  0
    0.2328   -2.2439    0.2131 C   0  0  0  0  0  0  0  0  0  0  0  0
    1.2097   -2.3192   -0.5294 O   0  0  0  0  0  0  0  0  0  0  0  0
    0.3557   -3.6024    2.3171 C   0  0  0  0  0  0  0  0  0  0  0  0
    0.6584   -4.6506   -0.4643 H   0  0  0  0  0  0  0  0  0  0  0  0
   -1.4091   -3.3101    1.1082 H   0  0  0  0  0  0  0  0  0  0  0  0
    1.4375   -3.7336    2.1985 H   0  0  0  0  0  0  0  0  0  0  0  0
    0.1969   -2.7243    2.9517 H   0  0  0  0  0  0  0  0  0  0  0  0
   -0.0294   -4.4803    2.8470 H   0  0  0  0  0  0  0  0  0  0  0  0
   -0.4616   -1.0893    0.5050 N   0  0  0  0  0  0  0  0  0  0  0  0
   -0.0884    0.2050   -0.0621 C   0  0  2  0  0  0  0  0  0  0  0  0
    1.1268   -0.0161   -0.9583 C   0  0  0  0  0  0  0  0  0  0  0  0
    1.3447   -1.0758   -1.5423 O   0  0  0  0  0  0  0  0  0  0  0  0
    0.2574    1.2372    1.0216 C   0  0  0  0  0  0  0  0  0  0  0  0
   -0.9503    1.6634    1.8628 C   0  0  0  0  0  0  0  0  0  0  0  0
   -0.5553    2.7091    2.9091 C   0  0  0  0  0  0  0  0  0  0  0  0
   -1.7546    3.1156    3.7638 C   0  0  0  0  0  0  0  0  0  0  0  0
   -1.3526    4.0932    4.7680 N   0  0  0  0  0  0  0  0  0  0  0  0
   -1.2794   -1.1113    1.0935 H   0  0  0  0  0  0  0  0  0  0  0  0
   -0.9222    0.5713   -0.6730 H   0  0  0  0  0  0  0  0  0  0  0  0
    0.6888    2.1274    0.5453 H   0  0  0  0  0  0  0  0  0  0  0  0
    1.0415    0.8394    1.6801 H   0  0  0  0  0  0  0  0  0  0  0  0
   -1.3823    0.7942    2.3714 H   0  0  0  0  0  0  0  0  0  0  0  0
   -1.7260    2.0767    1.2070 H   0  0  0  0  0  0  0  0  0  0  0  0
    0.2377    2.3023    3.5494 H   0  0  0  0  0  0  0  0  0  0  0  0
   -0.1425    3.5925    2.4057 H   0  0  0  0  0  0  0  0  0  0  0  0
   -2.1801    2.2376    4.2620 H   0  0  0  0  0  0  0  0  0  0  0  0
   -2.5360    3.5526    3.1330 H   0  0  0  0  0  0  0  0  0  0  0  0
   -0.3766    4.2530    4.6762 H   0  0  0  0  0  0  0  0  0  0  0  0
   -1.8601    4.9320    4.6082 H   0  0  0  0  0  0  0  0  0  0  0  0
    1.9482    1.1017   -1.0099 N   0  0  0  0  0  0  0  0  0  0  0  0
    3.1764    1.1481   -1.7702 C   0  0  2  0  0  0  0  0  0  0  0  0
    4.1514    2.0571   -1.0337 C   0  0  0  0  0  0  0  0  0  0  0  0
    3.7959    3.0479   -0.3989 O   0  0  0  0  0  0  0  0  0  0  0  0
    2.9322    1.6465   -3.1861 C   0  0  0  0  0  0  0  0  0  0  0  0
    1.6819    1.9389   -0.5004 H   0  0  0  0  0  0  0  0  0  0  0  0
    3.5735    0.1273   -1.7923 H   0  0  0  0  0  0  0  0  0  0  0  0
    2.5343    2.6678   -3.1842 H   0  0  0  0  0  0  0  0  0  0  0  0
    3.8589    1.6539   -3.7695 H   0  0  0  0  0  0  0  0  0  0  0  0
    2.2081    1.0086   -3.7044 H   0  0  0  0  0  0  0  0  0  0  0  0
    5.4692    1.6565   -1.2044 N   0  0  0  0  0  0  0  0  0  0  0  0
    6.5837    2.3809   -0.6397 C   0  0  0  0  0  0  0  0  0  0  0  0
    5.6692    0.8002   -1.7129 H   0  0  0  0  0  0  0  0  0  0  0  0
    6.9592    3.1082   -1.3745 H   0  0  0  0  0  0  0  0  0  0  0  0
    6.2549    2.9115    0.2661 H   0  0  0  0  0  0  0  0  0  0  0  0
    7.3861    1.6747   -0.3799 H   0  0  0  0  0  0  0  0  0  0  0  0
  1  3  1  0  0  0  0
  1  7  1  0  0  0  0
  1  2  2  0  0  0  0
 39 40  1  0  0  0  0
 40 48  1  0  0  0  0
 40 41  2  0  0  0  0
  8  9  1  0  0  0  0
  9 17  1  0  0  0  0
  9 10  2  0  0  0  0
 18 19  1  0  0  0  0
 19 38  1  0  0  0  0
 19 20  2  0  0  0  0
 39 42  1  0  0  0  0
  8 11  1  0  0  0  0
 48 49  1  0  0  0  0
 22 23  1  0  0  0  0
 21 22  1  0  0  0  0
 23 24  1  0  0  0  0
 18 21  1  0  0  0  0
 24 25  1  0  0  0  0
 38 39  1  0  0  0  0
  7  8  1  0  0  0  0
 17 18  1  0  0  0  0
  3  4  1  0  0  0  0
  3  5  1  0  0  0  0
  3  6  1  0  0  0  0
 42 45  1  0  0  0  0
 42 46  1  0  0  0  0
 42 47  1  0  0  0  0
 11 14  1  0  0  0  0
 11 15  1  0  0  0  0
 11 16  1  0  0  0  0
 49 51  1  0  0  0  0
 49 52  1  0  0  0  0
 49 53  1  0  0  0  0
 22 30  1  0  0  0  0
 22 31  1  0  0  0  0
 23 32  1  0  0  0  0
 23 33  1  0  0  0  0
 21 28  1  0  0  0  0
 21 29  1  0  0  0  0
 24 34  1  0  0  0  0
 24 35  1  0  0  0  0
 39 44  1  0  0  0  0
  8 13  1  0  0  0  0
 18 27  1  0  0  0  0
 25 36  1  0  0  0  0
 25 37  1  0  0  0  0
 48 50  1  0  0  0  0
  7 12  1  0  0  0  0
 38 43  1  0  0  0  0
 17 26  1  0  0  0  0
M  END
$$$$

  -OEChem-05262214473D

 53 52  0     1  0  0  0  0  0999 V2000
   -1.0338   -5.6785    0.1476 C   0  0  0  0  0  0  0  0  0  0  0  0
   -2.0514   -5.7797    0.8227 O   0  0  0  0  0  0  0  0  0  0  0  0
   -0.6558   -6.7819   -0.7841 C   0  0  0  0  0  0  0  0  0  0  0  0
   -0.0111   -7.5354   -0.3038 H   0  0  0  0  0  0  0  0  0  0  0  0
   -1.5317   -7.3401   -1.1520 H   0  0  0  0  0  0  0  0  0  0  0  0
   -0.1109   -6.4687   -1.6890 H   0  0  0  0  0  0  0  0  0  0  0  0
   -0.1543   -4.6083    0.1480 N   0  0  0  0  0  0  0  0  0  0  0  0
   -0.3302   -3.4398    0.9696 C   0  0  2  0  0  0  0  0  0  0  0  0
    0.2328   -2.2439    0.2131 C   0  0  0  0  0  0  0  0  0  0  0  0
    1.2097   -2.3192   -0.5294 O   0  0  0  0  0  0  0  0  0  0  0  0
    0.3557   -3.6024    2.3171 C   0  0  0  0  0  0  0  0  0  0  0  0
    0.6584   -4.6506   -0.4643 H   0  0  0  0  0  0  0  0  0  0  0  0
   -1.4091   -3.3101    1.1082 H   0  0  0  0  0  0  0  0  0  0  0  0
    1.4375   -3.7336    2.1985 H   0  0  0  0  0  0  0  0  0  0  0  0
    0.1969   -2.7243    2.9517 H   0  0  0  0  0  0  0  0  0  0  0  0
   -0.0294   -4.4803    2.8470 H   0  0  0  0  0  0  0  0  0  0  0  0
   -0.4616   -1.0893    0.5050 N   0  0  0  0  0  0  0  0  0  0  0  0
   -0.0884    0.2050   -0.0621 C   0  0  2  0  0  0  0  0  0  0  0  0
    1.1268   -0.0161   -0.9583 C   0  0  0  0  0  0  0  0  0  0  0  0
    1.2163   -0.9558   -1.7460 O   0  0  0  0  0  0  0  0  0  0  0  0
    0.2574    1.2372    1.0216 C   0  0  0  0  0  0  0  0  0  0  0  0
   -0.9503    1.6634    1.8628 C   0  0  0  0  0  0  0  0  0  0  0  0
   -0.5553    2.7091    2.9091 C   0  0  0  0  0  0  0  0  0  0  0  0
   -1.7546    3.1156    3.7638 C   0  0  0  0  0  0  0  0  0  0  0  0
   -1.3526    4.0932    4.7680 N   0  0  0  0  0  0  0  0  0  0  0  0
   -1.2794   -1.1113    1.0935 H   0  0  0  0  0  0  0  0  0  0  0  0
   -0.9222    0.5713   -0.6730 H   0  0  0  0  0  0  0  0  0  0  0  0
    0.6888    2.1274    0.5453 H   0  0  0  0  0  0  0  0  0  0  0  0
    1.0415    0.8394    1.6801 H   0  0  0  0  0  0  0  0  0  0  0  0
   -1.3823    0.7942    2.3714 H   0  0  0  0  0  0  0  0  0  0  0  0
   -1.7260    2.0767    1.2070 H   0  0  0  0  0  0  0  0  0  0  0  0
    0.2377    2.3023    3.5494 H   0  0  0  0  0  0  0  0  0  0  0  0
   -0.1425    3.5925    2.4057 H   0  0  0  0  0  0  0  0  0  0  0  0
   -2.1801    2.2376    4.2620 H   0  0  0  0  0  0  0  0  0  0  0  0
   -2.5360    3.5526    3.1330 H   0  0  0  0  0  0  0  0  0  0  0  0
   -0.3766    4.2530    4.6762 H   0  0  0  0  0  0  0  0  0  0  0  0
   -1.8601    4.9320    4.6082 H   0  0  0  0  0  0  0  0  0  0  0  0
    2.1062    0.9468   -0.7574 N   0  0  0  0  0  0  0  0  0  0  0  0
    3.3667    0.9546   -1.4646 C   0  0  2  0  0  0  0  0  0  0  0  0
    4.4247    1.5316   -0.5335 C   0  0  0  0  0  0  0  0  0  0  0  0
    4.1864    2.4158    0.2866 O   0  0  0  0  0  0  0  0  0  0  0  0
    3.2750    1.7621   -2.7499 C   0  0  0  0  0  0  0  0  0  0  0  0
    1.9400    1.6941   -0.0900 H   0  0  0  0  0  0  0  0  0  0  0  0
    3.6088   -0.0895   -1.6909 H   0  0  0  0  0  0  0  0  0  0  0  0
    3.0331    2.8111   -2.5432 H   0  0  0  0  0  0  0  0  0  0  0  0
    4.2223    1.7434   -3.2987 H   0  0  0  0  0  0  0  0  0  0  0  0
    2.4932    1.3638   -3.4056 H   0  0  0  0  0  0  0  0  0  0  0  0
    5.6759    0.9736   -0.7557 N   0  0  0  0  0  0  0  0  0  0  0  0
    6.8536    1.3853   -0.0281 C   0  0  0  0  0  0  0  0  0  0  0  0
    5.7738    0.2179   -1.4274 H   0  0  0  0  0  0  0  0  0  0  0  0
    7.3714    2.1791   -0.5864 H   0  0  0  0  0  0  0  0  0  0  0  0
    6.5590    1.7654    0.9612 H   0  0  0  0  0  0  0  0  0  0  0  0
    7.5275    0.5247    0.0956 H   0  0  0  0  0  0  0  0  0  0  0  0
  1  3  1  0  0  0  0
  1  7  1  0  0  0  0
  1  2  2  0  0  0  0
 39 40  1  0  0  0  0
 40 48  1  0  0  0  0
 40 41  2  0  0  0  0
  8  9  1  0  0  0  0
  9 17  1  0  0  0  0
  9 10  2  0  0  0  0
 18 19  1  0  0  0  0
 19 38  1  0  0  0  0
 19 20  2  0  0  0  0
 39 42  1  0  0  0  0
  8 11  1  0  0  0  0
 48 49  1  0  0  0  0
 22 23  1  0  0  0  0
 21 22  1  0  0  0  0
 23 24  1  0  0  0  0
 18 21  1  0  0  0  0
 24 25  1  0  0  0  0
 38 39  1  0  0  0  0
  7  8  1  0  0  0  0
 17 18  1  0  0  0  0
  3  4  1  0  0  0  0
  3  5  1  0  0  0  0
  3  6  1  0  0  0  0
 42 45  1  0  0  0  0
 42 46  1  0  0  0  0
 42 47  1  0  0  0  0
 11 14  1  0  0  0  0
 11 15  1  0  0  0  0
 11 16  1  0  0  0  0
 49 51  1  0  0  0  0
 49 52  1  0  0  0  0
 49 53  1  0  0  0  0
 22 30  1  0  0  0  0
 22 31  1  0  0  0  0
 23 32  1  0  0  0  0
 23 33  1  0  0  0  0
 21 28  1  0  0  0  0
 21 29  1  0  0  0  0
 24 34  1  0  0  0  0
 24 35  1  0  0  0  0
 39 44  1  0  0  0  0
  8 13  1  0  0  0  0
 18 27  1  0  0  0  0
 25 36  1  0  0  0  0
 25 37  1  0  0  0  0
 48 50  1  0  0  0  0
  7 12  1  0  0  0  0
 38 43  1  0  0  0  0
 17 26  1  0  0  0  0
M  END
$$$$

  -OEChem-05262214473D

 53 52  0     1  0  0  0  0  0999 V2000
   -1.0338   -5.6785    0.1476 C   0  0  0  0  0  0  0  0  0  0  0  0
   -2.0514   -5.7797    0.8227 O   0  0  0  0  0  0  0  0  0  0  0  0
   -0.6558   -6.7819   -0.7841 C   0  0  0  0  0  0  0  0  0  0  0  0
   -0.0111   -7.5354   -0.3038 H   0  0  0  0  0  0  0  0  0  0  0  0
   -1.5317   -7.3401   -1.1520 H   0  0  0  0  0  0  0  0  0  0  0  0
   -0.1109   -6.4687   -1.6890 H   0  0  0  0  0  0  0  0  0  0  0  0
   -0.1543   -4.6083    0.1480 N   0  0  0  0  0  0  0  0  0  0  0  0
   -0.3302   -3.4398    0.9696 C   0  0  2  0  0  0  0  0  0  0  0  0
    0.2328   -2.2439    0.2131 C   0  0  0  0  0  0  0  0  0  0  0  0
    1.2097   -2.3192   -0.5294 O   0  0  0  0  0  0  0  0  0  0  0  0
    0.3557   -3.6024    2.3171 C   0  0  0  0  0  0  0  0  0  0  0  0
    0.6584   -4.6506   -0.4643 H   0  0  0  0  0  0  0  0  0  0  0  0
   -1.4091   -3.3101    1.1082 H   0  0  0  0  0  0  0  0  0  0  0  0
    1.4375   -3.7336    2.1985 H   0  0  0  0  0  0  0  0  0  0  0  0
    0.1969   -2.7243    2.9517 H   0  0  0  0  0  0  0  0  0  0  0  0
   -0.0294   -4.4803    2.8470 H   0  0  0  0  0  0  0  0  0  0  0  0
   -0.4616   -1.0893    0.5050 N   0  0  0  0  0  0  0  0  0  0  0  0
   -0.0884    0.2050   -0.0621 C   0  0  2  0  0  0  0  0  0  0  0  0
    1.1268   -0.0161   -0.9583 C   0  0  0  0  0  0  0  0  0  0  0  0
    1.1181   -0.7784   -1.9229 O   0  0  0  0  0  0  0  0  0  0  0  0
    0.2574    1.2372    1.0216 C   0  0  0  0  0  0  0  0  0  0  0  0
   -0.9503    1.6634    1.8628 C   0  0  0  0  0  0  0  0  0  0  0  0
   -0.5553    2.7091    2.9091 C   0  0  0  0  0  0  0  0  0  0  0  0
   -1.7546    3.1156    3.7638 C   0  0  0  0  0  0  0  0  0  0  0  0
   -1.3526    4.0932    4.7680 N   0  0  0  0  0  0  0  0  0  0  0  0
   -1.2794   -1.1113    1.0935 H   0  0  0  0  0  0  0  0  0  0  0  0
   -0.9222    0.5713   -0.6730 H   0  0  0  0  0  0  0  0  0  0  0  0
    0.6888    2.1274    0.5453 H   0  0  0  0  0  0  0  0  0  0  0  0
    1.0415    0.8394    1.6801 H   0  0  0  0  0  0  0  0  0  0  0  0
   -1.3823    0.7942    2.3714 H   0  0  0  0  0  0  0  0  0  0  0  0
   -1.7260    2.0767    1.2070 H   0  0  0  0  0  0  0  0  0  0  0  0
    0.2377    2.3023    3.5494 H   0  0  0  0  0  0  0  0  0  0  0  0
   -0.1425    3.5925    2.4057 H   0  0  0  0  0  0  0  0  0  0  0  0
   -2.1801    2.2376    4.2620 H   0  0  0  0  0  0  0  0  0  0  0  0
   -2.5360    3.5526    3.1330 H   0  0  0  0  0  0  0  0  0  0  0  0
   -0.3766    4.2530    4.6762 H   0  0  0  0  0  0  0  0  0  0  0  0
   -1.8601    4.9320    4.6082 H   0  0  0  0  0  0  0  0  0  0  0  0
    2.2259    0.7211   -0.5396 N   0  0  0  0  0  0  0  0  0  0  0  0
    3.5095    0.6758   -1.2021 C   0  0  2  0  0  0  0  0  0  0  0  0
    4.5901    0.8794   -0.1483 C   0  0  0  0  0  0  0  0  0  0  0  0
    4.4418    1.6047    0.8331 O   0  0  0  0  0  0  0  0  0  0  0  0
    3.6072    1.7319   -2.2920 C   0  0  0  0  0  0  0  0  0  0  0  0
    2.1367    1.3338    0.2656 H   0  0  0  0  0  0  0  0  0  0  0  0
    3.6061   -0.3252   -1.6364 H   0  0  0  0  0  0  0  0  0  0  0  0
    3.5126    2.7415   -1.8759 H   0  0  0  0  0  0  0  0  0  0  0  0
    4.5694    1.6776   -2.8120 H   0  0  0  0  0  0  0  0  0  0  0  0
    2.8112    1.6019   -3.0331 H   0  0  0  0  0  0  0  0  0  0  0  0
    5.7549    0.1900   -0.4552 N   0  0  0  0  0  0  0  0  0  0  0  0
    6.9400    0.2565    0.3676 C   0  0  0  0  0  0  0  0  0  0  0  0
    5.7756   -0.4192   -1.2678 H   0  0  0  0  0  0  0  0  0  0  0  0
    7.5987    1.0565   -0.0012 H   0  0  0  0  0  0  0  0  0  0  0  0
    6.6525    0.4689    1.4079 H   0  0  0  0  0  0  0  0  0  0  0  0
    7.4715   -0.7056    0.3232 H   0  0  0  0  0  0  0  0  0  0  0  0
  1  3  1  0  0  0  0
  1  7  1  0  0  0  0
  1  2  2  0  0  0  0
 39 40  1  0  0  0  0
 40 48  1  0  0  0  0
 40 41  2  0  0  0  0
  8  9  1  0  0  0  0
  9 17  1  0  0  0  0
  9 10  2  0  0  0  0
 18 19  1  0  0  0  0
 19 38  1  0  0  0  0
 19 20  2  0  0  0  0
 39 42  1  0  0  0  0
  8 11  1  0  0  0  0
 48 49  1  0  0  0  0
 22 23  1  0  0  0  0
 21 22  1  0  0  0  0
 23 24  1  0  0  0  0
 18 21  1  0  0  0  0
 24 25  1  0  0  0  0
 38 39  1  0  0  0  0
  7  8  1  0  0  0  0
 17 18  1  0  0  0  0
  3  4  1  0  0  0  0
  3  5  1  0  0  0  0
  3  6  1  0  0  0  0
 42 45  1  0  0  0  0
 42 46  1  0  0  0  0
 42 47  1  0  0  0  0
 11 14  1  0  0  0  0
 11 15  1  0  0  0  0
 11 16  1  0  0  0  0
 49 51  1  0  0  0  0
 49 52  1  0  0  0  0
 49 53  1  0  0  0  0
 22 30  1  0  0  0  0
 22 31  1  0  0  0  0
 23 32  1  0  0  0  0
 23 33  1  0  0  0  0
 21 28  1  0  0  0  0
 21 29  1  0  0  0  0
 24 34  1  0  0  0  0
 24 35  1  0  0  0  0
 39 44  1  0  0  0  0
  8 13  1  0  0  0  0
 18 27  1  0  0  0  0
 25 36  1  0  0  0  0
 25 37  1  0  0  0  0
 48 50  1  0  0  0  0
  7 12  1  0  0  0  0
 38 43  1  0  0  0  0
 17 26  1  0  0  0  0
M  END
$$$$

  -OEChem-05262214473D

 53 52  0     1  0  0  0  0  0999 V2000
   -1.0338   -5.6785    0.1476 C   0  0  0  0  0  0  0  0  0  0  0  0
   -2.0514   -5.7797    0.8227 O   0  0  0  0  0  0  0  0  0  0  0  0
   -0.6558   -6.7819   -0.7841 C   0  0  0  0  0  0  0  0  0  0  0  0
   -0.0111   -7.5354   -0.3038 H   0  0  0  0  0  0  0  0  0  0  0  0
   -1.5317   -7.3401   -1.1520 H   0  0  0  0  0  0  0  0  0  0  0  0
   -0.1109   -6.4687   -1.6890 H   0  0  0  0  0  0  0  0  0  0  0  0
   -0.1543   -4.6083    0.1480 N   0  0  0  0  0  0  0  0  0  0  0  0
   -0.3302   -3.4398    0.9696 C   0  0  2  0  0  0  0  0  0  0  0  0
    0.2328   -2.2439    0.2131 C   0  0  0  0  0  0  0  0  0  0  0  0
    1.2097   -2.3192   -0.5294 O   0  0  0  0  0  0  0  0  0  0  0  0
    0.3557   -3.6024    2.3171 C   0  0  0  0  0  0  0  0  0  0  0  0
    0.6584   -4.6506   -0.4643 H   0  0  0  0  0  0  0  0  0  0  0  0
   -1.4091   -3.3101    1.1082 H   0  0  0  0  0  0  0  0  0  0  0  0
    1.4375   -3.7336    2.1985 H   0  0  0  0  0  0  0  0  0  0  0  0
    0.1969   -2.7243    2.9517 H   0  0  0  0  0  0  0  0  0  0  0  0
   -0.0294   -4.4803    2.8470 H   0  0  0  0  0  0  0  0  0  0  0  0
   -0.4616   -1.0893    0.5050 N   0  0  0  0  0  0  0  0  0  0  0  0
   -0.0884    0.2050   -0.0621 C   0  0  2  0  0  0  0  0  0  0  0  0
    1.1268   -0.0161   -0.9583 C   0  0  0  0  0  0  0  0  0  0  0  0
    1.0569   -0.5556   -2.0608 O   0  0  0  0  0  0  0  0  0  0  0  0
    0.2574    1.2372    1.0216 C   0  0  0  0  0  0  0  0  0  0  0  0
   -0.9503    1.6634    1.8628 C   0  0  0  0  0  0  0  0  0  0  0  0
   -0.5553    2.7091    2.9091 C   0  0  0  0  0  0  0  0  0  0  0  0
   -1.7546    3.1156    3.7638 C   0  0  0  0  0  0  0  0  0  0  0  0
   -1.3526    4.0932    4.7680 N   0  0  0  0  0  0  0  0  0  0  0  0
   -1.2794   -1.1113    1.0935 H   0  0  0  0  0  0  0  0  0  0  0  0
   -0.9222    0.5713   -0.6730 H   0  0  0  0  0  0  0  0  0  0  0  0
    0.6888    2.1274    0.5453 H   0  0  0  0  0  0  0  0  0  0  0  0
    1.0415    0.8394    1.6801 H   0  0  0  0  0  0  0  0  0  0  0  0
   -1.3823    0.7942    2.3714 H   0  0  0  0  0  0  0  0  0  0  0  0
   -1.7260    2.0767    1.2070 H   0  0  0  0  0  0  0  0  0  0  0  0
    0.2377    2.3023    3.5494 H   0  0  0  0  0  0  0  0  0  0  0  0
   -0.1425    3.5925    2.4057 H   0  0  0  0  0  0  0  0  0  0  0  0
   -2.1801    2.2376    4.2620 H   0  0  0  0  0  0  0  0  0  0  0  0
   -2.5360    3.5526    3.1330 H   0  0  0  0  0  0  0  0  0  0  0  0
   -0.3766    4.2530    4.6762 H   0  0  0  0  0  0  0  0  0  0  0  0
   -1.8601    4.9320    4.6082 H   0  0  0  0  0  0  0  0  0  0  0  0
    2.2989    0.4400   -0.3711 N   0  0  0  0  0  0  0  0  0  0  0  0
    3.5953    0.3307   -1.0006 C   0  0  2  0  0  0  0  0  0  0  0  0
    4.6362    0.1449    0.0955 C   0  0  0  0  0  0  0  0  0  0  0  0
    4.5447    0.6697    1.2033 O   0  0  0  0  0  0  0  0  0  0  0  0
    3.9064    1.5578   -1.8434 C   0  0  0  0  0  0  0  0  0  0  0  0
    2.2586    0.8826    0.5421 H   0  0  0  0  0  0  0  0  0  0  0  0
    3.5657   -0.5638   -1.6324 H   0  0  0  0  0  0  0  0  0  0  0  0
    3.9403    2.4639   -1.2276 H   0  0  0  0  0  0  0  0  0  0  0  0
    4.8763    1.4609   -2.3424 H   0  0  0  0  0  0  0  0  0  0  0  0
    3.1407    1.7069   -2.6123 H   0  0  0  0  0  0  0  0  0  0  0  0
    5.7008   -0.6408   -0.3235 N   0  0  0  0  0  0  0  0  0  0  0  0
    6.8370   -0.9285    0.5204 C   0  0  0  0  0  0  0  0  0  0  0  0
    5.6745   -1.0678   -1.2448 H   0  0  0  0  0  0  0  0  0  0  0  0
    7.6257   -0.1829    0.3412 H   0  0  0  0  0  0  0  0  0  0  0  0
    6.5289   -0.8898    1.5757 H   0  0  0  0  0  0  0  0  0  0  0  0
    7.2218   -1.9323    0.2874 H   0  0  0  0  0  0  0  0  0  0  0  0
  1  3  1  0  0  0  0
  1  7  1  0  0  0  0
  1  2  2  0  0  0  0
 39 40  1  0  0  0  0
 40 48  1  0  0  0  0
 40 41  2  0  0  0  0
  8  9  1  0  0  0  0
  9 17  1  0  0  0  0
  9 10  2  0  0  0  0
 18 19  1  0  0  0  0
 19 38  1  0  0  0  0
 19 20  2  0  0  0  0
 39 42  1  0  0  0  0
  8 11  1  0  0  0  0
 48 49  1  0  0  0  0
 22 23  1  0  0  0  0
 21 22  1  0  0  0  0
 23 24  1  0  0  0  0
 18 21  1  0  0  0  0
 24 25  1  0  0  0  0
 38 39  1  0  0  0  0
  7  8  1  0  0  0  0
 17 18  1  0  0  0  0
  3  4  1  0  0  0  0
  3  5  1  0  0  0  0
  3  6  1  0  0  0  0
 42 45  1  0  0  0  0
 42 46  1  0  0  0  0
 42 47  1  0  0  0  0
 11 14  1  0  0  0  0
 11 15  1  0  0  0  0
 11 16  1  0  0  0  0
 49 51  1  0  0  0  0
 49 52  1  0  0  0  0
 49 53  1  0  0  0  0
 22 30  1  0  0  0  0
 22 31  1  0  0  0  0
 23 32  1  0  0  0  0
 23 33  1  0  0  0  0
 21 28  1  0  0  0  0
 21 29  1  0  0  0  0
 24 34  1  0  0  0  0
 24 35  1  0  0  0  0
 39 44  1  0  0  0  0
  8 13  1  0  0  0  0
 18 27  1  0  0  0  0
 25 36  1  0  0  0  0
 25 37  1  0  0  0  0
 48 50  1  0  0  0  0
  7 12  1  0  0  0  0
 38 43  1  0  0  0  0
 17 26  1  0  0  0  0
M  END
$$$$

  -OEChem-05262214473D

 53 52  0     1  0  0  0  0  0999 V2000
   -1.0338   -5.6785    0.1476 C   0  0  0  0  0  0  0  0  0  0  0  0
   -2.0514   -5.7797    0.8227 O   0  0  0  0  0  0  0  0  0  0  0  0
   -0.6558   -6.7819   -0.7841 C   0  0  0  0  0  0  0  0  0  0  0  0
   -0.0111   -7.5354   -0.3038 H   0  0  0  0  0  0  0  0  0  0  0  0
   -1.5317   -7.3401   -1.1520 H   0  0  0  0  0  0  0  0  0  0  0  0
   -0.1109   -6.4687   -1.6890 H   0  0  0  0  0  0  0  0  0  0  0  0
   -0.1543   -4.6083    0.1480 N   0  0  0  0  0  0  0  0  0  0  0  0
   -0.3302   -3.4398    0.9696 C   0  0  2  0  0  0  0  0  0  0  0  0
    0.2328   -2.2439    0.2131 C   0  0  0  0  0  0  0  0  0  0  0  0
    1.2097   -2.3192   -0.5294 O   0  0  0  0  0  0  0  0  0  0  0  0
    0.3557   -3.6024    2.3171 C   0  0  0  0  0  0  0  0  0  0  0  0
    0.6584   -4.6506   -0.4643 H   0  0  0  0  0  0  0  0  0  0  0  0
   -1.4091   -3.3101    1.1082 H   0  0  0  0  0  0  0  0  0  0  0  0
    1.4375   -3.7336    2.1985 H   0  0  0  0  0  0  0  0  0  0  0  0
    0.1969   -2.7243    2.9517 H   0  0  0  0  0  0  0  0  0  0  0  0
   -0.0294   -4.4803    2.8470 H   0  0  0  0  0  0  0  0  0  0  0  0
   -0.4616   -1.0893    0.5050 N   0  0  0  0  0  0  0  0  0  0  0  0
   -0.0884    0.2050   -0.0621 C   0  0  2  0  0  0  0  0  0  0  0  0
    1.1268   -0.0161   -0.9583 C   0  0  0  0  0  0  0  0  0  0  0  0
    1.0368   -0.3027   -2.1505 O   0  0  0  0  0  0  0  0  0  0  0  0
    0.2574    1.2372    1.0216 C   0  0  0  0  0  0  0  0  0  0  0  0
   -0.9503    1.6634    1.8628 C   0  0  0  0  0  0  0  0  0  0  0  0
   -0.5553    2.7091    2.9091 C   0  0  0  0  0  0  0  0  0  0  0  0
   -1.7546    3.1156    3.7638 C   0  0  0  0  0  0  0  0  0  0  0  0
   -1.3526    4.0932    4.7680 N   0  0  0  0  0  0  0  0  0  0  0  0
   -1.2794   -1.1113    1.0935 H   0  0  0  0  0  0  0  0  0  0  0  0
   -0.9222    0.5713   -0.6730 H   0  0  0  0  0  0  0  0  0  0  0  0
    0.6888    2.1274    0.5453 H   0  0  0  0  0  0  0  0  0  0  0  0
    1.0415    0.8394    1.6801 H   0  0  0  0  0  0  0  0  0  0  0  0
   -1.3823    0.7942    2.3714 H   0  0  0  0  0  0  0  0  0  0  0  0
   -1.7260    2.0767    1.2070 H   0  0  0  0  0  0  0  0  0  0  0  0
    0.2377    2.3023    3.5494 H   0  0  0  0  0  0  0  0  0  0  0  0
   -0.1425    3.5925    2.4057 H   0  0  0  0  0  0  0  0  0  0  0  0
   -2.1801    2.2376    4.2620 H   0  0  0  0  0  0  0  0  0  0  0  0
   -2.5360    3.5526    3.1330 H   0  0  0  0  0  0  0  0  0  0  0  0
   -0.3766    4.2530    4.6762 H   0  0  0  0  0  0  0  0  0  0  0  0
   -1.8601    4.9320    4.6082 H   0  0  0  0  0  0  0  0  0  0  0  0
    2.3205    0.1227   -0.2636 N   0  0  0  0  0  0  0  0  0  0  0  0
    3.6181   -0.0572   -0.8740 C   0  0  2  0  0  0  0  0  0  0  0  0
    4.5600   -0.6218    0.1813 C   0  0  0  0  0  0  0  0  0  0  0  0
    4.4881   -0.3254    1.3721 O   0  0  0  0  0  0  0  0  0  0  0  0
    4.1521    1.2517   -1.4347 C   0  0  0  0  0  0  0  0  0  0  0  0
    2.2973    0.3712    0.7209 H   0  0  0  0  0  0  0  0  0  0  0  0
    3.4902   -0.7888   -1.6792 H   0  0  0  0  0  0  0  0  0  0  0  0
    4.2868    1.9972   -0.6425 H   0  0  0  0  0  0  0  0  0  0  0  0
    5.1222    1.1082   -1.9219 H   0  0  0  0  0  0  0  0  0  0  0  0
    3.4591    1.6714   -2.1718 H   0  0  0  0  0  0  0  0  0  0  0  0
    5.5173   -1.4622   -0.3696 N   0  0  0  0  0  0  0  0  0  0  0  0
    6.5517   -2.0890    0.4199 C   0  0  0  0  0  0  0  0  0  0  0  0
    5.4773   -1.6836   -1.3601 H   0  0  0  0  0  0  0  0  0  0  0  0
    7.4505   -1.4548    0.4175 H   0  0  0  0  0  0  0  0  0  0  0  0
    6.1968   -2.2179    1.4531 H   0  0  0  0  0  0  0  0  0  0  0  0
    6.7955   -3.0720   -0.0094 H   0  0  0  0  0  0  0  0  0  0  0  0
  1  3  1  0  0  0  0
  1  7  1  0  0  0  0
  1  2  2  0  0  0  0
 39 40  1  0  0  0  0
 40 48  1  0  0  0  0
 40 41  2  0  0  0  0
  8  9  1  0  0  0  0
  9 17  1  0  0  0  0
  9 10  2  0  0  0  0
 18 19  1  0  0  0  0
 19 38  1  0  0  0  0
 19 20  2  0  0  0  0
 39 42  1  0  0  0  0
  8 11  1  0  0  0  0
 48 49  1  0  0  0  0
 22 23  1  0  0  0  0
 21 22  1  0  0  0  0
 23 24  1  0  0  0  0
 18 21  1  0  0  0  0
 24 25  1  0  0  0  0
 38 39  1  0  0  0  0
  7  8  1  0  0  0  0
 17 18  1  0  0  0  0
  3  4  1  0  0  0  0
  3  5  1  0  0  0  0
  3  6  1  0  0  0  0
 42 45  1  0  0  0  0
 42 46  1  0  0  0  0
 42 47  1  0  0  0  0
 11 14  1  0  0  0  0
 11 15  1  0  0  0  0
 11 16  1  0  0  0  0
 49 51  1  0  0  0  0
 49 52  1  0  0  0  0
 49 53  1  0  0  0  0
 22 30  1  0  0  0  0
 22 31  1  0  0  0  0
 23 32  1  0  0  0  0
 23 33  1  0  0  0  0
 21 28  1  0  0  0  0
 21 29  1  0  0  0  0
 24 34  1  0  0  0  0
 24 35  1  0  0  0  0
 39 44  1  0  0  0  0
  8 13  1  0  0  0  0
 18 27  1  0  0  0  0
 25 36  1  0  0  0  0
 25 37  1  0  0  0  0
 48 50  1  0  0  0  0
  7 12  1  0  0  0  0
 38 43  1  0  0  0  0
 17 26  1  0  0  0  0
M  END
$$$$

  -OEChem-05262214473D

 53 52  0     1  0  0  0  0  0999 V2000
   -1.0338   -5.6785    0.1476 C   0  0  0  0  0  0  0  0  0  0  0  0
   -2.0514   -5.7797    0.8227 O   0  0  0  0  0  0  0  0  0  0  0  0
   -0.6558   -6.7819   -0.7841 C   0  0  0  0  0  0  0  0  0  0  0  0
   -0.0111   -7.5354   -0.3038 H   0  0  0  0  0  0  0  0  0  0  0  0
   -1.5317   -7.3401   -1.1520 H   0  0  0  0  0  0  0  0  0  0  0  0
   -0.1109   -6.4687   -1.6890 H   0  0  0  0  0  0  0  0  0  0  0  0
   -0.1543   -4.6083    0.1480 N   0  0  0  0  0  0  0  0  0  0  0  0
   -0.3302   -3.4398    0.9696 C   0  0  2  0  0  0  0  0  0  0  0  0
    0.2328   -2.2439    0.2131 C   0  0  0  0  0  0  0  0  0  0  0  0
    1.2097   -2.3192   -0.5294 O   0  0  0  0  0  0  0  0  0  0  0  0
    0.3557   -3.6024    2.3171 C   0  0  0  0  0  0  0  0  0  0  0  0
    0.6584   -4.6506   -0.4643 H   0  0  0  0  0  0  0  0  0  0  0  0
   -1.4091   -3.3101    1.1082 H   0  0  0  0  0  0  0  0  0  0  0  0
    1.4375   -3.7336    2.1985 H   0  0  0  0  0  0  0  0  0  0  0  0
    0.1969   -2.7243    2.9517 H   0  0  0  0  0  0  0  0  0  0  0  0
   -0.0294   -4.4803    2.8470 H   0  0  0  0  0  0  0  0  0  0  0  0
   -0.4616   -1.0893    0.5050 N   0  0  0  0  0  0  0  0  0  0  0  0
   -0.0884    0.2050   -0.0621 C   0  0  2  0  0  0  0  0  0  0  0  0
    1.1268   -0.0161   -0.9583 C   0  0  0  0  0  0  0  0  0  0  0  0
    1.0592   -0.0369   -2.1857 O   0  0  0  0  0  0  0  0  0  0  0  0
    0.2574    1.2372    1.0216 C   0  0  0  0  0  0  0  0  0  0  0  0
   -0.9503    1.6634    1.8628 C   0  0  0  0  0  0  0  0  0  0  0  0
   -0.5553    2.7091    2.9091 C   0  0  0  0  0  0  0  0  0  0  0  0
   -1.7546    3.1156    3.7638 C   0  0  0  0  0  0  0  0  0  0  0  0
   -1.3526    4.0932    4.7680 N   0  0  0  0  0  0  0  0  0  0  0  0
   -1.2794   -1.1113    1.0935 H   0  0  0  0  0  0  0  0  0  0  0  0
   -0.9222    0.5713   -0.6730 H   0  0  0  0  0  0  0  0  0  0  0  0
    0.6888    2.1274    0.5453 H   0  0  0  0  0  0  0  0  0  0  0  0
    1.0415    0.8394    1.6801 H   0  0  0  0  0  0  0  0  0  0  0  0
   -1.3823    0.7942    2.3714 H   0  0  0  0  0  0  0  0  0  0  0  0
   -1.7260    2.0767    1.2070 H   0  0  0  0  0  0  0  0  0  0  0  0
    0.2377    2.3023    3.5494 H   0  0  0  0  0  0  0  0  0  0  0  0
   -0.1425    3.5925    2.4057 H   0  0  0  0  0  0  0  0  0  0  0  0
   -2.1801    2.2376    4.2620 H   0  0  0  0  0  0  0  0  0  0  0  0
   -2.5360    3.5526    3.1330 H   0  0  0  0  0  0  0  0  0  0  0  0
   -0.3766    4.2530    4.6762 H   0  0  0  0  0  0  0  0  0  0  0  0
   -1.8601    4.9320    4.6082 H   0  0  0  0  0  0  0  0  0  0  0  0
    2.2890   -0.2092   -0.2244 N   0  0  0  0  0  0  0  0  0  0  0  0
    3.5765   -0.4615   -0.8307 C   0  0  2  0  0  0  0  0  0  0  0  0
    4.3666   -1.3686    0.1033 C   0  0  0  0  0  0  0  0  0  0  0  0
    4.2759   -1.3128    1.3280 O   0  0  0  0  0  0  0  0  0  0  0  0
    4.3276    0.8344   -1.0938 C   0  0  0  0  0  0  0  0  0  0  0  0
    2.2503   -0.1654    0.7896 H   0  0  0  0  0  0  0  0  0  0  0  0
    3.3848   -0.9851   -1.7736 H   0  0  0  0  0  0  0  0  0  0  0  0
    4.5286    1.3731   -0.1606 H   0  0  0  0  0  0  0  0  0  0  0  0
    5.2904    0.6434   -1.5792 H   0  0  0  0  0  0  0  0  0  0  0  0
    3.7448    1.4980   -1.7417 H   0  0  0  0  0  0  0  0  0  0  0  0
    5.2170   -2.2182   -0.5902 N   0  0  0  0  0  0  0  0  0  0  0  0
    6.1034   -3.1458    0.0730 C   0  0  0  0  0  0  0  0  0  0  0  0
    5.1977   -2.2248   -1.6058 H   0  0  0  0  0  0  0  0  0  0  0  0
    7.0851   -2.6725    0.2226 H   0  0  0  0  0  0  0  0  0  0  0  0
    5.6786   -3.4250    1.0485 H   0  0  0  0  0  0  0  0  0  0  0  0
    6.2216   -4.0468   -0.5469 H   0  0  0  0  0  0  0  0  0  0  0  0
  1  3  1  0  0  0  0
  1  7  1  0  0  0  0
  1  2  2  0  0  0  0
 39 40  1  0  0  0  0
 40 48  1  0  0  0  0
 40 41  2  0  0  0  0
  8  9  1  0  0  0  0
  9 17  1  0  0  0  0
  9 10  2  0  0  0  0
 18 19  1  0  0  0  0
 19 38  1  0  0  0  0
 19 20  2  0  0  0  0
 39 42  1  0  0  0  0
  8 11  1  0  0  0  0
 48 49  1  0  0  0  0
 22 23  1  0  0  0  0
 21 22  1  0  0  0  0
 23 24  1  0  0  0  0
 18 21  1  0  0  0  0
 24 25  1  0  0  0  0
 38 39  1  0  0  0  0
  7  8  1  0  0  0  0
 17 18  1  0  0  0  0
  3  4  1  0  0  0  0
  3  5  1  0  0  0  0
  3  6  1  0  0  0  0
 42 45  1  0  0  0  0
 42 46  1  0  0  0  0
 42 47  1  0  0  0  0
 11 14  1  0  0  0  0
 11 15  1  0  0  0  0
 11 16  1  0  0  0  0
 49 51  1  0  0  0  0
 49 52  1  0  0  0  0
 49 53  1  0  0  0  0
 22 30  1  0  0  0  0
 22 31  1  0  0  0  0
 23 32  1  0  0  0  0
 23 33  1  0  0  0  0
 21 28  1  0  0  0  0
 21 29  1  0  0  0  0
 24 34  1  0  0  0  0
 24 35  1  0  0  0  0
 39 44  1  0  0  0  0
  8 13  1  0  0  0  0
 18 27  1  0  0  0  0
 25 36  1  0  0  0  0
 25 37  1  0  0  0  0
 48 50  1  0  0  0  0
  7 12  1  0  0  0  0
 38 43  1  0  0  0  0
 17 26  1  0  0  0  0
M  END
$$$$

  -OEChem-05262214473D

 53 52  0     1  0  0  0  0  0999 V2000
   -1.0338   -5.6785    0.1476 C   0  0  0  0  0  0  0  0  0  0  0  0
   -2.0514   -5.7797    0.8227 O   0  0  0  0  0  0  0  0  0  0  0  0
   -0.6558   -6.7819   -0.7841 C   0  0  0  0  0  0  0  0  0  0  0  0
   -0.0111   -7.5354   -0.3038 H   0  0  0  0  0  0  0  0  0  0  0  0
   -1.5317   -7.3401   -1.1520 H   0  0  0  0  0  0  0  0  0  0  0  0
   -0.1109   -6.4687   -1.6890 H   0  0  0  0  0  0  0  0  0  0  0  0
   -0.1543   -4.6083    0.1480 N   0  0  0  0  0  0  0  0  0  0  0  0
   -0.3302   -3.4398    0.9696 C   0  0  2  0  0  0  0  0  0  0  0  0
    0.2328   -2.2439    0.2131 C   0  0  0  0  0  0  0  0  0  0  0  0
    1.2097   -2.3192   -0.5294 O   0  0  0  0  0  0  0  0  0  0  0  0
    0.3557   -3.6024    2.3171 C   0  0  0  0  0  0  0  0  0  0  0  0
    0.6584   -4.6506   -0.4643 H   0  0  0  0  0  0  0  0  0  0  0  0
   -1.4091   -3.3101    1.1082 H   0  0  0  0  0  0  0  0  0  0  0  0
    1.4375   -3.7336    2.1985 H   0  0  0  0  0  0  0  0  0  0  0  0
    0.1969   -2.7243    2.9517 H   0  0  0  0  0  0  0  0  0  0  0  0
   -0.0294   -4.4803    2.8470 H   0  0  0  0  0  0  0  0  0  0  0  0
   -0.4616   -1.0893    0.5050 N   0  0  0  0  0  0  0  0  0  0  0  0
   -0.0884    0.2050   -0.0621 C   0  0  2  0  0  0  0  0  0  0  0  0
    1.1268   -0.0161   -0.9583 C   0  0  0  0  0  0  0  0  0  0  0  0
    1.1226    0.2237   -2.1641 O   0  0  0  0  0  0  0  0  0  0  0  0
    0.2574    1.2372    1.0216 C   0  0  0  0  0  0  0  0  0  0  0  0
   -0.9503    1.6634    1.8628 C   0  0  0  0  0  0  0  0  0  0  0  0
   -0.5553    2.7091    2.9091 C   0  0  0  0  0  0  0  0  0  0  0  0
   -1.7546    3.1156    3.7638 C   0  0  0  0  0  0  0  0  0  0  0  0
   -1.3526    4.0932    4.7680 N   0  0  0  0  0  0  0  0  0  0  0  0
   -1.2794   -1.1113    1.0935 H   0  0  0  0  0  0  0  0  0  0  0  0
   -0.9222    0.5713   -0.6730 H   0  0  0  0  0  0  0  0  0  0  0  0
    0.6888    2.1274    0.5453 H   0  0  0  0  0  0  0  0  0  0  0  0
    1.0415    0.8394    1.6801 H   0  0  0  0  0  0  0  0  0  0  0  0
   -1.3823    0.7942    2.3714 H   0  0  0  0  0  0  0  0  0  0  0  0
   -1.7260    2.0767    1.2070 H   0  0  0  0  0  0  0  0  0  0  0  0
    0.2377    2.3023    3.5494 H   0  0  0  0  0  0  0  0  0  0  0  0
   -0.1425    3.5925    2.4057 H   0  0  0  0  0  0  0  0  0  0  0  0
   -2.1801    2.2376    4.2620 H   0  0  0  0  0  0  0  0  0  0  0  0
   -2.5360    3.5526    3.1330 H   0  0  0  0  0  0  0  0  0  0  0  0
   -0.3766    4.2530    4.6762 H   0  0  0  0  0  0  0  0  0  0  0  0
   -1.8601    4.9320    4.6082 H   0  0  0  0  0  0  0  0  0  0  0  0
    2.2067   -0.5332   -0.2560 N   0  0  0  0  0  0  0  0  0  0  0  0
    3.4732   -0.8545   -0.8738 C   0  0  2  0  0  0  0  0  0  0  0  0
    4.0692   -2.0444   -0.1331 C   0  0  0  0  0  0  0  0  0  0  0  0
    3.9224   -2.2252    1.0739 O   0  0  0  0  0  0  0  0  0  0  0  0
    4.4208    0.3345   -0.8440 C   0  0  0  0  0  0  0  0  0  0  0  0
    2.1208   -0.6908    0.7436 H   0  0  0  0  0  0  0  0  0  0  0  0
    3.2568   -1.1393   -1.9092 H   0  0  0  0  0  0  0  0  0  0  0  0
    4.6493    0.6342    0.1853 H   0  0  0  0  0  0  0  0  0  0  0  0
    5.3693    0.0983   -1.3377 H   0  0  0  0  0  0  0  0  0  0  0  0
    3.9782    1.1985   -1.3513 H   0  0  0  0  0  0  0  0  0  0  0  0
    4.8203   -2.8574   -0.9704 N   0  0  0  0  0  0  0  0  0  0  0  0
    5.5228   -4.0270   -0.4968 C   0  0  0  0  0  0  0  0  0  0  0  0
    4.8545   -2.6543   -1.9651 H   0  0  0  0  0  0  0  0  0  0  0  0
    6.5543   -3.7530   -0.2304 H   0  0  0  0  0  0  0  0  0  0  0  0
    5.0099   -4.4289    0.3894 H   0  0  0  0  0  0  0  0  0  0  0  0
    5.5392   -4.7904   -1.2886 H   0  0  0  0  0  0  0  0  0  0  0  0
  1  3  1  0  0  0  0
  1  7  1  0  0  0  0
  1  2  2  0  0  0  0
 39 40  1  0  0  0  0
 40 48  1  0  0  0  0
 40 41  2  0  0  0  0
  8  9  1  0  0  0  0
  9 17  1  0  0  0  0
  9 10  2  0  0  0  0
 18 19  1  0  0  0  0
 19 38  1  0  0  0  0
 19 20  2  0  0  0  0
 39 42  1  0  0  0  0
  8 11  1  0  0  0  0
 48 49  1  0  0  0  0
 22 23  1  0  0  0  0
 21 22  1  0  0  0  0
 23 24  1  0  0  0  0
 18 21  1  0  0  0  0
 24 25  1  0  0  0  0
 38 39  1  0  0  0  0
  7  8  1  0  0  0  0
 17 18  1  0  0  0  0
  3  4  1  0  0  0  0
  3  5  1  0  0  0  0
  3  6  1  0  0  0  0
 42 45  1  0  0  0  0
 42 46  1  0  0  0  0
 42 47  1  0  0  0  0
 11 14  1  0  0  0  0
 11 15  1  0  0  0  0
 11 16  1  0  0  0  0
 49 51  1  0  0  0  0
 49 52  1  0  0  0  0
 49 53  1  0  0  0  0
 22 30  1  0  0  0  0
 22 31  1  0  0  0  0
 23 32  1  0  0  0  0
 23 33  1  0  0  0  0
 21 28  1  0  0  0  0
 21 29  1  0  0  0  0
 24 34  1  0  0  0  0
 24 35  1  0  0  0  0
 39 44  1  0  0  0  0
  8 13  1  0  0  0  0
 18 27  1  0  0  0  0
 25 36  1  0  0  0  0
 25 37  1  0  0  0  0
 48 50  1  0  0  0  0
  7 12  1  0  0  0  0
 38 43  1  0  0  0  0
 17 26  1  0  0  0  0
M  END
$$$$

  -OEChem-05262214473D

 53 52  0     1  0  0  0  0  0999 V2000
   -1.0338   -5.6785    0.1476 C   0  0  0  0  0  0  0  0  0  0  0  0
   -2.0514   -5.7797    0.8227 O   0  0  0  0  0  0  0  0  0  0  0  0
   -0.6558   -6.7819   -0.7841 C   0  0  0  0  0  0  0  0  0  0  0  0
   -0.0111   -7.5354   -0.3038 H   0  0  0  0  0  0  0  0  0  0  0  0
   -1.5317   -7.3401   -1.1520 H   0  0  0  0  0  0  0  0  0  0  0  0
   -0.1109   -6.4687   -1.6890 H   0  0  0  0  0  0  0  0  0  0  0  0
   -0.1543   -4.6083    0.1480 N   0  0  0  0  0  0  0  0  0  0  0  0
   -0.3302   -3.4398    0.9696 C   0  0  2  0  0  0  0  0  0  0  0  0
    0.2328   -2.2439    0.2131 C   0  0  0  0  0  0  0  0  0  0  0  0
    1.2097   -2.3192   -0.5294 O   0  0  0  0  0  0  0  0  0  0  0  0
    0.3557   -3.6024    2.3171 C   0  0  0  0  0  0  0  0  0  0  0  0
    0.6584   -4.6506   -0.4643 H   0  0  0  0  0  0  0  0  0  0  0  0
   -1.4091   -3.3101    1.1082 H   0  0  0  0  0  0  0  0  0  0  0  0
    1.4375   -3.7336    2.1985 H   0  0  0  0  0  0  0  0  0  0  0  0
    0.1969   -2.7243    2.9517 H   0  0  0  0  0  0  0  0  0  0  0  0
   -0.0294   -4.4803    2.8470 H   0  0  0  0  0  0  0  0  0  0  0  0
   -0.4616   -1.0893    0.5050 N   0  0  0  0  0  0  0  0  0  0  0  0
   -0.0884    0.2050   -0.0621 C   0  0  2  0  0  0  0  0  0  0  0  0
    1.1268   -0.0161   -0.9583 C   0  0  0  0  0  0  0  0  0  0  0  0
    1.2226    0.4614   -2.0872 O   0  0  0  0  0  0  0  0  0  0  0  0
    0.2574    1.2372    1.0216 C   0  0  0  0  0  0  0  0  0  0  0  0
   -0.9503    1.6634    1.8628 C   0  0  0  0  0  0  0  0  0  0  0  0
   -0.5553    2.7091    2.9091 C   0  0  0  0  0  0  0  0  0  0  0  0
   -1.7546    3.1156    3.7638 C   0  0  0  0  0  0  0  0  0  0  0  0
   -1.3526    4.0932    4.7680 N   0  0  0  0  0  0  0  0  0  0  0  0
   -1.2794   -1.1113    1.0935 H   0  0  0  0  0  0  0  0  0  0  0  0
   -0.9222    0.5713   -0.6730 H   0  0  0  0  0  0  0  0  0  0  0  0
    0.6888    2.1274    0.5453 H   0  0  0  0  0  0  0  0  0  0  0  0
    1.0415    0.8394    1.6801 H   0  0  0  0  0  0  0  0  0  0  0  0
   -1.3823    0.7942    2.3714 H   0  0  0  0  0  0  0  0  0  0  0  0
   -1.7260    2.0767    1.2070 H   0  0  0  0  0  0  0  0  0  0  0  0
    0.2377    2.3023    3.5494 H   0  0  0  0  0  0  0  0  0  0  0  0
   -0.1425    3.5925    2.4057 H   0  0  0  0  0  0  0  0  0  0  0  0
   -2.1801    2.2376    4.2620 H   0  0  0  0  0  0  0  0  0  0  0  0
   -2.5360    3.5526    3.1330 H   0  0  0  0  0  0  0  0  0  0  0  0
   -0.3766    4.2530    4.6762 H   0  0  0  0  0  0  0  0  0  0  0  0
   -1.8601    4.9320    4.6082 H   0  0  0  0  0  0  0  0  0  0  0  0
    2.0792   -0.8270   -0.3565 N   0  0  0  0  0  0  0  0  0  0  0  0
    3.3152   -1.2096   -1.0002 C   0  0  2  0  0  0  0  0  0  0  0  0
    3.6881   -2.6032   -0.5119 C   0  0  0  0  0  0  0  0  0  0  0  0
    3.4518   -3.0003    0.6272 O   0  0  0  0  0  0  0  0  0  0  0  0
    4.4256   -0.2141   -0.7022 C   0  0  0  0  0  0  0  0  0  0  0  0
    1.9175   -1.1691    0.5861 H   0  0  0  0  0  0  0  0  0  0  0  0
    3.1147   -1.2407   -2.0768 H   0  0  0  0  0  0  0  0  0  0  0  0
    4.6405   -0.1691    0.3717 H   0  0  0  0  0  0  0  0  0  0  0  0
    5.3536   -0.4900   -1.2138 H   0  0  0  0  0  0  0  0  0  0  0  0
    4.1435    0.7932   -1.0272 H   0  0  0  0  0  0  0  0  0  0  0  0
    4.3542   -3.3361   -1.4843 N   0  0  0  0  0  0  0  0  0  0  0  0
    4.8495   -4.6725   -1.2505 C   0  0  0  0  0  0  0  0  0  0  0  0
    4.4712   -2.9430   -2.4136 H   0  0  0  0  0  0  0  0  0  0  0  0
    5.8944   -4.6226   -0.9106 H   0  0  0  0  0  0  0  0  0  0  0  0
    4.2360   -5.1610   -0.4791 H   0  0  0  0  0  0  0  0  0  0  0  0
    4.7949   -5.2521   -2.1838 H   0  0  0  0  0  0  0  0  0  0  0  0
  1  3  1  0  0  0  0
  1  7  1  0  0  0  0
  1  2  2  0  0  0  0
 39 40  1  0  0  0  0
 40 48  1  0  0  0  0
 40 41  2  0  0  0  0
  8  9  1  0  0  0  0
  9 17  1  0  0  0  0
  9 10  2  0  0  0  0
 18 19  1  0  0  0  0
 19 38  1  0  0  0  0
 19 20  2  0  0  0  0
 39 42  1  0  0  0  0
  8 11  1  0  0  0  0
 48 49  1  0  0  0  0
 22 23  1  0  0  0  0
 21 22  1  0  0  0  0
 23 24  1  0  0  0  0
 18 21  1  0  0  0  0
 24 25  1  0  0  0  0
 38 39  1  0  0  0  0
  7  8  1  0  0  0  0
 17 18  1  0  0  0  0
  3  4  1  0  0  0  0
  3  5  1  0  0  0  0
  3  6  1  0  0  0  0
 42 45  1  0  0  0  0
 42 46  1  0  0  0  0
 42 47  1  0  0  0  0
 11 14  1  0  0  0  0
 11 15  1  0  0  0  0
 11 16  1  0  0  0  0
 49 51  1  0  0  0  0
 49 52  1  0  0  0  0
 49 53  1  0  0  0  0
 22 30  1  0  0  0  0
 22 31  1  0  0  0  0
 23 32  1  0  0  0  0
 23 33  1  0  0  0  0
 21 28  1  0  0  0  0
 21 29  1  0  0  0  0
 24 34  1  0  0  0  0
 24 35  1  0  0  0  0
 39 44  1  0  0  0  0
  8 13  1  0  0  0  0
 18 27  1  0  0  0  0
 25 36  1  0  0  0  0
 25 37  1  0  0  0  0
 48 50  1  0  0  0  0
  7 12  1  0  0  0  0
 38 43  1  0  0  0  0
 17 26  1  0  0  0  0
M  END
$$$$

  -OEChem-05262214473D

 53 52  0     1  0  0  0  0  0999 V2000
   -1.0338   -5.6785    0.1476 C   0  0  0  0  0  0  0  0  0  0  0  0
   -2.0514   -5.7797    0.8227 O   0  0  0  0  0  0  0  0  0  0  0  0
   -0.6558   -6.7819   -0.7841 C   0  0  0  0  0  0  0  0  0  0  0  0
   -0.0111   -7.5354   -0.3038 H   0  0  0  0  0  0  0  0  0  0  0  0
   -1.5317   -7.3401   -1.1520 H   0  0  0  0  0  0  0  0  0  0  0  0
   -0.1109   -6.4687   -1.6890 H   0  0  0  0  0  0  0  0  0  0  0  0
   -0.1543   -4.6083    0.1480 N   0  0  0  0  0  0  0  0  0  0  0  0
   -0.3302   -3.4398    0.9696 C   0  0  2  0  0  0  0  0  0  0  0  0
    0.2328   -2.2439    0.2131 C   0  0  0  0  0  0  0  0  0  0  0  0
    1.2097   -2.3192   -0.5294 O   0  0  0  0  0  0  0  0  0  0  0  0
    0.3557   -3.6024    2.3171 C   0  0  0  0  0  0  0  0  0  0  0  0
    0.6584   -4.6506   -0.4643 H   0  0  0  0  0  0  0  0  0  0  0  0
   -1.4091   -3.3101    1.1082 H   0  0  0  0  0  0  0  0  0  0  0  0
    1.4375   -3.7336    2.1985 H   0  0  0  0  0  0  0  0  0  0  0  0
    0.1969   -2.7243    2.9517 H   0  0  0  0  0  0  0  0  0  0  0  0
   -0.0294   -4.4803    2.8470 H   0  0  0  0  0  0  0  0  0  0  0  0
   -0.4616   -1.0893    0.5050 N   0  0  0  0  0  0  0  0  0  0  0  0
   -0.0884    0.2050   -0.0621 C   0  0  2  0  0  0  0  0  0  0  0  0
    1.1268   -0.0161   -0.9583 C   0  0  0  0  0  0  0  0  0  0  0  0
    1.3525    0.6599   -1.9601 O   0  0  0  0  0  0  0  0  0  0  0  0
    0.2574    1.2372    1.0216 C   0  0  0  0  0  0  0  0  0  0  0  0
   -0.9503    1.6634    1.8628 C   0  0  0  0  0  0  0  0  0  0  0  0
   -0.5553    2.7091    2.9091 C   0  0  0  0  0  0  0  0  0  0  0  0
   -1.7546    3.1156    3.7638 C   0  0  0  0  0  0  0  0  0  0  0  0
   -1.3526    4.0932    4.7680 N   0  0  0  0  0  0  0  0  0  0  0  0
   -1.2794   -1.1113    1.0935 H   0  0  0  0  0  0  0  0  0  0  0  0
   -0.9222    0.5713   -0.6730 H   0  0  0  0  0  0  0  0  0  0  0  0
    0.6888    2.1274    0.5453 H   0  0  0  0  0  0  0  0  0  0  0  0
    1.0415    0.8394    1.6801 H   0  0  0  0  0  0  0  0  0  0  0  0
   -1.3823    0.7942    2.3714 H   0  0  0  0  0  0  0  0  0  0  0  0
   -1.7260    2.0767    1.2070 H   0  0  0  0  0  0  0  0  0  0  0  0
    0.2377    2.3023    3.5494 H   0  0  0  0  0  0  0  0  0  0  0  0
   -0.1425    3.5925    2.4057 H   0  0  0  0  0  0  0  0  0  0  0  0
   -2.1801    2.2376    4.2620 H   0  0  0  0  0  0  0  0  0  0  0  0
   -2.5360    3.5526    3.1330 H   0  0  0  0  0  0  0  0  0  0  0  0
   -0.3766    4.2530    4.6762 H   0  0  0  0  0  0  0  0  0  0  0  0
   -1.8601    4.9320    4.6082 H   0  0  0  0  0  0  0  0  0  0  0  0
    1.9150   -1.0708   -0.5188 N   0  0  0  0  0  0  0  0  0  0  0  0
    3.1135   -1.5026   -1.2015 C   0  0  2  0  0  0  0  0  0  0  0  0
    3.2492   -3.0070   -1.0073 C   0  0  0  0  0  0  0  0  0  0  0  0
    2.8962   -3.5855    0.0182 O   0  0  0  0  0  0  0  0  0  0  0  0
    4.3414   -0.7740   -0.6782 C   0  0  0  0  0  0  0  0  0  0  0  0
    1.6544   -1.5678    0.3277 H   0  0  0  0  0  0  0  0  0  0  0  0
    2.9684   -1.2826   -2.2648 H   0  0  0  0  0  0  0  0  0  0  0  0
    4.5030   -0.9822    0.3858 H   0  0  0  0  0  0  0  0  0  0  0  0
    5.2444   -1.0814   -1.2159 H   0  0  0  0  0  0  0  0  0  0  0  0
    4.2294    0.3097   -0.7914 H   0  0  0  0  0  0  0  0  0  0  0  0
    3.8504   -3.6217   -2.0968 N   0  0  0  0  0  0  0  0  0  0  0  0
    4.1292   -5.0383   -2.1368 C   0  0  0  0  0  0  0  0  0  0  0  0
    4.0738   -3.0712   -2.9206 H   0  0  0  0  0  0  0  0  0  0  0  0
    5.1503   -5.2220   -1.7715 H   0  0  0  0  0  0  0  0  0  0  0  0
    3.4098   -5.5716   -1.4980 H   0  0  0  0  0  0  0  0  0  0  0  0
    4.0394   -5.4004   -3.1716 H   0  0  0  0  0  0  0  0  0  0  0  0
  1  3  1  0  0  0  0
  1  7  1  0  0  0  0
  1  2  2  0  0  0  0
 39 40  1  0  0  0  0
 40 48  1  0  0  0  0
 40 41  2  0  0  0  0
  8  9  1  0  0  0  0
  9 17  1  0  0  0  0
  9 10  2  0  0  0  0
 18 19  1  0  0  0  0
 19 38  1  0  0  0  0
 19 20  2  0  0  0  0
 39 42  1  0  0  0  0
  8 11  1  0  0  0  0
 48 49  1  0  0  0  0
 22 23  1  0  0  0  0
 21 22  1  0  0  0  0
 23 24  1  0  0  0  0
 18 21  1  0  0  0  0
 24 25  1  0  0  0  0
 38 39  1  0  0  0  0
  7  8  1  0  0  0  0
 17 18  1  0  0  0  0
  3  4  1  0  0  0  0
  3  5  1  0  0  0  0
  3  6  1  0  0  0  0
 42 45  1  0  0  0  0
 42 46  1  0  0  0  0
 42 47  1  0  0  0  0
 11 14  1  0  0  0  0
 11 15  1  0  0  0  0
 11 16  1  0  0  0  0
 49 51  1  0  0  0  0
 49 52  1  0  0  0  0
 49 53  1  0  0  0  0
 22 30  1  0  0  0  0
 22 31  1  0  0  0  0
 23 32  1  0  0  0  0
 23 33  1  0  0  0  0
 21 28  1  0  0  0  0
 21 29  1  0  0  0  0
 24 34  1  0  0  0  0
 24 35  1  0  0  0  0
 39 44  1  0  0  0  0
  8 13  1  0  0  0  0
 18 27  1  0  0  0  0
 25 36  1  0  0  0  0
 25 37  1  0  0  0  0
 48 50  1  0  0  0  0
  7 12  1  0  0  0  0
 38 43  1  0  0  0  0
 17 26  1  0  0  0  0
M  END
$$$$

  -OEChem-05262214473D

 53 52  0     1  0  0  0  0  0999 V2000
   -1.0338   -5.6785    0.1476 C   0  0  0  0  0  0  0  0  0  0  0  0
   -2.0514   -5.7797    0.8227 O   0  0  0  0  0  0  0  0  0  0  0  0
   -0.6558   -6.7819   -0.7841 C   0  0  0  0  0  0  0  0  0  0  0  0
   -0.0111   -7.5354   -0.3038 H   0  0  0  0  0  0  0  0  0  0  0  0
   -1.5317   -7.3401   -1.1520 H   0  0  0  0  0  0  0  0  0  0  0  0
   -0.1109   -6.4687   -1.6890 H   0  0  0  0  0  0  0  0  0  0  0  0
   -0.1543   -4.6083    0.1480 N   0  0  0  0  0  0  0  0  0  0  0  0
   -0.3302   -3.4398    0.9696 C   0  0  2  0  0  0  0  0  0  0  0  0
    0.2328   -2.2439    0.2131 C   0  0  0  0  0  0  0  0  0  0  0  0
    1.2097   -2.3192   -0.5294 O   0  0  0  0  0  0  0  0  0  0  0  0
    0.3557   -3.6024    2.3171 C   0  0  0  0  0  0  0  0  0  0  0  0
    0.6584   -4.6506   -0.4643 H   0  0  0  0  0  0  0  0  0  0  0  0
   -1.4091   -3.3101    1.1082 H   0  0  0  0  0  0  0  0  0  0  0  0
    1.4375   -3.7336    2.1985 H   0  0  0  0  0  0  0  0  0  0  0  0
    0.1969   -2.7243    2.9517 H   0  0  0  0  0  0  0  0  0  0  0  0
   -0.0294   -4.4803    2.8470 H   0  0  0  0  0  0  0  0  0  0  0  0
   -0.4616   -1.0893    0.5050 N   0  0  0  0  0  0  0  0  0  0  0  0
   -0.0884    0.2050   -0.0621 C   0  0  2  0  0  0  0  0  0  0  0  0
    1.1268   -0.0161   -0.9583 C   0  0  0  0  0  0  0  0  0  0  0  0
    1.5033    0.8057   -1.7916 O   0  0  0  0  0  0  0  0  0  0  0  0
    0.2574    1.2372    1.0216 C   0  0  0  0  0  0  0  0  0  0  0  0
   -0.9503    1.6634    1.8628 C   0  0  0  0  0  0  0  0  0  0  0  0
   -0.5553    2.7091    2.9091 C   0  0  0  0  0  0  0  0  0  0  0  0
   -1.7546    3.1156    3.7638 C   0  0  0  0  0  0  0  0  0  0  0  0
   -1.3526    4.0932    4.7680 N   0  0  0  0  0  0  0  0  0  0  0  0
   -1.2794   -1.1113    1.0935 H   0  0  0  0  0  0  0  0  0  0  0  0
   -0.9222    0.5713   -0.6730 H   0  0  0  0  0  0  0  0  0  0  0  0
    0.6888    2.1274    0.5453 H   0  0  0  0  0  0  0  0  0  0  0  0
    1.0415    0.8394    1.6801 H   0  0  0  0  0  0  0  0  0  0  0  0
   -1.3823    0.7942    2.3714 H   0  0  0  0  0  0  0  0  0  0  0  0
   -1.7260    2.0767    1.2070 H   0  0  0  0  0  0  0  0  0  0  0  0
    0.2377    2.3023    3.5494 H   0  0  0  0  0  0  0  0  0  0  0  0
   -0.1425    3.5925    2.4057 H   0  0  0  0  0  0  0  0  0  0  0  0
   -2.1801    2.2376    4.2620 H   0  0  0  0  0  0  0  0  0  0  0  0
   -2.5360    3.5526    3.1330 H   0  0  0  0  0  0  0  0  0  0  0  0
   -0.3766    4.2530    4.6762 H   0  0  0  0  0  0  0  0  0  0  0  0
   -1.8601    4.9320    4.6082 H   0  0  0  0  0  0  0  0  0  0  0  0
    1.7256   -1.2478   -0.7320 N   0  0  0  0  0  0  0  0  0  0  0  0
    2.8816   -1.7134   -1.4639 C   0  0  2  0  0  0  0  0  0  0  0  0
    2.7825   -3.2282   -1.5855 C   0  0  0  0  0  0  0  0  0  0  0  0
    2.2934   -3.9408   -0.7114 O   0  0  0  0  0  0  0  0  0  0  0  0
    4.1742   -1.3069   -0.7734 C   0  0  0  0  0  0  0  0  0  0  0  0
    1.3493   -1.8596   -0.0139 H   0  0  0  0  0  0  0  0  0  0  0  0
    2.8277   -1.2621   -2.4606 H   0  0  0  0  0  0  0  0  0  0  0  0
    4.2460   -1.7496    0.2267 H   0  0  0  0  0  0  0  0  0  0  0  0
    5.0491   -1.6356   -1.3440 H   0  0  0  0  0  0  0  0  0  0  0  0
    4.2300   -0.2189   -0.6601 H   0  0  0  0  0  0  0  0  0  0  0  0
    3.3434   -3.6948   -2.7661 N   0  0  0  0  0  0  0  0  0  0  0  0
    3.4111   -5.0995   -3.0954 C   0  0  0  0  0  0  0  0  0  0  0  0
    3.6896   -3.0301   -3.4518 H   0  0  0  0  0  0  0  0  0  0  0  0
    4.3728   -5.5106   -2.7546 H   0  0  0  0  0  0  0  0  0  0  0  0
    2.5876   -5.6326   -2.5978 H   0  0  0  0  0  0  0  0  0  0  0  0
    3.3241   -5.2252   -4.1847 H   0  0  0  0  0  0  0  0  0  0  0  0
  1  3  1  0  0  0  0
  1  7  1  0  0  0  0
  1  2  2  0  0  0  0
 39 40  1  0  0  0  0
 40 48  1  0  0  0  0
 40 41  2  0  0  0  0
  8  9  1  0  0  0  0
  9 17  1  0  0  0  0
  9 10  2  0  0  0  0
 18 19  1  0  0  0  0
 19 38  1  0  0  0  0
 19 20  2  0  0  0  0
 39 42  1  0  0  0  0
  8 11  1  0  0  0  0
 48 49  1  0  0  0  0
 22 23  1  0  0  0  0
 21 22  1  0  0  0  0
 23 24  1  0  0  0  0
 18 21  1  0  0  0  0
 24 25  1  0  0  0  0
 38 39  1  0  0  0  0
  7  8  1  0  0  0  0
 17 18  1  0  0  0  0
  3  4  1  0  0  0  0
  3  5  1  0  0  0  0
  3  6  1  0  0  0  0
 42 45  1  0  0  0  0
 42 46  1  0  0  0  0
 42 47  1  0  0  0  0
 11 14  1  0  0  0  0
 11 15  1  0  0  0  0
 11 16  1  0  0  0  0
 49 51  1  0  0  0  0
 49 52  1  0  0  0  0
 49 53  1  0  0  0  0
 22 30  1  0  0  0  0
 22 31  1  0  0  0  0
 23 32  1  0  0  0  0
 23 33  1  0  0  0  0
 21 28  1  0  0  0  0
 21 29  1  0  0  0  0
 24 34  1  0  0  0  0
 24 35  1  0  0  0  0
 39 44  1  0  0  0  0
  8 13  1  0  0  0  0
 18 27  1  0  0  0  0
 25 36  1  0  0  0  0
 25 37  1  0  0  0  0
 48 50  1  0  0  0  0
  7 12  1  0  0  0  0
 38 43  1  0  0  0  0
 17 26  1  0  0  0  0
M  END
$$$$

  -OEChem-05262214473D

 53 52  0     1  0  0  0  0  0999 V2000
   -1.0338   -5.6785    0.1476 C   0  0  0  0  0  0  0  0  0  0  0  0
   -2.0514   -5.7797    0.8227 O   0  0  0  0  0  0  0  0  0  0  0  0
   -0.6558   -6.7819   -0.7841 C   0  0  0  0  0  0  0  0  0  0  0  0
   -0.0111   -7.5354   -0.3038 H   0  0  0  0  0  0  0  0  0  0  0  0
   -1.5317   -7.3401   -1.1520 H   0  0  0  0  0  0  0  0  0  0  0  0
   -0.1109   -6.4687   -1.6890 H   0  0  0  0  0  0  0  0  0  0  0  0
   -0.1543   -4.6083    0.1480 N   0  0  0  0  0  0  0  0  0  0  0  0
   -0.3302   -3.4398    0.9696 C   0  0  2  0  0  0  0  0  0  0  0  0
    0.2328   -2.2439    0.2131 C   0  0  0  0  0  0  0  0  0  0  0  0
    1.2097   -2.3192   -0.5294 O   0  0  0  0  0  0  0  0  0  0  0  0
    0.3557   -3.6024    2.3171 C   0  0  0  0  0  0  0  0  0  0  0  0
    0.6584   -4.6506   -0.4643 H   0  0  0  0  0  0  0  0  0  0  0  0
   -1.4091   -3.3101    1.1082 H   0  0  0  0  0  0  0  0  0  0  0  0
    1.4375   -3.7336    2.1985 H   0  0  0  0  0  0  0  0  0  0  0  0
    0.1969   -2.7243    2.9517 H   0  0  0  0  0  0  0  0  0  0  0  0
   -0.0294   -4.4803    2.8470 H   0  0  0  0  0  0  0  0  0  0  0  0
   -0.4616   -1.0893    0.5050 N   0  0  0  0  0  0  0  0  0  0  0  0
   -0.0884    0.2050   -0.0621 C   0  0  2  0  0  0  0  0  0  0  0  0
    1.1268   -0.0161   -0.9583 C   0  0  0  0  0  0  0  0  0  0  0  0
    1.6648    0.8889   -1.5931 O   0  0  0  0  0  0  0  0  0  0  0  0
    0.2574    1.2372    1.0216 C   0  0  0  0  0  0  0  0  0  0  0  0
   -0.9503    1.6634    1.8628 C   0  0  0  0  0  0  0  0  0  0  0  0
   -0.5553    2.7091    2.9091 C   0  0  0  0  0  0  0  0  0  0  0  0
   -1.7546    3.1156    3.7638 C   0  0  0  0  0  0  0  0  0  0  0  0
   -1.3526    4.0932    4.7680 N   0  0  0  0  0  0  0  0  0  0  0  0
   -1.2794   -1.1113    1.0935 H   0  0  0  0  0  0  0  0  0  0  0  0
   -0.9222    0.5713   -0.6730 H   0  0  0  0  0  0  0  0  0  0  0  0
    0.6888    2.1274    0.5453 H   0  0  0  0  0  0  0  0  0  0  0  0
    1.0415    0.8394    1.6801 H   0  0  0  0  0  0  0  0  0  0  0  0
   -1.3823    0.7942    2.3714 H   0  0  0  0  0  0  0  0  0  0  0  0
   -1.7260    2.0767    1.2070 H   0  0  0  0  0  0  0  0  0  0  0  0
    0.2377    2.3023    3.5494 H   0  0  0  0  0  0  0  0  0  0  0  0
   -0.1425    3.5925    2.4057 H   0  0  0  0  0  0  0  0  0  0  0  0
   -2.1801    2.2376    4.2620 H   0  0  0  0  0  0  0  0  0  0  0  0
   -2.5360    3.5526    3.1330 H   0  0  0  0  0  0  0  0  0  0  0  0
   -0.3766    4.2530    4.6762 H   0  0  0  0  0  0  0  0  0  0  0  0
   -1.8601    4.9320    4.6082 H   0  0  0  0  0  0  0  0  0  0  0  0
    1.5236   -1.3461   -0.9816 N   0  0  0  0  0  0  0  0  0  0  0  0
    2.6354   -1.8276   -1.7695 C   0  0  2  0  0  0  0  0  0  0  0  0
    2.3197   -3.2518   -2.2071 C   0  0  0  0  0  0  0  0  0  0  0  0
    1.6846   -4.0420   -1.5120 O   0  0  0  0  0  0  0  0  0  0  0  0
    3.9352   -1.7766   -0.9816 C   0  0  0  0  0  0  0  0  0  0  0  0
    1.0231   -2.0247   -0.4155 H   0  0  0  0  0  0  0  0  0  0  0  0
    2.7023   -1.1805   -2.6508 H   0  0  0  0  0  0  0  0  0  0  0  0
    3.8871   -2.4189   -0.0947 H   0  0  0  0  0  0  0  0  0  0  0  0
    4.7810   -2.1148   -1.5892 H   0  0  0  0  0  0  0  0  0  0  0  0
    4.1454   -0.7566   -0.6422 H   0  0  0  0  0  0  0  0  0  0  0  0
    2.8677   -3.5504   -3.4468 N   0  0  0  0  0  0  0  0  0  0  0  0
    2.7441   -4.8519   -4.0608 C   0  0  0  0  0  0  0  0  0  0  0  0
    3.3446   -2.8226   -3.9707 H   0  0  0  0  0  0  0  0  0  0  0  0
    3.6147   -5.4685   -3.7927 H   0  0  0  0  0  0  0  0  0  0  0  0
    1.8254   -5.3399   -3.7035 H   0  0  0  0  0  0  0  0  0  0  0  0
    2.6978   -4.7385   -5.1539 H   0  0  0  0  0  0  0  0  0  0  0  0
  1  3  1  0  0  0  0
  1  7  1  0  0  0  0
  1  2  2  0  0  0  0
 39 40  1  0  0  0  0
 40 48  1  0  0  0  0
 40 41  2  0  0  0  0
  8  9  1  0  0  0  0
  9 17  1  0  0  0  0
  9 10  2  0  0  0  0
 18 19  1  0  0  0  0
 19 38  1  0  0  0  0
 19 20  2  0  0  0  0
 39 42  1  0  0  0  0
  8 11  1  0  0  0  0
 48 49  1  0  0  0  0
 22 23  1  0  0  0  0
 21 22  1  0  0  0  0
 23 24  1  0  0  0  0
 18 21  1  0  0  0  0
 24 25  1  0  0  0  0
 38 39  1  0  0  0  0
  7  8  1  0  0  0  0
 17 18  1  0  0  0  0
  3  4  1  0  0  0  0
  3  5  1  0  0  0  0
  3  6  1  0  0  0  0
 42 45  1  0  0  0  0
 42 46  1  0  0  0  0
 42 47  1  0  0  0  0
 11 14  1  0  0  0  0
 11 15  1  0  0  0  0
 11 16  1  0  0  0  0
 49 51  1  0  0  0  0
 49 52  1  0  0  0  0
 49 53  1  0  0  0  0
 22 30  1  0  0  0  0
 22 31  1  0  0  0  0
 23 32  1  0  0  0  0
 23 33  1  0  0  0  0
 21 28  1  0  0  0  0
 21 29  1  0  0  0  0
 24 34  1  0  0  0  0
 24 35  1  0  0  0  0
 39 44  1  0  0  0  0
  8 13  1  0  0  0  0
 18 27  1  0  0  0  0
 25 36  1  0  0  0  0
 25 37  1  0  0  0  0
 48 50  1  0  0  0  0
  7 12  1  0  0  0  0
 38 43  1  0  0  0  0
 17 26  1  0  0  0  0
M  END
$$$$

  -OEChem-05262214473D

 53 52  0     1  0  0  0  0  0999 V2000
   -1.0338   -5.6785    0.1476 C   0  0  0  0  0  0  0  0  0  0  0  0
   -2.0514   -5.7797    0.8227 O   0  0  0  0  0  0  0  0  0  0  0  0
   -0.6558   -6.7819   -0.7841 C   0  0  0  0  0  0  0  0  0  0  0  0
   -0.0111   -7.5354   -0.3038 H   0  0  0  0  0  0  0  0  0  0  0  0
   -1.5317   -7.3401   -1.1520 H   0  0  0  0  0  0  0  0  0  0  0  0
   -0.1109   -6.4687   -1.6890 H   0  0  0  0  0  0  0  0  0  0  0  0
   -0.1543   -4.6083    0.1480 N   0  0  0  0  0  0  0  0  0  0  0  0
   -0.3302   -3.4398    0.9696 C   0  0  2  0  0  0  0  0  0  0  0  0
    0.2328   -2.2439    0.2131 C   0  0  0  0  0  0  0  0  0  0  0  0
    1.2097   -2.3192   -0.5294 O   0  0  0  0  0  0  0  0  0  0  0  0
    0.3557   -3.6024    2.3171 C   0  0  0  0  0  0  0  0  0  0  0  0
    0.6584   -4.6506   -0.4643 H   0  0  0  0  0  0  0  0  0  0  0  0
   -1.4091   -3.3101    1.1082 H   0  0  0  0  0  0  0  0  0  0  0  0
    1.4375   -3.7336    2.1985 H   0  0  0  0  0  0  0  0  0  0  0  0
    0.1969   -2.7243    2.9517 H   0  0  0  0  0  0  0  0  0  0  0  0
   -0.0294   -4.4803    2.8470 H   0  0  0  0  0  0  0  0  0  0  0  0
   -0.4616   -1.0893    0.5050 N   0  0  0  0  0  0  0  0  0  0  0  0
   -0.0884    0.2050   -0.0621 C   0  0  2  0  0  0  0  0  0  0  0  0
    1.1268   -0.0161   -0.9583 C   0  0  0  0  0  0  0  0  0  0  0  0
    1.8260    0.9038   -1.3782 O   0  0  0  0  0  0  0  0  0  0  0  0
    0.2574    1.2372    1.0216 C   0  0  0  0  0  0  0  0  0  0  0  0
   -0.9503    1.6634    1.8628 C   0  0  0  0  0  0  0  0  0  0  0  0
   -0.5553    2.7091    2.9091 C   0  0  0  0  0  0  0  0  0  0  0  0
   -1.7546    3.1156    3.7638 C   0  0  0  0  0  0  0  0  0  0  0  0
   -1.3526    4.0932    4.7680 N   0  0  0  0  0  0  0  0  0  0  0  0
   -1.2794   -1.1113    1.0935 H   0  0  0  0  0  0  0  0  0  0  0  0
   -0.9222    0.5713   -0.6730 H   0  0  0  0  0  0  0  0  0  0  0  0
    0.6888    2.1274    0.5453 H   0  0  0  0  0  0  0  0  0  0  0  0
    1.0415    0.8394    1.6801 H   0  0  0  0  0  0  0  0  0  0  0  0
   -1.3823    0.7942    2.3714 H   0  0  0  0  0  0  0  0  0  0  0  0
   -1.7260    2.0767    1.2070 H   0  0  0  0  0  0  0  0  0  0  0  0
    0.2377    2.3023    3.5494 H   0  0  0  0  0  0  0  0  0  0  0  0
   -0.1425    3.5925    2.4057 H   0  0  0  0  0  0  0  0  0  0  0  0
   -2.1801    2.2376    4.2620 H   0  0  0  0  0  0  0  0  0  0  0  0
   -2.5360    3.5526    3.1330 H   0  0  0  0  0  0  0  0  0  0  0  0
   -0.3766    4.2530    4.6762 H   0  0  0  0  0  0  0  0  0  0  0  0
   -1.8601    4.9320    4.6082 H   0  0  0  0  0  0  0  0  0  0  0  0
    1.3230   -1.3589   -1.2505 N   0  0  0  0  0  0  0  0  0  0  0  0
    2.3917   -1.8376   -2.0974 C   0  0  2  0  0  0  0  0  0  0  0  0
    1.8925   -3.0762   -2.8298 C   0  0  0  0  0  0  0  0  0  0  0  0
    1.1111   -3.8822   -2.3290 O   0  0  0  0  0  0  0  0  0  0  0  0
    3.6407   -2.1511   -1.2884 C   0  0  0  0  0  0  0  0  0  0  0  0
    0.6980   -2.0519   -0.8496 H   0  0  0  0  0  0  0  0  0  0  0  0
    2.6007   -1.0434   -2.8224 H   0  0  0  0  0  0  0  0  0  0  0  0
    3.4507   -2.9447   -0.5566 H   0  0  0  0  0  0  0  0  0  0  0  0
    4.4584   -2.4865   -1.9349 H   0  0  0  0  0  0  0  0  0  0  0  0
    3.9812   -1.2668   -0.7389 H   0  0  0  0  0  0  0  0  0  0  0  0
    2.4557   -3.1984   -4.0923 N   0  0  0  0  0  0  0  0  0  0  0  0
    2.1737   -4.3124   -4.9673 C   0  0  0  0  0  0  0  0  0  0  0  0
    3.0624   -2.4627   -4.4422 H   0  0  0  0  0  0  0  0  0  0  0  0
    2.9279   -5.0986   -4.8153 H   0  0  0  0  0  0  0  0  0  0  0  0
    1.1751   -4.7135   -4.7398 H   0  0  0  0  0  0  0  0  0  0  0  0
    2.2032   -3.9734   -6.0133 H   0  0  0  0  0  0  0  0  0  0  0  0
  1  3  1  0  0  0  0
  1  7  1  0  0  0  0
  1  2  2  0  0  0  0
 39 40  1  0  0  0  0
 40 48  1  0  0  0  0
 40 41  2  0  0  0  0
  8  9  1  0  0  0  0
  9 17  1  0  0  0  0
  9 10  2  0  0  0  0
 18 19  1  0  0  0  0
 19 38  1  0  0  0  0
 19 20  2  0  0  0  0
 39 42  1  0  0  0  0
  8 11  1  0  0  0  0
 48 49  1  0  0  0  0
 22 23  1  0  0  0  0
 21 22  1  0  0  0  0
 23 24  1  0  0  0  0
 18 21  1  0  0  0  0
 24 25  1  0  0  0  0
 38 39  1  0  0  0  0
  7  8  1  0  0  0  0
 17 18  1  0  0  0  0
  3  4  1  0  0  0  0
  3  5  1  0  0  0  0
  3  6  1  0  0  0  0
 42 45  1  0  0  0  0
 42 46  1  0  0  0  0
 42 47  1  0  0  0  0
 11 14  1  0  0  0  0
 11 15  1  0  0  0  0
 11 16  1  0  0  0  0
 49 51  1  0  0  0  0
 49 52  1  0  0  0  0
 49 53  1  0  0  0  0
 22 30  1  0  0  0  0
 22 31  1  0  0  0  0
 23 32  1  0  0  0  0
 23 33  1  0  0  0  0
 21 28  1  0  0  0  0
 21 29  1  0  0  0  0
 24 34  1  0  0  0  0
 24 35  1  0  0  0  0
 39 44  1  0  0  0  0
  8 13  1  0  0  0  0
 18 27  1  0  0  0  0
 25 36  1  0  0  0  0
 25 37  1  0  0  0  0
 48 50  1  0  0  0  0
  7 12  1  0  0  0  0
 38 43  1  0  0  0  0
 17 26  1  0  0  0  0
M  END
$$$$

  -OEChem-05262214473D

 53 52  0     1  0  0  0  0  0999 V2000
   -1.0338   -5.6785    0.1476 C   0  0  0  0  0  0  0  0  0  0  0  0
   -2.0514   -5.7797    0.8227 O   0  0  0  0  0  0  0  0  0  0  0  0
   -0.6558   -6.7819   -0.7841 C   0  0  0  0  0  0  0  0  0  0  0  0
   -0.0111   -7.5354   -0.3038 H   0  0  0  0  0  0  0  0  0  0  0  0
   -1.5317   -7.3401   -1.1520 H   0  0  0  0  0  0  0  0  0  0  0  0
   -0.1109   -6.4687   -1.6890 H   0  0  0  0  0  0  0  0  0  0  0  0
   -0.1543   -4.6083    0.1480 N   0  0  0  0  0  0  0  0  0  0  0  0
   -0.3302   -3.4398    0.9696 C   0  0  2  0  0  0  0  0  0  0  0  0
    0.2328   -2.2439    0.2131 C   0  0  0  0  0  0  0  0  0  0  0  0
    1.2097   -2.3192   -0.5294 O   0  0  0  0  0  0  0  0  0  0  0  0
    0.3557   -3.6024    2.3171 C   0  0  0  0  0  0  0  0  0  0  0  0
    0.6584   -4.6506   -0.4643 H   0  0  0  0  0  0  0  0  0  0  0  0
   -1.4091   -3.3101    1.1082 H   0  0  0  0  0  0  0  0  0  0  0  0
    1.4375   -3.7336    2.1985 H   0  0  0  0  0  0  0  0  0  0  0  0
    0.1969   -2.7243    2.9517 H   0  0  0  0  0  0  0  0  0  0  0  0
   -0.0294   -4.4803    2.8470 H   0  0  0  0  0  0  0  0  0  0  0  0
   -0.4616   -1.0893    0.5050 N   0  0  0  0  0  0  0  0  0  0  0  0
   -0.0884    0.2050   -0.0621 C   0  0  2  0  0  0  0  0  0  0  0  0
    1.1268   -0.0161   -0.9583 C   0  0  0  0  0  0  0  0  0  0  0  0
    1.9760    0.8494   -1.1615 O   0  0  0  0  0  0  0  0  0  0  0  0
    0.2574    1.2372    1.0216 C   0  0  0  0  0  0  0  0  0  0  0  0
   -0.9503    1.6634    1.8628 C   0  0  0  0  0  0  0  0  0  0  0  0
   -0.5553    2.7091    2.9091 C   0  0  0  0  0  0  0  0  0  0  0  0
   -1.7546    3.1156    3.7638 C   0  0  0  0  0  0  0  0  0  0  0  0
   -1.3526    4.0932    4.7680 N   0  0  0  0  0  0  0  0  0  0  0  0
   -1.2794   -1.1113    1.0935 H   0  0  0  0  0  0  0  0  0  0  0  0
   -0.9222    0.5713   -0.6730 H   0  0  0  0  0  0  0  0  0  0  0  0
    0.6888    2.1274    0.5453 H   0  0  0  0  0  0  0  0  0  0  0  0
    1.0415    0.8394    1.6801 H   0  0  0  0  0  0  0  0  0  0  0  0
   -1.3823    0.7942    2.3714 H   0  0  0  0  0  0  0  0  0  0  0  0
   -1.7260    2.0767    1.2070 H   0  0  0  0  0  0  0  0  0  0  0  0
    0.2377    2.3023    3.5494 H   0  0  0  0  0  0  0  0  0  0  0  0
   -0.1425    3.5925    2.4057 H   0  0  0  0  0  0  0  0  0  0  0  0
   -2.1801    2.2376    4.2620 H   0  0  0  0  0  0  0  0  0  0  0  0
   -2.5360    3.5526    3.1330 H   0  0  0  0  0  0  0  0  0  0  0  0
   -0.3766    4.2530    4.6762 H   0  0  0  0  0  0  0  0  0  0  0  0
   -1.8601    4.9320    4.6082 H   0  0  0  0  0  0  0  0  0  0  0  0
    1.1373   -1.2853   -1.5203 N   0  0  0  0  0  0  0  0  0  0  0  0
    2.1671   -1.7427   -2.4254 C   0  0  2  0  0  0  0  0  0  0  0  0
    1.5299   -2.7132   -3.4110 C   0  0  0  0  0  0  0  0  0  0  0  0
    0.6121   -3.4723   -3.1067 O   0  0  0  0  0  0  0  0  0  0  0  0
    3.3109   -2.4048   -1.6730 C   0  0  0  0  0  0  0  0  0  0  0  0
    0.3961   -1.9392   -1.2868 H   0  0  0  0  0  0  0  0  0  0  0  0
    2.5298   -0.8602   -2.9637 H   0  0  0  0  0  0  0  0  0  0  0  0
    2.9667   -3.2910   -1.1275 H   0  0  0  0  0  0  0  0  0  0  0  0
    4.1033   -2.7251   -2.3575 H   0  0  0  0  0  0  0  0  0  0  0  0
    3.7487   -1.7148   -0.9436 H   0  0  0  0  0  0  0  0  0  0  0  0
    2.1354   -2.6626   -4.6588 N   0  0  0  0  0  0  0  0  0  0  0  0
    1.7388   -3.5177   -5.7531 C   0  0  0  0  0  0  0  0  0  0  0  0
    2.8622   -1.9750   -4.8340 H   0  0  0  0  0  0  0  0  0  0  0  0
    2.3590   -4.4262   -5.7526 H   0  0  0  0  0  0  0  0  0  0  0  0
    0.6810   -3.7959   -5.6361 H   0  0  0  0  0  0  0  0  0  0  0  0
    1.8740   -2.9821   -6.7044 H   0  0  0  0  0  0  0  0  0  0  0  0
  1  3  1  0  0  0  0
  1  7  1  0  0  0  0
  1  2  2  0  0  0  0
 39 40  1  0  0  0  0
 40 48  1  0  0  0  0
 40 41  2  0  0  0  0
  8  9  1  0  0  0  0
  9 17  1  0  0  0  0
  9 10  2  0  0  0  0
 18 19  1  0  0  0  0
 19 38  1  0  0  0  0
 19 20  2  0  0  0  0
 39 42  1  0  0  0  0
  8 11  1  0  0  0  0
 48 49  1  0  0  0  0
 22 23  1  0  0  0  0
 21 22  1  0  0  0  0
 23 24  1  0  0  0  0
 18 21  1  0  0  0  0
 24 25  1  0  0  0  0
 38 39  1  0  0  0  0
  7  8  1  0  0  0  0
 17 18  1  0  0  0  0
  3  4  1  0  0  0  0
  3  5  1  0  0  0  0
  3  6  1  0  0  0  0
 42 45  1  0  0  0  0
 42 46  1  0  0  0  0
 42 47  1  0  0  0  0
 11 14  1  0  0  0  0
 11 15  1  0  0  0  0
 11 16  1  0  0  0  0
 49 51  1  0  0  0  0
 49 52  1  0  0  0  0
 49 53  1  0  0  0  0
 22 30  1  0  0  0  0
 22 31  1  0  0  0  0
 23 32  1  0  0  0  0
 23 33  1  0  0  0  0
 21 28  1  0  0  0  0
 21 29  1  0  0  0  0
 24 34  1  0  0  0  0
 24 35  1  0  0  0  0
 39 44  1  0  0  0  0
  8 13  1  0  0  0  0
 18 27  1  0  0  0  0
 25 36  1  0  0  0  0
 25 37  1  0  0  0  0
 48 50  1  0  0  0  0
  7 12  1  0  0  0  0
 38 43  1  0  0  0  0
 17 26  1  0  0  0  0
M  END
$$$$

  -OEChem-05262214473D

 53 52  0     1  0  0  0  0  0999 V2000
   -1.0338   -5.6785    0.1476 C   0  0  0  0  0  0  0  0  0  0  0  0
   -2.0514   -5.7797    0.8227 O   0  0  0  0  0  0  0  0  0  0  0  0
   -0.6558   -6.7819   -0.7841 C   0  0  0  0  0  0  0  0  0  0  0  0
   -0.0111   -7.5354   -0.3038 H   0  0  0  0  0  0  0  0  0  0  0  0
   -1.5317   -7.3401   -1.1520 H   0  0  0  0  0  0  0  0  0  0  0  0
   -0.1109   -6.4687   -1.6890 H   0  0  0  0  0  0  0  0  0  0  0  0
   -0.1543   -4.6083    0.1480 N   0  0  0  0  0  0  0  0  0  0  0  0
   -0.3302   -3.4398    0.9696 C   0  0  2  0  0  0  0  0  0  0  0  0
    0.2328   -2.2439    0.2131 C   0  0  0  0  0  0  0  0  0  0  0  0
    1.2097   -2.3192   -0.5294 O   0  0  0  0  0  0  0  0  0  0  0  0
    0.3557   -3.6024    2.3171 C   0  0  0  0  0  0  0  0  0  0  0  0
    0.6584   -4.6506   -0.4643 H   0  0  0  0  0  0  0  0  0  0  0  0
   -1.4091   -3.3101    1.1082 H   0  0  0  0  0  0  0  0  0  0  0  0
    1.4375   -3.7336    2.1985 H   0  0  0  0  0  0  0  0  0  0  0  0
    0.1969   -2.7243    2.9517 H   0  0  0  0  0  0  0  0  0  0  0  0
   -0.0294   -4.4803    2.8470 H   0  0  0  0  0  0  0  0  0  0  0  0
   -0.4616   -1.0893    0.5050 N   0  0  0  0  0  0  0  0  0  0  0  0
   -0.0884    0.2050   -0.0621 C   0  0  2  0  0  0  0  0  0  0  0  0
    1.1268   -0.0161   -0.9583 C   0  0  0  0  0  0  0  0  0  0  0  0
    2.1044    0.7294   -0.9577 O   0  0  0  0  0  0  0  0  0  0  0  0
    0.2574    1.2372    1.0216 C   0  0  0  0  0  0  0  0  0  0  0  0
   -0.9503    1.6634    1.8628 C   0  0  0  0  0  0  0  0  0  0  0  0
   -0.5553    2.7091    2.9091 C   0  0  0  0  0  0  0  0  0  0  0  0
   -1.7546    3.1156    3.7638 C   0  0  0  0  0  0  0  0  0  0  0  0
   -1.3526    4.0932    4.7680 N   0  0  0  0  0  0  0  0  0  0  0  0
   -1.2794   -1.1113    1.0935 H   0  0  0  0  0  0  0  0  0  0  0  0
   -0.9222    0.5713   -0.6730 H   0  0  0  0  0  0  0  0  0  0  0  0
    0.6888    2.1274    0.5453 H   0  0  0  0  0  0  0  0  0  0  0  0
    1.0415    0.8394    1.6801 H   0  0  0  0  0  0  0  0  0  0  0  0
   -1.3823    0.7942    2.3714 H   0  0  0  0  0  0  0  0  0  0  0  0
   -1.7260    2.0767    1.2070 H   0  0  0  0  0  0  0  0  0  0  0  0
    0.2377    2.3023    3.5494 H   0  0  0  0  0  0  0  0  0  0  0  0
   -0.1425    3.5925    2.4057 H   0  0  0  0  0  0  0  0  0  0  0  0
   -2.1801    2.2376    4.2620 H   0  0  0  0  0  0  0  0  0  0  0  0
   -2.5360    3.5526    3.1330 H   0  0  0  0  0  0  0  0  0  0  0  0
   -0.3766    4.2530    4.6762 H   0  0  0  0  0  0  0  0  0  0  0  0
   -1.8601    4.9320    4.6082 H   0  0  0  0  0  0  0  0  0  0  0  0
    0.9793   -1.1304   -1.7728 N   0  0  0  0  0  0  0  0  0  0  0  0
    1.9769   -1.5492   -2.7311 C   0  0  2  0  0  0  0  0  0  0  0  0
    1.2565   -2.1877   -3.9113 C   0  0  0  0  0  0  0  0  0  0  0  0
    0.2216   -2.8402   -3.7922 O   0  0  0  0  0  0  0  0  0  0  0  0
    2.9681   -2.5205   -2.1092 C   0  0  0  0  0  0  0  0  0  0  0  0
    0.1380   -1.6943   -1.6971 H   0  0  0  0  0  0  0  0  0  0  0  0
    2.4945   -0.6434   -3.0650 H   0  0  0  0  0  0  0  0  0  0  0  0
    2.4678   -3.4343   -1.7685 H   0  0  0  0  0  0  0  0  0  0  0  0
    3.7398   -2.8146   -2.8282 H   0  0  0  0  0  0  0  0  0  0  0  0
    3.4637   -2.0700   -1.2424 H   0  0  0  0  0  0  0  0  0  0  0  0
    1.9287   -1.9797   -5.1075 N   0  0  0  0  0  0  0  0  0  0  0  0
    1.4689   -2.5221   -6.3647 C   0  0  0  0  0  0  0  0  0  0  0  0
    2.7576   -1.3927   -5.1194 H   0  0  0  0  0  0  0  0  0  0  0  0
    1.9468   -3.4971   -6.5407 H   0  0  0  0  0  0  0  0  0  0  0  0
    0.3769   -2.6498   -6.3313 H   0  0  0  0  0  0  0  0  0  0  0  0
    1.7326   -1.8321   -7.1799 H   0  0  0  0  0  0  0  0  0  0  0  0
  1  3  1  0  0  0  0
  1  7  1  0  0  0  0
  1  2  2  0  0  0  0
 39 40  1  0  0  0  0
 40 48  1  0  0  0  0
 40 41  2  0  0  0  0
  8  9  1  0  0  0  0
  9 17  1  0  0  0  0
  9 10  2  0  0  0  0
 18 19  1  0  0  0  0
 19 38  1  0  0  0  0
 19 20  2  0  0  0  0
 39 42  1  0  0  0  0
  8 11  1  0  0  0  0
 48 49  1  0  0  0  0
 22 23  1  0  0  0  0
 21 22  1  0  0  0  0
 23 24  1  0  0  0  0
 18 21  1  0  0  0  0
 24 25  1  0  0  0  0
 38 39  1  0  0  0  0
  7  8  1  0  0  0  0
 17 18  1  0  0  0  0
  3  4  1  0  0  0  0
  3  5  1  0  0  0  0
  3  6  1  0  0  0  0
 42 45  1  0  0  0  0
 42 46  1  0  0  0  0
 42 47  1  0  0  0  0
 11 14  1  0  0  0  0
 11 15  1  0  0  0  0
 11 16  1  0  0  0  0
 49 51  1  0  0  0  0
 49 52  1  0  0  0  0
 49 53  1  0  0  0  0
 22 30  1  0  0  0  0
 22 31  1  0  0  0  0
 23 32  1  0  0  0  0
 23 33  1  0  0  0  0
 21 28  1  0  0  0  0
 21 29  1  0  0  0  0
 24 34  1  0  0  0  0
 24 35  1  0  0  0  0
 39 44  1  0  0  0  0
  8 13  1  0  0  0  0
 18 27  1  0  0  0  0
 25 36  1  0  0  0  0
 25 37  1  0  0  0  0
 48 50  1  0  0  0  0
  7 12  1  0  0  0  0
 38 43  1  0  0  0  0
 17 26  1  0  0  0  0
M  END
$$$$

  -OEChem-05262214473D

 53 52  0     1  0  0  0  0  0999 V2000
   -1.0338   -5.6785    0.1476 C   0  0  0  0  0  0  0  0  0  0  0  0
   -2.0514   -5.7797    0.8227 O   0  0  0  0  0  0  0  0  0  0  0  0
   -0.6558   -6.7819   -0.7841 C   0  0  0  0  0  0  0  0  0  0  0  0
   -0.0111   -7.5354   -0.3038 H   0  0  0  0  0  0  0  0  0  0  0  0
   -1.5317   -7.3401   -1.1520 H   0  0  0  0  0  0  0  0  0  0  0  0
   -0.1109   -6.4687   -1.6890 H   0  0  0  0  0  0  0  0  0  0  0  0
   -0.1543   -4.6083    0.1480 N   0  0  0  0  0  0  0  0  0  0  0  0
   -0.3302   -3.4398    0.9696 C   0  0  2  0  0  0  0  0  0  0  0  0
    0.2328   -2.2439    0.2131 C   0  0  0  0  0  0  0  0  0  0  0  0
    1.2097   -2.3192   -0.5294 O   0  0  0  0  0  0  0  0  0  0  0  0
    0.3557   -3.6024    2.3171 C   0  0  0  0  0  0  0  0  0  0  0  0
    0.6584   -4.6506   -0.4643 H   0  0  0  0  0  0  0  0  0  0  0  0
   -1.4091   -3.3101    1.1082 H   0  0  0  0  0  0  0  0  0  0  0  0
    1.4375   -3.7336    2.1985 H   0  0  0  0  0  0  0  0  0  0  0  0
    0.1969   -2.7243    2.9517 H   0  0  0  0  0  0  0  0  0  0  0  0
   -0.0294   -4.4803    2.8470 H   0  0  0  0  0  0  0  0  0  0  0  0
   -0.4616   -1.0893    0.5050 N   0  0  0  0  0  0  0  0  0  0  0  0
   -0.0884    0.2050   -0.0621 C   0  0  2  0  0  0  0  0  0  0  0  0
    1.1268   -0.0161   -0.9583 C   0  0  0  0  0  0  0  0  0  0  0  0
    2.2026    0.5519   -0.7808 O   0  0  0  0  0  0  0  0  0  0  0  0
    0.2574    1.2372    1.0216 C   0  0  0  0  0  0  0  0  0  0  0  0
   -0.9503    1.6634    1.8628 C   0  0  0  0  0  0  0  0  0  0  0  0
   -0.5553    2.7091    2.9091 C   0  0  0  0  0  0  0  0  0  0  0  0
   -1.7546    3.1156    3.7638 C   0  0  0  0  0  0  0  0  0  0  0  0
   -1.3526    4.0932    4.7680 N   0  0  0  0  0  0  0  0  0  0  0  0
   -1.2794   -1.1113    1.0935 H   0  0  0  0  0  0  0  0  0  0  0  0
   -0.9222    0.5713   -0.6730 H   0  0  0  0  0  0  0  0  0  0  0  0
    0.6888    2.1274    0.5453 H   0  0  0  0  0  0  0  0  0  0  0  0
    1.0415    0.8394    1.6801 H   0  0  0  0  0  0  0  0  0  0  0  0
   -1.3823    0.7942    2.3714 H   0  0  0  0  0  0  0  0  0  0  0  0
   -1.7260    2.0767    1.2070 H   0  0  0  0  0  0  0  0  0  0  0  0
    0.2377    2.3023    3.5494 H   0  0  0  0  0  0  0  0  0  0  0  0
   -0.1425    3.5925    2.4057 H   0  0  0  0  0  0  0  0  0  0  0  0
   -2.1801    2.2376    4.2620 H   0  0  0  0  0  0  0  0  0  0  0  0
   -2.5360    3.5526    3.1330 H   0  0  0  0  0  0  0  0  0  0  0  0
   -0.3766    4.2530    4.6762 H   0  0  0  0  0  0  0  0  0  0  0  0
   -1.8601    4.9320    4.6082 H   0  0  0  0  0  0  0  0  0  0  0  0
    0.8597   -0.9047   -1.9907 N   0  0  0  0  0  0  0  0  0  0  0  0
    1.8340   -1.2704   -2.9935 C   0  0  2  0  0  0  0  0  0  0  0  0
    1.0912   -1.5355   -4.2964 C   0  0  0  0  0  0  0  0  0  0  0  0
   -0.0339   -2.0290   -4.3386 O   0  0  0  0  0  0  0  0  0  0  0  0
    2.6359   -2.4902   -2.5671 C   0  0  0  0  0  0  0  0  0  0  0  0
   -0.0587   -1.3340   -2.0527 H   0  0  0  0  0  0  0  0  0  0  0  0
    2.4972   -0.4076   -3.1196 H   0  0  0  0  0  0  0  0  0  0  0  0
    1.9883   -3.3648   -2.4358 H   0  0  0  0  0  0  0  0  0  0  0  0
    3.3928   -2.7488   -3.3150 H   0  0  0  0  0  0  0  0  0  0  0  0
    3.1456   -2.3082   -1.6149 H   0  0  0  0  0  0  0  0  0  0  0  0
    1.8497   -1.1961   -5.4080 N   0  0  0  0  0  0  0  0  0  0  0  0
    1.3825   -1.3933   -6.7604 C   0  0  0  0  0  0  0  0  0  0  0  0
    2.7558   -0.7556   -5.2791 H   0  0  0  0  0  0  0  0  0  0  0  0
    1.7195   -2.3745   -7.1259 H   0  0  0  0  0  0  0  0  0  0  0  0
    0.2834   -1.3533   -6.7779 H   0  0  0  0  0  0  0  0  0  0  0  0
    1.7886   -0.6019   -7.4075 H   0  0  0  0  0  0  0  0  0  0  0  0
  1  3  1  0  0  0  0
  1  7  1  0  0  0  0
  1  2  2  0  0  0  0
 39 40  1  0  0  0  0
 40 48  1  0  0  0  0
 40 41  2  0  0  0  0
  8  9  1  0  0  0  0
  9 17  1  0  0  0  0
  9 10  2  0  0  0  0
 18 19  1  0  0  0  0
 19 38  1  0  0  0  0
 19 20  2  0  0  0  0
 39 42  1  0  0  0  0
  8 11  1  0  0  0  0
 48 49  1  0  0  0  0
 22 23  1  0  0  0  0
 21 22  1  0  0  0  0
 23 24  1  0  0  0  0
 18 21  1  0  0  0  0
 24 25  1  0  0  0  0
 38 39  1  0  0  0  0
  7  8  1  0  0  0  0
 17 18  1  0  0  0  0
  3  4  1  0  0  0  0
  3  5  1  0  0  0  0
  3  6  1  0  0  0  0
 42 45  1  0  0  0  0
 42 46  1  0  0  0  0
 42 47  1  0  0  0  0
 11 14  1  0  0  0  0
 11 15  1  0  0  0  0
 11 16  1  0  0  0  0
 49 51  1  0  0  0  0
 49 52  1  0  0  0  0
 49 53  1  0  0  0  0
 22 30  1  0  0  0  0
 22 31  1  0  0  0  0
 23 32  1  0  0  0  0
 23 33  1  0  0  0  0
 21 28  1  0  0  0  0
 21 29  1  0  0  0  0
 24 34  1  0  0  0  0
 24 35  1  0  0  0  0
 39 44  1  0  0  0  0
  8 13  1  0  0  0  0
 18 27  1  0  0  0  0
 25 36  1  0  0  0  0
 25 37  1  0  0  0  0
 48 50  1  0  0  0  0
  7 12  1  0  0  0  0
 38 43  1  0  0  0  0
 17 26  1  0  0  0  0
M  END
$$$$

  -OEChem-05262214473D

 53 52  0     1  0  0  0  0  0999 V2000
   -1.0338   -5.6785    0.1476 C   0  0  0  0  0  0  0  0  0  0  0  0
   -2.0514   -5.7797    0.8227 O   0  0  0  0  0  0  0  0  0  0  0  0
   -0.6558   -6.7819   -0.7841 C   0  0  0  0  0  0  0  0  0  0  0  0
   -0.0111   -7.5354   -0.3038 H   0  0  0  0  0  0  0  0  0  0  0  0
   -1.5317   -7.3401   -1.1520 H   0  0  0  0  0  0  0  0  0  0  0  0
   -0.1109   -6.4687   -1.6890 H   0  0  0  0  0  0  0  0  0  0  0  0
   -0.1543   -4.6083    0.1480 N   0  0  0  0  0  0  0  0  0  0  0  0
   -0.3302   -3.4398    0.9696 C   0  0  2  0  0  0  0  0  0  0  0  0
    0.2328   -2.2439    0.2131 C   0  0  0  0  0  0  0  0  0  0  0  0
    1.2097   -2.3192   -0.5294 O   0  0  0  0  0  0  0  0  0  0  0  0
    0.3557   -3.6024    2.3171 C   0  0  0  0  0  0  0  0  0  0  0  0
    0.6584   -4.6506   -0.4643 H   0  0  0  0  0  0  0  0  0  0  0  0
   -1.4091   -3.3101    1.1082 H   0  0  0  0  0  0  0  0  0  0  0  0
    1.4375   -3.7336    2.1985 H   0  0  0  0  0  0  0  0  0  0  0  0
    0.1969   -2.7243    2.9517 H   0  0  0  0  0  0  0  0  0  0  0  0
   -0.0294   -4.4803    2.8470 H   0  0  0  0  0  0  0  0  0  0  0  0
   -0.4616   -1.0893    0.5050 N   0  0  0  0  0  0  0  0  0  0  0  0
   -0.0884    0.2050   -0.0621 C   0  0  2  0  0  0  0  0  0  0  0  0
    1.1268   -0.0161   -0.9583 C   0  0  0  0  0  0  0  0  0  0  0  0
    2.2638    0.3292   -0.6429 O   0  0  0  0  0  0  0  0  0  0  0  0
    0.2574    1.2372    1.0216 C   0  0  0  0  0  0  0  0  0  0  0  0
   -0.9503    1.6634    1.8628 C   0  0  0  0  0  0  0  0  0  0  0  0
   -0.5553    2.7091    2.9091 C   0  0  0  0  0  0  0  0  0  0  0  0
   -1.7546    3.1156    3.7638 C   0  0  0  0  0  0  0  0  0  0  0  0
   -1.3526    4.0932    4.7680 N   0  0  0  0  0  0  0  0  0  0  0  0
   -1.2794   -1.1113    1.0935 H   0  0  0  0  0  0  0  0  0  0  0  0
   -0.9222    0.5713   -0.6730 H   0  0  0  0  0  0  0  0  0  0  0  0
    0.6888    2.1274    0.5453 H   0  0  0  0  0  0  0  0  0  0  0  0
    1.0415    0.8394    1.6801 H   0  0  0  0  0  0  0  0  0  0  0  0
   -1.3823    0.7942    2.3714 H   0  0  0  0  0  0  0  0  0  0  0  0
   -1.7260    2.0767    1.2070 H   0  0  0  0  0  0  0  0  0  0  0  0
    0.2377    2.3023    3.5494 H   0  0  0  0  0  0  0  0  0  0  0  0
   -0.1425    3.5925    2.4057 H   0  0  0  0  0  0  0  0  0  0  0  0
   -2.1801    2.2376    4.2620 H   0  0  0  0  0  0  0  0  0  0  0  0
   -2.5360    3.5526    3.1330 H   0  0  0  0  0  0  0  0  0  0  0  0
   -0.3766    4.2530    4.6762 H   0  0  0  0  0  0  0  0  0  0  0  0
   -1.8601    4.9320    4.6082 H   0  0  0  0  0  0  0  0  0  0  0  0
    0.7866   -0.6237   -2.1591 N   0  0  0  0  0  0  0  0  0  0  0  0
    1.7483   -0.9253   -3.1950 C   0  0  2  0  0  0  0  0  0  0  0  0
    1.0451   -0.8010   -4.5402 C   0  0  0  0  0  0  0  0  0  0  0  0
   -0.1368   -1.0940   -4.7089 O   0  0  0  0  0  0  0  0  0  0  0  0
    2.3367   -2.3161   -3.0158 C   0  0  0  0  0  0  0  0  0  0  0  0
   -0.1806   -0.8828   -2.3293 H   0  0  0  0  0  0  0  0  0  0  0  0
    2.5376   -0.1691   -3.1236 H   0  0  0  0  0  0  0  0  0  0  0  0
    1.5607   -3.0872   -3.0841 H   0  0  0  0  0  0  0  0  0  0  0  0
    3.0858   -2.5321   -3.7846 H   0  0  0  0  0  0  0  0  0  0  0  0
    2.8161   -2.4131   -2.0357 H   0  0  0  0  0  0  0  0  0  0  0  0
    1.9038   -0.3653   -5.5397 N   0  0  0  0  0  0  0  0  0  0  0  0
    1.4855   -0.2083   -6.9131 C   0  0  0  0  0  0  0  0  0  0  0  0
    2.8569   -0.1070   -5.3020 H   0  0  0  0  0  0  0  0  0  0  0  0
    1.6925   -1.1350   -7.4683 H   0  0  0  0  0  0  0  0  0  0  0  0
    0.4070    0.0054   -6.9457 H   0  0  0  0  0  0  0  0  0  0  0  0
    2.0383    0.6249   -7.3716 H   0  0  0  0  0  0  0  0  0  0  0  0
  1  3  1  0  0  0  0
  1  7  1  0  0  0  0
  1  2  2  0  0  0  0
 39 40  1  0  0  0  0
 40 48  1  0  0  0  0
 40 41  2  0  0  0  0
  8  9  1  0  0  0  0
  9 17  1  0  0  0  0
  9 10  2  0  0  0  0
 18 19  1  0  0  0  0
 19 38  1  0  0  0  0
 19 20  2  0  0  0  0
 39 42  1  0  0  0  0
  8 11  1  0  0  0  0
 48 49  1  0  0  0  0
 22 23  1  0  0  0  0
 21 22  1  0  0  0  0
 23 24  1  0  0  0  0
 18 21  1  0  0  0  0
 24 25  1  0  0  0  0
 38 39  1  0  0  0  0
  7  8  1  0  0  0  0
 17 18  1  0  0  0  0
  3  4  1  0  0  0  0
  3  5  1  0  0  0  0
  3  6  1  0  0  0  0
 42 45  1  0  0  0  0
 42 46  1  0  0  0  0
 42 47  1  0  0  0  0
 11 14  1  0  0  0  0
 11 15  1  0  0  0  0
 11 16  1  0  0  0  0
 49 51  1  0  0  0  0
 49 52  1  0  0  0  0
 49 53  1  0  0  0  0
 22 30  1  0  0  0  0
 22 31  1  0  0  0  0
 23 32  1  0  0  0  0
 23 33  1  0  0  0  0
 21 28  1  0  0  0  0
 21 29  1  0  0  0  0
 24 34  1  0  0  0  0
 24 35  1  0  0  0  0
 39 44  1  0  0  0  0
  8 13  1  0  0  0  0
 18 27  1  0  0  0  0
 25 36  1  0  0  0  0
 25 37  1  0  0  0  0
 48 50  1  0  0  0  0
  7 12  1  0  0  0  0
 38 43  1  0  0  0  0
 17 26  1  0  0  0  0
M  END
$$$$

  -OEChem-05262214473D

 53 52  0     1  0  0  0  0  0999 V2000
   -1.0338   -5.6785    0.1476 C   0  0  0  0  0  0  0  0  0  0  0  0
   -2.0514   -5.7797    0.8227 O   0  0  0  0  0  0  0  0  0  0  0  0
   -0.6558   -6.7819   -0.7841 C   0  0  0  0  0  0  0  0  0  0  0  0
   -0.0111   -7.5354   -0.3038 H   0  0  0  0  0  0  0  0  0  0  0  0
   -1.5317   -7.3401   -1.1520 H   0  0  0  0  0  0  0  0  0  0  0  0
   -0.1109   -6.4687   -1.6890 H   0  0  0  0  0  0  0  0  0  0  0  0
   -0.1543   -4.6083    0.1480 N   0  0  0  0  0  0  0  0  0  0  0  0
   -0.3302   -3.4398    0.9696 C   0  0  2  0  0  0  0  0  0  0  0  0
    0.2328   -2.2439    0.2131 C   0  0  0  0  0  0  0  0  0  0  0  0
    1.2097   -2.3192   -0.5294 O   0  0  0  0  0  0  0  0  0  0  0  0
    0.3557   -3.6024    2.3171 C   0  0  0  0  0  0  0  0  0  0  0  0
    0.6584   -4.6506   -0.4643 H   0  0  0  0  0  0  0  0  0  0  0  0
   -1.4091   -3.3101    1.1082 H   0  0  0  0  0  0  0  0  0  0  0  0
    1.4375   -3.7336    2.1985 H   0  0  0  0  0  0  0  0  0  0  0  0
    0.1969   -2.7243    2.9517 H   0  0  0  0  0  0  0  0  0  0  0  0
   -0.0294   -4.4803    2.8470 H   0  0  0  0  0  0  0  0  0  0  0  0
   -0.4616   -1.0893    0.5050 N   0  0  0  0  0  0  0  0  0  0  0  0
   -0.0884    0.2050   -0.0621 C   0  0  2  0  0  0  0  0  0  0  0  0
    1.1268   -0.0161   -0.9583 C   0  0  0  0  0  0  0  0  0  0  0  0
    2.2839    0.0763   -0.5532 O   0  0  0  0  0  0  0  0  0  0  0  0
    0.2574    1.2372    1.0216 C   0  0  0  0  0  0  0  0  0  0  0  0
   -0.9503    1.6634    1.8628 C   0  0  0  0  0  0  0  0  0  0  0  0
   -0.5553    2.7091    2.9091 C   0  0  0  0  0  0  0  0  0  0  0  0
   -1.7546    3.1156    3.7638 C   0  0  0  0  0  0  0  0  0  0  0  0
   -1.3526    4.0932    4.7680 N   0  0  0  0  0  0  0  0  0  0  0  0
   -1.2794   -1.1113    1.0935 H   0  0  0  0  0  0  0  0  0  0  0  0
   -0.9222    0.5713   -0.6730 H   0  0  0  0  0  0  0  0  0  0  0  0
    0.6888    2.1274    0.5453 H   0  0  0  0  0  0  0  0  0  0  0  0
    1.0415    0.8394    1.6801 H   0  0  0  0  0  0  0  0  0  0  0  0
   -1.3823    0.7942    2.3714 H   0  0  0  0  0  0  0  0  0  0  0  0
   -1.7260    2.0767    1.2070 H   0  0  0  0  0  0  0  0  0  0  0  0
    0.2377    2.3023    3.5494 H   0  0  0  0  0  0  0  0  0  0  0  0
   -0.1425    3.5925    2.4057 H   0  0  0  0  0  0  0  0  0  0  0  0
   -2.1801    2.2376    4.2620 H   0  0  0  0  0  0  0  0  0  0  0  0
   -2.5360    3.5526    3.1330 H   0  0  0  0  0  0  0  0  0  0  0  0
   -0.3766    4.2530    4.6762 H   0  0  0  0  0  0  0  0  0  0  0  0
   -1.8601    4.9320    4.6082 H   0  0  0  0  0  0  0  0  0  0  0  0
    0.7651   -0.3064   -2.2667 N   0  0  0  0  0  0  0  0  0  0  0  0
    1.7254   -0.5374   -3.3217 C   0  0  2  0  0  0  0  0  0  0  0  0
    1.1213   -0.0342   -4.6260 C   0  0  0  0  0  0  0  0  0  0  0  0
   -0.0802   -0.0989   -4.8777 O   0  0  0  0  0  0  0  0  0  0  0  0
    2.0910   -2.0100   -3.4244 C   0  0  0  0  0  0  0  0  0  0  0  0
   -0.2193   -0.3715   -2.5080 H   0  0  0  0  0  0  0  0  0  0  0  0
    2.6131    0.0560   -3.0768 H   0  0  0  0  0  0  0  0  0  0  0  0
    1.2141   -2.6204   -3.6692 H   0  0  0  0  0  0  0  0  0  0  0  0
    2.8399   -2.1794   -4.2051 H   0  0  0  0  0  0  0  0  0  0  0  0
    2.4977   -2.3777   -2.4761 H   0  0  0  0  0  0  0  0  0  0  0  0
    2.0872    0.4561   -5.4937 N   0  0  0  0  0  0  0  0  0  0  0  0
    1.7708    0.9522   -6.8126 C   0  0  0  0  0  0  0  0  0  0  0  0
    3.0541    0.5088   -5.1867 H   0  0  0  0  0  0  0  0  0  0  0  0
    1.8677    0.1369   -7.5446 H   0  0  0  0  0  0  0  0  0  0  0  0
    0.7391    1.3335   -6.8231 H   0  0  0  0  0  0  0  0  0  0  0  0
    2.4646    1.7645   -7.0749 H   0  0  0  0  0  0  0  0  0  0  0  0
  1  3  1  0  0  0  0
  1  7  1  0  0  0  0
  1  2  2  0  0  0  0
 39 40  1  0  0  0  0
 40 48  1  0  0  0  0
 40 41  2  0  0  0  0
  8  9  1  0  0  0  0
  9 17  1  0  0  0  0
  9 10  2  0  0  0  0
 18 19  1  0  0  0  0
 19 38  1  0  0  0  0
 19 20  2  0  0  0  0
 39 42  1  0  0  0  0
  8 11  1  0  0  0  0
 48 49  1  0  0  0  0
 22 23  1  0  0  0  0
 21 22  1  0  0  0  0
 23 24  1  0  0  0  0
 18 21  1  0  0  0  0
 24 25  1  0  0  0  0
 38 39  1  0  0  0  0
  7  8  1  0  0  0  0
 17 18  1  0  0  0  0
  3  4  1  0  0  0  0
  3  5  1  0  0  0  0
  3  6  1  0  0  0  0
 42 45  1  0  0  0  0
 42 46  1  0  0  0  0
 42 47  1  0  0  0  0
 11 14  1  0  0  0  0
 11 15  1  0  0  0  0
 11 16  1  0  0  0  0
 49 51  1  0  0  0  0
 49 52  1  0  0  0  0
 49 53  1  0  0  0  0
 22 30  1  0  0  0  0
 22 31  1  0  0  0  0
 23 32  1  0  0  0  0
 23 33  1  0  0  0  0
 21 28  1  0  0  0  0
 21 29  1  0  0  0  0
 24 34  1  0  0  0  0
 24 35  1  0  0  0  0
 39 44  1  0  0  0  0
  8 13  1  0  0  0  0
 18 27  1  0  0  0  0
 25 36  1  0  0  0  0
 25 37  1  0  0  0  0
 48 50  1  0  0  0  0
  7 12  1  0  0  0  0
 38 43  1  0  0  0  0
 17 26  1  0  0  0  0
M  END
$$$$

  -OEChem-05262214473D

 53 52  0     1  0  0  0  0  0999 V2000
   -1.0338   -5.6785    0.1476 C   0  0  0  0  0  0  0  0  0  0  0  0
   -2.0514   -5.7797    0.8227 O   0  0  0  0  0  0  0  0  0  0  0  0
   -0.6558   -6.7819   -0.7841 C   0  0  0  0  0  0  0  0  0  0  0  0
   -0.0111   -7.5354   -0.3038 H   0  0  0  0  0  0  0  0  0  0  0  0
   -1.5317   -7.3401   -1.1520 H   0  0  0  0  0  0  0  0  0  0  0  0
   -0.1109   -6.4687   -1.6890 H   0  0  0  0  0  0  0  0  0  0  0  0
   -0.1543   -4.6083    0.1480 N   0  0  0  0  0  0  0  0  0  0  0  0
   -0.3302   -3.4398    0.9696 C   0  0  2  0  0  0  0  0  0  0  0  0
    0.2328   -2.2439    0.2131 C   0  0  0  0  0  0  0  0  0  0  0  0
    1.2097   -2.3192   -0.5294 O   0  0  0  0  0  0  0  0  0  0  0  0
    0.3557   -3.6024    2.3171 C   0  0  0  0  0  0  0  0  0  0  0  0
    0.6584   -4.6506   -0.4643 H   0  0  0  0  0  0  0  0  0  0  0  0
   -1.4091   -3.3101    1.1082 H   0  0  0  0  0  0  0  0  0  0  0  0
    1.4375   -3.7336    2.1985 H   0  0  0  0  0  0  0  0  0  0  0  0
    0.1969   -2.7243    2.9517 H   0  0  0  0  0  0  0  0  0  0  0  0
   -0.0294   -4.4803    2.8470 H   0  0  0  0  0  0  0  0  0  0  0  0
   -0.4616   -1.0893    0.5050 N   0  0  0  0  0  0  0  0  0  0  0  0
   -0.0884    0.2050   -0.0621 C   0  0  2  0  0  0  0  0  0  0  0  0
    1.1268   -0.0161   -0.9583 C   0  0  0  0  0  0  0  0  0  0  0  0
    2.2615   -0.1896   -0.5180 O   0  0  0  0  0  0  0  0  0  0  0  0
    0.2574    1.2372    1.0216 C   0  0  0  0  0  0  0  0  0  0  0  0
   -0.9503    1.6634    1.8628 C   0  0  0  0  0  0  0  0  0  0  0  0
   -0.5553    2.7091    2.9091 C   0  0  0  0  0  0  0  0  0  0  0  0
   -1.7546    3.1156    3.7638 C   0  0  0  0  0  0  0  0  0  0  0  0
   -1.3526    4.0932    4.7680 N   0  0  0  0  0  0  0  0  0  0  0  0
   -1.2794   -1.1113    1.0935 H   0  0  0  0  0  0  0  0  0  0  0  0
   -0.9222    0.5713   -0.6730 H   0  0  0  0  0  0  0  0  0  0  0  0
    0.6888    2.1274    0.5453 H   0  0  0  0  0  0  0  0  0  0  0  0
    1.0415    0.8394    1.6801 H   0  0  0  0  0  0  0  0  0  0  0  0
   -1.3823    0.7942    2.3714 H   0  0  0  0  0  0  0  0  0  0  0  0
   -1.7260    2.0767    1.2070 H   0  0  0  0  0  0  0  0  0  0  0  0
    0.2377    2.3023    3.5494 H   0  0  0  0  0  0  0  0  0  0  0  0
   -0.1425    3.5925    2.4057 H   0  0  0  0  0  0  0  0  0  0  0  0
   -2.1801    2.2376    4.2620 H   0  0  0  0  0  0  0  0  0  0  0  0
   -2.5360    3.5526    3.1330 H   0  0  0  0  0  0  0  0  0  0  0  0
   -0.3766    4.2530    4.6762 H   0  0  0  0  0  0  0  0  0  0  0  0
   -1.8601    4.9320    4.6082 H   0  0  0  0  0  0  0  0  0  0  0  0
    0.7965    0.0256   -2.3059 N   0  0  0  0  0  0  0  0  0  0  0  0
    1.7671   -0.1331   -3.3650 C   0  0  2  0  0  0  0  0  0  0  0  0
    1.3147    0.7125   -4.5481 C   0  0  0  0  0  0  0  0  0  0  0  0
    0.1321    0.8885   -4.8336 O   0  0  0  0  0  0  0  0  0  0  0  0
    1.9155   -1.5927   -3.7653 C   0  0  0  0  0  0  0  0  0  0  0  0
   -0.1723    0.1652   -2.5768 H   0  0  0  0  0  0  0  0  0  0  0  0
    2.7185    0.2523   -2.9824 H   0  0  0  0  0  0  0  0  0  0  0  0
    0.9723   -1.9963   -4.1511 H   0  0  0  0  0  0  0  0  0  0  0  0
    2.6718   -1.7146   -4.5478 H   0  0  0  0  0  0  0  0  0  0  0  0
    2.2121   -2.2042   -2.9062 H   0  0  0  0  0  0  0  0  0  0  0  0
    2.3876    1.2121   -5.2730 N   0  0  0  0  0  0  0  0  0  0  0  0
    2.2191    2.0090   -6.4657 C   0  0  0  0  0  0  0  0  0  0  0  0
    3.3337    1.0500   -4.9411 H   0  0  0  0  0  0  0  0  0  0  0  0
    2.2331    1.3545   -7.3497 H   0  0  0  0  0  0  0  0  0  0  0  0
    1.2572    2.5406   -6.4185 H   0  0  0  0  0  0  0  0  0  0  0  0
    3.0385    2.7394   -6.5373 H   0  0  0  0  0  0  0  0  0  0  0  0
  1  3  1  0  0  0  0
  1  7  1  0  0  0  0
  1  2  2  0  0  0  0
 39 40  1  0  0  0  0
 40 48  1  0  0  0  0
 40 41  2  0  0  0  0
  8  9  1  0  0  0  0
  9 17  1  0  0  0  0
  9 10  2  0  0  0  0
 18 19  1  0  0  0  0
 19 38  1  0  0  0  0
 19 20  2  0  0  0  0
 39 42  1  0  0  0  0
  8 11  1  0  0  0  0
 48 49  1  0  0  0  0
 22 23  1  0  0  0  0
 21 22  1  0  0  0  0
 23 24  1  0  0  0  0
 18 21  1  0  0  0  0
 24 25  1  0  0  0  0
 38 39  1  0  0  0  0
  7  8  1  0  0  0  0
 17 18  1  0  0  0  0
  3  4  1  0  0  0  0
  3  5  1  0  0  0  0
  3  6  1  0  0  0  0
 42 45  1  0  0  0  0
 42 46  1  0  0  0  0
 42 47  1  0  0  0  0
 11 14  1  0  0  0  0
 11 15  1  0  0  0  0
 11 16  1  0  0  0  0
 49 51  1  0  0  0  0
 49 52  1  0  0  0  0
 49 53  1  0  0  0  0
 22 30  1  0  0  0  0
 22 31  1  0  0  0  0
 23 32  1  0  0  0  0
 23 33  1  0  0  0  0
 21 28  1  0  0  0  0
 21 29  1  0  0  0  0
 24 34  1  0  0  0  0
 24 35  1  0  0  0  0
 39 44  1  0  0  0  0
  8 13  1  0  0  0  0
 18 27  1  0  0  0  0
 25 36  1  0  0  0  0
 25 37  1  0  0  0  0
 48 50  1  0  0  0  0
  7 12  1  0  0  0  0
 38 43  1  0  0  0  0
 17 26  1  0  0  0  0
M  END
$$$$

  -OEChem-05262214473D

 53 52  0     1  0  0  0  0  0999 V2000
   -1.0338   -5.6785    0.1476 C   0  0  0  0  0  0  0  0  0  0  0  0
   -2.0514   -5.7797    0.8227 O   0  0  0  0  0  0  0  0  0  0  0  0
   -0.6558   -6.7819   -0.7841 C   0  0  0  0  0  0  0  0  0  0  0  0
   -0.0111   -7.5354   -0.3038 H   0  0  0  0  0  0  0  0  0  0  0  0
   -1.5317   -7.3401   -1.1520 H   0  0  0  0  0  0  0  0  0  0  0  0
   -0.1109   -6.4687   -1.6890 H   0  0  0  0  0  0  0  0  0  0  0  0
   -0.1543   -4.6083    0.1480 N   0  0  0  0  0  0  0  0  0  0  0  0
   -0.3302   -3.4398    0.9696 C   0  0  2  0  0  0  0  0  0  0  0  0
    0.2328   -2.2439    0.2131 C   0  0  0  0  0  0  0  0  0  0  0  0
    1.2097   -2.3192   -0.5294 O   0  0  0  0  0  0  0  0  0  0  0  0
    0.3557   -3.6024    2.3171 C   0  0  0  0  0  0  0  0  0  0  0  0
    0.6584   -4.6506   -0.4643 H   0  0  0  0  0  0  0  0  0  0  0  0
   -1.4091   -3.3101    1.1082 H   0  0  0  0  0  0  0  0  0  0  0  0
    1.4375   -3.7336    2.1985 H   0  0  0  0  0  0  0  0  0  0  0  0
    0.1969   -2.7243    2.9517 H   0  0  0  0  0  0  0  0  0  0  0  0
   -0.0294   -4.4803    2.8470 H   0  0  0  0  0  0  0  0  0  0  0  0
   -0.4616   -1.0893    0.5050 N   0  0  0  0  0  0  0  0  0  0  0  0
   -0.0884    0.2050   -0.0621 C   0  0  2  0  0  0  0  0  0  0  0  0
    1.1268   -0.0161   -0.9583 C   0  0  0  0  0  0  0  0  0  0  0  0
    2.1981   -0.4502   -0.5396 O   0  0  0  0  0  0  0  0  0  0  0  0
    0.2574    1.2372    1.0216 C   0  0  0  0  0  0  0  0  0  0  0  0
   -0.9503    1.6634    1.8628 C   0  0  0  0  0  0  0  0  0  0  0  0
   -0.5553    2.7091    2.9091 C   0  0  0  0  0  0  0  0  0  0  0  0
   -1.7546    3.1156    3.7638 C   0  0  0  0  0  0  0  0  0  0  0  0
   -1.3526    4.0932    4.7680 N   0  0  0  0  0  0  0  0  0  0  0  0
   -1.2794   -1.1113    1.0935 H   0  0  0  0  0  0  0  0  0  0  0  0
   -0.9222    0.5713   -0.6730 H   0  0  0  0  0  0  0  0  0  0  0  0
    0.6888    2.1274    0.5453 H   0  0  0  0  0  0  0  0  0  0  0  0
    1.0415    0.8394    1.6801 H   0  0  0  0  0  0  0  0  0  0  0  0
   -1.3823    0.7942    2.3714 H   0  0  0  0  0  0  0  0  0  0  0  0
   -1.7260    2.0767    1.2070 H   0  0  0  0  0  0  0  0  0  0  0  0
    0.2377    2.3023    3.5494 H   0  0  0  0  0  0  0  0  0  0  0  0
   -0.1425    3.5925    2.4057 H   0  0  0  0  0  0  0  0  0  0  0  0
   -2.1801    2.2376    4.2620 H   0  0  0  0  0  0  0  0  0  0  0  0
   -2.5360    3.5526    3.1330 H   0  0  0  0  0  0  0  0  0  0  0  0
   -0.3766    4.2530    4.6762 H   0  0  0  0  0  0  0  0  0  0  0  0
   -1.8601    4.9320    4.6082 H   0  0  0  0  0  0  0  0  0  0  0  0
    0.8788    0.3495   -2.2742 N   0  0  0  0  0  0  0  0  0  0  0  0
    1.8704    0.2599   -3.3219 C   0  0  2  0  0  0  0  0  0  0  0  0
    1.6121    1.3883   -4.3116 C   0  0  0  0  0  0  0  0  0  0  0  0
    0.4855    1.8008   -4.5795 O   0  0  0  0  0  0  0  0  0  0  0  0
    1.8223   -1.0928   -4.0151 C   0  0  0  0  0  0  0  0  0  0  0  0
   -0.0428    0.6906   -2.5308 H   0  0  0  0  0  0  0  0  0  0  0  0
    2.8465    0.4064   -2.8468 H   0  0  0  0  0  0  0  0  0  0  0  0
    0.8516   -1.2575   -4.4970 H   0  0  0  0  0  0  0  0  0  0  0  0
    2.5928   -1.1695   -4.7893 H   0  0  0  0  0  0  0  0  0  0  0  0
    1.9786   -1.9047   -3.2967 H   0  0  0  0  0  0  0  0  0  0  0  0
    2.7843    1.8512   -4.8928 N   0  0  0  0  0  0  0  0  0  0  0  0
    2.7997    2.8902   -5.8960 C   0  0  0  0  0  0  0  0  0  0  0  0
    3.6769    1.4795   -4.5817 H   0  0  0  0  0  0  0  0  0  0  0  0
    2.7639    2.4350   -6.8967 H   0  0  0  0  0  0  0  0  0  0  0  0
    1.9260    3.5445   -5.7595 H   0  0  0  0  0  0  0  0  0  0  0  0
    3.7209    3.4830   -5.7957 H   0  0  0  0  0  0  0  0  0  0  0  0
  1  3  1  0  0  0  0
  1  7  1  0  0  0  0
  1  2  2  0  0  0  0
 39 40  1  0  0  0  0
 40 48  1  0  0  0  0
 40 41  2  0  0  0  0
  8  9  1  0  0  0  0
  9 17  1  0  0  0  0
  9 10  2  0  0  0  0
 18 19  1  0  0  0  0
 19 38  1  0  0  0  0
 19 20  2  0  0  0  0
 39 42  1  0  0  0  0
  8 11  1  0  0  0  0
 48 49  1  0  0  0  0
 22 23  1  0  0  0  0
 21 22  1  0  0  0  0
 23 24  1  0  0  0  0
 18 21  1  0  0  0  0
 24 25  1  0  0  0  0
 38 39  1  0  0  0  0
  7  8  1  0  0  0  0
 17 18  1  0  0  0  0
  3  4  1  0  0  0  0
  3  5  1  0  0  0  0
  3  6  1  0  0  0  0
 42 45  1  0  0  0  0
 42 46  1  0  0  0  0
 42 47  1  0  0  0  0
 11 14  1  0  0  0  0
 11 15  1  0  0  0  0
 11 16  1  0  0  0  0
 49 51  1  0  0  0  0
 49 52  1  0  0  0  0
 49 53  1  0  0  0  0
 22 30  1  0  0  0  0
 22 31  1  0  0  0  0
 23 32  1  0  0  0  0
 23 33  1  0  0  0  0
 21 28  1  0  0  0  0
 21 29  1  0  0  0  0
 24 34  1  0  0  0  0
 24 35  1  0  0  0  0
 39 44  1  0  0  0  0
  8 13  1  0  0  0  0
 18 27  1  0  0  0  0
 25 36  1  0  0  0  0
 25 37  1  0  0  0  0
 48 50  1  0  0  0  0
  7 12  1  0  0  0  0
 38 43  1  0  0  0  0
 17 26  1  0  0  0  0
M  END
$$$$

  -OEChem-05262214473D

 53 52  0     1  0  0  0  0  0999 V2000
   -1.0338   -5.6785    0.1476 C   0  0  0  0  0  0  0  0  0  0  0  0
   -2.0514   -5.7797    0.8227 O   0  0  0  0  0  0  0  0  0  0  0  0
   -0.6558   -6.7819   -0.7841 C   0  0  0  0  0  0  0  0  0  0  0  0
   -0.0111   -7.5354   -0.3038 H   0  0  0  0  0  0  0  0  0  0  0  0
   -1.5317   -7.3401   -1.1520 H   0  0  0  0  0  0  0  0  0  0  0  0
   -0.1109   -6.4687   -1.6890 H   0  0  0  0  0  0  0  0  0  0  0  0
   -0.1543   -4.6083    0.1480 N   0  0  0  0  0  0  0  0  0  0  0  0
   -0.3302   -3.4398    0.9696 C   0  0  2  0  0  0  0  0  0  0  0  0
    0.2328   -2.2439    0.2131 C   0  0  0  0  0  0  0  0  0  0  0  0
    1.2097   -2.3192   -0.5294 O   0  0  0  0  0  0  0  0  0  0  0  0
    0.3557   -3.6024    2.3171 C   0  0  0  0  0  0  0  0  0  0  0  0
    0.6584   -4.6506   -0.4643 H   0  0  0  0  0  0  0  0  0  0  0  0
   -1.4091   -3.3101    1.1082 H   0  0  0  0  0  0  0  0  0  0  0  0
    1.4375   -3.7336    2.1985 H   0  0  0  0  0  0  0  0  0  0  0  0
    0.1969   -2.7243    2.9517 H   0  0  0  0  0  0  0  0  0  0  0  0
   -0.0294   -4.4803    2.8470 H   0  0  0  0  0  0  0  0  0  0  0  0
   -0.4616   -1.0893    0.5050 N   0  0  0  0  0  0  0  0  0  0  0  0
   -0.0884    0.2050   -0.0621 C   0  0  2  0  0  0  0  0  0  0  0  0
    1.1268   -0.0161   -0.9583 C   0  0  0  0  0  0  0  0  0  0  0  0
    2.0981   -0.6879   -0.6165 O   0  0  0  0  0  0  0  0  0  0  0  0
    0.2574    1.2372    1.0216 C   0  0  0  0  0  0  0  0  0  0  0  0
   -0.9503    1.6634    1.8628 C   0  0  0  0  0  0  0  0  0  0  0  0
   -0.5553    2.7091    2.9091 C   0  0  0  0  0  0  0  0  0  0  0  0
   -1.7546    3.1156    3.7638 C   0  0  0  0  0  0  0  0  0  0  0  0
   -1.3526    4.0932    4.7680 N   0  0  0  0  0  0  0  0  0  0  0  0
   -1.2794   -1.1113    1.0935 H   0  0  0  0  0  0  0  0  0  0  0  0
   -0.9222    0.5713   -0.6730 H   0  0  0  0  0  0  0  0  0  0  0  0
    0.6888    2.1274    0.5453 H   0  0  0  0  0  0  0  0  0  0  0  0
    1.0415    0.8394    1.6801 H   0  0  0  0  0  0  0  0  0  0  0  0
   -1.3823    0.7942    2.3714 H   0  0  0  0  0  0  0  0  0  0  0  0
   -1.7260    2.0767    1.2070 H   0  0  0  0  0  0  0  0  0  0  0  0
    0.2377    2.3023    3.5494 H   0  0  0  0  0  0  0  0  0  0  0  0
   -0.1425    3.5925    2.4057 H   0  0  0  0  0  0  0  0  0  0  0  0
   -2.1801    2.2376    4.2620 H   0  0  0  0  0  0  0  0  0  0  0  0
   -2.5360    3.5526    3.1330 H   0  0  0  0  0  0  0  0  0  0  0  0
   -0.3766    4.2530    4.6762 H   0  0  0  0  0  0  0  0  0  0  0  0
   -1.8601    4.9320    4.6082 H   0  0  0  0  0  0  0  0  0  0  0  0
    1.0064    0.6434   -2.1738 N   0  0  0  0  0  0  0  0  0  0  0  0
    2.0283    0.6150   -3.1954 C   0  0  2  0  0  0  0  0  0  0  0  0
    1.9932    1.9471   -3.9328 C   0  0  0  0  0  0  0  0  0  0  0  0
    0.9561    2.5760   -4.1327 O   0  0  0  0  0  0  0  0  0  0  0  0
    1.8175   -0.5442   -4.1569 C   0  0  0  0  0  0  0  0  0  0  0  0
    0.1604    1.1689   -2.3732 H   0  0  0  0  0  0  0  0  0  0  0  0
    2.9886    0.5079   -2.6792 H   0  0  0  0  0  0  0  0  0  0  0  0
    0.8604   -0.4541   -4.6834 H   0  0  0  0  0  0  0  0  0  0  0  0
    2.6085   -0.5812   -4.9132 H   0  0  0  0  0  0  0  0  0  0  0  0
    1.8133   -1.4994   -3.6208 H   0  0  0  0  0  0  0  0  0  0  0  0
    3.2504    2.3300   -4.3790 N   0  0  0  0  0  0  0  0  0  0  0  0
    3.4730    3.5357   -5.1422 C   0  0  0  0  0  0  0  0  0  0  0  0
    4.0603    1.7682   -4.1333 H   0  0  0  0  0  0  0  0  0  0  0  0
    3.4238    3.3046   -6.2166 H   0  0  0  0  0  0  0  0  0  0  0  0
    2.6998    4.2766   -4.8909 H   0  0  0  0  0  0  0  0  0  0  0  0
    4.4652    3.9446   -4.9004 H   0  0  0  0  0  0  0  0  0  0  0  0
  1  3  1  0  0  0  0
  1  7  1  0  0  0  0
  1  2  2  0  0  0  0
 39 40  1  0  0  0  0
 40 48  1  0  0  0  0
 40 41  2  0  0  0  0
  8  9  1  0  0  0  0
  9 17  1  0  0  0  0
  9 10  2  0  0  0  0
 18 19  1  0  0  0  0
 19 38  1  0  0  0  0
 19 20  2  0  0  0  0
 39 42  1  0  0  0  0
  8 11  1  0  0  0  0
 48 49  1  0  0  0  0
 22 23  1  0  0  0  0
 21 22  1  0  0  0  0
 23 24  1  0  0  0  0
 18 21  1  0  0  0  0
 24 25  1  0  0  0  0
 38 39  1  0  0  0  0
  7  8  1  0  0  0  0
 17 18  1  0  0  0  0
  3  4  1  0  0  0  0
  3  5  1  0  0  0  0
  3  6  1  0  0  0  0
 42 45  1  0  0  0  0
 42 46  1  0  0  0  0
 42 47  1  0  0  0  0
 11 14  1  0  0  0  0
 11 15  1  0  0  0  0
 11 16  1  0  0  0  0
 49 51  1  0  0  0  0
 49 52  1  0  0  0  0
 49 53  1  0  0  0  0
 22 30  1  0  0  0  0
 22 31  1  0  0  0  0
 23 32  1  0  0  0  0
 23 33  1  0  0  0  0
 21 28  1  0  0  0  0
 21 29  1  0  0  0  0
 24 34  1  0  0  0  0
 24 35  1  0  0  0  0
 39 44  1  0  0  0  0
  8 13  1  0  0  0  0
 18 27  1  0  0  0  0
 25 36  1  0  0  0  0
 25 37  1  0  0  0  0
 48 50  1  0  0  0  0
  7 12  1  0  0  0  0
 38 43  1  0  0  0  0
 17 26  1  0  0  0  0
M  END
$$$$

  -OEChem-05262214473D

 53 52  0     1  0  0  0  0  0999 V2000
   -1.0338   -5.6785    0.1476 C   0  0  0  0  0  0  0  0  0  0  0  0
   -2.0514   -5.7797    0.8227 O   0  0  0  0  0  0  0  0  0  0  0  0
   -0.6558   -6.7819   -0.7841 C   0  0  0  0  0  0  0  0  0  0  0  0
   -0.0111   -7.5354   -0.3038 H   0  0  0  0  0  0  0  0  0  0  0  0
   -1.5317   -7.3401   -1.1520 H   0  0  0  0  0  0  0  0  0  0  0  0
   -0.1109   -6.4687   -1.6890 H   0  0  0  0  0  0  0  0  0  0  0  0
   -0.1543   -4.6083    0.1480 N   0  0  0  0  0  0  0  0  0  0  0  0
   -0.3302   -3.4398    0.9696 C   0  0  2  0  0  0  0  0  0  0  0  0
    0.2328   -2.2439    0.2131 C   0  0  0  0  0  0  0  0  0  0  0  0
    1.2097   -2.3192   -0.5294 O   0  0  0  0  0  0  0  0  0  0  0  0
    0.3557   -3.6024    2.3171 C   0  0  0  0  0  0  0  0  0  0  0  0
    0.6584   -4.6506   -0.4643 H   0  0  0  0  0  0  0  0  0  0  0  0
   -1.4091   -3.3101    1.1082 H   0  0  0  0  0  0  0  0  0  0  0  0
    1.4375   -3.7336    2.1985 H   0  0  0  0  0  0  0  0  0  0  0  0
    0.1969   -2.7243    2.9517 H   0  0  0  0  0  0  0  0  0  0  0  0
   -0.0294   -4.4803    2.8470 H   0  0  0  0  0  0  0  0  0  0  0  0
   -0.4616   -1.0893    0.5050 N   0  0  0  0  0  0  0  0  0  0  0  0
   -0.0884    0.2050   -0.0621 C   0  0  2  0  0  0  0  0  0  0  0  0
    1.1268   -0.0161   -0.9583 C   0  0  0  0  0  0  0  0  0  0  0  0
    1.9683   -0.8864   -0.7436 O   0  0  0  0  0  0  0  0  0  0  0  0
    0.2574    1.2372    1.0216 C   0  0  0  0  0  0  0  0  0  0  0  0
   -0.9503    1.6634    1.8628 C   0  0  0  0  0  0  0  0  0  0  0  0
   -0.5553    2.7091    2.9091 C   0  0  0  0  0  0  0  0  0  0  0  0
   -1.7546    3.1156    3.7638 C   0  0  0  0  0  0  0  0  0  0  0  0
   -1.3526    4.0932    4.7680 N   0  0  0  0  0  0  0  0  0  0  0  0
   -1.2794   -1.1113    1.0935 H   0  0  0  0  0  0  0  0  0  0  0  0
   -0.9222    0.5713   -0.6730 H   0  0  0  0  0  0  0  0  0  0  0  0
    0.6888    2.1274    0.5453 H   0  0  0  0  0  0  0  0  0  0  0  0
    1.0415    0.8394    1.6801 H   0  0  0  0  0  0  0  0  0  0  0  0
   -1.3823    0.7942    2.3714 H   0  0  0  0  0  0  0  0  0  0  0  0
   -1.7260    2.0767    1.2070 H   0  0  0  0  0  0  0  0  0  0  0  0
    0.2377    2.3023    3.5494 H   0  0  0  0  0  0  0  0  0  0  0  0
   -0.1425    3.5925    2.4057 H   0  0  0  0  0  0  0  0  0  0  0  0
   -2.1801    2.2376    4.2620 H   0  0  0  0  0  0  0  0  0  0  0  0
   -2.5360    3.5526    3.1330 H   0  0  0  0  0  0  0  0  0  0  0  0
   -0.3766    4.2530    4.6762 H   0  0  0  0  0  0  0  0  0  0  0  0
   -1.8601    4.9320    4.6082 H   0  0  0  0  0  0  0  0  0  0  0  0
    1.1705    0.8871   -2.0114 N   0  0  0  0  0  0  0  0  0  0  0  0
    2.2301    0.9080   -2.9941 C   0  0  2  0  0  0  0  0  0  0  0  0
    2.4321    2.3509   -3.4374 C   0  0  0  0  0  0  0  0  0  0  0  0
    1.5117    3.1612   -3.5238 O   0  0  0  0  0  0  0  0  0  0  0  0
    1.9017    0.0156   -4.1810 C   0  0  0  0  0  0  0  0  0  0  0  0
    0.4236    1.5675   -2.1148 H   0  0  0  0  0  0  0  0  0  0  0  0
    3.1349    0.5497   -2.4912 H   0  0  0  0  0  0  0  0  0  0  0  0
    0.9979    0.3590   -4.6975 H   0  0  0  0  0  0  0  0  0  0  0  0
    2.7177    0.0102   -4.9111 H   0  0  0  0  0  0  0  0  0  0  0  0
    1.7274   -1.0160   -3.8565 H   0  0  0  0  0  0  0  0  0  0  0  0
    3.7541    2.6156   -3.7665 N   0  0  0  0  0  0  0  0  0  0  0  0
    4.1933    3.9015   -4.2559 C   0  0  0  0  0  0  0  0  0  0  0  0
    4.4576    1.8964   -3.6262 H   0  0  0  0  0  0  0  0  0  0  0  0
    4.1679    3.9041   -5.3556 H   0  0  0  0  0  0  0  0  0  0  0  0
    3.5260    4.6872   -3.8720 H   0  0  0  0  0  0  0  0  0  0  0  0
    5.2207    4.0930   -3.9126 H   0  0  0  0  0  0  0  0  0  0  0  0
  1  3  1  0  0  0  0
  1  7  1  0  0  0  0
  1  2  2  0  0  0  0
 39 40  1  0  0  0  0
 40 48  1  0  0  0  0
 40 41  2  0  0  0  0
  8  9  1  0  0  0  0
  9 17  1  0  0  0  0
  9 10  2  0  0  0  0
 18 19  1  0  0  0  0
 19 38  1  0  0  0  0
 19 20  2  0  0  0  0
 39 42  1  0  0  0  0
  8 11  1  0  0  0  0
 48 49  1  0  0  0  0
 22 23  1  0  0  0  0
 21 22  1  0  0  0  0
 23 24  1  0  0  0  0
 18 21  1  0  0  0  0
 24 25  1  0  0  0  0
 38 39  1  0  0  0  0
  7  8  1  0  0  0  0
 17 18  1  0  0  0  0
  3  4  1  0  0  0  0
  3  5  1  0  0  0  0
  3  6  1  0  0  0  0
 42 45  1  0  0  0  0
 42 46  1  0  0  0  0
 42 47  1  0  0  0  0
 11 14  1  0  0  0  0
 11 15  1  0  0  0  0
 11 16  1  0  0  0  0
 49 51  1  0  0  0  0
 49 52  1  0  0  0  0
 49 53  1  0  0  0  0
 22 30  1  0  0  0  0
 22 31  1  0  0  0  0
 23 32  1  0  0  0  0
 23 33  1  0  0  0  0
 21 28  1  0  0  0  0
 21 29  1  0  0  0  0
 24 34  1  0  0  0  0
 24 35  1  0  0  0  0
 39 44  1  0  0  0  0
  8 13  1  0  0  0  0
 18 27  1  0  0  0  0
 25 36  1  0  0  0  0
 25 37  1  0  0  0  0
 48 50  1  0  0  0  0
  7 12  1  0  0  0  0
 38 43  1  0  0  0  0
 17 26  1  0  0  0  0
M  END
$$$$

  -OEChem-05262214473D

 53 52  0     1  0  0  0  0  0999 V2000
   -1.0338   -5.6785    0.1476 C   0  0  0  0  0  0  0  0  0  0  0  0
   -2.0514   -5.7797    0.8227 O   0  0  0  0  0  0  0  0  0  0  0  0
   -0.6558   -6.7819   -0.7841 C   0  0  0  0  0  0  0  0  0  0  0  0
   -0.0111   -7.5354   -0.3038 H   0  0  0  0  0  0  0  0  0  0  0  0
   -1.5317   -7.3401   -1.1520 H   0  0  0  0  0  0  0  0  0  0  0  0
   -0.1109   -6.4687   -1.6890 H   0  0  0  0  0  0  0  0  0  0  0  0
   -0.1543   -4.6083    0.1480 N   0  0  0  0  0  0  0  0  0  0  0  0
   -0.3302   -3.4398    0.9696 C   0  0  2  0  0  0  0  0  0  0  0  0
    0.2328   -2.2439    0.2131 C   0  0  0  0  0  0  0  0  0  0  0  0
    1.2097   -2.3192   -0.5294 O   0  0  0  0  0  0  0  0  0  0  0  0
    0.3557   -3.6024    2.3171 C   0  0  0  0  0  0  0  0  0  0  0  0
    0.6584   -4.6506   -0.4643 H   0  0  0  0  0  0  0  0  0  0  0  0
   -1.4091   -3.3101    1.1082 H   0  0  0  0  0  0  0  0  0  0  0  0
    1.4375   -3.7336    2.1985 H   0  0  0  0  0  0  0  0  0  0  0  0
    0.1969   -2.7243    2.9517 H   0  0  0  0  0  0  0  0  0  0  0  0
   -0.0294   -4.4803    2.8470 H   0  0  0  0  0  0  0  0  0  0  0  0
   -0.4616   -1.0893    0.5050 N   0  0  0  0  0  0  0  0  0  0  0  0
   -0.0884    0.2050   -0.0621 C   0  0  2  0  0  0  0  0  0  0  0  0
    1.1268   -0.0161   -0.9583 C   0  0  0  0  0  0  0  0  0  0  0  0
    1.8174   -1.0322   -0.9121 O   0  0  0  0  0  0  0  0  0  0  0  0
    0.2574    1.2372    1.0216 C   0  0  0  0  0  0  0  0  0  0  0  0
   -0.9503    1.6634    1.8628 C   0  0  0  0  0  0  0  0  0  0  0  0
   -0.5553    2.7091    2.9091 C   0  0  0  0  0  0  0  0  0  0  0  0
   -1.7546    3.1156    3.7638 C   0  0  0  0  0  0  0  0  0  0  0  0
   -1.3526    4.0932    4.7680 N   0  0  0  0  0  0  0  0  0  0  0  0
   -1.2794   -1.1113    1.0935 H   0  0  0  0  0  0  0  0  0  0  0  0
   -0.9222    0.5713   -0.6730 H   0  0  0  0  0  0  0  0  0  0  0  0
    0.6888    2.1274    0.5453 H   0  0  0  0  0  0  0  0  0  0  0  0
    1.0415    0.8394    1.6801 H   0  0  0  0  0  0  0  0  0  0  0  0
   -1.3823    0.7942    2.3714 H   0  0  0  0  0  0  0  0  0  0  0  0
   -1.7260    2.0767    1.2070 H   0  0  0  0  0  0  0  0  0  0  0  0
    0.2377    2.3023    3.5494 H   0  0  0  0  0  0  0  0  0  0  0  0
   -0.1425    3.5925    2.4057 H   0  0  0  0  0  0  0  0  0  0  0  0
   -2.1801    2.2376    4.2620 H   0  0  0  0  0  0  0  0  0  0  0  0
   -2.5360    3.5526    3.1330 H   0  0  0  0  0  0  0  0  0  0  0  0
   -0.3766    4.2530    4.6762 H   0  0  0  0  0  0  0  0  0  0  0  0
   -1.8601    4.9320    4.6082 H   0  0  0  0  0  0  0  0  0  0  0  0
    1.3600    1.0642   -1.7982 N   0  0  0  0  0  0  0  0  0  0  0  0
    2.4620    1.1188   -2.7317 C   0  0  2  0  0  0  0  0  0  0  0  0
    2.8988    2.5722   -2.8592 C   0  0  0  0  0  0  0  0  0  0  0  0
    2.1145    3.5165   -2.7942 O   0  0  0  0  0  0  0  0  0  0  0  0
    2.0690    0.5486   -4.0857 C   0  0  0  0  0  0  0  0  0  0  0  0
    0.7287    1.8594   -1.7732 H   0  0  0  0  0  0  0  0  0  0  0  0
    3.2756    0.5292   -2.2954 H   0  0  0  0  0  0  0  0  0  0  0  0
    1.2549    1.1263   -4.5384 H   0  0  0  0  0  0  0  0  0  0  0  0
    2.9130    0.5644   -4.7830 H   0  0  0  0  0  0  0  0  0  0  0  0
    1.7268   -0.4874   -3.9878 H   0  0  0  0  0  0  0  0  0  0  0  0
    4.2611    2.6887   -3.0971 N   0  0  0  0  0  0  0  0  0  0  0  0
    4.9114    3.9627   -3.2974 C   0  0  0  0  0  0  0  0  0  0  0  0
    4.8418    1.8553   -3.0951 H   0  0  0  0  0  0  0  0  0  0  0  0
    4.9454    4.1926   -4.3726 H   0  0  0  0  0  0  0  0  0  0  0  0
    4.3483    4.7482   -2.7722 H   0  0  0  0  0  0  0  0  0  0  0  0
    5.9360    3.9178   -2.8996 H   0  0  0  0  0  0  0  0  0  0  0  0
  1  3  1  0  0  0  0
  1  7  1  0  0  0  0
  1  2  2  0  0  0  0
 39 40  1  0  0  0  0
 40 48  1  0  0  0  0
 40 41  2  0  0  0  0
  8  9  1  0  0  0  0
  9 17  1  0  0  0  0
  9 10  2  0  0  0  0
 18 19  1  0  0  0  0
 19 38  1  0  0  0  0
 19 20  2  0  0  0  0
 39 42  1  0  0  0  0
  8 11  1  0  0  0  0
 48 49  1  0  0  0  0
 22 23  1  0  0  0  0
 21 22  1  0  0  0  0
 23 24  1  0  0  0  0
 18 21  1  0  0  0  0
 24 25  1  0  0  0  0
 38 39  1  0  0  0  0
  7  8  1  0  0  0  0
 17 18  1  0  0  0  0
  3  4  1  0  0  0  0
  3  5  1  0  0  0  0
  3  6  1  0  0  0  0
 42 45  1  0  0  0  0
 42 46  1  0  0  0  0
 42 47  1  0  0  0  0
 11 14  1  0  0  0  0
 11 15  1  0  0  0  0
 11 16  1  0  0  0  0
 49 51  1  0  0  0  0
 49 52  1  0  0  0  0
 49 53  1  0  0  0  0
 22 30  1  0  0  0  0
 22 31  1  0  0  0  0
 23 32  1  0  0  0  0
 23 33  1  0  0  0  0
 21 28  1  0  0  0  0
 21 29  1  0  0  0  0
 24 34  1  0  0  0  0
 24 35  1  0  0  0  0
 39 44  1  0  0  0  0
  8 13  1  0  0  0  0
 18 27  1  0  0  0  0
 25 36  1  0  0  0  0
 25 37  1  0  0  0  0
 48 50  1  0  0  0  0
  7 12  1  0  0  0  0
 38 43  1  0  0  0  0
 17 26  1  0  0  0  0
M  END
$$$$

  -OEChem-05262214473D

 53 52  0     1  0  0  0  0  0999 V2000
   -1.0338   -5.6785    0.1476 C   0  0  0  0  0  0  0  0  0  0  0  0
   -2.0514   -5.7797    0.8227 O   0  0  0  0  0  0  0  0  0  0  0  0
   -0.6558   -6.7819   -0.7841 C   0  0  0  0  0  0  0  0  0  0  0  0
   -0.0111   -7.5354   -0.3038 H   0  0  0  0  0  0  0  0  0  0  0  0
   -1.5317   -7.3401   -1.1520 H   0  0  0  0  0  0  0  0  0  0  0  0
   -0.1109   -6.4687   -1.6890 H   0  0  0  0  0  0  0  0  0  0  0  0
   -0.1543   -4.6083    0.1480 N   0  0  0  0  0  0  0  0  0  0  0  0
   -0.3302   -3.4398    0.9696 C   0  0  2  0  0  0  0  0  0  0  0  0
    0.2328   -2.2439    0.2131 C   0  0  0  0  0  0  0  0  0  0  0  0
    1.2097   -2.3192   -0.5294 O   0  0  0  0  0  0  0  0  0  0  0  0
    0.3557   -3.6024    2.3171 C   0  0  0  0  0  0  0  0  0  0  0  0
    0.6584   -4.6506   -0.4643 H   0  0  0  0  0  0  0  0  0  0  0  0
   -1.4091   -3.3101    1.1082 H   0  0  0  0  0  0  0  0  0  0  0  0
    1.4375   -3.7336    2.1985 H   0  0  0  0  0  0  0  0  0  0  0  0
    0.1969   -2.7243    2.9517 H   0  0  0  0  0  0  0  0  0  0  0  0
   -0.0294   -4.4803    2.8470 H   0  0  0  0  0  0  0  0  0  0  0  0
   -0.4616   -1.0893    0.5050 N   0  0  0  0  0  0  0  0  0  0  0  0
   -0.0884    0.2050   -0.0621 C   0  0  2  0  0  0  0  0  0  0  0  0
    0.8618   -0.0574   -1.2271 C   0  0  0  0  0  0  0  0  0  0  0  0
    1.2208   -1.1858   -1.5578 O   0  0  0  0  0  0  0  0  0  0  0  0
    0.6027    1.1132    0.9660 C   0  0  0  0  0  0  0  0  0  0  0  0
   -0.3304    1.5828    2.0868 C   0  0  0  0  0  0  0  0  0  0  0  0
    0.4013    2.5028    3.0679 C   0  0  0  0  0  0  0  0  0  0  0  0
   -0.5229    2.9510    4.1988 C   0  0  0  0  0  0  0  0  0  0  0  0
    0.1989    3.8061    5.1337 N   0  0  0  0  0  0  0  0  0  0  0  0
   -1.2794   -1.1113    1.0935 H   0  0  0  0  0  0  0  0  0  0  0  0
   -0.9940    0.6934   -0.4415 H   0  0  0  0  0  0  0  0  0  0  0  0
    1.0090    1.9940    0.4516 H   0  0  0  0  0  0  0  0  0  0  0  0
    1.4675    0.5944    1.4014 H   0  0  0  0  0  0  0  0  0  0  0  0
   -0.7278    0.7205    2.6339 H   0  0  0  0  0  0  0  0  0  0  0  0
   -1.1849    2.1160    1.6530 H   0  0  0  0  0  0  0  0  0  0  0  0
    1.2696    1.9757    3.4831 H   0  0  0  0  0  0  0  0  0  0  0  0
    0.7828    3.3807    2.5311 H   0  0  0  0  0  0  0  0  0  0  0  0
   -0.9172    2.0802    4.7339 H   0  0  0  0  0  0  0  0  0  0  0  0
   -1.3745    3.5064    3.7918 H   0  0  0  0  0  0  0  0  0  0  0  0
    1.1403    3.8813    4.8262 H   0  0  0  0  0  0  0  0  0  0  0  0
   -0.2379    4.6981    5.1422 H   0  0  0  0  0  0  0  0  0  0  0  0
    1.2772    1.1180   -1.8374 N   0  0  0  0  0  0  0  0  0  0  0  0
    2.1963    1.1501   -2.9522 C   0  0  2  0  0  0  0  0  0  0  0  0
    3.0189    2.4276   -2.8470 C   0  0  0  0  0  0  0  0  0  0  0  0
    2.5666    3.4822   -2.4061 O   0  0  0  0  0  0  0  0  0  0  0  0
    1.4579    1.0870   -4.2802 C   0  0  0  0  0  0  0  0  0  0  0  0
    0.9194    2.0070   -1.5007 H   0  0  0  0  0  0  0  0  0  0  0  0
    2.8547    0.2812   -2.8444 H   0  0  0  0  0  0  0  0  0  0  0  0
    0.7933    1.9494   -4.4061 H   0  0  0  0  0  0  0  0  0  0  0  0
    2.1569    1.0826   -5.1230 H   0  0  0  0  0  0  0  0  0  0  0  0
    0.8436    0.1822   -4.3419 H   0  0  0  0  0  0  0  0  0  0  0  0
    4.3044    2.2629   -3.3433 N   0  0  0  0  0  0  0  0  0  0  0  0
    5.2648    3.3405   -3.3934 C   0  0  0  0  0  0  0  0  0  0  0  0
    4.6070    1.3437   -3.6518 H   0  0  0  0  0  0  0  0  0  0  0  0
    5.2066    3.8391   -4.3722 H   0  0  0  0  0  0  0  0  0  0  0  0
    5.0422    4.0671   -2.5981 H   0  0  0  0  0  0  0  0  0  0  0  0
    6.2773    2.9361   -3.2476 H   0  0  0  0  0  0  0  0  0  0  0  0
  1  3  1  0  0  0  0
  1  7  1  0  0  0  0
  1  2  2  0  0  0  0
 39 40  1  0  0  0  0
 40 48  1  0  0  0  0
 40 41  2  0  0  0  0
  8  9  1  0  0  0  0
  9 17  1  0  0  0  0
  9 10  2  0  0  0  0
 18 19  1  0  0  0  0
 19 38  1  0  0  0  0
 19 20  2  0  0  0  0
 39 42  1  0  0  0  0
  8 11  1  0  0  0  0
 48 49  1  0  0  0  0
 22 23  1  0  0  0  0
 21 22  1  0  0  0  0
 23 24  1  0  0  0  0
 18 21  1  0  0  0  0
 24 25  1  0  0  0  0
 38 39  1  0  0  0  0
  7  8  1  0  0  0  0
 17 18  1  0  0  0  0
  3  4  1  0  0  0  0
  3  5  1  0  0  0  0
  3  6  1  0  0  0  0
 42 45  1  0  0  0  0
 42 46  1  0  0  0  0
 42 47  1  0  0  0  0
 11 14  1  0  0  0  0
 11 15  1  0  0  0  0
 11 16  1  0  0  0  0
 49 51  1  0  0  0  0
 49 52  1  0  0  0  0
 49 53  1  0  0  0  0
 22 30  1  0  0  0  0
 22 31  1  0  0  0  0
 23 32  1  0  0  0  0
 23 33  1  0  0  0  0
 21 28  1  0  0  0  0
 21 29  1  0  0  0  0
 24 34  1  0  0  0  0
 24 35  1  0  0  0  0
 39 44  1  0  0  0  0
  8 13  1  0  0  0  0
 18 27  1  0  0  0  0
 25 36  1  0  0  0  0
 25 37  1  0  0  0  0
 48 50  1  0  0  0  0
  7 12  1  0  0  0  0
 38 43  1  0  0  0  0
 17 26  1  0  0  0  0
M  END
$$$$

  -OEChem-05262214473D

 53 52  0     1  0  0  0  0  0999 V2000
   -1.0338   -5.6785    0.1476 C   0  0  0  0  0  0  0  0  0  0  0  0
   -2.0514   -5.7797    0.8227 O   0  0  0  0  0  0  0  0  0  0  0  0
   -0.6558   -6.7819   -0.7841 C   0  0  0  0  0  0  0  0  0  0  0  0
   -0.0111   -7.5354   -0.3038 H   0  0  0  0  0  0  0  0  0  0  0  0
   -1.5317   -7.3401   -1.1520 H   0  0  0  0  0  0  0  0  0  0  0  0
   -0.1109   -6.4687   -1.6890 H   0  0  0  0  0  0  0  0  0  0  0  0
   -0.1543   -4.6083    0.1480 N   0  0  0  0  0  0  0  0  0  0  0  0
   -0.3302   -3.4398    0.9696 C   0  0  2  0  0  0  0  0  0  0  0  0
    0.2328   -2.2439    0.2131 C   0  0  0  0  0  0  0  0  0  0  0  0
    1.2097   -2.3192   -0.5294 O   0  0  0  0  0  0  0  0  0  0  0  0
    0.3557   -3.6024    2.3171 C   0  0  0  0  0  0  0  0  0  0  0  0
    0.6584   -4.6506   -0.4643 H   0  0  0  0  0  0  0  0  0  0  0  0
   -1.4091   -3.3101    1.1082 H   0  0  0  0  0  0  0  0  0  0  0  0
    1.4375   -3.7336    2.1985 H   0  0  0  0  0  0  0  0  0  0  0  0
    0.1969   -2.7243    2.9517 H   0  0  0  0  0  0  0  0  0  0  0  0
   -0.0294   -4.4803    2.8470 H   0  0  0  0  0  0  0  0  0  0  0  0
   -0.4616   -1.0893    0.5050 N   0  0  0  0  0  0  0  0  0  0  0  0
   -0.0884    0.2050   -0.0621 C   0  0  2  0  0  0  0  0  0  0  0  0
    0.8618   -0.0574   -1.2271 C   0  0  0  0  0  0  0  0  0  0  0  0
    1.0146   -1.1689   -1.7298 O   0  0  0  0  0  0  0  0  0  0  0  0
    0.6027    1.1132    0.9660 C   0  0  0  0  0  0  0  0  0  0  0  0
   -0.3304    1.5828    2.0868 C   0  0  0  0  0  0  0  0  0  0  0  0
    0.4013    2.5028    3.0679 C   0  0  0  0  0  0  0  0  0  0  0  0
   -0.5229    2.9510    4.1988 C   0  0  0  0  0  0  0  0  0  0  0  0
    0.1989    3.8061    5.1337 N   0  0  0  0  0  0  0  0  0  0  0  0
   -1.2794   -1.1113    1.0935 H   0  0  0  0  0  0  0  0  0  0  0  0
   -0.9940    0.6934   -0.4415 H   0  0  0  0  0  0  0  0  0  0  0  0
    1.0090    1.9940    0.4516 H   0  0  0  0  0  0  0  0  0  0  0  0
    1.4675    0.5944    1.4014 H   0  0  0  0  0  0  0  0  0  0  0  0
   -0.7278    0.7205    2.6339 H   0  0  0  0  0  0  0  0  0  0  0  0
   -1.1849    2.1160    1.6530 H   0  0  0  0  0  0  0  0  0  0  0  0
    1.2696    1.9757    3.4831 H   0  0  0  0  0  0  0  0  0  0  0  0
    0.7828    3.3807    2.5311 H   0  0  0  0  0  0  0  0  0  0  0  0
   -0.9172    2.0802    4.7339 H   0  0  0  0  0  0  0  0  0  0  0  0
   -1.3745    3.5064    3.7918 H   0  0  0  0  0  0  0  0  0  0  0  0
    1.1403    3.8813    4.8262 H   0  0  0  0  0  0  0  0  0  0  0  0
   -0.2379    4.6981    5.1422 H   0  0  0  0  0  0  0  0  0  0  0  0
    1.5335    1.0912   -1.6223 N   0  0  0  0  0  0  0  0  0  0  0  0
    2.5074    1.1119   -2.6899 C   0  0  2  0  0  0  0  0  0  0  0  0
    3.5541    2.1651   -2.3513 C   0  0  0  0  0  0  0  0  0  0  0  0
    3.2890    3.2068   -1.7548 O   0  0  0  0  0  0  0  0  0  0  0  0
    1.8528    1.4075   -4.0304 C   0  0  0  0  0  0  0  0  0  0  0  0
    1.3352    1.9700   -1.1533 H   0  0  0  0  0  0  0  0  0  0  0  0
    2.9770    0.1224   -2.7089 H   0  0  0  0  0  0  0  0  0  0  0  0
    1.3769    2.3949   -4.0305 H   0  0  0  0  0  0  0  0  0  0  0  0
    2.5875    1.3947   -4.8422 H   0  0  0  0  0  0  0  0  0  0  0  0
    1.0796    0.6659   -4.2584 H   0  0  0  0  0  0  0  0  0  0  0  0
    4.8111    1.8250   -2.8314 N   0  0  0  0  0  0  0  0  0  0  0  0
    5.9634    2.6815   -2.6751 C   0  0  0  0  0  0  0  0  0  0  0  0
    4.9478    0.9236   -3.2792 H   0  0  0  0  0  0  0  0  0  0  0  0
    6.0625    3.3287   -3.5590 H   0  0  0  0  0  0  0  0  0  0  0  0
    5.8380    3.3043   -1.7771 H   0  0  0  0  0  0  0  0  0  0  0  0
    6.8676    2.0640   -2.5697 H   0  0  0  0  0  0  0  0  0  0  0  0
  1  3  1  0  0  0  0
  1  7  1  0  0  0  0
  1  2  2  0  0  0  0
 39 40  1  0  0  0  0
 40 48  1  0  0  0  0
 40 41  2  0  0  0  0
  8  9  1  0  0  0  0
  9 17  1  0  0  0  0
  9 10  2  0  0  0  0
 18 19  1  0  0  0  0
 19 38  1  0  0  0  0
 19 20  2  0  0  0  0
 39 42  1  0  0  0  0
  8 11  1  0  0  0  0
 48 49  1  0  0  0  0
 22 23  1  0  0  0  0
 21 22  1  0  0  0  0
 23 24  1  0  0  0  0
 18 21  1  0  0  0  0
 24 25  1  0  0  0  0
 38 39  1  0  0  0  0
  7  8  1  0  0  0  0
 17 18  1  0  0  0  0
  3  4  1  0  0  0  0
  3  5  1  0  0  0  0
  3  6  1  0  0  0  0
 42 45  1  0  0  0  0
 42 46  1  0  0  0  0
 42 47  1  0  0  0  0
 11 14  1  0  0  0  0
 11 15  1  0  0  0  0
 11 16  1  0  0  0  0
 49 51  1  0  0  0  0
 49 52  1  0  0  0  0
 49 53  1  0  0  0  0
 22 30  1  0  0  0  0
 22 31  1  0  0  0  0
 23 32  1  0  0  0  0
 23 33  1  0  0  0  0
 21 28  1  0  0  0  0
 21 29  1  0  0  0  0
 24 34  1  0  0  0  0
 24 35  1  0  0  0  0
 39 44  1  0  0  0  0
  8 13  1  0  0  0  0
 18 27  1  0  0  0  0
 25 36  1  0  0  0  0
 25 37  1  0  0  0  0
 48 50  1  0  0  0  0
  7 12  1  0  0  0  0
 38 43  1  0  0  0  0
 17 26  1  0  0  0  0
M  END
$$$$

  -OEChem-05262214473D

 53 52  0     1  0  0  0  0  0999 V2000
   -1.0338   -5.6785    0.1476 C   0  0  0  0  0  0  0  0  0  0  0  0
   -2.0514   -5.7797    0.8227 O   0  0  0  0  0  0  0  0  0  0  0  0
   -0.6558   -6.7819   -0.7841 C   0  0  0  0  0  0  0  0  0  0  0  0
   -0.0111   -7.5354   -0.3038 H   0  0  0  0  0  0  0  0  0  0  0  0
   -1.5317   -7.3401   -1.1520 H   0  0  0  0  0  0  0  0  0  0  0  0
   -0.1109   -6.4687   -1.6890 H   0  0  0  0  0  0  0  0  0  0  0  0
   -0.1543   -4.6083    0.1480 N   0  0  0  0  0  0  0  0  0  0  0  0
   -0.3302   -3.4398    0.9696 C   0  0  2  0  0  0  0  0  0  0  0  0
    0.2328   -2.2439    0.2131 C   0  0  0  0  0  0  0  0  0  0  0  0
    1.2097   -2.3192   -0.5294 O   0  0  0  0  0  0  0  0  0  0  0  0
    0.3557   -3.6024    2.3171 C   0  0  0  0  0  0  0  0  0  0  0  0
    0.6584   -4.6506   -0.4643 H   0  0  0  0  0  0  0  0  0  0  0  0
   -1.4091   -3.3101    1.1082 H   0  0  0  0  0  0  0  0  0  0  0  0
    1.4375   -3.7336    2.1985 H   0  0  0  0  0  0  0  0  0  0  0  0
    0.1969   -2.7243    2.9517 H   0  0  0  0  0  0  0  0  0  0  0  0
   -0.0294   -4.4803    2.8470 H   0  0  0  0  0  0  0  0  0  0  0  0
   -0.4616   -1.0893    0.5050 N   0  0  0  0  0  0  0  0  0  0  0  0
   -0.0884    0.2050   -0.0621 C   0  0  2  0  0  0  0  0  0  0  0  0
    0.8618   -0.0574   -1.2271 C   0  0  0  0  0  0  0  0  0  0  0  0
    0.8263   -1.0841   -1.9024 O   0  0  0  0  0  0  0  0  0  0  0  0
    0.6027    1.1132    0.9660 C   0  0  0  0  0  0  0  0  0  0  0  0
   -0.3304    1.5828    2.0868 C   0  0  0  0  0  0  0  0  0  0  0  0
    0.4013    2.5028    3.0679 C   0  0  0  0  0  0  0  0  0  0  0  0
   -0.5229    2.9510    4.1988 C   0  0  0  0  0  0  0  0  0  0  0  0
    0.1989    3.8061    5.1337 N   0  0  0  0  0  0  0  0  0  0  0  0
   -1.2794   -1.1113    1.0935 H   0  0  0  0  0  0  0  0  0  0  0  0
   -0.9940    0.6934   -0.4415 H   0  0  0  0  0  0  0  0  0  0  0  0
    1.0090    1.9940    0.4516 H   0  0  0  0  0  0  0  0  0  0  0  0
    1.4675    0.5944    1.4014 H   0  0  0  0  0  0  0  0  0  0  0  0
   -0.7278    0.7205    2.6339 H   0  0  0  0  0  0  0  0  0  0  0  0
   -1.1849    2.1160    1.6530 H   0  0  0  0  0  0  0  0  0  0  0  0
    1.2696    1.9757    3.4831 H   0  0  0  0  0  0  0  0  0  0  0  0
    0.7828    3.3807    2.5311 H   0  0  0  0  0  0  0  0  0  0  0  0
   -0.9172    2.0802    4.7339 H   0  0  0  0  0  0  0  0  0  0  0  0
   -1.3745    3.5064    3.7918 H   0  0  0  0  0  0  0  0  0  0  0  0
    1.1403    3.8813    4.8262 H   0  0  0  0  0  0  0  0  0  0  0  0
   -0.2379    4.6981    5.1422 H   0  0  0  0  0  0  0  0  0  0  0  0
    1.7662    0.9800   -1.4074 N   0  0  0  0  0  0  0  0  0  0  0  0
    2.7887    0.9713   -2.4288 C   0  0  2  0  0  0  0  0  0  0  0  0
    3.9972    1.7260   -1.8910 C   0  0  0  0  0  0  0  0  0  0  0  0
    3.9035    2.6931   -1.1379 O   0  0  0  0  0  0  0  0  0  0  0  0
    2.2864    1.5989   -3.7198 C   0  0  0  0  0  0  0  0  0  0  0  0
    1.7140    1.7961   -0.8051 H   0  0  0  0  0  0  0  0  0  0  0  0
    3.0577   -0.0770   -2.5981 H   0  0  0  0  0  0  0  0  0  0  0  0
    2.0120    2.6494   -3.5699 H   0  0  0  0  0  0  0  0  0  0  0  0
    3.0526    1.5658   -4.5014 H   0  0  0  0  0  0  0  0  0  0  0  0
    1.3994    1.0731   -4.0894 H   0  0  0  0  0  0  0  0  0  0  0  0
    5.1911    1.2194   -2.3850 N   0  0  0  0  0  0  0  0  0  0  0  0
    6.4760    1.7913   -2.0564 C   0  0  0  0  0  0  0  0  0  0  0  0
    5.1774    0.3904   -2.9718 H   0  0  0  0  0  0  0  0  0  0  0  0
    6.7523    2.5356   -2.8178 H   0  0  0  0  0  0  0  0  0  0  0  0
    6.4196    2.2780   -1.0716 H   0  0  0  0  0  0  0  0  0  0  0  0
    7.2352    0.9957   -2.0292 H   0  0  0  0  0  0  0  0  0  0  0  0
  1  3  1  0  0  0  0
  1  7  1  0  0  0  0
  1  2  2  0  0  0  0
 39 40  1  0  0  0  0
 40 48  1  0  0  0  0
 40 41  2  0  0  0  0
  8  9  1  0  0  0  0
  9 17  1  0  0  0  0
  9 10  2  0  0  0  0
 18 19  1  0  0  0  0
 19 38  1  0  0  0  0
 19 20  2  0  0  0  0
 39 42  1  0  0  0  0
  8 11  1  0  0  0  0
 48 49  1  0  0  0  0
 22 23  1  0  0  0  0
 21 22  1  0  0  0  0
 23 24  1  0  0  0  0
 18 21  1  0  0  0  0
 24 25  1  0  0  0  0
 38 39  1  0  0  0  0
  7  8  1  0  0  0  0
 17 18  1  0  0  0  0
  3  4  1  0  0  0  0
  3  5  1  0  0  0  0
  3  6  1  0  0  0  0
 42 45  1  0  0  0  0
 42 46  1  0  0  0  0
 42 47  1  0  0  0  0
 11 14  1  0  0  0  0
 11 15  1  0  0  0  0
 11 16  1  0  0  0  0
 49 51  1  0  0  0  0
 49 52  1  0  0  0  0
 49 53  1  0  0  0  0
 22 30  1  0  0  0  0
 22 31  1  0  0  0  0
 23 32  1  0  0  0  0
 23 33  1  0  0  0  0
 21 28  1  0  0  0  0
 21 29  1  0  0  0  0
 24 34  1  0  0  0  0
 24 35  1  0  0  0  0
 39 44  1  0  0  0  0
  8 13  1  0  0  0  0
 18 27  1  0  0  0  0
 25 36  1  0  0  0  0
 25 37  1  0  0  0  0
 48 50  1  0  0  0  0
  7 12  1  0  0  0  0
 38 43  1  0  0  0  0
 17 26  1  0  0  0  0
M  END
$$$$

  -OEChem-05262214473D

 53 52  0     1  0  0  0  0  0999 V2000
   -1.0338   -5.6785    0.1476 C   0  0  0  0  0  0  0  0  0  0  0  0
   -2.0514   -5.7797    0.8227 O   0  0  0  0  0  0  0  0  0  0  0  0
   -0.6558   -6.7819   -0.7841 C   0  0  0  0  0  0  0  0  0  0  0  0
   -0.0111   -7.5354   -0.3038 H   0  0  0  0  0  0  0  0  0  0  0  0
   -1.5317   -7.3401   -1.1520 H   0  0  0  0  0  0  0  0  0  0  0  0
   -0.1109   -6.4687   -1.6890 H   0  0  0  0  0  0  0  0  0  0  0  0
   -0.1543   -4.6083    0.1480 N   0  0  0  0  0  0  0  0  0  0  0  0
   -0.3302   -3.4398    0.9696 C   0  0  2  0  0  0  0  0  0  0  0  0
    0.2328   -2.2439    0.2131 C   0  0  0  0  0  0  0  0  0  0  0  0
    1.2097   -2.3192   -0.5294 O   0  0  0  0  0  0  0  0  0  0  0  0
    0.3557   -3.6024    2.3171 C   0  0  0  0  0  0  0  0  0  0  0  0
    0.6584   -4.6506   -0.4643 H   0  0  0  0  0  0  0  0  0  0  0  0
   -1.4091   -3.3101    1.1082 H   0  0  0  0  0  0  0  0  0  0  0  0
    1.4375   -3.7336    2.1985 H   0  0  0  0  0  0  0  0  0  0  0  0
    0.1969   -2.7243    2.9517 H   0  0  0  0  0  0  0  0  0  0  0  0
   -0.0294   -4.4803    2.8470 H   0  0  0  0  0  0  0  0  0  0  0  0
   -0.4616   -1.0893    0.5050 N   0  0  0  0  0  0  0  0  0  0  0  0
   -0.0884    0.2050   -0.0621 C   0  0  2  0  0  0  0  0  0  0  0  0
    0.8618   -0.0574   -1.2271 C   0  0  0  0  0  0  0  0  0  0  0  0
    0.6690   -0.9372   -2.0638 O   0  0  0  0  0  0  0  0  0  0  0  0
    0.6027    1.1132    0.9660 C   0  0  0  0  0  0  0  0  0  0  0  0
   -0.3304    1.5828    2.0868 C   0  0  0  0  0  0  0  0  0  0  0  0
    0.4013    2.5028    3.0679 C   0  0  0  0  0  0  0  0  0  0  0  0
   -0.5229    2.9510    4.1988 C   0  0  0  0  0  0  0  0  0  0  0  0
    0.1989    3.8061    5.1337 N   0  0  0  0  0  0  0  0  0  0  0  0
   -1.2794   -1.1113    1.0935 H   0  0  0  0  0  0  0  0  0  0  0  0
   -0.9940    0.6934   -0.4415 H   0  0  0  0  0  0  0  0  0  0  0  0
    1.0090    1.9940    0.4516 H   0  0  0  0  0  0  0  0  0  0  0  0
    1.4675    0.5944    1.4014 H   0  0  0  0  0  0  0  0  0  0  0  0
   -0.7278    0.7205    2.6339 H   0  0  0  0  0  0  0  0  0  0  0  0
   -1.1849    2.1160    1.6530 H   0  0  0  0  0  0  0  0  0  0  0  0
    1.2696    1.9757    3.4831 H   0  0  0  0  0  0  0  0  0  0  0  0
    0.7828    3.3807    2.5311 H   0  0  0  0  0  0  0  0  0  0  0  0
   -0.9172    2.0802    4.7339 H   0  0  0  0  0  0  0  0  0  0  0  0
   -1.3745    3.5064    3.7918 H   0  0  0  0  0  0  0  0  0  0  0  0
    1.1403    3.8813    4.8262 H   0  0  0  0  0  0  0  0  0  0  0  0
   -0.2379    4.6981    5.1422 H   0  0  0  0  0  0  0  0  0  0  0  0
    1.9595    0.7919   -1.2074 N   0  0  0  0  0  0  0  0  0  0  0  0
    3.0209    0.7379   -2.1868 C   0  0  2  0  0  0  0  0  0  0  0  0
    4.3180    1.1401   -1.4973 C   0  0  0  0  0  0  0  0  0  0  0  0
    4.3680    1.9761   -0.5975 O   0  0  0  0  0  0  0  0  0  0  0  0
    2.7292    1.6480   -3.3697 C   0  0  0  0  0  0  0  0  0  0  0  0
    2.0301    1.4972   -0.4800 H   0  0  0  0  0  0  0  0  0  0  0  0
    3.0913   -0.3034   -2.5197 H   0  0  0  0  0  0  0  0  0  0  0  0
    2.6551    2.6955   -3.0557 H   0  0  0  0  0  0  0  0  0  0  0  0
    3.5205    1.5843   -4.1240 H   0  0  0  0  0  0  0  0  0  0  0  0
    1.7812    1.3760   -3.8462 H   0  0  0  0  0  0  0  0  0  0  0  0
    5.4187    0.4875   -2.0345 N   0  0  0  0  0  0  0  0  0  0  0  0
    6.7678    0.7303   -1.5794 C   0  0  0  0  0  0  0  0  0  0  0  0
    5.2801   -0.2194   -2.7506 H   0  0  0  0  0  0  0  0  0  0  0  0
    7.2288    1.5137   -2.1989 H   0  0  0  0  0  0  0  0  0  0  0  0
    6.7471    1.0580   -0.5296 H   0  0  0  0  0  0  0  0  0  0  0  0
    7.3551   -0.1960   -1.6629 H   0  0  0  0  0  0  0  0  0  0  0  0
  1  3  1  0  0  0  0
  1  7  1  0  0  0  0
  1  2  2  0  0  0  0
 39 40  1  0  0  0  0
 40 48  1  0  0  0  0
 40 41  2  0  0  0  0
  8  9  1  0  0  0  0
  9 17  1  0  0  0  0
  9 10  2  0  0  0  0
 18 19  1  0  0  0  0
 19 38  1  0  0  0  0
 19 20  2  0  0  0  0
 39 42  1  0  0  0  0
  8 11  1  0  0  0  0
 48 49  1  0  0  0  0
 22 23  1  0  0  0  0
 21 22  1  0  0  0  0
 23 24  1  0  0  0  0
 18 21  1  0  0  0  0
 24 25  1  0  0  0  0
 38 39  1  0  0  0  0
  7  8  1  0  0  0  0
 17 18  1  0  0  0  0
  3  4  1  0  0  0  0
  3  5  1  0  0  0  0
  3  6  1  0  0  0  0
 42 45  1  0  0  0  0
 42 46  1  0  0  0  0
 42 47  1  0  0  0  0
 11 14  1  0  0  0  0
 11 15  1  0  0  0  0
 11 16  1  0  0  0  0
 49 51  1  0  0  0  0
 49 52  1  0  0  0  0
 49 53  1  0  0  0  0
 22 30  1  0  0  0  0
 22 31  1  0  0  0  0
 23 32  1  0  0  0  0
 23 33  1  0  0  0  0
 21 28  1  0  0  0  0
 21 29  1  0  0  0  0
 24 34  1  0  0  0  0
 24 35  1  0  0  0  0
 39 44  1  0  0  0  0
  8 13  1  0  0  0  0
 18 27  1  0  0  0  0
 25 36  1  0  0  0  0
 25 37  1  0  0  0  0
 48 50  1  0  0  0  0
  7 12  1  0  0  0  0
 38 43  1  0  0  0  0
 17 26  1  0  0  0  0
M  END
$$$$

  -OEChem-05262214473D

 53 52  0     1  0  0  0  0  0999 V2000
   -1.0338   -5.6785    0.1476 C   0  0  0  0  0  0  0  0  0  0  0  0
   -2.0514   -5.7797    0.8227 O   0  0  0  0  0  0  0  0  0  0  0  0
   -0.6558   -6.7819   -0.7841 C   0  0  0  0  0  0  0  0  0  0  0  0
   -0.0111   -7.5354   -0.3038 H   0  0  0  0  0  0  0  0  0  0  0  0
   -1.5317   -7.3401   -1.1520 H   0  0  0  0  0  0  0  0  0  0  0  0
   -0.1109   -6.4687   -1.6890 H   0  0  0  0  0  0  0  0  0  0  0  0
   -0.1543   -4.6083    0.1480 N   0  0  0  0  0  0  0  0  0  0  0  0
   -0.3302   -3.4398    0.9696 C   0  0  2  0  0  0  0  0  0  0  0  0
    0.2328   -2.2439    0.2131 C   0  0  0  0  0  0  0  0  0  0  0  0
    1.2097   -2.3192   -0.5294 O   0  0  0  0  0  0  0  0  0  0  0  0
    0.3557   -3.6024    2.3171 C   0  0  0  0  0  0  0  0  0  0  0  0
    0.6584   -4.6506   -0.4643 H   0  0  0  0  0  0  0  0  0  0  0  0
   -1.4091   -3.3101    1.1082 H   0  0  0  0  0  0  0  0  0  0  0  0
    1.4375   -3.7336    2.1985 H   0  0  0  0  0  0  0  0  0  0  0  0
    0.1969   -2.7243    2.9517 H   0  0  0  0  0  0  0  0  0  0  0  0
   -0.0294   -4.4803    2.8470 H   0  0  0  0  0  0  0  0  0  0  0  0
   -0.4616   -1.0893    0.5050 N   0  0  0  0  0  0  0  0  0  0  0  0
   -0.0884    0.2050   -0.0621 C   0  0  2  0  0  0  0  0  0  0  0  0
    0.8618   -0.0574   -1.2271 C   0  0  0  0  0  0  0  0  0  0  0  0
    0.5532   -0.7383   -2.2031 O   0  0  0  0  0  0  0  0  0  0  0  0
    0.6027    1.1132    0.9660 C   0  0  0  0  0  0  0  0  0  0  0  0
   -0.3304    1.5828    2.0868 C   0  0  0  0  0  0  0  0  0  0  0  0
    0.4013    2.5028    3.0679 C   0  0  0  0  0  0  0  0  0  0  0  0
   -0.5229    2.9510    4.1988 C   0  0  0  0  0  0  0  0  0  0  0  0
    0.1989    3.8061    5.1337 N   0  0  0  0  0  0  0  0  0  0  0  0
   -1.2794   -1.1113    1.0935 H   0  0  0  0  0  0  0  0  0  0  0  0
   -0.9940    0.6934   -0.4415 H   0  0  0  0  0  0  0  0  0  0  0  0
    1.0090    1.9940    0.4516 H   0  0  0  0  0  0  0  0  0  0  0  0
    1.4675    0.5944    1.4014 H   0  0  0  0  0  0  0  0  0  0  0  0
   -0.7278    0.7205    2.6339 H   0  0  0  0  0  0  0  0  0  0  0  0
   -1.1849    2.1160    1.6530 H   0  0  0  0  0  0  0  0  0  0  0  0
    1.2696    1.9757    3.4831 H   0  0  0  0  0  0  0  0  0  0  0  0
    0.7828    3.3807    2.5311 H   0  0  0  0  0  0  0  0  0  0  0  0
   -0.9172    2.0802    4.7339 H   0  0  0  0  0  0  0  0  0  0  0  0
   -1.3745    3.5064    3.7918 H   0  0  0  0  0  0  0  0  0  0  0  0
    1.1403    3.8813    4.8262 H   0  0  0  0  0  0  0  0  0  0  0  0
   -0.2379    4.6981    5.1422 H   0  0  0  0  0  0  0  0  0  0  0  0
    2.1001    0.5399   -1.0359 N   0  0  0  0  0  0  0  0  0  0  0  0
    3.1884    0.4275   -1.9803 C   0  0  2  0  0  0  0  0  0  0  0  0
    4.4945    0.4474   -1.1973 C   0  0  0  0  0  0  0  0  0  0  0  0
    4.6510    1.1047   -0.1704 O   0  0  0  0  0  0  0  0  0  0  0  0
    3.1511    1.5515   -3.0039 C   0  0  0  0  0  0  0  0  0  0  0  0
    2.2618    1.0937   -0.2000 H   0  0  0  0  0  0  0  0  0  0  0  0
    3.0756   -0.5414   -2.4789 H   0  0  0  0  0  0  0  0  0  0  0  0
    3.2626    2.5301   -2.5229 H   0  0  0  0  0  0  0  0  0  0  0  0
    3.9592    1.4488   -3.7356 H   0  0  0  0  0  0  0  0  0  0  0  0
    2.1990    1.5540   -3.5455 H   0  0  0  0  0  0  0  0  0  0  0  0
    5.4783   -0.3210   -1.8037 N   0  0  0  0  0  0  0  0  0  0  0  0
    6.8187   -0.4289   -1.2767 C   0  0  0  0  0  0  0  0  0  0  0  0
    5.2490   -0.8645   -2.6307 H   0  0  0  0  0  0  0  0  0  0  0  0
    7.4596    0.3328   -1.7446 H   0  0  0  0  0  0  0  0  0  0  0  0
    6.7982   -0.2724   -0.1881 H   0  0  0  0  0  0  0  0  0  0  0  0
    7.2192   -1.4297   -1.4958 H   0  0  0  0  0  0  0  0  0  0  0  0
  1  3  1  0  0  0  0
  1  7  1  0  0  0  0
  1  2  2  0  0  0  0
 39 40  1  0  0  0  0
 40 48  1  0  0  0  0
 40 41  2  0  0  0  0
  8  9  1  0  0  0  0
  9 17  1  0  0  0  0
  9 10  2  0  0  0  0
 18 19  1  0  0  0  0
 19 38  1  0  0  0  0
 19 20  2  0  0  0  0
 39 42  1  0  0  0  0
  8 11  1  0  0  0  0
 48 49  1  0  0  0  0
 22 23  1  0  0  0  0
 21 22  1  0  0  0  0
 23 24  1  0  0  0  0
 18 21  1  0  0  0  0
 24 25  1  0  0  0  0
 38 39  1  0  0  0  0
  7  8  1  0  0  0  0
 17 18  1  0  0  0  0
  3  4  1  0  0  0  0
  3  5  1  0  0  0  0
  3  6  1  0  0  0  0
 42 45  1  0  0  0  0
 42 46  1  0  0  0  0
 42 47  1  0  0  0  0
 11 14  1  0  0  0  0
 11 15  1  0  0  0  0
 11 16  1  0  0  0  0
 49 51  1  0  0  0  0
 49 52  1  0  0  0  0
 49 53  1  0  0  0  0
 22 30  1  0  0  0  0
 22 31  1  0  0  0  0
 23 32  1  0  0  0  0
 23 33  1  0  0  0  0
 21 28  1  0  0  0  0
 21 29  1  0  0  0  0
 24 34  1  0  0  0  0
 24 35  1  0  0  0  0
 39 44  1  0  0  0  0
  8 13  1  0  0  0  0
 18 27  1  0  0  0  0
 25 36  1  0  0  0  0
 25 37  1  0  0  0  0
 48 50  1  0  0  0  0
  7 12  1  0  0  0  0
 38 43  1  0  0  0  0
 17 26  1  0  0  0  0
M  END
$$$$

  -OEChem-05262214473D

 53 52  0     1  0  0  0  0  0999 V2000
   -1.0338   -5.6785    0.1476 C   0  0  0  0  0  0  0  0  0  0  0  0
   -2.0514   -5.7797    0.8227 O   0  0  0  0  0  0  0  0  0  0  0  0
   -0.6558   -6.7819   -0.7841 C   0  0  0  0  0  0  0  0  0  0  0  0
   -0.0111   -7.5354   -0.3038 H   0  0  0  0  0  0  0  0  0  0  0  0
   -1.5317   -7.3401   -1.1520 H   0  0  0  0  0  0  0  0  0  0  0  0
   -0.1109   -6.4687   -1.6890 H   0  0  0  0  0  0  0  0  0  0  0  0
   -0.1543   -4.6083    0.1480 N   0  0  0  0  0  0  0  0  0  0  0  0
   -0.3302   -3.4398    0.9696 C   0  0  2  0  0  0  0  0  0  0  0  0
    0.2328   -2.2439    0.2131 C   0  0  0  0  0  0  0  0  0  0  0  0
    1.2097   -2.3192   -0.5294 O   0  0  0  0  0  0  0  0  0  0  0  0
    0.3557   -3.6024    2.3171 C   0  0  0  0  0  0  0  0  0  0  0  0
    0.6584   -4.6506   -0.4643 H   0  0  0  0  0  0  0  0  0  0  0  0
   -1.4091   -3.3101    1.1082 H   0  0  0  0  0  0  0  0  0  0  0  0
    1.4375   -3.7336    2.1985 H   0  0  0  0  0  0  0  0  0  0  0  0
    0.1969   -2.7243    2.9517 H   0  0  0  0  0  0  0  0  0  0  0  0
   -0.0294   -4.4803    2.8470 H   0  0  0  0  0  0  0  0  0  0  0  0
   -0.4616   -1.0893    0.5050 N   0  0  0  0  0  0  0  0  0  0  0  0
   -0.0884    0.2050   -0.0621 C   0  0  2  0  0  0  0  0  0  0  0  0
    0.8618   -0.0574   -1.2271 C   0  0  0  0  0  0  0  0  0  0  0  0
    0.4868   -0.5007   -2.3107 O   0  0  0  0  0  0  0  0  0  0  0  0
    0.6027    1.1132    0.9660 C   0  0  0  0  0  0  0  0  0  0  0  0
   -0.3304    1.5828    2.0868 C   0  0  0  0  0  0  0  0  0  0  0  0
    0.4013    2.5028    3.0679 C   0  0  0  0  0  0  0  0  0  0  0  0
   -0.5229    2.9510    4.1988 C   0  0  0  0  0  0  0  0  0  0  0  0
    0.1989    3.8061    5.1337 N   0  0  0  0  0  0  0  0  0  0  0  0
   -1.2794   -1.1113    1.0935 H   0  0  0  0  0  0  0  0  0  0  0  0
   -0.9940    0.6934   -0.4415 H   0  0  0  0  0  0  0  0  0  0  0  0
    1.0090    1.9940    0.4516 H   0  0  0  0  0  0  0  0  0  0  0  0
    1.4675    0.5944    1.4014 H   0  0  0  0  0  0  0  0  0  0  0  0
   -0.7278    0.7205    2.6339 H   0  0  0  0  0  0  0  0  0  0  0  0
   -1.1849    2.1160    1.6530 H   0  0  0  0  0  0  0  0  0  0  0  0
    1.2696    1.9757    3.4831 H   0  0  0  0  0  0  0  0  0  0  0  0
    0.7828    3.3807    2.5311 H   0  0  0  0  0  0  0  0  0  0  0  0
   -0.9172    2.0802    4.7339 H   0  0  0  0  0  0  0  0  0  0  0  0
   -1.3745    3.5064    3.7918 H   0  0  0  0  0  0  0  0  0  0  0  0
    1.1403    3.8813    4.8262 H   0  0  0  0  0  0  0  0  0  0  0  0
   -0.2379    4.6981    5.1422 H   0  0  0  0  0  0  0  0  0  0  0  0
    2.1785    0.2410   -0.9046 N   0  0  0  0  0  0  0  0  0  0  0  0
    3.2796    0.0613   -1.8234 C   0  0  2  0  0  0  0  0  0  0  0  0
    4.5148   -0.3049   -1.0112 C   0  0  0  0  0  0  0  0  0  0  0  0
    4.7332    0.1382    0.1144 O   0  0  0  0  0  0  0  0  0  0  0  0
    3.5232    1.3160   -2.6473 C   0  0  0  0  0  0  0  0  0  0  0  0
    2.3935    0.6130    0.0157 H   0  0  0  0  0  0  0  0  0  0  0  0
    3.0115   -0.7747   -2.4786 H   0  0  0  0  0  0  0  0  0  0  0  0
    3.7930    2.1645   -2.0080 H   0  0  0  0  0  0  0  0  0  0  0  0
    4.3390    1.1688   -3.3627 H   0  0  0  0  0  0  0  0  0  0  0  0
    2.6243    1.5949   -3.2078 H   0  0  0  0  0  0  0  0  0  0  0  0
    5.3659   -1.1509   -1.7084 N   0  0  0  0  0  0  0  0  0  0  0  0
    6.6254   -1.6076   -1.1688 C   0  0  0  0  0  0  0  0  0  0  0  0
    5.0862   -1.5007   -2.6201 H   0  0  0  0  0  0  0  0  0  0  0  0
    7.4291   -0.9267   -1.4857 H   0  0  0  0  0  0  0  0  0  0  0  0
    6.5696   -1.6226   -0.0703 H   0  0  0  0  0  0  0  0  0  0  0  0
    6.8367   -2.6216   -1.5392 H   0  0  0  0  0  0  0  0  0  0  0  0
  1  3  1  0  0  0  0
  1  7  1  0  0  0  0
  1  2  2  0  0  0  0
 39 40  1  0  0  0  0
 40 48  1  0  0  0  0
 40 41  2  0  0  0  0
  8  9  1  0  0  0  0
  9 17  1  0  0  0  0
  9 10  2  0  0  0  0
 18 19  1  0  0  0  0
 19 38  1  0  0  0  0
 19 20  2  0  0  0  0
 39 42  1  0  0  0  0
  8 11  1  0  0  0  0
 48 49  1  0  0  0  0
 22 23  1  0  0  0  0
 21 22  1  0  0  0  0
 23 24  1  0  0  0  0
 18 21  1  0  0  0  0
 24 25  1  0  0  0  0
 38 39  1  0  0  0  0
  7  8  1  0  0  0  0
 17 18  1  0  0  0  0
  3  4  1  0  0  0  0
  3  5  1  0  0  0  0
  3  6  1  0  0  0  0
 42 45  1  0  0  0  0
 42 46  1  0  0  0  0
 42 47  1  0  0  0  0
 11 14  1  0  0  0  0
 11 15  1  0  0  0  0
 11 16  1  0  0  0  0
 49 51  1  0  0  0  0
 49 52  1  0  0  0  0
 49 53  1  0  0  0  0
 22 30  1  0  0  0  0
 22 31  1  0  0  0  0
 23 32  1  0  0  0  0
 23 33  1  0  0  0  0
 21 28  1  0  0  0  0
 21 29  1  0  0  0  0
 24 34  1  0  0  0  0
 24 35  1  0  0  0  0
 39 44  1  0  0  0  0
  8 13  1  0  0  0  0
 18 27  1  0  0  0  0
 25 36  1  0  0  0  0
 25 37  1  0  0  0  0
 48 50  1  0  0  0  0
  7 12  1  0  0  0  0
 38 43  1  0  0  0  0
 17 26  1  0  0  0  0
M  END
$$$$

  -OEChem-05262214473D

 53 52  0     1  0  0  0  0  0999 V2000
   -1.0338   -5.6785    0.1476 C   0  0  0  0  0  0  0  0  0  0  0  0
   -2.0514   -5.7797    0.8227 O   0  0  0  0  0  0  0  0  0  0  0  0
   -0.6558   -6.7819   -0.7841 C   0  0  0  0  0  0  0  0  0  0  0  0
   -0.0111   -7.5354   -0.3038 H   0  0  0  0  0  0  0  0  0  0  0  0
   -1.5317   -7.3401   -1.1520 H   0  0  0  0  0  0  0  0  0  0  0  0
   -0.1109   -6.4687   -1.6890 H   0  0  0  0  0  0  0  0  0  0  0  0
   -0.1543   -4.6083    0.1480 N   0  0  0  0  0  0  0  0  0  0  0  0
   -0.3302   -3.4398    0.9696 C   0  0  2  0  0  0  0  0  0  0  0  0
    0.2328   -2.2439    0.2131 C   0  0  0  0  0  0  0  0  0  0  0  0
    1.2097   -2.3192   -0.5294 O   0  0  0  0  0  0  0  0  0  0  0  0
    0.3557   -3.6024    2.3171 C   0  0  0  0  0  0  0  0  0  0  0  0
    0.6584   -4.6506   -0.4643 H   0  0  0  0  0  0  0  0  0  0  0  0
   -1.4091   -3.3101    1.1082 H   0  0  0  0  0  0  0  0  0  0  0  0
    1.4375   -3.7336    2.1985 H   0  0  0  0  0  0  0  0  0  0  0  0
    0.1969   -2.7243    2.9517 H   0  0  0  0  0  0  0  0  0  0  0  0
   -0.0294   -4.4803    2.8470 H   0  0  0  0  0  0  0  0  0  0  0  0
   -0.4616   -1.0893    0.5050 N   0  0  0  0  0  0  0  0  0  0  0  0
   -0.0884    0.2050   -0.0621 C   0  0  2  0  0  0  0  0  0  0  0  0
    0.8618   -0.0574   -1.2271 C   0  0  0  0  0  0  0  0  0  0  0  0
    0.4745   -0.2408   -2.3794 O   0  0  0  0  0  0  0  0  0  0  0  0
    0.6027    1.1132    0.9660 C   0  0  0  0  0  0  0  0  0  0  0  0
   -0.3304    1.5828    2.0868 C   0  0  0  0  0  0  0  0  0  0  0  0
    0.4013    2.5028    3.0679 C   0  0  0  0  0  0  0  0  0  0  0  0
   -0.5229    2.9510    4.1988 C   0  0  0  0  0  0  0  0  0  0  0  0
    0.1989    3.8061    5.1337 N   0  0  0  0  0  0  0  0  0  0  0  0
   -1.2794   -1.1113    1.0935 H   0  0  0  0  0  0  0  0  0  0  0  0
   -0.9940    0.6934   -0.4415 H   0  0  0  0  0  0  0  0  0  0  0  0
    1.0090    1.9940    0.4516 H   0  0  0  0  0  0  0  0  0  0  0  0
    1.4675    0.5944    1.4014 H   0  0  0  0  0  0  0  0  0  0  0  0
   -0.7278    0.7205    2.6339 H   0  0  0  0  0  0  0  0  0  0  0  0
   -1.1849    2.1160    1.6530 H   0  0  0  0  0  0  0  0  0  0  0  0
    1.2696    1.9757    3.4831 H   0  0  0  0  0  0  0  0  0  0  0  0
    0.7828    3.3807    2.5311 H   0  0  0  0  0  0  0  0  0  0  0  0
   -0.9172    2.0802    4.7339 H   0  0  0  0  0  0  0  0  0  0  0  0
   -1.3745    3.5064    3.7918 H   0  0  0  0  0  0  0  0  0  0  0  0
    1.1403    3.8813    4.8262 H   0  0  0  0  0  0  0  0  0  0  0  0
   -0.2379    4.6981    5.1422 H   0  0  0  0  0  0  0  0  0  0  0  0
    2.1893   -0.0843   -0.8225 N   0  0  0  0  0  0  0  0  0  0  0  0
    3.2884   -0.3358   -1.7268 C   0  0  2  0  0  0  0  0  0  0  0  0
    4.3775   -1.0657   -0.9518 C   0  0  0  0  0  0  0  0  0  0  0  0
    4.6089   -0.8574    0.2374 O   0  0  0  0  0  0  0  0  0  0  0  0
    3.8202    0.9576   -2.3243 C   0  0  0  0  0  0  0  0  0  0  0  0
    2.4161    0.0879    0.1524 H   0  0  0  0  0  0  0  0  0  0  0  0
    2.9036   -0.9875   -2.5187 H   0  0  0  0  0  0  0  0  0  0  0  0
    4.2101    1.6235   -1.5459 H   0  0  0  0  0  0  0  0  0  0  0  0
    4.6339    0.7631   -3.0308 H   0  0  0  0  0  0  0  0  0  0  0  0
    3.0282    1.4959   -2.8561 H   0  0  0  0  0  0  0  0  0  0  0  0
    5.0891   -1.9457   -1.7551 N   0  0  0  0  0  0  0  0  0  0  0  0
    6.2010   -2.7252   -1.2632 C   0  0  0  0  0  0  0  0  0  0  0  0
    4.8027   -2.0848   -2.7197 H   0  0  0  0  0  0  0  0  0  0  0  0
    7.1392   -2.1789   -1.4400 H   0  0  0  0  0  0  0  0  0  0  0  0
    6.0767   -2.9007   -0.1844 H   0  0  0  0  0  0  0  0  0  0  0  0
    6.2338   -3.6902   -1.7902 H   0  0  0  0  0  0  0  0  0  0  0  0
  1  3  1  0  0  0  0
  1  7  1  0  0  0  0
  1  2  2  0  0  0  0
 39 40  1  0  0  0  0
 40 48  1  0  0  0  0
 40 41  2  0  0  0  0
  8  9  1  0  0  0  0
  9 17  1  0  0  0  0
  9 10  2  0  0  0  0
 18 19  1  0  0  0  0
 19 38  1  0  0  0  0
 19 20  2  0  0  0  0
 39 42  1  0  0  0  0
  8 11  1  0  0  0  0
 48 49  1  0  0  0  0
 22 23  1  0  0  0  0
 21 22  1  0  0  0  0
 23 24  1  0  0  0  0
 18 21  1  0  0  0  0
 24 25  1  0  0  0  0
 38 39  1  0  0  0  0
  7  8  1  0  0  0  0
 17 18  1  0  0  0  0
  3  4  1  0  0  0  0
  3  5  1  0  0  0  0
  3  6  1  0  0  0  0
 42 45  1  0  0  0  0
 42 46  1  0  0  0  0
 42 47  1  0  0  0  0
 11 14  1  0  0  0  0
 11 15  1  0  0  0  0
 11 16  1  0  0  0  0
 49 51  1  0  0  0  0
 49 52  1  0  0  0  0
 49 53  1  0  0  0  0
 22 30  1  0  0  0  0
 22 31  1  0  0  0  0
 23 32  1  0  0  0  0
 23 33  1  0  0  0  0
 21 28  1  0  0  0  0
 21 29  1  0  0  0  0
 24 34  1  0  0  0  0
 24 35  1  0  0  0  0
 39 44  1  0  0  0  0
  8 13  1  0  0  0  0
 18 27  1  0  0  0  0
 25 36  1  0  0  0  0
 25 37  1  0  0  0  0
 48 50  1  0  0  0  0
  7 12  1  0  0  0  0
 38 43  1  0  0  0  0
 17 26  1  0  0  0  0
M  END
$$$$

  -OEChem-05262214473D

 53 52  0     1  0  0  0  0  0999 V2000
   -1.0338   -5.6785    0.1476 C   0  0  0  0  0  0  0  0  0  0  0  0
   -2.0514   -5.7797    0.8227 O   0  0  0  0  0  0  0  0  0  0  0  0
   -0.6558   -6.7819   -0.7841 C   0  0  0  0  0  0  0  0  0  0  0  0
   -0.0111   -7.5354   -0.3038 H   0  0  0  0  0  0  0  0  0  0  0  0
   -1.5317   -7.3401   -1.1520 H   0  0  0  0  0  0  0  0  0  0  0  0
   -0.1109   -6.4687   -1.6890 H   0  0  0  0  0  0  0  0  0  0  0  0
   -0.1543   -4.6083    0.1480 N   0  0  0  0  0  0  0  0  0  0  0  0
   -0.3302   -3.4398    0.9696 C   0  0  2  0  0  0  0  0  0  0  0  0
    0.2328   -2.2439    0.2131 C   0  0  0  0  0  0  0  0  0  0  0  0
    1.2097   -2.3192   -0.5294 O   0  0  0  0  0  0  0  0  0  0  0  0
    0.3557   -3.6024    2.3171 C   0  0  0  0  0  0  0  0  0  0  0  0
    0.6584   -4.6506   -0.4643 H   0  0  0  0  0  0  0  0  0  0  0  0
   -1.4091   -3.3101    1.1082 H   0  0  0  0  0  0  0  0  0  0  0  0
    1.4375   -3.7336    2.1985 H   0  0  0  0  0  0  0  0  0  0  0  0
    0.1969   -2.7243    2.9517 H   0  0  0  0  0  0  0  0  0  0  0  0
   -0.0294   -4.4803    2.8470 H   0  0  0  0  0  0  0  0  0  0  0  0
   -0.4616   -1.0893    0.5050 N   0  0  0  0  0  0  0  0  0  0  0  0
   -0.0884    0.2050   -0.0621 C   0  0  2  0  0  0  0  0  0  0  0  0
    0.8618   -0.0574   -1.2271 C   0  0  0  0  0  0  0  0  0  0  0  0
    0.5170    0.0237   -2.4043 O   0  0  0  0  0  0  0  0  0  0  0  0
    0.6027    1.1132    0.9660 C   0  0  0  0  0  0  0  0  0  0  0  0
   -0.3304    1.5828    2.0868 C   0  0  0  0  0  0  0  0  0  0  0  0
    0.4013    2.5028    3.0679 C   0  0  0  0  0  0  0  0  0  0  0  0
   -0.5229    2.9510    4.1988 C   0  0  0  0  0  0  0  0  0  0  0  0
    0.1989    3.8061    5.1337 N   0  0  0  0  0  0  0  0  0  0  0  0
   -1.2794   -1.1113    1.0935 H   0  0  0  0  0  0  0  0  0  0  0  0
   -0.9940    0.6934   -0.4415 H   0  0  0  0  0  0  0  0  0  0  0  0
    1.0090    1.9940    0.4516 H   0  0  0  0  0  0  0  0  0  0  0  0
    1.4675    0.5944    1.4014 H   0  0  0  0  0  0  0  0  0  0  0  0
   -0.7278    0.7205    2.6339 H   0  0  0  0  0  0  0  0  0  0  0  0
   -1.1849    2.1160    1.6530 H   0  0  0  0  0  0  0  0  0  0  0  0
    1.2696    1.9757    3.4831 H   0  0  0  0  0  0  0  0  0  0  0  0
    0.7828    3.3807    2.5311 H   0  0  0  0  0  0  0  0  0  0  0  0
   -0.9172    2.0802    4.7339 H   0  0  0  0  0  0  0  0  0  0  0  0
   -1.3745    3.5064    3.7918 H   0  0  0  0  0  0  0  0  0  0  0  0
    1.1403    3.8813    4.8262 H   0  0  0  0  0  0  0  0  0  0  0  0
   -0.2379    4.6981    5.1422 H   0  0  0  0  0  0  0  0  0  0  0  0
    2.1319   -0.4140   -0.7951 N   0  0  0  0  0  0  0  0  0  0  0  0
    3.2141   -0.7366   -1.6971 C   0  0  2  0  0  0  0  0  0  0  0  0
    4.0919   -1.7829   -1.0232 C   0  0  0  0  0  0  0  0  0  0  0  0
    4.2867   -1.8144    0.1902 O   0  0  0  0  0  0  0  0  0  0  0  0
    4.0220    0.5006   -2.0568 C   0  0  0  0  0  0  0  0  0  0  0  0
    2.3281   -0.4458    0.2009 H   0  0  0  0  0  0  0  0  0  0  0  0
    2.7590   -1.1652   -2.5966 H   0  0  0  0  0  0  0  0  0  0  0  0
    4.4856    0.9441   -1.1681 H   0  0  0  0  0  0  0  0  0  0  0  0
    4.8238    0.2595   -2.7624 H   0  0  0  0  0  0  0  0  0  0  0  0
    3.3832    1.2638   -2.5143 H   0  0  0  0  0  0  0  0  0  0  0  0
    4.6667   -2.6512   -1.9406 N   0  0  0  0  0  0  0  0  0  0  0  0
    5.5744   -3.7057   -1.5533 C   0  0  0  0  0  0  0  0  0  0  0  0
    4.4180   -2.5769   -2.9227 H   0  0  0  0  0  0  0  0  0  0  0  0
    6.6097   -3.3386   -1.6106 H   0  0  0  0  0  0  0  0  0  0  0  0
    5.3532   -4.0194   -0.5224 H   0  0  0  0  0  0  0  0  0  0  0  0
    5.4514   -4.5628   -2.2317 H   0  0  0  0  0  0  0  0  0  0  0  0
  1  3  1  0  0  0  0
  1  7  1  0  0  0  0
  1  2  2  0  0  0  0
 39 40  1  0  0  0  0
 40 48  1  0  0  0  0
 40 41  2  0  0  0  0
  8  9  1  0  0  0  0
  9 17  1  0  0  0  0
  9 10  2  0  0  0  0
 18 19  1  0  0  0  0
 19 38  1  0  0  0  0
 19 20  2  0  0  0  0
 39 42  1  0  0  0  0
  8 11  1  0  0  0  0
 48 49  1  0  0  0  0
 22 23  1  0  0  0  0
 21 22  1  0  0  0  0
 23 24  1  0  0  0  0
 18 21  1  0  0  0  0
 24 25  1  0  0  0  0
 38 39  1  0  0  0  0
  7  8  1  0  0  0  0
 17 18  1  0  0  0  0
  3  4  1  0  0  0  0
  3  5  1  0  0  0  0
  3  6  1  0  0  0  0
 42 45  1  0  0  0  0
 42 46  1  0  0  0  0
 42 47  1  0  0  0  0
 11 14  1  0  0  0  0
 11 15  1  0  0  0  0
 11 16  1  0  0  0  0
 49 51  1  0  0  0  0
 49 52  1  0  0  0  0
 49 53  1  0  0  0  0
 22 30  1  0  0  0  0
 22 31  1  0  0  0  0
 23 32  1  0  0  0  0
 23 33  1  0  0  0  0
 21 28  1  0  0  0  0
 21 29  1  0  0  0  0
 24 34  1  0  0  0  0
 24 35  1  0  0  0  0
 39 44  1  0  0  0  0
  8 13  1  0  0  0  0
 18 27  1  0  0  0  0
 25 36  1  0  0  0  0
 25 37  1  0  0  0  0
 48 50  1  0  0  0  0
  7 12  1  0  0  0  0
 38 43  1  0  0  0  0
 17 26  1  0  0  0  0
M  END
$$$$

  -OEChem-05262214473D

 53 52  0     1  0  0  0  0  0999 V2000
   -1.0338   -5.6785    0.1476 C   0  0  0  0  0  0  0  0  0  0  0  0
   -2.0514   -5.7797    0.8227 O   0  0  0  0  0  0  0  0  0  0  0  0
   -0.6558   -6.7819   -0.7841 C   0  0  0  0  0  0  0  0  0  0  0  0
   -0.0111   -7.5354   -0.3038 H   0  0  0  0  0  0  0  0  0  0  0  0
   -1.5317   -7.3401   -1.1520 H   0  0  0  0  0  0  0  0  0  0  0  0
   -0.1109   -6.4687   -1.6890 H   0  0  0  0  0  0  0  0  0  0  0  0
   -0.1543   -4.6083    0.1480 N   0  0  0  0  0  0  0  0  0  0  0  0
   -0.3302   -3.4398    0.9696 C   0  0  2  0  0  0  0  0  0  0  0  0
    0.2328   -2.2439    0.2131 C   0  0  0  0  0  0  0  0  0  0  0  0
    1.2097   -2.3192   -0.5294 O   0  0  0  0  0  0  0  0  0  0  0  0
    0.3557   -3.6024    2.3171 C   0  0  0  0  0  0  0  0  0  0  0  0
    0.6584   -4.6506   -0.4643 H   0  0  0  0  0  0  0  0  0  0  0  0
   -1.4091   -3.3101    1.1082 H   0  0  0  0  0  0  0  0  0  0  0  0
    1.4375   -3.7336    2.1985 H   0  0  0  0  0  0  0  0  0  0  0  0
    0.1969   -2.7243    2.9517 H   0  0  0  0  0  0  0  0  0  0  0  0
   -0.0294   -4.4803    2.8470 H   0  0  0  0  0  0  0  0  0  0  0  0
   -0.4616   -1.0893    0.5050 N   0  0  0  0  0  0  0  0  0  0  0  0
   -0.0884    0.2050   -0.0621 C   0  0  2  0  0  0  0  0  0  0  0  0
    0.8618   -0.0574   -1.2271 C   0  0  0  0  0  0  0  0  0  0  0  0
    0.6114    0.2749   -2.3839 O   0  0  0  0  0  0  0  0  0  0  0  0
    0.6027    1.1132    0.9660 C   0  0  0  0  0  0  0  0  0  0  0  0
   -0.3304    1.5828    2.0868 C   0  0  0  0  0  0  0  0  0  0  0  0
    0.4013    2.5028    3.0679 C   0  0  0  0  0  0  0  0  0  0  0  0
   -0.5229    2.9510    4.1988 C   0  0  0  0  0  0  0  0  0  0  0  0
    0.1989    3.8061    5.1337 N   0  0  0  0  0  0  0  0  0  0  0  0
   -1.2794   -1.1113    1.0935 H   0  0  0  0  0  0  0  0  0  0  0  0
   -0.9940    0.6934   -0.4415 H   0  0  0  0  0  0  0  0  0  0  0  0
    1.0090    1.9940    0.4516 H   0  0  0  0  0  0  0  0  0  0  0  0
    1.4675    0.5944    1.4014 H   0  0  0  0  0  0  0  0  0  0  0  0
   -0.7278    0.7205    2.6339 H   0  0  0  0  0  0  0  0  0  0  0  0
   -1.1849    2.1160    1.6530 H   0  0  0  0  0  0  0  0  0  0  0  0
    1.2696    1.9757    3.4831 H   0  0  0  0  0  0  0  0  0  0  0  0
    0.7828    3.3807    2.5311 H   0  0  0  0  0  0  0  0  0  0  0  0
   -0.9172    2.0802    4.7339 H   0  0  0  0  0  0  0  0  0  0  0  0
   -1.3745    3.5064    3.7918 H   0  0  0  0  0  0  0  0  0  0  0  0
    1.1403    3.8813    4.8262 H   0  0  0  0  0  0  0  0  0  0  0  0
   -0.2379    4.6981    5.1422 H   0  0  0  0  0  0  0  0  0  0  0  0
    2.0100   -0.7254   -0.8243 N   0  0  0  0  0  0  0  0  0  0  0  0
    3.0618   -1.1138   -1.7362 C   0  0  2  0  0  0  0  0  0  0  0  0
    3.6775   -2.4078   -1.2204 C   0  0  0  0  0  0  0  0  0  0  0  0
    3.7884   -2.6675   -0.0240 O   0  0  0  0  0  0  0  0  0  0  0  0
    4.1146   -0.0237   -1.8631 C   0  0  0  0  0  0  0  0  0  0  0  0
    2.1355   -0.9517    0.1578 H   0  0  0  0  0  0  0  0  0  0  0  0
    2.5877   -1.2958   -2.7069 H   0  0  0  0  0  0  0  0  0  0  0  0
    4.6006    0.1726   -0.9004 H   0  0  0  0  0  0  0  0  0  0  0  0
    4.8959   -0.3077   -2.5759 H   0  0  0  0  0  0  0  0  0  0  0  0
    3.6649    0.9144   -2.2058 H   0  0  0  0  0  0  0  0  0  0  0  0
    4.1277   -3.2193   -2.2523 N   0  0  0  0  0  0  0  0  0  0  0  0
    4.7884   -4.4823   -2.0194 C   0  0  0  0  0  0  0  0  0  0  0  0
    3.9581   -2.9435   -3.2151 H   0  0  0  0  0  0  0  0  0  0  0  0
    5.8768   -4.3266   -1.9858 H   0  0  0  0  0  0  0  0  0  0  0  0
    4.4484   -4.9026   -1.0614 H   0  0  0  0  0  0  0  0  0  0  0  0
    4.5429   -5.1800   -2.8337 H   0  0  0  0  0  0  0  0  0  0  0  0
  1  3  1  0  0  0  0
  1  7  1  0  0  0  0
  1  2  2  0  0  0  0
 39 40  1  0  0  0  0
 40 48  1  0  0  0  0
 40 41  2  0  0  0  0
  8  9  1  0  0  0  0
  9 17  1  0  0  0  0
  9 10  2  0  0  0  0
 18 19  1  0  0  0  0
 19 38  1  0  0  0  0
 19 20  2  0  0  0  0
 39 42  1  0  0  0  0
  8 11  1  0  0  0  0
 48 49  1  0  0  0  0
 22 23  1  0  0  0  0
 21 22  1  0  0  0  0
 23 24  1  0  0  0  0
 18 21  1  0  0  0  0
 24 25  1  0  0  0  0
 38 39  1  0  0  0  0
  7  8  1  0  0  0  0
 17 18  1  0  0  0  0
  3  4  1  0  0  0  0
  3  5  1  0  0  0  0
  3  6  1  0  0  0  0
 42 45  1  0  0  0  0
 42 46  1  0  0  0  0
 42 47  1  0  0  0  0
 11 14  1  0  0  0  0
 11 15  1  0  0  0  0
 11 16  1  0  0  0  0
 49 51  1  0  0  0  0
 49 52  1  0  0  0  0
 49 53  1  0  0  0  0
 22 30  1  0  0  0  0
 22 31  1  0  0  0  0
 23 32  1  0  0  0  0
 23 33  1  0  0  0  0
 21 28  1  0  0  0  0
 21 29  1  0  0  0  0
 24 34  1  0  0  0  0
 24 35  1  0  0  0  0
 39 44  1  0  0  0  0
  8 13  1  0  0  0  0
 18 27  1  0  0  0  0
 25 36  1  0  0  0  0
 25 37  1  0  0  0  0
 48 50  1  0  0  0  0
  7 12  1  0  0  0  0
 38 43  1  0  0  0  0
 17 26  1  0  0  0  0
M  END
$$$$

  -OEChem-05262214473D

 53 52  0     1  0  0  0  0  0999 V2000
   -1.0338   -5.6785    0.1476 C   0  0  0  0  0  0  0  0  0  0  0  0
   -2.0514   -5.7797    0.8227 O   0  0  0  0  0  0  0  0  0  0  0  0
   -0.6558   -6.7819   -0.7841 C   0  0  0  0  0  0  0  0  0  0  0  0
   -0.0111   -7.5354   -0.3038 H   0  0  0  0  0  0  0  0  0  0  0  0
   -1.5317   -7.3401   -1.1520 H   0  0  0  0  0  0  0  0  0  0  0  0
   -0.1109   -6.4687   -1.6890 H   0  0  0  0  0  0  0  0  0  0  0  0
   -0.1543   -4.6083    0.1480 N   0  0  0  0  0  0  0  0  0  0  0  0
   -0.3302   -3.4398    0.9696 C   0  0  2  0  0  0  0  0  0  0  0  0
    0.2328   -2.2439    0.2131 C   0  0  0  0  0  0  0  0  0  0  0  0
    1.2097   -2.3192   -0.5294 O   0  0  0  0  0  0  0  0  0  0  0  0
    0.3557   -3.6024    2.3171 C   0  0  0  0  0  0  0  0  0  0  0  0
    0.6584   -4.6506   -0.4643 H   0  0  0  0  0  0  0  0  0  0  0  0
   -1.4091   -3.3101    1.1082 H   0  0  0  0  0  0  0  0  0  0  0  0
    1.4375   -3.7336    2.1985 H   0  0  0  0  0  0  0  0  0  0  0  0
    0.1969   -2.7243    2.9517 H   0  0  0  0  0  0  0  0  0  0  0  0
   -0.0294   -4.4803    2.8470 H   0  0  0  0  0  0  0  0  0  0  0  0
   -0.4616   -1.0893    0.5050 N   0  0  0  0  0  0  0  0  0  0  0  0
   -0.0884    0.2050   -0.0621 C   0  0  2  0  0  0  0  0  0  0  0  0
    0.8618   -0.0574   -1.2271 C   0  0  0  0  0  0  0  0  0  0  0  0
    0.7513    0.4955   -2.3195 O   0  0  0  0  0  0  0  0  0  0  0  0
    0.6027    1.1132    0.9660 C   0  0  0  0  0  0  0  0  0  0  0  0
   -0.3304    1.5828    2.0868 C   0  0  0  0  0  0  0  0  0  0  0  0
    0.4013    2.5028    3.0679 C   0  0  0  0  0  0  0  0  0  0  0  0
   -0.5229    2.9510    4.1988 C   0  0  0  0  0  0  0  0  0  0  0  0
    0.1989    3.8061    5.1337 N   0  0  0  0  0  0  0  0  0  0  0  0
   -1.2794   -1.1113    1.0935 H   0  0  0  0  0  0  0  0  0  0  0  0
   -0.9940    0.6934   -0.4415 H   0  0  0  0  0  0  0  0  0  0  0  0
    1.0090    1.9940    0.4516 H   0  0  0  0  0  0  0  0  0  0  0  0
    1.4675    0.5944    1.4014 H   0  0  0  0  0  0  0  0  0  0  0  0
   -0.7278    0.7205    2.6339 H   0  0  0  0  0  0  0  0  0  0  0  0
   -1.1849    2.1160    1.6530 H   0  0  0  0  0  0  0  0  0  0  0  0
    1.2696    1.9757    3.4831 H   0  0  0  0  0  0  0  0  0  0  0  0
    0.7828    3.3807    2.5311 H   0  0  0  0  0  0  0  0  0  0  0  0
   -0.9172    2.0802    4.7339 H   0  0  0  0  0  0  0  0  0  0  0  0
   -1.3745    3.5064    3.7918 H   0  0  0  0  0  0  0  0  0  0  0  0
    1.1403    3.8813    4.8262 H   0  0  0  0  0  0  0  0  0  0  0  0
   -0.2379    4.6981    5.1422 H   0  0  0  0  0  0  0  0  0  0  0  0
    1.8320   -0.9975   -0.9082 N   0  0  0  0  0  0  0  0  0  0  0  0
    2.8420   -1.4418   -1.8416 C   0  0  2  0  0  0  0  0  0  0  0  0
    3.1625   -2.8977   -1.5300 C   0  0  0  0  0  0  0  0  0  0  0  0
    3.1481   -3.3586   -0.3905 O   0  0  0  0  0  0  0  0  0  0  0  0
    4.0919   -0.5798   -1.7563 C   0  0  0  0  0  0  0  0  0  0  0  0
    1.8514   -1.3955    0.0260 H   0  0  0  0  0  0  0  0  0  0  0  0
    2.4014   -1.3703   -2.8420 H   0  0  0  0  0  0  0  0  0  0  0  0
    4.5474   -0.6386   -0.7611 H   0  0  0  0  0  0  0  0  0  0  0  0
    4.8451   -0.8998   -2.4839 H   0  0  0  0  0  0  0  0  0  0  0  0
    3.8543    0.4716   -1.9515 H   0  0  0  0  0  0  0  0  0  0  0  0
    3.5086   -3.6113   -2.6689 N   0  0  0  0  0  0  0  0  0  0  0  0
    3.8964   -5.0020   -2.6298 C   0  0  0  0  0  0  0  0  0  0  0  0
    3.4545   -3.1597   -3.5772 H   0  0  0  0  0  0  0  0  0  0  0  0
    4.9903   -5.0757   -2.5400 H   0  0  0  0  0  0  0  0  0  0  0  0
    3.4239   -5.4901   -1.7647 H   0  0  0  0  0  0  0  0  0  0  0  0
    3.5702   -5.4996   -3.5550 H   0  0  0  0  0  0  0  0  0  0  0  0
  1  3  1  0  0  0  0
  1  7  1  0  0  0  0
  1  2  2  0  0  0  0
 39 40  1  0  0  0  0
 40 48  1  0  0  0  0
 40 41  2  0  0  0  0
  8  9  1  0  0  0  0
  9 17  1  0  0  0  0
  9 10  2  0  0  0  0
 18 19  1  0  0  0  0
 19 38  1  0  0  0  0
 19 20  2  0  0  0  0
 39 42  1  0  0  0  0
  8 11  1  0  0  0  0
 48 49  1  0  0  0  0
 22 23  1  0  0  0  0
 21 22  1  0  0  0  0
 23 24  1  0  0  0  0
 18 21  1  0  0  0  0
 24 25  1  0  0  0  0
 38 39  1  0  0  0  0
  7  8  1  0  0  0  0
 17 18  1  0  0  0  0
  3  4  1  0  0  0  0
  3  5  1  0  0  0  0
  3  6  1  0  0  0  0
 42 45  1  0  0  0  0
 42 46  1  0  0  0  0
 42 47  1  0  0  0  0
 11 14  1  0  0  0  0
 11 15  1  0  0  0  0
 11 16  1  0  0  0  0
 49 51  1  0  0  0  0
 49 52  1  0  0  0  0
 49 53  1  0  0  0  0
 22 30  1  0  0  0  0
 22 31  1  0  0  0  0
 23 32  1  0  0  0  0
 23 33  1  0  0  0  0
 21 28  1  0  0  0  0
 21 29  1  0  0  0  0
 24 34  1  0  0  0  0
 24 35  1  0  0  0  0
 39 44  1  0  0  0  0
  8 13  1  0  0  0  0
 18 27  1  0  0  0  0
 25 36  1  0  0  0  0
 25 37  1  0  0  0  0
 48 50  1  0  0  0  0
  7 12  1  0  0  0  0
 38 43  1  0  0  0  0
 17 26  1  0  0  0  0
M  END
$$$$

  -OEChem-05262214473D

 53 52  0     1  0  0  0  0  0999 V2000
   -1.0338   -5.6785    0.1476 C   0  0  0  0  0  0  0  0  0  0  0  0
   -2.0514   -5.7797    0.8227 O   0  0  0  0  0  0  0  0  0  0  0  0
   -0.6558   -6.7819   -0.7841 C   0  0  0  0  0  0  0  0  0  0  0  0
   -0.0111   -7.5354   -0.3038 H   0  0  0  0  0  0  0  0  0  0  0  0
   -1.5317   -7.3401   -1.1520 H   0  0  0  0  0  0  0  0  0  0  0  0
   -0.1109   -6.4687   -1.6890 H   0  0  0  0  0  0  0  0  0  0  0  0
   -0.1543   -4.6083    0.1480 N   0  0  0  0  0  0  0  0  0  0  0  0
   -0.3302   -3.4398    0.9696 C   0  0  2  0  0  0  0  0  0  0  0  0
    0.2328   -2.2439    0.2131 C   0  0  0  0  0  0  0  0  0  0  0  0
    1.2097   -2.3192   -0.5294 O   0  0  0  0  0  0  0  0  0  0  0  0
    0.3557   -3.6024    2.3171 C   0  0  0  0  0  0  0  0  0  0  0  0
    0.6584   -4.6506   -0.4643 H   0  0  0  0  0  0  0  0  0  0  0  0
   -1.4091   -3.3101    1.1082 H   0  0  0  0  0  0  0  0  0  0  0  0
    1.4375   -3.7336    2.1985 H   0  0  0  0  0  0  0  0  0  0  0  0
    0.1969   -2.7243    2.9517 H   0  0  0  0  0  0  0  0  0  0  0  0
   -0.0294   -4.4803    2.8470 H   0  0  0  0  0  0  0  0  0  0  0  0
   -0.4616   -1.0893    0.5050 N   0  0  0  0  0  0  0  0  0  0  0  0
   -0.0884    0.2050   -0.0621 C   0  0  2  0  0  0  0  0  0  0  0  0
    0.8618   -0.0574   -1.2271 C   0  0  0  0  0  0  0  0  0  0  0  0
    0.9271    0.6707   -2.2155 O   0  0  0  0  0  0  0  0  0  0  0  0
    0.6027    1.1132    0.9660 C   0  0  0  0  0  0  0  0  0  0  0  0
   -0.3304    1.5828    2.0868 C   0  0  0  0  0  0  0  0  0  0  0  0
    0.4013    2.5028    3.0679 C   0  0  0  0  0  0  0  0  0  0  0  0
   -0.5229    2.9510    4.1988 C   0  0  0  0  0  0  0  0  0  0  0  0
    0.1989    3.8061    5.1337 N   0  0  0  0  0  0  0  0  0  0  0  0
   -1.2794   -1.1113    1.0935 H   0  0  0  0  0  0  0  0  0  0  0  0
   -0.9940    0.6934   -0.4415 H   0  0  0  0  0  0  0  0  0  0  0  0
    1.0090    1.9940    0.4516 H   0  0  0  0  0  0  0  0  0  0  0  0
    1.4675    0.5944    1.4014 H   0  0  0  0  0  0  0  0  0  0  0  0
   -0.7278    0.7205    2.6339 H   0  0  0  0  0  0  0  0  0  0  0  0
   -1.1849    2.1160    1.6530 H   0  0  0  0  0  0  0  0  0  0  0  0
    1.2696    1.9757    3.4831 H   0  0  0  0  0  0  0  0  0  0  0  0
    0.7828    3.3807    2.5311 H   0  0  0  0  0  0  0  0  0  0  0  0
   -0.9172    2.0802    4.7339 H   0  0  0  0  0  0  0  0  0  0  0  0
   -1.3745    3.5064    3.7918 H   0  0  0  0  0  0  0  0  0  0  0  0
    1.1403    3.8813    4.8262 H   0  0  0  0  0  0  0  0  0  0  0  0
   -0.2379    4.6981    5.1422 H   0  0  0  0  0  0  0  0  0  0  0  0
    1.6101   -1.2116   -1.0409 N   0  0  0  0  0  0  0  0  0  0  0  0
    2.5695   -1.6982   -2.0061 C   0  0  2  0  0  0  0  0  0  0  0  0
    2.5821   -3.2193   -1.9309 C   0  0  0  0  0  0  0  0  0  0  0  0
    2.4094   -3.8406   -0.8844 O   0  0  0  0  0  0  0  0  0  0  0  0
    3.9554   -1.1295   -1.7439 C   0  0  0  0  0  0  0  0  0  0  0  0
    1.4952   -1.7467   -0.1854 H   0  0  0  0  0  0  0  0  0  0  0  0
    2.2127   -1.3837   -2.9929 H   0  0  0  0  0  0  0  0  0  0  0  0
    4.3295   -1.4340   -0.7596 H   0  0  0  0  0  0  0  0  0  0  0  0
    4.6749   -1.4766   -2.4928 H   0  0  0  0  0  0  0  0  0  0  0  0
    3.9385   -0.0346   -1.7688 H   0  0  0  0  0  0  0  0  0  0  0  0
    2.8517   -3.8005   -3.1621 N   0  0  0  0  0  0  0  0  0  0  0  0
    2.9594   -5.2293   -3.3429 C   0  0  0  0  0  0  0  0  0  0  0  0
    2.9415   -3.2106   -3.9841 H   0  0  0  0  0  0  0  0  0  0  0  0
    4.0106   -5.5349   -3.2356 H   0  0  0  0  0  0  0  0  0  0  0  0
    2.3495   -5.7418   -2.5842 H   0  0  0  0  0  0  0  0  0  0  0  0
    2.5996   -5.5000   -4.3465 H   0  0  0  0  0  0  0  0  0  0  0  0
  1  3  1  0  0  0  0
  1  7  1  0  0  0  0
  1  2  2  0  0  0  0
 39 40  1  0  0  0  0
 40 48  1  0  0  0  0
 40 41  2  0  0  0  0
  8  9  1  0  0  0  0
  9 17  1  0  0  0  0
  9 10  2  0  0  0  0
 18 19  1  0  0  0  0
 19 38  1  0  0  0  0
 19 20  2  0  0  0  0
 39 42  1  0  0  0  0
  8 11  1  0  0  0  0
 48 49  1  0  0  0  0
 22 23  1  0  0  0  0
 21 22  1  0  0  0  0
 23 24  1  0  0  0  0
 18 21  1  0  0  0  0
 24 25  1  0  0  0  0
 38 39  1  0  0  0  0
  7  8  1  0  0  0  0
 17 18  1  0  0  0  0
  3  4  1  0  0  0  0
  3  5  1  0  0  0  0
  3  6  1  0  0  0  0
 42 45  1  0  0  0  0
 42 46  1  0  0  0  0
 42 47  1  0  0  0  0
 11 14  1  0  0  0  0
 11 15  1  0  0  0  0
 11 16  1  0  0  0  0
 49 51  1  0  0  0  0
 49 52  1  0  0  0  0
 49 53  1  0  0  0  0
 22 30  1  0  0  0  0
 22 31  1  0  0  0  0
 23 32  1  0  0  0  0
 23 33  1  0  0  0  0
 21 28  1  0  0  0  0
 21 29  1  0  0  0  0
 24 34  1  0  0  0  0
 24 35  1  0  0  0  0
 39 44  1  0  0  0  0
  8 13  1  0  0  0  0
 18 27  1  0  0  0  0
 25 36  1  0  0  0  0
 25 37  1  0  0  0  0
 48 50  1  0  0  0  0
  7 12  1  0  0  0  0
 38 43  1  0  0  0  0
 17 26  1  0  0  0  0
M  END
$$$$

  -OEChem-05262214473D

 53 52  0     1  0  0  0  0  0999 V2000
   -1.0338   -5.6785    0.1476 C   0  0  0  0  0  0  0  0  0  0  0  0
   -2.0514   -5.7797    0.8227 O   0  0  0  0  0  0  0  0  0  0  0  0
   -0.6558   -6.7819   -0.7841 C   0  0  0  0  0  0  0  0  0  0  0  0
   -0.0111   -7.5354   -0.3038 H   0  0  0  0  0  0  0  0  0  0  0  0
   -1.5317   -7.3401   -1.1520 H   0  0  0  0  0  0  0  0  0  0  0  0
   -0.1109   -6.4687   -1.6890 H   0  0  0  0  0  0  0  0  0  0  0  0
   -0.1543   -4.6083    0.1480 N   0  0  0  0  0  0  0  0  0  0  0  0
   -0.3302   -3.4398    0.9696 C   0  0  2  0  0  0  0  0  0  0  0  0
    0.2328   -2.2439    0.2131 C   0  0  0  0  0  0  0  0  0  0  0  0
    1.2097   -2.3192   -0.5294 O   0  0  0  0  0  0  0  0  0  0  0  0
    0.3557   -3.6024    2.3171 C   0  0  0  0  0  0  0  0  0  0  0  0
    0.6584   -4.6506   -0.4643 H   0  0  0  0  0  0  0  0  0  0  0  0
   -1.4091   -3.3101    1.1082 H   0  0  0  0  0  0  0  0  0  0  0  0
    1.4375   -3.7336    2.1985 H   0  0  0  0  0  0  0  0  0  0  0  0
    0.1969   -2.7243    2.9517 H   0  0  0  0  0  0  0  0  0  0  0  0
   -0.0294   -4.4803    2.8470 H   0  0  0  0  0  0  0  0  0  0  0  0
   -0.4616   -1.0893    0.5050 N   0  0  0  0  0  0  0  0  0  0  0  0
   -0.0884    0.2050   -0.0621 C   0  0  2  0  0  0  0  0  0  0  0  0
    0.8618   -0.0574   -1.2271 C   0  0  0  0  0  0  0  0  0  0  0  0
    1.1270    0.7883   -2.0791 O   0  0  0  0  0  0  0  0  0  0  0  0
    0.6027    1.1132    0.9660 C   0  0  0  0  0  0  0  0  0  0  0  0
   -0.3304    1.5828    2.0868 C   0  0  0  0  0  0  0  0  0  0  0  0
    0.4013    2.5028    3.0679 C   0  0  0  0  0  0  0  0  0  0  0  0
   -0.5229    2.9510    4.1988 C   0  0  0  0  0  0  0  0  0  0  0  0
    0.1989    3.8061    5.1337 N   0  0  0  0  0  0  0  0  0  0  0  0
   -1.2794   -1.1113    1.0935 H   0  0  0  0  0  0  0  0  0  0  0  0
   -0.9940    0.6934   -0.4415 H   0  0  0  0  0  0  0  0  0  0  0  0
    1.0090    1.9940    0.4516 H   0  0  0  0  0  0  0  0  0  0  0  0
    1.4675    0.5944    1.4014 H   0  0  0  0  0  0  0  0  0  0  0  0
   -0.7278    0.7205    2.6339 H   0  0  0  0  0  0  0  0  0  0  0  0
   -1.1849    2.1160    1.6530 H   0  0  0  0  0  0  0  0  0  0  0  0
    1.2696    1.9757    3.4831 H   0  0  0  0  0  0  0  0  0  0  0  0
    0.7828    3.3807    2.5311 H   0  0  0  0  0  0  0  0  0  0  0  0
   -0.9172    2.0802    4.7339 H   0  0  0  0  0  0  0  0  0  0  0  0
   -1.3745    3.5064    3.7918 H   0  0  0  0  0  0  0  0  0  0  0  0
    1.1403    3.8813    4.8262 H   0  0  0  0  0  0  0  0  0  0  0  0
   -0.2379    4.6981    5.1422 H   0  0  0  0  0  0  0  0  0  0  0  0
    1.3594   -1.3532   -1.2136 N   0  0  0  0  0  0  0  0  0  0  0  0
    2.2630   -1.8655   -2.2184 C   0  0  2  0  0  0  0  0  0  0  0  0
    1.9758   -3.3506   -2.3959 C   0  0  0  0  0  0  0  0  0  0  0  0
    1.6227   -4.0806   -1.4720 O   0  0  0  0  0  0  0  0  0  0  0  0
    3.7143   -1.6356   -1.8265 C   0  0  0  0  0  0  0  0  0  0  0  0
    1.0912   -1.9815   -0.4620 H   0  0  0  0  0  0  0  0  0  0  0  0
    2.0345   -1.3350   -3.1492 H   0  0  0  0  0  0  0  0  0  0  0  0
    3.9618   -2.1595   -0.8960 H   0  0  0  0  0  0  0  0  0  0  0  0
    4.3970   -1.9986   -2.6018 H   0  0  0  0  0  0  0  0  0  0  0  0
    3.9116   -0.5696   -1.6702 H   0  0  0  0  0  0  0  0  0  0  0  0
    2.2018   -3.7740   -3.6981 N   0  0  0  0  0  0  0  0  0  0  0  0
    2.0411   -5.1489   -4.1100 C   0  0  0  0  0  0  0  0  0  0  0  0
    2.4540   -3.0929   -4.4083 H   0  0  0  0  0  0  0  0  0  0  0  0
    3.0047   -5.6727   -4.0250 H   0  0  0  0  0  0  0  0  0  0  0  0
    1.2985   -5.6405   -3.4643 H   0  0  0  0  0  0  0  0  0  0  0  0
    1.6973   -5.1809   -5.1544 H   0  0  0  0  0  0  0  0  0  0  0  0
  1  3  1  0  0  0  0
  1  7  1  0  0  0  0
  1  2  2  0  0  0  0
 39 40  1  0  0  0  0
 40 48  1  0  0  0  0
 40 41  2  0  0  0  0
  8  9  1  0  0  0  0
  9 17  1  0  0  0  0
  9 10  2  0  0  0  0
 18 19  1  0  0  0  0
 19 38  1  0  0  0  0
 19 20  2  0  0  0  0
 39 42  1  0  0  0  0
  8 11  1  0  0  0  0
 48 49  1  0  0  0  0
 22 23  1  0  0  0  0
 21 22  1  0  0  0  0
 23 24  1  0  0  0  0
 18 21  1  0  0  0  0
 24 25  1  0  0  0  0
 38 39  1  0  0  0  0
  7  8  1  0  0  0  0
 17 18  1  0  0  0  0
  3  4  1  0  0  0  0
  3  5  1  0  0  0  0
  3  6  1  0  0  0  0
 42 45  1  0  0  0  0
 42 46  1  0  0  0  0
 42 47  1  0  0  0  0
 11 14  1  0  0  0  0
 11 15  1  0  0  0  0
 11 16  1  0  0  0  0
 49 51  1  0  0  0  0
 49 52  1  0  0  0  0
 49 53  1  0  0  0  0
 22 30  1  0  0  0  0
 22 31  1  0  0  0  0
 23 32  1  0  0  0  0
 23 33  1  0  0  0  0
 21 28  1  0  0  0  0
 21 29  1  0  0  0  0
 24 34  1  0  0  0  0
 24 35  1  0  0  0  0
 39 44  1  0  0  0  0
  8 13  1  0  0  0  0
 18 27  1  0  0  0  0
 25 36  1  0  0  0  0
 25 37  1  0  0  0  0
 48 50  1  0  0  0  0
  7 12  1  0  0  0  0
 38 43  1  0  0  0  0
 17 26  1  0  0  0  0
M  END
$$$$

  -OEChem-05262214473D

 53 52  0     1  0  0  0  0  0999 V2000
   -1.0338   -5.6785    0.1476 C   0  0  0  0  0  0  0  0  0  0  0  0
   -2.0514   -5.7797    0.8227 O   0  0  0  0  0  0  0  0  0  0  0  0
   -0.6558   -6.7819   -0.7841 C   0  0  0  0  0  0  0  0  0  0  0  0
   -0.0111   -7.5354   -0.3038 H   0  0  0  0  0  0  0  0  0  0  0  0
   -1.5317   -7.3401   -1.1520 H   0  0  0  0  0  0  0  0  0  0  0  0
   -0.1109   -6.4687   -1.6890 H   0  0  0  0  0  0  0  0  0  0  0  0
   -0.1543   -4.6083    0.1480 N   0  0  0  0  0  0  0  0  0  0  0  0
   -0.3302   -3.4398    0.9696 C   0  0  2  0  0  0  0  0  0  0  0  0
    0.2328   -2.2439    0.2131 C   0  0  0  0  0  0  0  0  0  0  0  0
    1.2097   -2.3192   -0.5294 O   0  0  0  0  0  0  0  0  0  0  0  0
    0.3557   -3.6024    2.3171 C   0  0  0  0  0  0  0  0  0  0  0  0
    0.6584   -4.6506   -0.4643 H   0  0  0  0  0  0  0  0  0  0  0  0
   -1.4091   -3.3101    1.1082 H   0  0  0  0  0  0  0  0  0  0  0  0
    1.4375   -3.7336    2.1985 H   0  0  0  0  0  0  0  0  0  0  0  0
    0.1969   -2.7243    2.9517 H   0  0  0  0  0  0  0  0  0  0  0  0
   -0.0294   -4.4803    2.8470 H   0  0  0  0  0  0  0  0  0  0  0  0
   -0.4616   -1.0893    0.5050 N   0  0  0  0  0  0  0  0  0  0  0  0
   -0.0884    0.2050   -0.0621 C   0  0  2  0  0  0  0  0  0  0  0  0
    0.8618   -0.0574   -1.2271 C   0  0  0  0  0  0  0  0  0  0  0  0
    1.3372    0.8405   -1.9194 O   0  0  0  0  0  0  0  0  0  0  0  0
    0.6027    1.1132    0.9660 C   0  0  0  0  0  0  0  0  0  0  0  0
   -0.3304    1.5828    2.0868 C   0  0  0  0  0  0  0  0  0  0  0  0
    0.4013    2.5028    3.0679 C   0  0  0  0  0  0  0  0  0  0  0  0
   -0.5229    2.9510    4.1988 C   0  0  0  0  0  0  0  0  0  0  0  0
    0.1989    3.8061    5.1337 N   0  0  0  0  0  0  0  0  0  0  0  0
   -1.2794   -1.1113    1.0935 H   0  0  0  0  0  0  0  0  0  0  0  0
   -0.9940    0.6934   -0.4415 H   0  0  0  0  0  0  0  0  0  0  0  0
    1.0090    1.9940    0.4516 H   0  0  0  0  0  0  0  0  0  0  0  0
    1.4675    0.5944    1.4014 H   0  0  0  0  0  0  0  0  0  0  0  0
   -0.7278    0.7205    2.6339 H   0  0  0  0  0  0  0  0  0  0  0  0
   -1.1849    2.1160    1.6530 H   0  0  0  0  0  0  0  0  0  0  0  0
    1.2696    1.9757    3.4831 H   0  0  0  0  0  0  0  0  0  0  0  0
    0.7828    3.3807    2.5311 H   0  0  0  0  0  0  0  0  0  0  0  0
   -0.9172    2.0802    4.7339 H   0  0  0  0  0  0  0  0  0  0  0  0
   -1.3745    3.5064    3.7918 H   0  0  0  0  0  0  0  0  0  0  0  0
    1.1403    3.8813    4.8262 H   0  0  0  0  0  0  0  0  0  0  0  0
   -0.2379    4.6981    5.1422 H   0  0  0  0  0  0  0  0  0  0  0  0
    1.0969   -1.4126   -1.4143 N   0  0  0  0  0  0  0  0  0  0  0  0
    1.9433   -1.9324   -2.4641 C   0  0  2  0  0  0  0  0  0  0  0  0
    1.3848   -3.2828   -2.8931 C   0  0  0  0  0  0  0  0  0  0  0  0
    0.8415   -4.0623   -2.1133 O   0  0  0  0  0  0  0  0  0  0  0  0
    3.3851   -2.0635   -1.9985 C   0  0  0  0  0  0  0  0  0  0  0  0
    0.6668   -2.0839   -0.7850 H   0  0  0  0  0  0  0  0  0  0  0  0
    1.8790   -1.2276   -3.3003 H   0  0  0  0  0  0  0  0  0  0  0  0
    3.4694   -2.7657   -1.1611 H   0  0  0  0  0  0  0  0  0  0  0  0
    4.0302   -2.4304   -2.8037 H   0  0  0  0  0  0  0  0  0  0  0  0
    3.7755   -1.0969   -1.6624 H   0  0  0  0  0  0  0  0  0  0  0  0
    1.6031   -3.5336   -4.2406 N   0  0  0  0  0  0  0  0  0  0  0  0
    1.2041   -4.7662   -4.8788 C   0  0  0  0  0  0  0  0  0  0  0  0
    2.0252   -2.8145   -4.8207 H   0  0  0  0  0  0  0  0  0  0  0  0
    2.0409   -5.4798   -4.8546 H   0  0  0  0  0  0  0  0  0  0  0  0
    0.3425   -5.1933   -4.3448 H   0  0  0  0  0  0  0  0  0  0  0  0
    0.9247   -4.5643   -5.9234 H   0  0  0  0  0  0  0  0  0  0  0  0
  1  3  1  0  0  0  0
  1  7  1  0  0  0  0
  1  2  2  0  0  0  0
 39 40  1  0  0  0  0
 40 48  1  0  0  0  0
 40 41  2  0  0  0  0
  8  9  1  0  0  0  0
  9 17  1  0  0  0  0
  9 10  2  0  0  0  0
 18 19  1  0  0  0  0
 19 38  1  0  0  0  0
 19 20  2  0  0  0  0
 39 42  1  0  0  0  0
  8 11  1  0  0  0  0
 48 49  1  0  0  0  0
 22 23  1  0  0  0  0
 21 22  1  0  0  0  0
 23 24  1  0  0  0  0
 18 21  1  0  0  0  0
 24 25  1  0  0  0  0
 38 39  1  0  0  0  0
  7  8  1  0  0  0  0
 17 18  1  0  0  0  0
  3  4  1  0  0  0  0
  3  5  1  0  0  0  0
  3  6  1  0  0  0  0
 42 45  1  0  0  0  0
 42 46  1  0  0  0  0
 42 47  1  0  0  0  0
 11 14  1  0  0  0  0
 11 15  1  0  0  0  0
 11 16  1  0  0  0  0
 49 51  1  0  0  0  0
 49 52  1  0  0  0  0
 49 53  1  0  0  0  0
 22 30  1  0  0  0  0
 22 31  1  0  0  0  0
 23 32  1  0  0  0  0
 23 33  1  0  0  0  0
 21 28  1  0  0  0  0
 21 29  1  0  0  0  0
 24 34  1  0  0  0  0
 24 35  1  0  0  0  0
 39 44  1  0  0  0  0
  8 13  1  0  0  0  0
 18 27  1  0  0  0  0
 25 36  1  0  0  0  0
 25 37  1  0  0  0  0
 48 50  1  0  0  0  0
  7 12  1  0  0  0  0
 38 43  1  0  0  0  0
 17 26  1  0  0  0  0
M  END
$$$$

  -OEChem-05262214473D

 53 52  0     1  0  0  0  0  0999 V2000
   -1.0338   -5.6785    0.1476 C   0  0  0  0  0  0  0  0  0  0  0  0
   -2.0514   -5.7797    0.8227 O   0  0  0  0  0  0  0  0  0  0  0  0
   -0.6558   -6.7819   -0.7841 C   0  0  0  0  0  0  0  0  0  0  0  0
   -0.0111   -7.5354   -0.3038 H   0  0  0  0  0  0  0  0  0  0  0  0
   -1.5317   -7.3401   -1.1520 H   0  0  0  0  0  0  0  0  0  0  0  0
   -0.1109   -6.4687   -1.6890 H   0  0  0  0  0  0  0  0  0  0  0  0
   -0.1543   -4.6083    0.1480 N   0  0  0  0  0  0  0  0  0  0  0  0
   -0.3302   -3.4398    0.9696 C   0  0  2  0  0  0  0  0  0  0  0  0
    0.2328   -2.2439    0.2131 C   0  0  0  0  0  0  0  0  0  0  0  0
    1.2097   -2.3192   -0.5294 O   0  0  0  0  0  0  0  0  0  0  0  0
    0.3557   -3.6024    2.3171 C   0  0  0  0  0  0  0  0  0  0  0  0
    0.6584   -4.6506   -0.4643 H   0  0  0  0  0  0  0  0  0  0  0  0
   -1.4091   -3.3101    1.1082 H   0  0  0  0  0  0  0  0  0  0  0  0
    1.4375   -3.7336    2.1985 H   0  0  0  0  0  0  0  0  0  0  0  0
    0.1969   -2.7243    2.9517 H   0  0  0  0  0  0  0  0  0  0  0  0
   -0.0294   -4.4803    2.8470 H   0  0  0  0  0  0  0  0  0  0  0  0
   -0.4616   -1.0893    0.5050 N   0  0  0  0  0  0  0  0  0  0  0  0
   -0.0884    0.2050   -0.0621 C   0  0  2  0  0  0  0  0  0  0  0  0
    0.8618   -0.0574   -1.2271 C   0  0  0  0  0  0  0  0  0  0  0  0
    1.5434    0.8236   -1.7473 O   0  0  0  0  0  0  0  0  0  0  0  0
    0.6027    1.1132    0.9660 C   0  0  0  0  0  0  0  0  0  0  0  0
   -0.3304    1.5828    2.0868 C   0  0  0  0  0  0  0  0  0  0  0  0
    0.4013    2.5028    3.0679 C   0  0  0  0  0  0  0  0  0  0  0  0
   -0.5229    2.9510    4.1988 C   0  0  0  0  0  0  0  0  0  0  0  0
    0.1989    3.8061    5.1337 N   0  0  0  0  0  0  0  0  0  0  0  0
   -1.2794   -1.1113    1.0935 H   0  0  0  0  0  0  0  0  0  0  0  0
   -0.9940    0.6934   -0.4415 H   0  0  0  0  0  0  0  0  0  0  0  0
    1.0090    1.9940    0.4516 H   0  0  0  0  0  0  0  0  0  0  0  0
    1.4675    0.5944    1.4014 H   0  0  0  0  0  0  0  0  0  0  0  0
   -0.7278    0.7205    2.6339 H   0  0  0  0  0  0  0  0  0  0  0  0
   -1.1849    2.1160    1.6530 H   0  0  0  0  0  0  0  0  0  0  0  0
    1.2696    1.9757    3.4831 H   0  0  0  0  0  0  0  0  0  0  0  0
    0.7828    3.3807    2.5311 H   0  0  0  0  0  0  0  0  0  0  0  0
   -0.9172    2.0802    4.7339 H   0  0  0  0  0  0  0  0  0  0  0  0
   -1.3745    3.5064    3.7918 H   0  0  0  0  0  0  0  0  0  0  0  0
    1.1403    3.8813    4.8262 H   0  0  0  0  0  0  0  0  0  0  0  0
   -0.2379    4.6981    5.1422 H   0  0  0  0  0  0  0  0  0  0  0  0
    0.8406   -1.3858   -1.6294 N   0  0  0  0  0  0  0  0  0  0  0  0
    1.6322   -1.8942   -2.7264 C   0  0  2  0  0  0  0  0  0  0  0  0
    0.8496   -3.0204   -3.3888 C   0  0  0  0  0  0  0  0  0  0  0  0
    0.1190   -3.7870   -2.7646 O   0  0  0  0  0  0  0  0  0  0  0  0
    2.9902   -2.3841   -2.2484 C   0  0  0  0  0  0  0  0  0  0  0  0
    0.2510   -2.0469   -1.1325 H   0  0  0  0  0  0  0  0  0  0  0  0
    1.7567   -1.0688   -3.4358 H   0  0  0  0  0  0  0  0  0  0  0  0
    2.8858   -3.2112   -1.5367 H   0  0  0  0  0  0  0  0  0  0  0  0
    3.5996   -2.7425   -3.0846 H   0  0  0  0  0  0  0  0  0  0  0  0
    3.5396   -1.5807   -1.7458 H   0  0  0  0  0  0  0  0  0  0  0  0
    1.0965   -3.0956   -4.7525 N   0  0  0  0  0  0  0  0  0  0  0  0
    0.5055   -4.1072   -5.5971 C   0  0  0  0  0  0  0  0  0  0  0  0
    1.6844   -2.3944   -5.1933 H   0  0  0  0  0  0  0  0  0  0  0  0
    1.1849   -4.9695   -5.6677 H   0  0  0  0  0  0  0  0  0  0  0  0
   -0.4534   -4.4305   -5.1658 H   0  0  0  0  0  0  0  0  0  0  0  0
    0.3345   -3.6922   -6.6013 H   0  0  0  0  0  0  0  0  0  0  0  0
  1  3  1  0  0  0  0
  1  7  1  0  0  0  0
  1  2  2  0  0  0  0
 39 40  1  0  0  0  0
 40 48  1  0  0  0  0
 40 41  2  0  0  0  0
  8  9  1  0  0  0  0
  9 17  1  0  0  0  0
  9 10  2  0  0  0  0
 18 19  1  0  0  0  0
 19 38  1  0  0  0  0
 19 20  2  0  0  0  0
 39 42  1  0  0  0  0
  8 11  1  0  0  0  0
 48 49  1  0  0  0  0
 22 23  1  0  0  0  0
 21 22  1  0  0  0  0
 23 24  1  0  0  0  0
 18 21  1  0  0  0  0
 24 25  1  0  0  0  0
 38 39  1  0  0  0  0
  7  8  1  0  0  0  0
 17 18  1  0  0  0  0
  3  4  1  0  0  0  0
  3  5  1  0  0  0  0
  3  6  1  0  0  0  0
 42 45  1  0  0  0  0
 42 46  1  0  0  0  0
 42 47  1  0  0  0  0
 11 14  1  0  0  0  0
 11 15  1  0  0  0  0
 11 16  1  0  0  0  0
 49 51  1  0  0  0  0
 49 52  1  0  0  0  0
 49 53  1  0  0  0  0
 22 30  1  0  0  0  0
 22 31  1  0  0  0  0
 23 32  1  0  0  0  0
 23 33  1  0  0  0  0
 21 28  1  0  0  0  0
 21 29  1  0  0  0  0
 24 34  1  0  0  0  0
 24 35  1  0  0  0  0
 39 44  1  0  0  0  0
  8 13  1  0  0  0  0
 18 27  1  0  0  0  0
 25 36  1  0  0  0  0
 25 37  1  0  0  0  0
 48 50  1  0  0  0  0
  7 12  1  0  0  0  0
 38 43  1  0  0  0  0
 17 26  1  0  0  0  0
M  END
$$$$

  -OEChem-05262214473D

 53 52  0     1  0  0  0  0  0999 V2000
   -1.0338   -5.6785    0.1476 C   0  0  0  0  0  0  0  0  0  0  0  0
   -2.0514   -5.7797    0.8227 O   0  0  0  0  0  0  0  0  0  0  0  0
   -0.6558   -6.7819   -0.7841 C   0  0  0  0  0  0  0  0  0  0  0  0
   -0.0111   -7.5354   -0.3038 H   0  0  0  0  0  0  0  0  0  0  0  0
   -1.5317   -7.3401   -1.1520 H   0  0  0  0  0  0  0  0  0  0  0  0
   -0.1109   -6.4687   -1.6890 H   0  0  0  0  0  0  0  0  0  0  0  0
   -0.1543   -4.6083    0.1480 N   0  0  0  0  0  0  0  0  0  0  0  0
   -0.3302   -3.4398    0.9696 C   0  0  2  0  0  0  0  0  0  0  0  0
    0.2328   -2.2439    0.2131 C   0  0  0  0  0  0  0  0  0  0  0  0
    1.2097   -2.3192   -0.5294 O   0  0  0  0  0  0  0  0  0  0  0  0
    0.3557   -3.6024    2.3171 C   0  0  0  0  0  0  0  0  0  0  0  0
    0.6584   -4.6506   -0.4643 H   0  0  0  0  0  0  0  0  0  0  0  0
   -1.4091   -3.3101    1.1082 H   0  0  0  0  0  0  0  0  0  0  0  0
    1.4375   -3.7336    2.1985 H   0  0  0  0  0  0  0  0  0  0  0  0
    0.1969   -2.7243    2.9517 H   0  0  0  0  0  0  0  0  0  0  0  0
   -0.0294   -4.4803    2.8470 H   0  0  0  0  0  0  0  0  0  0  0  0
   -0.4616   -1.0893    0.5050 N   0  0  0  0  0  0  0  0  0  0  0  0
   -0.0884    0.2050   -0.0621 C   0  0  2  0  0  0  0  0  0  0  0  0
    0.8618   -0.0574   -1.2271 C   0  0  0  0  0  0  0  0  0  0  0  0
    1.7316    0.7388   -1.5747 O   0  0  0  0  0  0  0  0  0  0  0  0
    0.6027    1.1132    0.9660 C   0  0  0  0  0  0  0  0  0  0  0  0
   -0.3304    1.5828    2.0868 C   0  0  0  0  0  0  0  0  0  0  0  0
    0.4013    2.5028    3.0679 C   0  0  0  0  0  0  0  0  0  0  0  0
   -0.5229    2.9510    4.1988 C   0  0  0  0  0  0  0  0  0  0  0  0
    0.1989    3.8061    5.1337 N   0  0  0  0  0  0  0  0  0  0  0  0
   -1.2794   -1.1113    1.0935 H   0  0  0  0  0  0  0  0  0  0  0  0
   -0.9940    0.6934   -0.4415 H   0  0  0  0  0  0  0  0  0  0  0  0
    1.0090    1.9940    0.4516 H   0  0  0  0  0  0  0  0  0  0  0  0
    1.4675    0.5944    1.4014 H   0  0  0  0  0  0  0  0  0  0  0  0
   -0.7278    0.7205    2.6339 H   0  0  0  0  0  0  0  0  0  0  0  0
   -1.1849    2.1160    1.6530 H   0  0  0  0  0  0  0  0  0  0  0  0
    1.2696    1.9757    3.4831 H   0  0  0  0  0  0  0  0  0  0  0  0
    0.7828    3.3807    2.5311 H   0  0  0  0  0  0  0  0  0  0  0  0
   -0.9172    2.0802    4.7339 H   0  0  0  0  0  0  0  0  0  0  0  0
   -1.3745    3.5064    3.7918 H   0  0  0  0  0  0  0  0  0  0  0  0
    1.1403    3.8813    4.8262 H   0  0  0  0  0  0  0  0  0  0  0  0
   -0.2379    4.6981    5.1422 H   0  0  0  0  0  0  0  0  0  0  0  0
    0.6078   -1.2745   -1.8443 N   0  0  0  0  0  0  0  0  0  0  0  0
    1.3510   -1.7536   -2.9875 C   0  0  2  0  0  0  0  0  0  0  0  0
    0.4065   -2.5812   -3.8492 C   0  0  0  0  0  0  0  0  0  0  0  0
   -0.4954   -3.2733   -3.3815 O   0  0  0  0  0  0  0  0  0  0  0  0
    2.5566   -2.5754   -2.5589 C   0  0  0  0  0  0  0  0  0  0  0  0
   -0.1278   -1.8730   -1.4806 H   0  0  0  0  0  0  0  0  0  0  0  0
    1.6760   -0.8694   -3.5466 H   0  0  0  0  0  0  0  0  0  0  0  0
    2.2507   -3.4657   -1.9973 H   0  0  0  0  0  0  0  0  0  0  0  0
    3.1345   -2.9136   -3.4253 H   0  0  0  0  0  0  0  0  0  0  0  0
    3.2198   -1.9879   -1.9149 H   0  0  0  0  0  0  0  0  0  0  0  0
    0.7164   -2.4901   -5.1989 N   0  0  0  0  0  0  0  0  0  0  0  0
   -0.0071   -3.2170   -6.2158 C   0  0  0  0  0  0  0  0  0  0  0  0
    1.4549   -1.8613   -5.5007 H   0  0  0  0  0  0  0  0  0  0  0  0
    0.4952   -4.1763   -6.4089 H   0  0  0  0  0  0  0  0  0  0  0  0
   -1.0349   -3.4042   -5.8713 H   0  0  0  0  0  0  0  0  0  0  0  0
   -0.0331   -2.6239   -7.1418 H   0  0  0  0  0  0  0  0  0  0  0  0
  1  3  1  0  0  0  0
  1  7  1  0  0  0  0
  1  2  2  0  0  0  0
 39 40  1  0  0  0  0
 40 48  1  0  0  0  0
 40 41  2  0  0  0  0
  8  9  1  0  0  0  0
  9 17  1  0  0  0  0
  9 10  2  0  0  0  0
 18 19  1  0  0  0  0
 19 38  1  0  0  0  0
 19 20  2  0  0  0  0
 39 42  1  0  0  0  0
  8 11  1  0  0  0  0
 48 49  1  0  0  0  0
 22 23  1  0  0  0  0
 21 22  1  0  0  0  0
 23 24  1  0  0  0  0
 18 21  1  0  0  0  0
 24 25  1  0  0  0  0
 38 39  1  0  0  0  0
  7  8  1  0  0  0  0
 17 18  1  0  0  0  0
  3  4  1  0  0  0  0
  3  5  1  0  0  0  0
  3  6  1  0  0  0  0
 42 45  1  0  0  0  0
 42 46  1  0  0  0  0
 42 47  1  0  0  0  0
 11 14  1  0  0  0  0
 11 15  1  0  0  0  0
 11 16  1  0  0  0  0
 49 51  1  0  0  0  0
 49 52  1  0  0  0  0
 49 53  1  0  0  0  0
 22 30  1  0  0  0  0
 22 31  1  0  0  0  0
 23 32  1  0  0  0  0
 23 33  1  0  0  0  0
 21 28  1  0  0  0  0
 21 29  1  0  0  0  0
 24 34  1  0  0  0  0
 24 35  1  0  0  0  0
 39 44  1  0  0  0  0
  8 13  1  0  0  0  0
 18 27  1  0  0  0  0
 25 36  1  0  0  0  0
 25 37  1  0  0  0  0
 48 50  1  0  0  0  0
  7 12  1  0  0  0  0
 38 43  1  0  0  0  0
 17 26  1  0  0  0  0
M  END
$$$$

  -OEChem-05262214473D

 53 52  0     1  0  0  0  0  0999 V2000
   -1.0338   -5.6785    0.1476 C   0  0  0  0  0  0  0  0  0  0  0  0
   -2.0514   -5.7797    0.8227 O   0  0  0  0  0  0  0  0  0  0  0  0
   -0.6558   -6.7819   -0.7841 C   0  0  0  0  0  0  0  0  0  0  0  0
   -0.0111   -7.5354   -0.3038 H   0  0  0  0  0  0  0  0  0  0  0  0
   -1.5317   -7.3401   -1.1520 H   0  0  0  0  0  0  0  0  0  0  0  0
   -0.1109   -6.4687   -1.6890 H   0  0  0  0  0  0  0  0  0  0  0  0
   -0.1543   -4.6083    0.1480 N   0  0  0  0  0  0  0  0  0  0  0  0
   -0.3302   -3.4398    0.9696 C   0  0  2  0  0  0  0  0  0  0  0  0
    0.2328   -2.2439    0.2131 C   0  0  0  0  0  0  0  0  0  0  0  0
    1.2097   -2.3192   -0.5294 O   0  0  0  0  0  0  0  0  0  0  0  0
    0.3557   -3.6024    2.3171 C   0  0  0  0  0  0  0  0  0  0  0  0
    0.6584   -4.6506   -0.4643 H   0  0  0  0  0  0  0  0  0  0  0  0
   -1.4091   -3.3101    1.1082 H   0  0  0  0  0  0  0  0  0  0  0  0
    1.4375   -3.7336    2.1985 H   0  0  0  0  0  0  0  0  0  0  0  0
    0.1969   -2.7243    2.9517 H   0  0  0  0  0  0  0  0  0  0  0  0
   -0.0294   -4.4803    2.8470 H   0  0  0  0  0  0  0  0  0  0  0  0
   -0.4616   -1.0893    0.5050 N   0  0  0  0  0  0  0  0  0  0  0  0
   -0.0884    0.2050   -0.0621 C   0  0  2  0  0  0  0  0  0  0  0  0
    0.8618   -0.0574   -1.2271 C   0  0  0  0  0  0  0  0  0  0  0  0
    1.8890    0.5919   -1.4133 O   0  0  0  0  0  0  0  0  0  0  0  0
    0.6027    1.1132    0.9660 C   0  0  0  0  0  0  0  0  0  0  0  0
   -0.3304    1.5828    2.0868 C   0  0  0  0  0  0  0  0  0  0  0  0
    0.4013    2.5028    3.0679 C   0  0  0  0  0  0  0  0  0  0  0  0
   -0.5229    2.9510    4.1988 C   0  0  0  0  0  0  0  0  0  0  0  0
    0.1989    3.8061    5.1337 N   0  0  0  0  0  0  0  0  0  0  0  0
   -1.2794   -1.1113    1.0935 H   0  0  0  0  0  0  0  0  0  0  0  0
   -0.9940    0.6934   -0.4415 H   0  0  0  0  0  0  0  0  0  0  0  0
    1.0090    1.9940    0.4516 H   0  0  0  0  0  0  0  0  0  0  0  0
    1.4675    0.5944    1.4014 H   0  0  0  0  0  0  0  0  0  0  0  0
   -0.7278    0.7205    2.6339 H   0  0  0  0  0  0  0  0  0  0  0  0
   -1.1849    2.1160    1.6530 H   0  0  0  0  0  0  0  0  0  0  0  0
    1.2696    1.9757    3.4831 H   0  0  0  0  0  0  0  0  0  0  0  0
    0.7828    3.3807    2.5311 H   0  0  0  0  0  0  0  0  0  0  0  0
   -0.9172    2.0802    4.7339 H   0  0  0  0  0  0  0  0  0  0  0  0
   -1.3745    3.5064    3.7918 H   0  0  0  0  0  0  0  0  0  0  0  0
    1.1403    3.8813    4.8262 H   0  0  0  0  0  0  0  0  0  0  0  0
   -0.2379    4.6981    5.1422 H   0  0  0  0  0  0  0  0  0  0  0  0
    0.4146   -1.0865   -2.0443 N   0  0  0  0  0  0  0  0  0  0  0  0
    1.1187   -1.5201   -3.2295 C   0  0  2  0  0  0  0  0  0  0  0  0
    0.0857   -1.9953   -4.2428 C   0  0  0  0  0  0  0  0  0  0  0  0
   -0.9599   -2.5563   -3.9219 O   0  0  0  0  0  0  0  0  0  0  0  0
    2.1138   -2.6245   -2.9090 C   0  0  0  0  0  0  0  0  0  0  0  0
   -0.4438   -1.5742   -1.8057 H   0  0  0  0  0  0  0  0  0  0  0  0
    1.6424   -0.6430   -3.6250 H   0  0  0  0  0  0  0  0  0  0  0  0
    1.6076   -3.5118   -2.5115 H   0  0  0  0  0  0  0  0  0  0  0  0
    2.6667   -2.9321   -3.8028 H   0  0  0  0  0  0  0  0  0  0  0  0
    2.8380   -2.2908   -2.1581 H   0  0  0  0  0  0  0  0  0  0  0  0
    0.4888   -1.7581   -5.5494 N   0  0  0  0  0  0  0  0  0  0  0  0
   -0.2989   -2.1560   -6.6928 C   0  0  0  0  0  0  0  0  0  0  0  0
    1.3521   -1.2514   -5.7219 H   0  0  0  0  0  0  0  0  0  0  0  0
    0.0187   -3.1545   -7.0278 H   0  0  0  0  0  0  0  0  0  0  0  0
   -1.3624   -2.1842   -6.4133 H   0  0  0  0  0  0  0  0  0  0  0  0
   -0.1531   -1.4322   -7.5082 H   0  0  0  0  0  0  0  0  0  0  0  0
  1  3  1  0  0  0  0
  1  7  1  0  0  0  0
  1  2  2  0  0  0  0
 39 40  1  0  0  0  0
 40 48  1  0  0  0  0
 40 41  2  0  0  0  0
  8  9  1  0  0  0  0
  9 17  1  0  0  0  0
  9 10  2  0  0  0  0
 18 19  1  0  0  0  0
 19 38  1  0  0  0  0
 19 20  2  0  0  0  0
 39 42  1  0  0  0  0
  8 11  1  0  0  0  0
 48 49  1  0  0  0  0
 22 23  1  0  0  0  0
 21 22  1  0  0  0  0
 23 24  1  0  0  0  0
 18 21  1  0  0  0  0
 24 25  1  0  0  0  0
 38 39  1  0  0  0  0
  7  8  1  0  0  0  0
 17 18  1  0  0  0  0
  3  4  1  0  0  0  0
  3  5  1  0  0  0  0
  3  6  1  0  0  0  0
 42 45  1  0  0  0  0
 42 46  1  0  0  0  0
 42 47  1  0  0  0  0
 11 14  1  0  0  0  0
 11 15  1  0  0  0  0
 11 16  1  0  0  0  0
 49 51  1  0  0  0  0
 49 52  1  0  0  0  0
 49 53  1  0  0  0  0
 22 30  1  0  0  0  0
 22 31  1  0  0  0  0
 23 32  1  0  0  0  0
 23 33  1  0  0  0  0
 21 28  1  0  0  0  0
 21 29  1  0  0  0  0
 24 34  1  0  0  0  0
 24 35  1  0  0  0  0
 39 44  1  0  0  0  0
  8 13  1  0  0  0  0
 18 27  1  0  0  0  0
 25 36  1  0  0  0  0
 25 37  1  0  0  0  0
 48 50  1  0  0  0  0
  7 12  1  0  0  0  0
 38 43  1  0  0  0  0
 17 26  1  0  0  0  0
M  END
$$$$

  -OEChem-05262214473D

 53 52  0     1  0  0  0  0  0999 V2000
   -1.0338   -5.6785    0.1476 C   0  0  0  0  0  0  0  0  0  0  0  0
   -2.0514   -5.7797    0.8227 O   0  0  0  0  0  0  0  0  0  0  0  0
   -0.6558   -6.7819   -0.7841 C   0  0  0  0  0  0  0  0  0  0  0  0
   -0.0111   -7.5354   -0.3038 H   0  0  0  0  0  0  0  0  0  0  0  0
   -1.5317   -7.3401   -1.1520 H   0  0  0  0  0  0  0  0  0  0  0  0
   -0.1109   -6.4687   -1.6890 H   0  0  0  0  0  0  0  0  0  0  0  0
   -0.1543   -4.6083    0.1480 N   0  0  0  0  0  0  0  0  0  0  0  0
   -0.3302   -3.4398    0.9696 C   0  0  2  0  0  0  0  0  0  0  0  0
    0.2328   -2.2439    0.2131 C   0  0  0  0  0  0  0  0  0  0  0  0
    1.2097   -2.3192   -0.5294 O   0  0  0  0  0  0  0  0  0  0  0  0
    0.3557   -3.6024    2.3171 C   0  0  0  0  0  0  0  0  0  0  0  0
    0.6584   -4.6506   -0.4643 H   0  0  0  0  0  0  0  0  0  0  0  0
   -1.4091   -3.3101    1.1082 H   0  0  0  0  0  0  0  0  0  0  0  0
    1.4375   -3.7336    2.1985 H   0  0  0  0  0  0  0  0  0  0  0  0
    0.1969   -2.7243    2.9517 H   0  0  0  0  0  0  0  0  0  0  0  0
   -0.0294   -4.4803    2.8470 H   0  0  0  0  0  0  0  0  0  0  0  0
   -0.4616   -1.0893    0.5050 N   0  0  0  0  0  0  0  0  0  0  0  0
   -0.0884    0.2050   -0.0621 C   0  0  2  0  0  0  0  0  0  0  0  0
    0.8618   -0.0574   -1.2271 C   0  0  0  0  0  0  0  0  0  0  0  0
    2.0048    0.3929   -1.2740 O   0  0  0  0  0  0  0  0  0  0  0  0
    0.6027    1.1132    0.9660 C   0  0  0  0  0  0  0  0  0  0  0  0
   -0.3304    1.5828    2.0868 C   0  0  0  0  0  0  0  0  0  0  0  0
    0.4013    2.5028    3.0679 C   0  0  0  0  0  0  0  0  0  0  0  0
   -0.5229    2.9510    4.1988 C   0  0  0  0  0  0  0  0  0  0  0  0
    0.1989    3.8061    5.1337 N   0  0  0  0  0  0  0  0  0  0  0  0
   -1.2794   -1.1113    1.0935 H   0  0  0  0  0  0  0  0  0  0  0  0
   -0.9940    0.6934   -0.4415 H   0  0  0  0  0  0  0  0  0  0  0  0
    1.0090    1.9940    0.4516 H   0  0  0  0  0  0  0  0  0  0  0  0
    1.4675    0.5944    1.4014 H   0  0  0  0  0  0  0  0  0  0  0  0
   -0.7278    0.7205    2.6339 H   0  0  0  0  0  0  0  0  0  0  0  0
   -1.1849    2.1160    1.6530 H   0  0  0  0  0  0  0  0  0  0  0  0
    1.2696    1.9757    3.4831 H   0  0  0  0  0  0  0  0  0  0  0  0
    0.7828    3.3807    2.5311 H   0  0  0  0  0  0  0  0  0  0  0  0
   -0.9172    2.0802    4.7339 H   0  0  0  0  0  0  0  0  0  0  0  0
   -1.3745    3.5064    3.7918 H   0  0  0  0  0  0  0  0  0  0  0  0
    1.1403    3.8813    4.8262 H   0  0  0  0  0  0  0  0  0  0  0  0
   -0.2379    4.6981    5.1422 H   0  0  0  0  0  0  0  0  0  0  0  0
    0.2740   -0.8344   -2.2157 N   0  0  0  0  0  0  0  0  0  0  0  0
    0.9513   -1.2097   -3.4361 C   0  0  2  0  0  0  0  0  0  0  0  0
   -0.0908   -1.3026   -4.5428 C   0  0  0  0  0  0  0  0  0  0  0  0
   -1.2429   -1.6849   -4.3490 O   0  0  0  0  0  0  0  0  0  0  0  0
    1.6920   -2.5281   -3.2748 C   0  0  0  0  0  0  0  0  0  0  0  0
   -0.6756   -1.1706   -2.0857 H   0  0  0  0  0  0  0  0  0  0  0  0
    1.6581   -0.4050   -3.6658 H   0  0  0  0  0  0  0  0  0  0  0  0
    1.0001   -3.3464   -3.0443 H   0  0  0  0  0  0  0  0  0  0  0  0
    2.2279   -2.7967   -4.1911 H   0  0  0  0  0  0  0  0  0  0  0  0
    2.4202   -2.4687   -2.4588 H   0  0  0  0  0  0  0  0  0  0  0  0
    0.4292   -0.9496   -5.7802 N   0  0  0  0  0  0  0  0  0  0  0  0
   -0.3498   -0.9968   -6.9955 C   0  0  0  0  0  0  0  0  0  0  0  0
    1.3832   -0.6064   -5.8418 H   0  0  0  0  0  0  0  0  0  0  0  0
   -0.2122   -1.9736   -7.4822 H   0  0  0  0  0  0  0  0  0  0  0  0
   -1.4136   -0.8538   -6.7548 H   0  0  0  0  0  0  0  0  0  0  0  0
   -0.0172   -0.1985   -7.6753 H   0  0  0  0  0  0  0  0  0  0  0  0
  1  3  1  0  0  0  0
  1  7  1  0  0  0  0
  1  2  2  0  0  0  0
 39 40  1  0  0  0  0
 40 48  1  0  0  0  0
 40 41  2  0  0  0  0
  8  9  1  0  0  0  0
  9 17  1  0  0  0  0
  9 10  2  0  0  0  0
 18 19  1  0  0  0  0
 19 38  1  0  0  0  0
 19 20  2  0  0  0  0
 39 42  1  0  0  0  0
  8 11  1  0  0  0  0
 48 49  1  0  0  0  0
 22 23  1  0  0  0  0
 21 22  1  0  0  0  0
 23 24  1  0  0  0  0
 18 21  1  0  0  0  0
 24 25  1  0  0  0  0
 38 39  1  0  0  0  0
  7  8  1  0  0  0  0
 17 18  1  0  0  0  0
  3  4  1  0  0  0  0
  3  5  1  0  0  0  0
  3  6  1  0  0  0  0
 42 45  1  0  0  0  0
 42 46  1  0  0  0  0
 42 47  1  0  0  0  0
 11 14  1  0  0  0  0
 11 15  1  0  0  0  0
 11 16  1  0  0  0  0
 49 51  1  0  0  0  0
 49 52  1  0  0  0  0
 49 53  1  0  0  0  0
 22 30  1  0  0  0  0
 22 31  1  0  0  0  0
 23 32  1  0  0  0  0
 23 33  1  0  0  0  0
 21 28  1  0  0  0  0
 21 29  1  0  0  0  0
 24 34  1  0  0  0  0
 24 35  1  0  0  0  0
 39 44  1  0  0  0  0
  8 13  1  0  0  0  0
 18 27  1  0  0  0  0
 25 36  1  0  0  0  0
 25 37  1  0  0  0  0
 48 50  1  0  0  0  0
  7 12  1  0  0  0  0
 38 43  1  0  0  0  0
 17 26  1  0  0  0  0
M  END
$$$$

  -OEChem-05262214473D

 53 52  0     1  0  0  0  0  0999 V2000
   -1.0338   -5.6785    0.1476 C   0  0  0  0  0  0  0  0  0  0  0  0
   -2.0514   -5.7797    0.8227 O   0  0  0  0  0  0  0  0  0  0  0  0
   -0.6558   -6.7819   -0.7841 C   0  0  0  0  0  0  0  0  0  0  0  0
   -0.0111   -7.5354   -0.3038 H   0  0  0  0  0  0  0  0  0  0  0  0
   -1.5317   -7.3401   -1.1520 H   0  0  0  0  0  0  0  0  0  0  0  0
   -0.1109   -6.4687   -1.6890 H   0  0  0  0  0  0  0  0  0  0  0  0
   -0.1543   -4.6083    0.1480 N   0  0  0  0  0  0  0  0  0  0  0  0
   -0.3302   -3.4398    0.9696 C   0  0  2  0  0  0  0  0  0  0  0  0
    0.2328   -2.2439    0.2131 C   0  0  0  0  0  0  0  0  0  0  0  0
    1.2097   -2.3192   -0.5294 O   0  0  0  0  0  0  0  0  0  0  0  0
    0.3557   -3.6024    2.3171 C   0  0  0  0  0  0  0  0  0  0  0  0
    0.6584   -4.6506   -0.4643 H   0  0  0  0  0  0  0  0  0  0  0  0
   -1.4091   -3.3101    1.1082 H   0  0  0  0  0  0  0  0  0  0  0  0
    1.4375   -3.7336    2.1985 H   0  0  0  0  0  0  0  0  0  0  0  0
    0.1969   -2.7243    2.9517 H   0  0  0  0  0  0  0  0  0  0  0  0
   -0.0294   -4.4803    2.8470 H   0  0  0  0  0  0  0  0  0  0  0  0
   -0.4616   -1.0893    0.5050 N   0  0  0  0  0  0  0  0  0  0  0  0
   -0.0884    0.2050   -0.0621 C   0  0  2  0  0  0  0  0  0  0  0  0
    0.8618   -0.0574   -1.2271 C   0  0  0  0  0  0  0  0  0  0  0  0
    2.0711    0.1554   -1.1664 O   0  0  0  0  0  0  0  0  0  0  0  0
    0.6027    1.1132    0.9660 C   0  0  0  0  0  0  0  0  0  0  0  0
   -0.3304    1.5828    2.0868 C   0  0  0  0  0  0  0  0  0  0  0  0
    0.4013    2.5028    3.0679 C   0  0  0  0  0  0  0  0  0  0  0  0
   -0.5229    2.9510    4.1988 C   0  0  0  0  0  0  0  0  0  0  0  0
    0.1989    3.8061    5.1337 N   0  0  0  0  0  0  0  0  0  0  0  0
   -1.2794   -1.1113    1.0935 H   0  0  0  0  0  0  0  0  0  0  0  0
   -0.9940    0.6934   -0.4415 H   0  0  0  0  0  0  0  0  0  0  0  0
    1.0090    1.9940    0.4516 H   0  0  0  0  0  0  0  0  0  0  0  0
    1.4675    0.5944    1.4014 H   0  0  0  0  0  0  0  0  0  0  0  0
   -0.7278    0.7205    2.6339 H   0  0  0  0  0  0  0  0  0  0  0  0
   -1.1849    2.1160    1.6530 H   0  0  0  0  0  0  0  0  0  0  0  0
    1.2696    1.9757    3.4831 H   0  0  0  0  0  0  0  0  0  0  0  0
    0.7828    3.3807    2.5311 H   0  0  0  0  0  0  0  0  0  0  0  0
   -0.9172    2.0802    4.7339 H   0  0  0  0  0  0  0  0  0  0  0  0
   -1.3745    3.5064    3.7918 H   0  0  0  0  0  0  0  0  0  0  0  0
    1.1403    3.8813    4.8262 H   0  0  0  0  0  0  0  0  0  0  0  0
   -0.2379    4.6981    5.1422 H   0  0  0  0  0  0  0  0  0  0  0  0
    0.1956   -0.5355   -2.3470 N   0  0  0  0  0  0  0  0  0  0  0  0
    0.8600   -0.8435   -3.5930 C   0  0  2  0  0  0  0  0  0  0  0  0
   -0.1111   -0.5503   -4.7289 C   0  0  0  0  0  0  0  0  0  0  0  0
   -1.3251   -0.7184   -4.6338 O   0  0  0  0  0  0  0  0  0  0  0  0
    1.3198   -2.2926   -3.6314 C   0  0  0  0  0  0  0  0  0  0  0  0
   -0.8073   -0.6899   -2.3014 H   0  0  0  0  0  0  0  0  0  0  0  0
    1.7222   -0.1716   -3.6661 H   0  0  0  0  0  0  0  0  0  0  0  0
    0.4697   -2.9807   -3.5592 H   0  0  0  0  0  0  0  0  0  0  0  0
    1.8481   -2.5166   -4.5640 H   0  0  0  0  0  0  0  0  0  0  0  0
    1.9948   -2.5096   -2.7965 H   0  0  0  0  0  0  0  0  0  0  0  0
    0.5417   -0.1197   -5.8755 N   0  0  0  0  0  0  0  0  0  0  0  0
   -0.1565    0.1819   -7.1034 C   0  0  0  0  0  0  0  0  0  0  0  0
    1.5461    0.0299   -5.8523 H   0  0  0  0  0  0  0  0  0  0  0  0
   -0.1816   -0.7141   -7.7410 H   0  0  0  0  0  0  0  0  0  0  0  0
   -1.1849    0.4965   -6.8725 H   0  0  0  0  0  0  0  0  0  0  0  0
    0.3653    0.9933   -7.6319 H   0  0  0  0  0  0  0  0  0  0  0  0
  1  3  1  0  0  0  0
  1  7  1  0  0  0  0
  1  2  2  0  0  0  0
 39 40  1  0  0  0  0
 40 48  1  0  0  0  0
 40 41  2  0  0  0  0
  8  9  1  0  0  0  0
  9 17  1  0  0  0  0
  9 10  2  0  0  0  0
 18 19  1  0  0  0  0
 19 38  1  0  0  0  0
 19 20  2  0  0  0  0
 39 42  1  0  0  0  0
  8 11  1  0  0  0  0
 48 49  1  0  0  0  0
 22 23  1  0  0  0  0
 21 22  1  0  0  0  0
 23 24  1  0  0  0  0
 18 21  1  0  0  0  0
 24 25  1  0  0  0  0
 38 39  1  0  0  0  0
  7  8  1  0  0  0  0
 17 18  1  0  0  0  0
  3  4  1  0  0  0  0
  3  5  1  0  0  0  0
  3  6  1  0  0  0  0
 42 45  1  0  0  0  0
 42 46  1  0  0  0  0
 42 47  1  0  0  0  0
 11 14  1  0  0  0  0
 11 15  1  0  0  0  0
 11 16  1  0  0  0  0
 49 51  1  0  0  0  0
 49 52  1  0  0  0  0
 49 53  1  0  0  0  0
 22 30  1  0  0  0  0
 22 31  1  0  0  0  0
 23 32  1  0  0  0  0
 23 33  1  0  0  0  0
 21 28  1  0  0  0  0
 21 29  1  0  0  0  0
 24 34  1  0  0  0  0
 24 35  1  0  0  0  0
 39 44  1  0  0  0  0
  8 13  1  0  0  0  0
 18 27  1  0  0  0  0
 25 36  1  0  0  0  0
 25 37  1  0  0  0  0
 48 50  1  0  0  0  0
  7 12  1  0  0  0  0
 38 43  1  0  0  0  0
 17 26  1  0  0  0  0
M  END
$$$$

  -OEChem-05262214473D

 53 52  0     1  0  0  0  0  0999 V2000
   -1.0338   -5.6785    0.1476 C   0  0  0  0  0  0  0  0  0  0  0  0
   -2.0514   -5.7797    0.8227 O   0  0  0  0  0  0  0  0  0  0  0  0
   -0.6558   -6.7819   -0.7841 C   0  0  0  0  0  0  0  0  0  0  0  0
   -0.0111   -7.5354   -0.3038 H   0  0  0  0  0  0  0  0  0  0  0  0
   -1.5317   -7.3401   -1.1520 H   0  0  0  0  0  0  0  0  0  0  0  0
   -0.1109   -6.4687   -1.6890 H   0  0  0  0  0  0  0  0  0  0  0  0
   -0.1543   -4.6083    0.1480 N   0  0  0  0  0  0  0  0  0  0  0  0
   -0.3302   -3.4398    0.9696 C   0  0  2  0  0  0  0  0  0  0  0  0
    0.2328   -2.2439    0.2131 C   0  0  0  0  0  0  0  0  0  0  0  0
    1.2097   -2.3192   -0.5294 O   0  0  0  0  0  0  0  0  0  0  0  0
    0.3557   -3.6024    2.3171 C   0  0  0  0  0  0  0  0  0  0  0  0
    0.6584   -4.6506   -0.4643 H   0  0  0  0  0  0  0  0  0  0  0  0
   -1.4091   -3.3101    1.1082 H   0  0  0  0  0  0  0  0  0  0  0  0
    1.4375   -3.7336    2.1985 H   0  0  0  0  0  0  0  0  0  0  0  0
    0.1969   -2.7243    2.9517 H   0  0  0  0  0  0  0  0  0  0  0  0
   -0.0294   -4.4803    2.8470 H   0  0  0  0  0  0  0  0  0  0  0  0
   -0.4616   -1.0893    0.5050 N   0  0  0  0  0  0  0  0  0  0  0  0
   -0.0884    0.2050   -0.0621 C   0  0  2  0  0  0  0  0  0  0  0  0
    0.8618   -0.0574   -1.2271 C   0  0  0  0  0  0  0  0  0  0  0  0
    2.0835   -0.1045   -1.0977 O   0  0  0  0  0  0  0  0  0  0  0  0
    0.6027    1.1132    0.9660 C   0  0  0  0  0  0  0  0  0  0  0  0
   -0.3304    1.5828    2.0868 C   0  0  0  0  0  0  0  0  0  0  0  0
    0.4013    2.5028    3.0679 C   0  0  0  0  0  0  0  0  0  0  0  0
   -0.5229    2.9510    4.1988 C   0  0  0  0  0  0  0  0  0  0  0  0
    0.1989    3.8061    5.1337 N   0  0  0  0  0  0  0  0  0  0  0  0
   -1.2794   -1.1113    1.0935 H   0  0  0  0  0  0  0  0  0  0  0  0
   -0.9940    0.6934   -0.4415 H   0  0  0  0  0  0  0  0  0  0  0  0
    1.0090    1.9940    0.4516 H   0  0  0  0  0  0  0  0  0  0  0  0
    1.4675    0.5944    1.4014 H   0  0  0  0  0  0  0  0  0  0  0  0
   -0.7278    0.7205    2.6339 H   0  0  0  0  0  0  0  0  0  0  0  0
   -1.1849    2.1160    1.6530 H   0  0  0  0  0  0  0  0  0  0  0  0
    1.2696    1.9757    3.4831 H   0  0  0  0  0  0  0  0  0  0  0  0
    0.7828    3.3807    2.5311 H   0  0  0  0  0  0  0  0  0  0  0  0
   -0.9172    2.0802    4.7339 H   0  0  0  0  0  0  0  0  0  0  0  0
   -1.3745    3.5064    3.7918 H   0  0  0  0  0  0  0  0  0  0  0  0
    1.1403    3.8813    4.8262 H   0  0  0  0  0  0  0  0  0  0  0  0
   -0.2379    4.6981    5.1422 H   0  0  0  0  0  0  0  0  0  0  0  0
    0.1847   -0.2102   -2.4291 N   0  0  0  0  0  0  0  0  0  0  0  0
    0.8513   -0.4465   -3.6896 C   0  0  2  0  0  0  0  0  0  0  0  0
    0.0262    0.2105   -4.7883 C   0  0  0  0  0  0  0  0  0  0  0  0
   -1.2008    0.2772   -4.7568 O   0  0  0  0  0  0  0  0  0  0  0  0
    1.0228   -1.9342   -3.9544 C   0  0  0  0  0  0  0  0  0  0  0  0
   -0.8299   -0.1648   -2.4381 H   0  0  0  0  0  0  0  0  0  0  0  0
    1.8301    0.0411   -3.6260 H   0  0  0  0  0  0  0  0  0  0  0  0
    0.0525   -2.4398   -4.0214 H   0  0  0  0  0  0  0  0  0  0  0  0
    1.5532   -2.1110   -4.8959 H   0  0  0  0  0  0  0  0  0  0  0  0
    1.5909   -2.4106   -3.1482 H   0  0  0  0  0  0  0  0  0  0  0  0
    0.8185    0.6751   -5.8288 N   0  0  0  0  0  0  0  0  0  0  0  0
    0.2679    1.2995   -7.0090 C   0  0  0  0  0  0  0  0  0  0  0  0
    1.8295    0.6140   -5.7528 H   0  0  0  0  0  0  0  0  0  0  0  0
    0.1083    0.5381   -7.7867 H   0  0  0  0  0  0  0  0  0  0  0  0
   -0.6921    1.7745   -6.7585 H   0  0  0  0  0  0  0  0  0  0  0  0
    0.9683    2.0620   -7.3808 H   0  0  0  0  0  0  0  0  0  0  0  0
  1  3  1  0  0  0  0
  1  7  1  0  0  0  0
  1  2  2  0  0  0  0
 39 40  1  0  0  0  0
 40 48  1  0  0  0  0
 40 41  2  0  0  0  0
  8  9  1  0  0  0  0
  9 17  1  0  0  0  0
  9 10  2  0  0  0  0
 18 19  1  0  0  0  0
 19 38  1  0  0  0  0
 19 20  2  0  0  0  0
 39 42  1  0  0  0  0
  8 11  1  0  0  0  0
 48 49  1  0  0  0  0
 22 23  1  0  0  0  0
 21 22  1  0  0  0  0
 23 24  1  0  0  0  0
 18 21  1  0  0  0  0
 24 25  1  0  0  0  0
 38 39  1  0  0  0  0
  7  8  1  0  0  0  0
 17 18  1  0  0  0  0
  3  4  1  0  0  0  0
  3  5  1  0  0  0  0
  3  6  1  0  0  0  0
 42 45  1  0  0  0  0
 42 46  1  0  0  0  0
 42 47  1  0  0  0  0
 11 14  1  0  0  0  0
 11 15  1  0  0  0  0
 11 16  1  0  0  0  0
 49 51  1  0  0  0  0
 49 52  1  0  0  0  0
 49 53  1  0  0  0  0
 22 30  1  0  0  0  0
 22 31  1  0  0  0  0
 23 32  1  0  0  0  0
 23 33  1  0  0  0  0
 21 28  1  0  0  0  0
 21 29  1  0  0  0  0
 24 34  1  0  0  0  0
 24 35  1  0  0  0  0
 39 44  1  0  0  0  0
  8 13  1  0  0  0  0
 18 27  1  0  0  0  0
 25 36  1  0  0  0  0
 25 37  1  0  0  0  0
 48 50  1  0  0  0  0
  7 12  1  0  0  0  0
 38 43  1  0  0  0  0
 17 26  1  0  0  0  0
M  END
$$$$

  -OEChem-05262214473D

 53 52  0     1  0  0  0  0  0999 V2000
   -1.0338   -5.6785    0.1476 C   0  0  0  0  0  0  0  0  0  0  0  0
   -2.0514   -5.7797    0.8227 O   0  0  0  0  0  0  0  0  0  0  0  0
   -0.6558   -6.7819   -0.7841 C   0  0  0  0  0  0  0  0  0  0  0  0
   -0.0111   -7.5354   -0.3038 H   0  0  0  0  0  0  0  0  0  0  0  0
   -1.5317   -7.3401   -1.1520 H   0  0  0  0  0  0  0  0  0  0  0  0
   -0.1109   -6.4687   -1.6890 H   0  0  0  0  0  0  0  0  0  0  0  0
   -0.1543   -4.6083    0.1480 N   0  0  0  0  0  0  0  0  0  0  0  0
   -0.3302   -3.4398    0.9696 C   0  0  2  0  0  0  0  0  0  0  0  0
    0.2328   -2.2439    0.2131 C   0  0  0  0  0  0  0  0  0  0  0  0
    1.2097   -2.3192   -0.5294 O   0  0  0  0  0  0  0  0  0  0  0  0
    0.3557   -3.6024    2.3171 C   0  0  0  0  0  0  0  0  0  0  0  0
    0.6584   -4.6506   -0.4643 H   0  0  0  0  0  0  0  0  0  0  0  0
   -1.4091   -3.3101    1.1082 H   0  0  0  0  0  0  0  0  0  0  0  0
    1.4375   -3.7336    2.1985 H   0  0  0  0  0  0  0  0  0  0  0  0
    0.1969   -2.7243    2.9517 H   0  0  0  0  0  0  0  0  0  0  0  0
   -0.0294   -4.4803    2.8470 H   0  0  0  0  0  0  0  0  0  0  0  0
   -0.4616   -1.0893    0.5050 N   0  0  0  0  0  0  0  0  0  0  0  0
   -0.0884    0.2050   -0.0621 C   0  0  2  0  0  0  0  0  0  0  0  0
    0.8618   -0.0574   -1.2271 C   0  0  0  0  0  0  0  0  0  0  0  0
    2.0410   -0.3691   -1.0728 O   0  0  0  0  0  0  0  0  0  0  0  0
    0.6027    1.1132    0.9660 C   0  0  0  0  0  0  0  0  0  0  0  0
   -0.3304    1.5828    2.0868 C   0  0  0  0  0  0  0  0  0  0  0  0
    0.4013    2.5028    3.0679 C   0  0  0  0  0  0  0  0  0  0  0  0
   -0.5229    2.9510    4.1988 C   0  0  0  0  0  0  0  0  0  0  0  0
    0.1989    3.8061    5.1337 N   0  0  0  0  0  0  0  0  0  0  0  0
   -1.2794   -1.1113    1.0935 H   0  0  0  0  0  0  0  0  0  0  0  0
   -0.9940    0.6934   -0.4415 H   0  0  0  0  0  0  0  0  0  0  0  0
    1.0090    1.9940    0.4516 H   0  0  0  0  0  0  0  0  0  0  0  0
    1.4675    0.5944    1.4014 H   0  0  0  0  0  0  0  0  0  0  0  0
   -0.7278    0.7205    2.6339 H   0  0  0  0  0  0  0  0  0  0  0  0
   -1.1849    2.1160    1.6530 H   0  0  0  0  0  0  0  0  0  0  0  0
    1.2696    1.9757    3.4831 H   0  0  0  0  0  0  0  0  0  0  0  0
    0.7828    3.3807    2.5311 H   0  0  0  0  0  0  0  0  0  0  0  0
   -0.9172    2.0802    4.7339 H   0  0  0  0  0  0  0  0  0  0  0  0
   -1.3745    3.5064    3.7918 H   0  0  0  0  0  0  0  0  0  0  0  0
    1.1403    3.8813    4.8262 H   0  0  0  0  0  0  0  0  0  0  0  0
   -0.2379    4.6981    5.1422 H   0  0  0  0  0  0  0  0  0  0  0  0
    0.2422    0.1194   -2.4565 N   0  0  0  0  0  0  0  0  0  0  0  0
    0.9255   -0.0457   -3.7193 C   0  0  2  0  0  0  0  0  0  0  0  0
    0.3118    0.9277   -4.7170 C   0  0  0  0  0  0  0  0  0  0  0  0
   -0.8786    1.2342   -4.7096 O   0  0  0  0  0  0  0  0  0  0  0  0
    0.8210   -1.4772   -4.2219 C   0  0  0  0  0  0  0  0  0  0  0  0
   -0.7419    0.3689   -2.4866 H   0  0  0  0  0  0  0  0  0  0  0  0
    1.9747    0.2189   -3.5481 H   0  0  0  0  0  0  0  0  0  0  0  0
   -0.2229   -1.7604   -4.3991 H   0  0  0  0  0  0  0  0  0  0  0  0
    1.3633   -1.6074   -5.1643 H   0  0  0  0  0  0  0  0  0  0  0  0
    1.2360   -2.1785   -3.4900 H   0  0  0  0  0  0  0  0  0  0  0  0
    1.2408    1.3806   -5.6433 N   0  0  0  0  0  0  0  0  0  0  0  0
    0.8945    2.2800   -6.7189 C   0  0  0  0  0  0  0  0  0  0  0  0
    2.2143    1.1061   -5.5498 H   0  0  0  0  0  0  0  0  0  0  0  0
    0.6377    1.6978   -7.6162 H   0  0  0  0  0  0  0  0  0  0  0  0
    0.0314    2.8932   -6.4204 H   0  0  0  0  0  0  0  0  0  0  0  0
    1.7507    2.9346   -6.9393 H   0  0  0  0  0  0  0  0  0  0  0  0
  1  3  1  0  0  0  0
  1  7  1  0  0  0  0
  1  2  2  0  0  0  0
 39 40  1  0  0  0  0
 40 48  1  0  0  0  0
 40 41  2  0  0  0  0
  8  9  1  0  0  0  0
  9 17  1  0  0  0  0
  9 10  2  0  0  0  0
 18 19  1  0  0  0  0
 19 38  1  0  0  0  0
 19 20  2  0  0  0  0
 39 42  1  0  0  0  0
  8 11  1  0  0  0  0
 48 49  1  0  0  0  0
 22 23  1  0  0  0  0
 21 22  1  0  0  0  0
 23 24  1  0  0  0  0
 18 21  1  0  0  0  0
 24 25  1  0  0  0  0
 38 39  1  0  0  0  0
  7  8  1  0  0  0  0
 17 18  1  0  0  0  0
  3  4  1  0  0  0  0
  3  5  1  0  0  0  0
  3  6  1  0  0  0  0
 42 45  1  0  0  0  0
 42 46  1  0  0  0  0
 42 47  1  0  0  0  0
 11 14  1  0  0  0  0
 11 15  1  0  0  0  0
 11 16  1  0  0  0  0
 49 51  1  0  0  0  0
 49 52  1  0  0  0  0
 49 53  1  0  0  0  0
 22 30  1  0  0  0  0
 22 31  1  0  0  0  0
 23 32  1  0  0  0  0
 23 33  1  0  0  0  0
 21 28  1  0  0  0  0
 21 29  1  0  0  0  0
 24 34  1  0  0  0  0
 24 35  1  0  0  0  0
 39 44  1  0  0  0  0
  8 13  1  0  0  0  0
 18 27  1  0  0  0  0
 25 36  1  0  0  0  0
 25 37  1  0  0  0  0
 48 50  1  0  0  0  0
  7 12  1  0  0  0  0
 38 43  1  0  0  0  0
 17 26  1  0  0  0  0
M  END
$$$$

  -OEChem-05262214473D

 53 52  0     1  0  0  0  0  0999 V2000
   -1.0338   -5.6785    0.1476 C   0  0  0  0  0  0  0  0  0  0  0  0
   -2.0514   -5.7797    0.8227 O   0  0  0  0  0  0  0  0  0  0  0  0
   -0.6558   -6.7819   -0.7841 C   0  0  0  0  0  0  0  0  0  0  0  0
   -0.0111   -7.5354   -0.3038 H   0  0  0  0  0  0  0  0  0  0  0  0
   -1.5317   -7.3401   -1.1520 H   0  0  0  0  0  0  0  0  0  0  0  0
   -0.1109   -6.4687   -1.6890 H   0  0  0  0  0  0  0  0  0  0  0  0
   -0.1543   -4.6083    0.1480 N   0  0  0  0  0  0  0  0  0  0  0  0
   -0.3302   -3.4398    0.9696 C   0  0  2  0  0  0  0  0  0  0  0  0
    0.2328   -2.2439    0.2131 C   0  0  0  0  0  0  0  0  0  0  0  0
    1.2097   -2.3192   -0.5294 O   0  0  0  0  0  0  0  0  0  0  0  0
    0.3557   -3.6024    2.3171 C   0  0  0  0  0  0  0  0  0  0  0  0
    0.6584   -4.6506   -0.4643 H   0  0  0  0  0  0  0  0  0  0  0  0
   -1.4091   -3.3101    1.1082 H   0  0  0  0  0  0  0  0  0  0  0  0
    1.4375   -3.7336    2.1985 H   0  0  0  0  0  0  0  0  0  0  0  0
    0.1969   -2.7243    2.9517 H   0  0  0  0  0  0  0  0  0  0  0  0
   -0.0294   -4.4803    2.8470 H   0  0  0  0  0  0  0  0  0  0  0  0
   -0.4616   -1.0893    0.5050 N   0  0  0  0  0  0  0  0  0  0  0  0
   -0.0884    0.2050   -0.0621 C   0  0  2  0  0  0  0  0  0  0  0  0
    0.8618   -0.0574   -1.2271 C   0  0  0  0  0  0  0  0  0  0  0  0
    1.9466   -0.6202   -1.0932 O   0  0  0  0  0  0  0  0  0  0  0  0
    0.6027    1.1132    0.9660 C   0  0  0  0  0  0  0  0  0  0  0  0
   -0.3304    1.5828    2.0868 C   0  0  0  0  0  0  0  0  0  0  0  0
    0.4013    2.5028    3.0679 C   0  0  0  0  0  0  0  0  0  0  0  0
   -0.5229    2.9510    4.1988 C   0  0  0  0  0  0  0  0  0  0  0  0
    0.1989    3.8061    5.1337 N   0  0  0  0  0  0  0  0  0  0  0  0
   -1.2794   -1.1113    1.0935 H   0  0  0  0  0  0  0  0  0  0  0  0
   -0.9940    0.6934   -0.4415 H   0  0  0  0  0  0  0  0  0  0  0  0
    1.0090    1.9940    0.4516 H   0  0  0  0  0  0  0  0  0  0  0  0
    1.4675    0.5944    1.4014 H   0  0  0  0  0  0  0  0  0  0  0  0
   -0.7278    0.7205    2.6339 H   0  0  0  0  0  0  0  0  0  0  0  0
   -1.1849    2.1160    1.6530 H   0  0  0  0  0  0  0  0  0  0  0  0
    1.2696    1.9757    3.4831 H   0  0  0  0  0  0  0  0  0  0  0  0
    0.7828    3.3807    2.5311 H   0  0  0  0  0  0  0  0  0  0  0  0
   -0.9172    2.0802    4.7339 H   0  0  0  0  0  0  0  0  0  0  0  0
   -1.3745    3.5064    3.7918 H   0  0  0  0  0  0  0  0  0  0  0  0
    1.1403    3.8813    4.8262 H   0  0  0  0  0  0  0  0  0  0  0  0
   -0.2379    4.6981    5.1422 H   0  0  0  0  0  0  0  0  0  0  0  0
    0.3641    0.4309   -2.4273 N   0  0  0  0  0  0  0  0  0  0  0  0
    1.0778    0.3315   -3.6801 C   0  0  2  0  0  0  0  0  0  0  0  0
    0.7262    1.5526   -4.5198 C   0  0  0  0  0  0  0  0  0  0  0  0
   -0.3803    2.0874   -4.4954 O   0  0  0  0  0  0  0  0  0  0  0  0
    0.7284   -0.9528   -4.4156 C   0  0  0  0  0  0  0  0  0  0  0  0
   -0.5493    0.8748   -2.4435 H   0  0  0  0  0  0  0  0  0  0  0  0
    2.1460    0.3495   -3.4379 H   0  0  0  0  0  0  0  0  0  0  0  0
   -0.3380   -0.9888   -4.6668 H   0  0  0  0  0  0  0  0  0  0  0  0
    1.2913   -1.0402   -5.3508 H   0  0  0  0  0  0  0  0  0  0  0  0
    0.9542   -1.8292   -3.7985 H   0  0  0  0  0  0  0  0  0  0  0  0
    1.7799    1.9486   -5.3316 N   0  0  0  0  0  0  0  0  0  0  0  0
    1.6806    3.0566   -6.2528 C   0  0  0  0  0  0  0  0  0  0  0  0
    2.6741    1.4727   -5.2573 H   0  0  0  0  0  0  0  0  0  0  0  0
    1.3707    2.6859   -7.2410 H   0  0  0  0  0  0  0  0  0  0  0  0
    0.9363    3.7764   -5.8814 H   0  0  0  0  0  0  0  0  0  0  0  0
    2.6591    3.5518   -6.3374 H   0  0  0  0  0  0  0  0  0  0  0  0
  1  3  1  0  0  0  0
  1  7  1  0  0  0  0
  1  2  2  0  0  0  0
 39 40  1  0  0  0  0
 40 48  1  0  0  0  0
 40 41  2  0  0  0  0
  8  9  1  0  0  0  0
  9 17  1  0  0  0  0
  9 10  2  0  0  0  0
 18 19  1  0  0  0  0
 19 38  1  0  0  0  0
 19 20  2  0  0  0  0
 39 42  1  0  0  0  0
  8 11  1  0  0  0  0
 48 49  1  0  0  0  0
 22 23  1  0  0  0  0
 21 22  1  0  0  0  0
 23 24  1  0  0  0  0
 18 21  1  0  0  0  0
 24 25  1  0  0  0  0
 38 39  1  0  0  0  0
  7  8  1  0  0  0  0
 17 18  1  0  0  0  0
  3  4  1  0  0  0  0
  3  5  1  0  0  0  0
  3  6  1  0  0  0  0
 42 45  1  0  0  0  0
 42 46  1  0  0  0  0
 42 47  1  0  0  0  0
 11 14  1  0  0  0  0
 11 15  1  0  0  0  0
 11 16  1  0  0  0  0
 49 51  1  0  0  0  0
 49 52  1  0  0  0  0
 49 53  1  0  0  0  0
 22 30  1  0  0  0  0
 22 31  1  0  0  0  0
 23 32  1  0  0  0  0
 23 33  1  0  0  0  0
 21 28  1  0  0  0  0
 21 29  1  0  0  0  0
 24 34  1  0  0  0  0
 24 35  1  0  0  0  0
 39 44  1  0  0  0  0
  8 13  1  0  0  0  0
 18 27  1  0  0  0  0
 25 36  1  0  0  0  0
 25 37  1  0  0  0  0
 48 50  1  0  0  0  0
  7 12  1  0  0  0  0
 38 43  1  0  0  0  0
 17 26  1  0  0  0  0
M  END
$$$$

  -OEChem-05262214473D

 53 52  0     1  0  0  0  0  0999 V2000
   -1.0338   -5.6785    0.1476 C   0  0  0  0  0  0  0  0  0  0  0  0
   -2.0514   -5.7797    0.8227 O   0  0  0  0  0  0  0  0  0  0  0  0
   -0.6558   -6.7819   -0.7841 C   0  0  0  0  0  0  0  0  0  0  0  0
   -0.0111   -7.5354   -0.3038 H   0  0  0  0  0  0  0  0  0  0  0  0
   -1.5317   -7.3401   -1.1520 H   0  0  0  0  0  0  0  0  0  0  0  0
   -0.1109   -6.4687   -1.6890 H   0  0  0  0  0  0  0  0  0  0  0  0
   -0.1543   -4.6083    0.1480 N   0  0  0  0  0  0  0  0  0  0  0  0
   -0.3302   -3.4398    0.9696 C   0  0  2  0  0  0  0  0  0  0  0  0
    0.2328   -2.2439    0.2131 C   0  0  0  0  0  0  0  0  0  0  0  0
    1.2097   -2.3192   -0.5294 O   0  0  0  0  0  0  0  0  0  0  0  0
    0.3557   -3.6024    2.3171 C   0  0  0  0  0  0  0  0  0  0  0  0
    0.6584   -4.6506   -0.4643 H   0  0  0  0  0  0  0  0  0  0  0  0
   -1.4091   -3.3101    1.1082 H   0  0  0  0  0  0  0  0  0  0  0  0
    1.4375   -3.7336    2.1985 H   0  0  0  0  0  0  0  0  0  0  0  0
    0.1969   -2.7243    2.9517 H   0  0  0  0  0  0  0  0  0  0  0  0
   -0.0294   -4.4803    2.8470 H   0  0  0  0  0  0  0  0  0  0  0  0
   -0.4616   -1.0893    0.5050 N   0  0  0  0  0  0  0  0  0  0  0  0
   -0.0884    0.2050   -0.0621 C   0  0  2  0  0  0  0  0  0  0  0  0
    0.8618   -0.0574   -1.2271 C   0  0  0  0  0  0  0  0  0  0  0  0
    1.8067   -0.8409   -1.1576 O   0  0  0  0  0  0  0  0  0  0  0  0
    0.6027    1.1132    0.9660 C   0  0  0  0  0  0  0  0  0  0  0  0
   -0.3304    1.5828    2.0868 C   0  0  0  0  0  0  0  0  0  0  0  0
    0.4013    2.5028    3.0679 C   0  0  0  0  0  0  0  0  0  0  0  0
   -0.5229    2.9510    4.1988 C   0  0  0  0  0  0  0  0  0  0  0  0
    0.1989    3.8061    5.1337 N   0  0  0  0  0  0  0  0  0  0  0  0
   -1.2794   -1.1113    1.0935 H   0  0  0  0  0  0  0  0  0  0  0  0
   -0.9940    0.6934   -0.4415 H   0  0  0  0  0  0  0  0  0  0  0  0
    1.0090    1.9940    0.4516 H   0  0  0  0  0  0  0  0  0  0  0  0
    1.4675    0.5944    1.4014 H   0  0  0  0  0  0  0  0  0  0  0  0
   -0.7278    0.7205    2.6339 H   0  0  0  0  0  0  0  0  0  0  0  0
   -1.1849    2.1160    1.6530 H   0  0  0  0  0  0  0  0  0  0  0  0
    1.2696    1.9757    3.4831 H   0  0  0  0  0  0  0  0  0  0  0  0
    0.7828    3.3807    2.5311 H   0  0  0  0  0  0  0  0  0  0  0  0
   -0.9172    2.0802    4.7339 H   0  0  0  0  0  0  0  0  0  0  0  0
   -1.3745    3.5064    3.7918 H   0  0  0  0  0  0  0  0  0  0  0  0
    1.1403    3.8813    4.8262 H   0  0  0  0  0  0  0  0  0  0  0  0
   -0.2379    4.6981    5.1422 H   0  0  0  0  0  0  0  0  0  0  0  0
    0.5420    0.7029   -2.3435 N   0  0  0  0  0  0  0  0  0  0  0  0
    1.2976    0.6596   -3.5747 C   0  0  2  0  0  0  0  0  0  0  0  0
    1.2412    2.0425   -4.2101 C   0  0  0  0  0  0  0  0  0  0  0  0
    0.2599    2.7785   -4.1289 O   0  0  0  0  0  0  0  0  0  0  0  0
    0.7511   -0.3968   -4.5224 C   0  0  0  0  0  0  0  0  0  0  0  0
   -0.2652    1.3185   -2.3118 H   0  0  0  0  0  0  0  0  0  0  0  0
    2.3323    0.4240   -3.3027 H   0  0  0  0  0  0  0  0  0  0  0  0
   -0.2847   -0.1777   -4.8061 H   0  0  0  0  0  0  0  0  0  0  0  0
    1.3421   -0.4481   -5.4428 H   0  0  0  0  0  0  0  0  0  0  0  0
    0.7648   -1.3863   -4.0528 H   0  0  0  0  0  0  0  0  0  0  0  0
    2.3989    2.3406   -4.9150 N   0  0  0  0  0  0  0  0  0  0  0  0
    2.5725    3.5763   -5.6424 C   0  0  0  0  0  0  0  0  0  0  0  0
    3.1778    1.6889   -4.8953 H   0  0  0  0  0  0  0  0  0  0  0  0
    2.2572    3.4350   -6.6867 H   0  0  0  0  0  0  0  0  0  0  0  0
    1.9608    4.3639   -5.1782 H   0  0  0  0  0  0  0  0  0  0  0  0
    3.6318    3.8714   -5.6161 H   0  0  0  0  0  0  0  0  0  0  0  0
  1  3  1  0  0  0  0
  1  7  1  0  0  0  0
  1  2  2  0  0  0  0
 39 40  1  0  0  0  0
 40 48  1  0  0  0  0
 40 41  2  0  0  0  0
  8  9  1  0  0  0  0
  9 17  1  0  0  0  0
  9 10  2  0  0  0  0
 18 19  1  0  0  0  0
 19 38  1  0  0  0  0
 19 20  2  0  0  0  0
 39 42  1  0  0  0  0
  8 11  1  0  0  0  0
 48 49  1  0  0  0  0
 22 23  1  0  0  0  0
 21 22  1  0  0  0  0
 23 24  1  0  0  0  0
 18 21  1  0  0  0  0
 24 25  1  0  0  0  0
 38 39  1  0  0  0  0
  7  8  1  0  0  0  0
 17 18  1  0  0  0  0
  3  4  1  0  0  0  0
  3  5  1  0  0  0  0
  3  6  1  0  0  0  0
 42 45  1  0  0  0  0
 42 46  1  0  0  0  0
 42 47  1  0  0  0  0
 11 14  1  0  0  0  0
 11 15  1  0  0  0  0
 11 16  1  0  0  0  0
 49 51  1  0  0  0  0
 49 52  1  0  0  0  0
 49 53  1  0  0  0  0
 22 30  1  0  0  0  0
 22 31  1  0  0  0  0
 23 32  1  0  0  0  0
 23 33  1  0  0  0  0
 21 28  1  0  0  0  0
 21 29  1  0  0  0  0
 24 34  1  0  0  0  0
 24 35  1  0  0  0  0
 39 44  1  0  0  0  0
  8 13  1  0  0  0  0
 18 27  1  0  0  0  0
 25 36  1  0  0  0  0
 25 37  1  0  0  0  0
 48 50  1  0  0  0  0
  7 12  1  0  0  0  0
 38 43  1  0  0  0  0
 17 26  1  0  0  0  0
M  END
$$$$

  -OEChem-05262214473D

 53 52  0     1  0  0  0  0  0999 V2000
   -1.0338   -5.6785    0.1476 C   0  0  0  0  0  0  0  0  0  0  0  0
   -2.0514   -5.7797    0.8227 O   0  0  0  0  0  0  0  0  0  0  0  0
   -0.6558   -6.7819   -0.7841 C   0  0  0  0  0  0  0  0  0  0  0  0
   -0.0111   -7.5354   -0.3038 H   0  0  0  0  0  0  0  0  0  0  0  0
   -1.5317   -7.3401   -1.1520 H   0  0  0  0  0  0  0  0  0  0  0  0
   -0.1109   -6.4687   -1.6890 H   0  0  0  0  0  0  0  0  0  0  0  0
   -0.1543   -4.6083    0.1480 N   0  0  0  0  0  0  0  0  0  0  0  0
   -0.3302   -3.4398    0.9696 C   0  0  2  0  0  0  0  0  0  0  0  0
    0.2328   -2.2439    0.2131 C   0  0  0  0  0  0  0  0  0  0  0  0
    1.2097   -2.3192   -0.5294 O   0  0  0  0  0  0  0  0  0  0  0  0
    0.3557   -3.6024    2.3171 C   0  0  0  0  0  0  0  0  0  0  0  0
    0.6584   -4.6506   -0.4643 H   0  0  0  0  0  0  0  0  0  0  0  0
   -1.4091   -3.3101    1.1082 H   0  0  0  0  0  0  0  0  0  0  0  0
    1.4375   -3.7336    2.1985 H   0  0  0  0  0  0  0  0  0  0  0  0
    0.1969   -2.7243    2.9517 H   0  0  0  0  0  0  0  0  0  0  0  0
   -0.0294   -4.4803    2.8470 H   0  0  0  0  0  0  0  0  0  0  0  0
   -0.4616   -1.0893    0.5050 N   0  0  0  0  0  0  0  0  0  0  0  0
   -0.0884    0.2050   -0.0621 C   0  0  2  0  0  0  0  0  0  0  0  0
    0.8618   -0.0574   -1.2271 C   0  0  0  0  0  0  0  0  0  0  0  0
    1.6308   -1.0160   -1.2616 O   0  0  0  0  0  0  0  0  0  0  0  0
    0.6027    1.1132    0.9660 C   0  0  0  0  0  0  0  0  0  0  0  0
   -0.3304    1.5828    2.0868 C   0  0  0  0  0  0  0  0  0  0  0  0
    0.4013    2.5028    3.0679 C   0  0  0  0  0  0  0  0  0  0  0  0
   -0.5229    2.9510    4.1988 C   0  0  0  0  0  0  0  0  0  0  0  0
    0.1989    3.8061    5.1337 N   0  0  0  0  0  0  0  0  0  0  0  0
   -1.2794   -1.1113    1.0935 H   0  0  0  0  0  0  0  0  0  0  0  0
   -0.9940    0.6934   -0.4415 H   0  0  0  0  0  0  0  0  0  0  0  0
    1.0090    1.9940    0.4516 H   0  0  0  0  0  0  0  0  0  0  0  0
    1.4675    0.5944    1.4014 H   0  0  0  0  0  0  0  0  0  0  0  0
   -0.7278    0.7205    2.6339 H   0  0  0  0  0  0  0  0  0  0  0  0
   -1.1849    2.1160    1.6530 H   0  0  0  0  0  0  0  0  0  0  0  0
    1.2696    1.9757    3.4831 H   0  0  0  0  0  0  0  0  0  0  0  0
    0.7828    3.3807    2.5311 H   0  0  0  0  0  0  0  0  0  0  0  0
   -0.9172    2.0802    4.7339 H   0  0  0  0  0  0  0  0  0  0  0  0
   -1.3745    3.5064    3.7918 H   0  0  0  0  0  0  0  0  0  0  0  0
    1.1403    3.8813    4.8262 H   0  0  0  0  0  0  0  0  0  0  0  0
   -0.2379    4.6981    5.1422 H   0  0  0  0  0  0  0  0  0  0  0  0
    0.7639    0.9171   -2.2107 N   0  0  0  0  0  0  0  0  0  0  0  0
    1.5701    0.9160   -3.4102 C   0  0  2  0  0  0  0  0  0  0  0  0
    1.8216    2.3641   -3.8092 C   0  0  0  0  0  0  0  0  0  0  0  0
    0.9986    3.2604   -3.6350 O   0  0  0  0  0  0  0  0  0  0  0  0
    0.8877    0.1530   -4.5349 C   0  0  0  0  0  0  0  0  0  0  0  0
    0.0910    1.6698   -2.1004 H   0  0  0  0  0  0  0  0  0  0  0  0
    2.5210    0.4373   -3.1518 H   0  0  0  0  0  0  0  0  0  0  0  0
   -0.0668    0.6178   -4.8076 H   0  0  0  0  0  0  0  0  0  0  0  0
    1.5123    0.1287   -5.4340 H   0  0  0  0  0  0  0  0  0  0  0  0
    0.6807   -0.8801   -4.2354 H   0  0  0  0  0  0  0  0  0  0  0  0
    3.0558    2.5298   -4.4219 N   0  0  0  0  0  0  0  0  0  0  0  0
    3.5095    3.8036   -4.9293 C   0  0  0  0  0  0  0  0  0  0  0  0
    3.6908    1.7398   -4.4883 H   0  0  0  0  0  0  0  0  0  0  0  0
    3.2368    3.8941   -5.9911 H   0  0  0  0  0  0  0  0  0  0  0  0
    3.0351    4.6156   -4.3586 H   0  0  0  0  0  0  0  0  0  0  0  0
    4.6024    3.8717   -4.8245 H   0  0  0  0  0  0  0  0  0  0  0  0
  1  3  1  0  0  0  0
  1  7  1  0  0  0  0
  1  2  2  0  0  0  0
 39 40  1  0  0  0  0
 40 48  1  0  0  0  0
 40 41  2  0  0  0  0
  8  9  1  0  0  0  0
  9 17  1  0  0  0  0
  9 10  2  0  0  0  0
 18 19  1  0  0  0  0
 19 38  1  0  0  0  0
 19 20  2  0  0  0  0
 39 42  1  0  0  0  0
  8 11  1  0  0  0  0
 48 49  1  0  0  0  0
 22 23  1  0  0  0  0
 21 22  1  0  0  0  0
 23 24  1  0  0  0  0
 18 21  1  0  0  0  0
 24 25  1  0  0  0  0
 38 39  1  0  0  0  0
  7  8  1  0  0  0  0
 17 18  1  0  0  0  0
  3  4  1  0  0  0  0
  3  5  1  0  0  0  0
  3  6  1  0  0  0  0
 42 45  1  0  0  0  0
 42 46  1  0  0  0  0
 42 47  1  0  0  0  0
 11 14  1  0  0  0  0
 11 15  1  0  0  0  0
 11 16  1  0  0  0  0
 49 51  1  0  0  0  0
 49 52  1  0  0  0  0
 49 53  1  0  0  0  0
 22 30  1  0  0  0  0
 22 31  1  0  0  0  0
 23 32  1  0  0  0  0
 23 33  1  0  0  0  0
 21 28  1  0  0  0  0
 21 29  1  0  0  0  0
 24 34  1  0  0  0  0
 24 35  1  0  0  0  0
 39 44  1  0  0  0  0
  8 13  1  0  0  0  0
 18 27  1  0  0  0  0
 25 36  1  0  0  0  0
 25 37  1  0  0  0  0
 48 50  1  0  0  0  0
  7 12  1  0  0  0  0
 38 43  1  0  0  0  0
 17 26  1  0  0  0  0
M  END
$$$$

  -OEChem-05262214473D

 53 52  0     1  0  0  0  0  0999 V2000
   -1.0338   -5.6785    0.1476 C   0  0  0  0  0  0  0  0  0  0  0  0
   -2.0514   -5.7797    0.8227 O   0  0  0  0  0  0  0  0  0  0  0  0
   -0.6558   -6.7819   -0.7841 C   0  0  0  0  0  0  0  0  0  0  0  0
   -0.0111   -7.5354   -0.3038 H   0  0  0  0  0  0  0  0  0  0  0  0
   -1.5317   -7.3401   -1.1520 H   0  0  0  0  0  0  0  0  0  0  0  0
   -0.1109   -6.4687   -1.6890 H   0  0  0  0  0  0  0  0  0  0  0  0
   -0.1543   -4.6083    0.1480 N   0  0  0  0  0  0  0  0  0  0  0  0
   -0.3302   -3.4398    0.9696 C   0  0  2  0  0  0  0  0  0  0  0  0
    0.2328   -2.2439    0.2131 C   0  0  0  0  0  0  0  0  0  0  0  0
    1.2097   -2.3192   -0.5294 O   0  0  0  0  0  0  0  0  0  0  0  0
    0.3557   -3.6024    2.3171 C   0  0  0  0  0  0  0  0  0  0  0  0
    0.6584   -4.6506   -0.4643 H   0  0  0  0  0  0  0  0  0  0  0  0
   -1.4091   -3.3101    1.1082 H   0  0  0  0  0  0  0  0  0  0  0  0
    1.4375   -3.7336    2.1985 H   0  0  0  0  0  0  0  0  0  0  0  0
    0.1969   -2.7243    2.9517 H   0  0  0  0  0  0  0  0  0  0  0  0
   -0.0294   -4.4803    2.8470 H   0  0  0  0  0  0  0  0  0  0  0  0
   -0.4616   -1.0893    0.5050 N   0  0  0  0  0  0  0  0  0  0  0  0
   -0.0884    0.2050   -0.0621 C   0  0  2  0  0  0  0  0  0  0  0  0
    0.8618   -0.0574   -1.2271 C   0  0  0  0  0  0  0  0  0  0  0  0
    1.4310   -1.1336   -1.3981 O   0  0  0  0  0  0  0  0  0  0  0  0
    0.6027    1.1132    0.9660 C   0  0  0  0  0  0  0  0  0  0  0  0
   -0.3304    1.5828    2.0868 C   0  0  0  0  0  0  0  0  0  0  0  0
    0.4013    2.5028    3.0679 C   0  0  0  0  0  0  0  0  0  0  0  0
   -0.5229    2.9510    4.1988 C   0  0  0  0  0  0  0  0  0  0  0  0
    0.1989    3.8061    5.1337 N   0  0  0  0  0  0  0  0  0  0  0  0
   -1.2794   -1.1113    1.0935 H   0  0  0  0  0  0  0  0  0  0  0  0
   -0.9940    0.6934   -0.4415 H   0  0  0  0  0  0  0  0  0  0  0  0
    1.0090    1.9940    0.4516 H   0  0  0  0  0  0  0  0  0  0  0  0
    1.4675    0.5944    1.4014 H   0  0  0  0  0  0  0  0  0  0  0  0
   -0.7278    0.7205    2.6339 H   0  0  0  0  0  0  0  0  0  0  0  0
   -1.1849    2.1160    1.6530 H   0  0  0  0  0  0  0  0  0  0  0  0
    1.2696    1.9757    3.4831 H   0  0  0  0  0  0  0  0  0  0  0  0
    0.7828    3.3807    2.5311 H   0  0  0  0  0  0  0  0  0  0  0  0
   -0.9172    2.0802    4.7339 H   0  0  0  0  0  0  0  0  0  0  0  0
   -1.3745    3.5064    3.7918 H   0  0  0  0  0  0  0  0  0  0  0  0
    1.1403    3.8813    4.8262 H   0  0  0  0  0  0  0  0  0  0  0  0
   -0.2379    4.6981    5.1422 H   0  0  0  0  0  0  0  0  0  0  0  0
    1.0147    1.0586   -2.0381 N   0  0  0  0  0  0  0  0  0  0  0  0
    1.8766    1.0833   -3.1979 C   0  0  2  0  0  0  0  0  0  0  0  0
    2.4279    2.4954   -3.3442 C   0  0  0  0  0  0  0  0  0  0  0  0
    1.7854    3.5005   -3.0474 O   0  0  0  0  0  0  0  0  0  0  0  0
    1.1287    0.6591   -4.4523 C   0  0  0  0  0  0  0  0  0  0  0  0
    0.4951    1.9046   -1.8237 H   0  0  0  0  0  0  0  0  0  0  0  0
    2.6992    0.3887   -2.9955 H   0  0  0  0  0  0  0  0  0  0  0  0
    0.3009    1.3433   -4.6712 H   0  0  0  0  0  0  0  0  0  0  0  0
    1.7902    0.6508   -5.3249 H   0  0  0  0  0  0  0  0  0  0  0  0
    0.7076   -0.3451   -4.3340 H   0  0  0  0  0  0  0  0  0  0  0  0
    3.7057    2.5033   -3.8858 N   0  0  0  0  0  0  0  0  0  0  0  0
    4.4278    3.7232   -4.1622 C   0  0  0  0  0  0  0  0  0  0  0  0
    4.1783    1.6221   -4.0642 H   0  0  0  0  0  0  0  0  0  0  0  0
    4.2428    4.0319   -5.2017 H   0  0  0  0  0  0  0  0  0  0  0  0
    4.0861    4.5144   -3.4786 H   0  0  0  0  0  0  0  0  0  0  0  0
    5.5047    3.5527   -4.0167 H   0  0  0  0  0  0  0  0  0  0  0  0
  1  3  1  0  0  0  0
  1  7  1  0  0  0  0
  1  2  2  0  0  0  0
 39 40  1  0  0  0  0
 40 48  1  0  0  0  0
 40 41  2  0  0  0  0
  8  9  1  0  0  0  0
  9 17  1  0  0  0  0
  9 10  2  0  0  0  0
 18 19  1  0  0  0  0
 19 38  1  0  0  0  0
 19 20  2  0  0  0  0
 39 42  1  0  0  0  0
  8 11  1  0  0  0  0
 48 49  1  0  0  0  0
 22 23  1  0  0  0  0
 21 22  1  0  0  0  0
 23 24  1  0  0  0  0
 18 21  1  0  0  0  0
 24 25  1  0  0  0  0
 38 39  1  0  0  0  0
  7  8  1  0  0  0  0
 17 18  1  0  0  0  0
  3  4  1  0  0  0  0
  3  5  1  0  0  0  0
  3  6  1  0  0  0  0
 42 45  1  0  0  0  0
 42 46  1  0  0  0  0
 42 47  1  0  0  0  0
 11 14  1  0  0  0  0
 11 15  1  0  0  0  0
 11 16  1  0  0  0  0
 49 51  1  0  0  0  0
 49 52  1  0  0  0  0
 49 53  1  0  0  0  0
 22 30  1  0  0  0  0
 22 31  1  0  0  0  0
 23 32  1  0  0  0  0
 23 33  1  0  0  0  0
 21 28  1  0  0  0  0
 21 29  1  0  0  0  0
 24 34  1  0  0  0  0
 24 35  1  0  0  0  0
 39 44  1  0  0  0  0
  8 13  1  0  0  0  0
 18 27  1  0  0  0  0
 25 36  1  0  0  0  0
 25 37  1  0  0  0  0
 48 50  1  0  0  0  0
  7 12  1  0  0  0  0
 38 43  1  0  0  0  0
 17 26  1  0  0  0  0
M  END
$$$$

  -OEChem-05262214473D

 53 52  0     1  0  0  0  0  0999 V2000
   -1.0338   -5.6785    0.1476 C   0  0  0  0  0  0  0  0  0  0  0  0
   -2.0514   -5.7797    0.8227 O   0  0  0  0  0  0  0  0  0  0  0  0
   -0.6558   -6.7819   -0.7841 C   0  0  0  0  0  0  0  0  0  0  0  0
   -0.0111   -7.5354   -0.3038 H   0  0  0  0  0  0  0  0  0  0  0  0
   -1.5317   -7.3401   -1.1520 H   0  0  0  0  0  0  0  0  0  0  0  0
   -0.1109   -6.4687   -1.6890 H   0  0  0  0  0  0  0  0  0  0  0  0
   -0.1543   -4.6083    0.1480 N   0  0  0  0  0  0  0  0  0  0  0  0
   -0.3302   -3.4398    0.9696 C   0  0  2  0  0  0  0  0  0  0  0  0
    0.2328   -2.2439    0.2131 C   0  0  0  0  0  0  0  0  0  0  0  0
    1.2097   -2.3192   -0.5294 O   0  0  0  0  0  0  0  0  0  0  0  0
    0.3557   -3.6024    2.3171 C   0  0  0  0  0  0  0  0  0  0  0  0
    0.6584   -4.6506   -0.4643 H   0  0  0  0  0  0  0  0  0  0  0  0
   -1.4091   -3.3101    1.1082 H   0  0  0  0  0  0  0  0  0  0  0  0
    1.4375   -3.7336    2.1985 H   0  0  0  0  0  0  0  0  0  0  0  0
    0.1969   -2.7243    2.9517 H   0  0  0  0  0  0  0  0  0  0  0  0
   -0.0294   -4.4803    2.8470 H   0  0  0  0  0  0  0  0  0  0  0  0
   -0.4616   -1.0893    0.5050 N   0  0  0  0  0  0  0  0  0  0  0  0
   -0.0884    0.2050   -0.0621 C   0  0  2  0  0  0  0  0  0  0  0  0
    0.5401   -0.0530   -1.4286 C   0  0  0  0  0  0  0  0  0  0  0  0
    0.6909   -1.1806   -1.8946 O   0  0  0  0  0  0  0  0  0  0  0  0
    0.9111    0.9625    0.8249 C   0  0  0  0  0  0  0  0  0  0  0  0
    0.3115    1.4280    2.1559 C   0  0  0  0  0  0  0  0  0  0  0  0
    1.3410    2.1970    2.9884 C   0  0  0  0  0  0  0  0  0  0  0  0
    0.7501    2.6396    4.3259 C   0  0  0  0  0  0  0  0  0  0  0  0
    1.7524    3.3487    5.1123 N   0  0  0  0  0  0  0  0  0  0  0  0
   -1.2794   -1.1113    1.0935 H   0  0  0  0  0  0  0  0  0  0  0  0
   -0.9980    0.8033   -0.1933 H   0  0  0  0  0  0  0  0  0  0  0  0
    1.2835    1.8391    0.2788 H   0  0  0  0  0  0  0  0  0  0  0  0
    1.7906    0.3334    1.0184 H   0  0  0  0  0  0  0  0  0  0  0  0
   -0.0429    0.5663    2.7327 H   0  0  0  0  0  0  0  0  0  0  0  0
   -0.5560    2.0702    1.9623 H   0  0  0  0  0  0  0  0  0  0  0  0
    2.2184    1.5609    3.1609 H   0  0  0  0  0  0  0  0  0  0  0  0
    1.6840    3.0748    2.4262 H   0  0  0  0  0  0  0  0  0  0  0  0
    0.3951    1.7701    4.8898 H   0  0  0  0  0  0  0  0  0  0  0  0
   -0.1062    3.3015    4.1589 H   0  0  0  0  0  0  0  0  0  0  0  0
    2.6026    3.3600    4.5989 H   0  0  0  0  0  0  0  0  0  0  0  0
    1.4280    4.2741    5.2706 H   0  0  0  0  0  0  0  0  0  0  0  0
    0.9315    1.1228   -2.0540 N   0  0  0  0  0  0  0  0  0  0  0  0
    1.5731    1.1562   -3.3486 C   0  0  2  0  0  0  0  0  0  0  0  0
    2.5313    2.3398   -3.3682 C   0  0  0  0  0  0  0  0  0  0  0  0
    2.3070    3.3943   -2.7775 O   0  0  0  0  0  0  0  0  0  0  0  0
    0.5515    1.2653   -4.4698 C   0  0  0  0  0  0  0  0  0  0  0  0
    0.7573    2.0122   -1.5955 H   0  0  0  0  0  0  0  0  0  0  0  0
    2.1409    0.2243   -3.4443 H   0  0  0  0  0  0  0  0  0  0  0  0
   -0.0272    2.1928   -4.3906 H   0  0  0  0  0  0  0  0  0  0  0  0
    1.0374    1.2617   -5.4510 H   0  0  0  0  0  0  0  0  0  0  0  0
   -0.1550    0.4289   -4.4360 H   0  0  0  0  0  0  0  0  0  0  0  0
    3.6460    2.0958   -4.1581 N   0  0  0  0  0  0  0  0  0  0  0  0
    4.6810    3.0803   -4.3715 C   0  0  0  0  0  0  0  0  0  0  0  0
    3.7699    1.1792   -4.5780 H   0  0  0  0  0  0  0  0  0  0  0  0
    4.4575    3.6568   -5.2813 H   0  0  0  0  0  0  0  0  0  0  0  0
    4.7236    3.7604   -3.5079 H   0  0  0  0  0  0  0  0  0  0  0  0
    5.6505    2.5737   -4.4874 H   0  0  0  0  0  0  0  0  0  0  0  0
  1  3  1  0  0  0  0
  1  7  1  0  0  0  0
  1  2  2  0  0  0  0
 39 40  1  0  0  0  0
 40 48  1  0  0  0  0
 40 41  2  0  0  0  0
  8  9  1  0  0  0  0
  9 17  1  0  0  0  0
  9 10  2  0  0  0  0
 18 19  1  0  0  0  0
 19 38  1  0  0  0  0
 19 20  2  0  0  0  0
 39 42  1  0  0  0  0
  8 11  1  0  0  0  0
 48 49  1  0  0  0  0
 22 23  1  0  0  0  0
 21 22  1  0  0  0  0
 23 24  1  0  0  0  0
 18 21  1  0  0  0  0
 24 25  1  0  0  0  0
 38 39  1  0  0  0  0
  7  8  1  0  0  0  0
 17 18  1  0  0  0  0
  3  4  1  0  0  0  0
  3  5  1  0  0  0  0
  3  6  1  0  0  0  0
 42 45  1  0  0  0  0
 42 46  1  0  0  0  0
 42 47  1  0  0  0  0
 11 14  1  0  0  0  0
 11 15  1  0  0  0  0
 11 16  1  0  0  0  0
 49 51  1  0  0  0  0
 49 52  1  0  0  0  0
 49 53  1  0  0  0  0
 22 30  1  0  0  0  0
 22 31  1  0  0  0  0
 23 32  1  0  0  0  0
 23 33  1  0  0  0  0
 21 28  1  0  0  0  0
 21 29  1  0  0  0  0
 24 34  1  0  0  0  0
 24 35  1  0  0  0  0
 39 44  1  0  0  0  0
  8 13  1  0  0  0  0
 18 27  1  0  0  0  0
 25 36  1  0  0  0  0
 25 37  1  0  0  0  0
 48 50  1  0  0  0  0
  7 12  1  0  0  0  0
 38 43  1  0  0  0  0
 17 26  1  0  0  0  0
M  END
$$$$

  -OEChem-05262214473D

 53 52  0     1  0  0  0  0  0999 V2000
   -1.0338   -5.6785    0.1476 C   0  0  0  0  0  0  0  0  0  0  0  0
   -2.0514   -5.7797    0.8227 O   0  0  0  0  0  0  0  0  0  0  0  0
   -0.6558   -6.7819   -0.7841 C   0  0  0  0  0  0  0  0  0  0  0  0
   -0.0111   -7.5354   -0.3038 H   0  0  0  0  0  0  0  0  0  0  0  0
   -1.5317   -7.3401   -1.1520 H   0  0  0  0  0  0  0  0  0  0  0  0
   -0.1109   -6.4687   -1.6890 H   0  0  0  0  0  0  0  0  0  0  0  0
   -0.1543   -4.6083    0.1480 N   0  0  0  0  0  0  0  0  0  0  0  0
   -0.3302   -3.4398    0.9696 C   0  0  2  0  0  0  0  0  0  0  0  0
    0.2328   -2.2439    0.2131 C   0  0  0  0  0  0  0  0  0  0  0  0
    1.2097   -2.3192   -0.5294 O   0  0  0  0  0  0  0  0  0  0  0  0
    0.3557   -3.6024    2.3171 C   0  0  0  0  0  0  0  0  0  0  0  0
    0.6584   -4.6506   -0.4643 H   0  0  0  0  0  0  0  0  0  0  0  0
   -1.4091   -3.3101    1.1082 H   0  0  0  0  0  0  0  0  0  0  0  0
    1.4375   -3.7336    2.1985 H   0  0  0  0  0  0  0  0  0  0  0  0
    0.1969   -2.7243    2.9517 H   0  0  0  0  0  0  0  0  0  0  0  0
   -0.0294   -4.4803    2.8470 H   0  0  0  0  0  0  0  0  0  0  0  0
   -0.4616   -1.0893    0.5050 N   0  0  0  0  0  0  0  0  0  0  0  0
   -0.0884    0.2050   -0.0621 C   0  0  2  0  0  0  0  0  0  0  0  0
    0.5401   -0.0530   -1.4286 C   0  0  0  0  0  0  0  0  0  0  0  0
    0.4543   -1.1313   -2.0127 O   0  0  0  0  0  0  0  0  0  0  0  0
    0.9111    0.9625    0.8249 C   0  0  0  0  0  0  0  0  0  0  0  0
    0.3115    1.4280    2.1559 C   0  0  0  0  0  0  0  0  0  0  0  0
    1.3410    2.1970    2.9884 C   0  0  0  0  0  0  0  0  0  0  0  0
    0.7501    2.6396    4.3259 C   0  0  0  0  0  0  0  0  0  0  0  0
    1.7524    3.3487    5.1123 N   0  0  0  0  0  0  0  0  0  0  0  0
   -1.2794   -1.1113    1.0935 H   0  0  0  0  0  0  0  0  0  0  0  0
   -0.9980    0.8033   -0.1933 H   0  0  0  0  0  0  0  0  0  0  0  0
    1.2835    1.8391    0.2788 H   0  0  0  0  0  0  0  0  0  0  0  0
    1.7906    0.3334    1.0184 H   0  0  0  0  0  0  0  0  0  0  0  0
   -0.0429    0.5663    2.7327 H   0  0  0  0  0  0  0  0  0  0  0  0
   -0.5560    2.0702    1.9623 H   0  0  0  0  0  0  0  0  0  0  0  0
    2.2184    1.5609    3.1609 H   0  0  0  0  0  0  0  0  0  0  0  0
    1.6840    3.0748    2.4262 H   0  0  0  0  0  0  0  0  0  0  0  0
    0.3951    1.7701    4.8898 H   0  0  0  0  0  0  0  0  0  0  0  0
   -0.1062    3.3015    4.1589 H   0  0  0  0  0  0  0  0  0  0  0  0
    2.6026    3.3600    4.5989 H   0  0  0  0  0  0  0  0  0  0  0  0
    1.4280    4.2741    5.2706 H   0  0  0  0  0  0  0  0  0  0  0  0
    1.2253    1.0557   -1.9061 N   0  0  0  0  0  0  0  0  0  0  0  0
    1.9294    1.0691   -3.1683 C   0  0  2  0  0  0  0  0  0  0  0  0
    3.1331    1.9911   -3.0256 C   0  0  0  0  0  0  0  0  0  0  0  0
    3.1238    3.0033   -2.3281 O   0  0  0  0  0  0  0  0  0  0  0  0
    1.0248    1.5274   -4.3016 C   0  0  0  0  0  0  0  0  0  0  0  0
    1.2343    1.9099   -1.3568 H   0  0  0  0  0  0  0  0  0  0  0  0
    2.2727    0.0448   -3.3497 H   0  0  0  0  0  0  0  0  0  0  0  0
    0.6709    2.5517   -4.1373 H   0  0  0  0  0  0  0  0  0  0  0  0
    1.5514    1.5097   -5.2615 H   0  0  0  0  0  0  0  0  0  0  0  0
    0.1446    0.8807   -4.3835 H   0  0  0  0  0  0  0  0  0  0  0  0
    4.2048    1.5743   -3.8027 N   0  0  0  0  0  0  0  0  0  0  0  0
    5.4483    2.3055   -3.8723 C   0  0  0  0  0  0  0  0  0  0  0  0
    4.1386    0.7017   -4.3183 H   0  0  0  0  0  0  0  0  0  0  0  0
    5.4147    3.0075   -4.7185 H   0  0  0  0  0  0  0  0  0  0  0  0
    5.5971    2.8655   -2.9373 H   0  0  0  0  0  0  0  0  0  0  0  0
    6.2807    1.6005   -4.0139 H   0  0  0  0  0  0  0  0  0  0  0  0
  1  3  1  0  0  0  0
  1  7  1  0  0  0  0
  1  2  2  0  0  0  0
 39 40  1  0  0  0  0
 40 48  1  0  0  0  0
 40 41  2  0  0  0  0
  8  9  1  0  0  0  0
  9 17  1  0  0  0  0
  9 10  2  0  0  0  0
 18 19  1  0  0  0  0
 19 38  1  0  0  0  0
 19 20  2  0  0  0  0
 39 42  1  0  0  0  0
  8 11  1  0  0  0  0
 48 49  1  0  0  0  0
 22 23  1  0  0  0  0
 21 22  1  0  0  0  0
 23 24  1  0  0  0  0
 18 21  1  0  0  0  0
 24 25  1  0  0  0  0
 38 39  1  0  0  0  0
  7  8  1  0  0  0  0
 17 18  1  0  0  0  0
  3  4  1  0  0  0  0
  3  5  1  0  0  0  0
  3  6  1  0  0  0  0
 42 45  1  0  0  0  0
 42 46  1  0  0  0  0
 42 47  1  0  0  0  0
 11 14  1  0  0  0  0
 11 15  1  0  0  0  0
 11 16  1  0  0  0  0
 49 51  1  0  0  0  0
 49 52  1  0  0  0  0
 49 53  1  0  0  0  0
 22 30  1  0  0  0  0
 22 31  1  0  0  0  0
 23 32  1  0  0  0  0
 23 33  1  0  0  0  0
 21 28  1  0  0  0  0
 21 29  1  0  0  0  0
 24 34  1  0  0  0  0
 24 35  1  0  0  0  0
 39 44  1  0  0  0  0
  8 13  1  0  0  0  0
 18 27  1  0  0  0  0
 25 36  1  0  0  0  0
 25 37  1  0  0  0  0
 48 50  1  0  0  0  0
  7 12  1  0  0  0  0
 38 43  1  0  0  0  0
 17 26  1  0  0  0  0
M  END
$$$$

  -OEChem-05262214473D

 53 52  0     1  0  0  0  0  0999 V2000
   -1.0338   -5.6785    0.1476 C   0  0  0  0  0  0  0  0  0  0  0  0
   -2.0514   -5.7797    0.8227 O   0  0  0  0  0  0  0  0  0  0  0  0
   -0.6558   -6.7819   -0.7841 C   0  0  0  0  0  0  0  0  0  0  0  0
   -0.0111   -7.5354   -0.3038 H   0  0  0  0  0  0  0  0  0  0  0  0
   -1.5317   -7.3401   -1.1520 H   0  0  0  0  0  0  0  0  0  0  0  0
   -0.1109   -6.4687   -1.6890 H   0  0  0  0  0  0  0  0  0  0  0  0
   -0.1543   -4.6083    0.1480 N   0  0  0  0  0  0  0  0  0  0  0  0
   -0.3302   -3.4398    0.9696 C   0  0  2  0  0  0  0  0  0  0  0  0
    0.2328   -2.2439    0.2131 C   0  0  0  0  0  0  0  0  0  0  0  0
    1.2097   -2.3192   -0.5294 O   0  0  0  0  0  0  0  0  0  0  0  0
    0.3557   -3.6024    2.3171 C   0  0  0  0  0  0  0  0  0  0  0  0
    0.6584   -4.6506   -0.4643 H   0  0  0  0  0  0  0  0  0  0  0  0
   -1.4091   -3.3101    1.1082 H   0  0  0  0  0  0  0  0  0  0  0  0
    1.4375   -3.7336    2.1985 H   0  0  0  0  0  0  0  0  0  0  0  0
    0.1969   -2.7243    2.9517 H   0  0  0  0  0  0  0  0  0  0  0  0
   -0.0294   -4.4803    2.8470 H   0  0  0  0  0  0  0  0  0  0  0  0
   -0.4616   -1.0893    0.5050 N   0  0  0  0  0  0  0  0  0  0  0  0
   -0.0884    0.2050   -0.0621 C   0  0  2  0  0  0  0  0  0  0  0  0
    0.5401   -0.0530   -1.4286 C   0  0  0  0  0  0  0  0  0  0  0  0
    0.2422   -1.0163   -2.1320 O   0  0  0  0  0  0  0  0  0  0  0  0
    0.9111    0.9625    0.8249 C   0  0  0  0  0  0  0  0  0  0  0  0
    0.3115    1.4280    2.1559 C   0  0  0  0  0  0  0  0  0  0  0  0
    1.3410    2.1970    2.9884 C   0  0  0  0  0  0  0  0  0  0  0  0
    0.7501    2.6396    4.3259 C   0  0  0  0  0  0  0  0  0  0  0  0
    1.7524    3.3487    5.1123 N   0  0  0  0  0  0  0  0  0  0  0  0
   -1.2794   -1.1113    1.0935 H   0  0  0  0  0  0  0  0  0  0  0  0
   -0.9980    0.8033   -0.1933 H   0  0  0  0  0  0  0  0  0  0  0  0
    1.2835    1.8391    0.2788 H   0  0  0  0  0  0  0  0  0  0  0  0
    1.7906    0.3334    1.0184 H   0  0  0  0  0  0  0  0  0  0  0  0
   -0.0429    0.5663    2.7327 H   0  0  0  0  0  0  0  0  0  0  0  0
   -0.5560    2.0702    1.9623 H   0  0  0  0  0  0  0  0  0  0  0  0
    2.2184    1.5609    3.1609 H   0  0  0  0  0  0  0  0  0  0  0  0
    1.6840    3.0748    2.4262 H   0  0  0  0  0  0  0  0  0  0  0  0
    0.3951    1.7701    4.8898 H   0  0  0  0  0  0  0  0  0  0  0  0
   -0.1062    3.3015    4.1589 H   0  0  0  0  0  0  0  0  0  0  0  0
    2.6026    3.3600    4.5989 H   0  0  0  0  0  0  0  0  0  0  0  0
    1.4280    4.2741    5.2706 H   0  0  0  0  0  0  0  0  0  0  0  0
    1.4872    0.9070   -1.7577 N   0  0  0  0  0  0  0  0  0  0  0  0
    2.2454    0.8831   -2.9878 C   0  0  2  0  0  0  0  0  0  0  0  0
    3.6185    1.4783   -2.7055 C   0  0  0  0  0  0  0  0  0  0  0  0
    3.8024    2.3884   -1.8999 O   0  0  0  0  0  0  0  0  0  0  0  0
    1.5354    1.6530   -4.0905 C   0  0  0  0  0  0  0  0  0  0  0  0
    1.6609    1.6751   -1.1163 H   0  0  0  0  0  0  0  0  0  0  0  0
    2.3543   -0.1693   -3.2718 H   0  0  0  0  0  0  0  0  0  0  0  0
    1.4172    2.7096   -3.8239 H   0  0  0  0  0  0  0  0  0  0  0  0
    2.0972    1.6099   -5.0294 H   0  0  0  0  0  0  0  0  0  0  0  0
    0.5364    1.2421   -4.2716 H   0  0  0  0  0  0  0  0  0  0  0  0
    4.6081    0.9032   -3.4905 N   0  0  0  0  0  0  0  0  0  0  0  0
    5.9881    1.3262   -3.4392 C   0  0  0  0  0  0  0  0  0  0  0  0
    4.3726    0.1272   -4.1022 H   0  0  0  0  0  0  0  0  0  0  0  0
    6.1641    2.0986   -4.2023 H   0  0  0  0  0  0  0  0  0  0  0  0
    6.2084    1.7379   -2.4432 H   0  0  0  0  0  0  0  0  0  0  0  0
    6.6431    0.4639   -3.6326 H   0  0  0  0  0  0  0  0  0  0  0  0
  1  3  1  0  0  0  0
  1  7  1  0  0  0  0
  1  2  2  0  0  0  0
 39 40  1  0  0  0  0
 40 48  1  0  0  0  0
 40 41  2  0  0  0  0
  8  9  1  0  0  0  0
  9 17  1  0  0  0  0
  9 10  2  0  0  0  0
 18 19  1  0  0  0  0
 19 38  1  0  0  0  0
 19 20  2  0  0  0  0
 39 42  1  0  0  0  0
  8 11  1  0  0  0  0
 48 49  1  0  0  0  0
 22 23  1  0  0  0  0
 21 22  1  0  0  0  0
 23 24  1  0  0  0  0
 18 21  1  0  0  0  0
 24 25  1  0  0  0  0
 38 39  1  0  0  0  0
  7  8  1  0  0  0  0
 17 18  1  0  0  0  0
  3  4  1  0  0  0  0
  3  5  1  0  0  0  0
  3  6  1  0  0  0  0
 42 45  1  0  0  0  0
 42 46  1  0  0  0  0
 42 47  1  0  0  0  0
 11 14  1  0  0  0  0
 11 15  1  0  0  0  0
 11 16  1  0  0  0  0
 49 51  1  0  0  0  0
 49 52  1  0  0  0  0
 49 53  1  0  0  0  0
 22 30  1  0  0  0  0
 22 31  1  0  0  0  0
 23 32  1  0  0  0  0
 23 33  1  0  0  0  0
 21 28  1  0  0  0  0
 21 29  1  0  0  0  0
 24 34  1  0  0  0  0
 24 35  1  0  0  0  0
 39 44  1  0  0  0  0
  8 13  1  0  0  0  0
 18 27  1  0  0  0  0
 25 36  1  0  0  0  0
 25 37  1  0  0  0  0
 48 50  1  0  0  0  0
  7 12  1  0  0  0  0
 38 43  1  0  0  0  0
 17 26  1  0  0  0  0
M  END
$$$$

  -OEChem-05262214473D

 53 52  0     1  0  0  0  0  0999 V2000
   -1.0338   -5.6785    0.1476 C   0  0  0  0  0  0  0  0  0  0  0  0
   -2.0514   -5.7797    0.8227 O   0  0  0  0  0  0  0  0  0  0  0  0
   -0.6558   -6.7819   -0.7841 C   0  0  0  0  0  0  0  0  0  0  0  0
   -0.0111   -7.5354   -0.3038 H   0  0  0  0  0  0  0  0  0  0  0  0
   -1.5317   -7.3401   -1.1520 H   0  0  0  0  0  0  0  0  0  0  0  0
   -0.1109   -6.4687   -1.6890 H   0  0  0  0  0  0  0  0  0  0  0  0
   -0.1543   -4.6083    0.1480 N   0  0  0  0  0  0  0  0  0  0  0  0
   -0.3302   -3.4398    0.9696 C   0  0  2  0  0  0  0  0  0  0  0  0
    0.2328   -2.2439    0.2131 C   0  0  0  0  0  0  0  0  0  0  0  0
    1.2097   -2.3192   -0.5294 O   0  0  0  0  0  0  0  0  0  0  0  0
    0.3557   -3.6024    2.3171 C   0  0  0  0  0  0  0  0  0  0  0  0
    0.6584   -4.6506   -0.4643 H   0  0  0  0  0  0  0  0  0  0  0  0
   -1.4091   -3.3101    1.1082 H   0  0  0  0  0  0  0  0  0  0  0  0
    1.4375   -3.7336    2.1985 H   0  0  0  0  0  0  0  0  0  0  0  0
    0.1969   -2.7243    2.9517 H   0  0  0  0  0  0  0  0  0  0  0  0
   -0.0294   -4.4803    2.8470 H   0  0  0  0  0  0  0  0  0  0  0  0
   -0.4616   -1.0893    0.5050 N   0  0  0  0  0  0  0  0  0  0  0  0
   -0.0884    0.2050   -0.0621 C   0  0  2  0  0  0  0  0  0  0  0  0
    0.5401   -0.0530   -1.4286 C   0  0  0  0  0  0  0  0  0  0  0  0
    0.0693   -0.8433   -2.2442 O   0  0  0  0  0  0  0  0  0  0  0  0
    0.9111    0.9625    0.8249 C   0  0  0  0  0  0  0  0  0  0  0  0
    0.3115    1.4280    2.1559 C   0  0  0  0  0  0  0  0  0  0  0  0
    1.3410    2.1970    2.9884 C   0  0  0  0  0  0  0  0  0  0  0  0
    0.7501    2.6396    4.3259 C   0  0  0  0  0  0  0  0  0  0  0  0
    1.7524    3.3487    5.1123 N   0  0  0  0  0  0  0  0  0  0  0  0
   -1.2794   -1.1113    1.0935 H   0  0  0  0  0  0  0  0  0  0  0  0
   -0.9980    0.8033   -0.1933 H   0  0  0  0  0  0  0  0  0  0  0  0
    1.2835    1.8391    0.2788 H   0  0  0  0  0  0  0  0  0  0  0  0
    1.7906    0.3334    1.0184 H   0  0  0  0  0  0  0  0  0  0  0  0
   -0.0429    0.5663    2.7327 H   0  0  0  0  0  0  0  0  0  0  0  0
   -0.5560    2.0702    1.9623 H   0  0  0  0  0  0  0  0  0  0  0  0
    2.2184    1.5609    3.1609 H   0  0  0  0  0  0  0  0  0  0  0  0
    1.6840    3.0748    2.4262 H   0  0  0  0  0  0  0  0  0  0  0  0
    0.3951    1.7701    4.8898 H   0  0  0  0  0  0  0  0  0  0  0  0
   -0.1062    3.3015    4.1589 H   0  0  0  0  0  0  0  0  0  0  0  0
    2.6026    3.3600    4.5989 H   0  0  0  0  0  0  0  0  0  0  0  0
    1.4280    4.2741    5.2706 H   0  0  0  0  0  0  0  0  0  0  0  0
    1.6991    0.6869   -1.6186 N   0  0  0  0  0  0  0  0  0  0  0  0
    2.4997    0.6110   -2.8195 C   0  0  2  0  0  0  0  0  0  0  0  0
    3.9546    0.8364   -2.4298 C   0  0  0  0  0  0  0  0  0  0  0  0
    4.2966    1.5916   -1.5222 O   0  0  0  0  0  0  0  0  0  0  0  0
    2.0485    1.6335   -3.8508 C   0  0  0  0  0  0  0  0  0  0  0  0
    2.0080    1.3238   -0.8903 H   0  0  0  0  0  0  0  0  0  0  0  0
    2.3801   -0.4033   -3.2158 H   0  0  0  0  0  0  0  0  0  0  0  0
    2.1610    2.6558   -3.4717 H   0  0  0  0  0  0  0  0  0  0  0  0
    2.6373    1.5555   -4.7707 H   0  0  0  0  0  0  0  0  0  0  0  0
    0.9937    1.4885   -4.1078 H   0  0  0  0  0  0  0  0  0  0  0  0
    4.8284    0.1283   -3.2429 N   0  0  0  0  0  0  0  0  0  0  0  0
    6.2635    0.2089   -3.1015 C   0  0  0  0  0  0  0  0  0  0  0  0
    4.4561   -0.5049   -3.9445 H   0  0  0  0  0  0  0  0  0  0  0  0
    6.6547    0.9919   -3.7677 H   0  0  0  0  0  0  0  0  0  0  0  0
    6.5160    0.4544   -2.0594 H   0  0  0  0  0  0  0  0  0  0  0  0
    6.7131   -0.7586   -3.3696 H   0  0  0  0  0  0  0  0  0  0  0  0
  1  3  1  0  0  0  0
  1  7  1  0  0  0  0
  1  2  2  0  0  0  0
 39 40  1  0  0  0  0
 40 48  1  0  0  0  0
 40 41  2  0  0  0  0
  8  9  1  0  0  0  0
  9 17  1  0  0  0  0
  9 10  2  0  0  0  0
 18 19  1  0  0  0  0
 19 38  1  0  0  0  0
 19 20  2  0  0  0  0
 39 42  1  0  0  0  0
  8 11  1  0  0  0  0
 48 49  1  0  0  0  0
 22 23  1  0  0  0  0
 21 22  1  0  0  0  0
 23 24  1  0  0  0  0
 18 21  1  0  0  0  0
 24 25  1  0  0  0  0
 38 39  1  0  0  0  0
  7  8  1  0  0  0  0
 17 18  1  0  0  0  0
  3  4  1  0  0  0  0
  3  5  1  0  0  0  0
  3  6  1  0  0  0  0
 42 45  1  0  0  0  0
 42 46  1  0  0  0  0
 42 47  1  0  0  0  0
 11 14  1  0  0  0  0
 11 15  1  0  0  0  0
 11 16  1  0  0  0  0
 49 51  1  0  0  0  0
 49 52  1  0  0  0  0
 49 53  1  0  0  0  0
 22 30  1  0  0  0  0
 22 31  1  0  0  0  0
 23 32  1  0  0  0  0
 23 33  1  0  0  0  0
 21 28  1  0  0  0  0
 21 29  1  0  0  0  0
 24 34  1  0  0  0  0
 24 35  1  0  0  0  0
 39 44  1  0  0  0  0
  8 13  1  0  0  0  0
 18 27  1  0  0  0  0
 25 36  1  0  0  0  0
 25 37  1  0  0  0  0
 48 50  1  0  0  0  0
  7 12  1  0  0  0  0
 38 43  1  0  0  0  0
 17 26  1  0  0  0  0
M  END
$$$$

  -OEChem-05262214473D

 53 52  0     1  0  0  0  0  0999 V2000
   -1.0338   -5.6785    0.1476 C   0  0  0  0  0  0  0  0  0  0  0  0
   -2.0514   -5.7797    0.8227 O   0  0  0  0  0  0  0  0  0  0  0  0
   -0.6558   -6.7819   -0.7841 C   0  0  0  0  0  0  0  0  0  0  0  0
   -0.0111   -7.5354   -0.3038 H   0  0  0  0  0  0  0  0  0  0  0  0
   -1.5317   -7.3401   -1.1520 H   0  0  0  0  0  0  0  0  0  0  0  0
   -0.1109   -6.4687   -1.6890 H   0  0  0  0  0  0  0  0  0  0  0  0
   -0.1543   -4.6083    0.1480 N   0  0  0  0  0  0  0  0  0  0  0  0
   -0.3302   -3.4398    0.9696 C   0  0  2  0  0  0  0  0  0  0  0  0
    0.2328   -2.2439    0.2131 C   0  0  0  0  0  0  0  0  0  0  0  0
    1.2097   -2.3192   -0.5294 O   0  0  0  0  0  0  0  0  0  0  0  0
    0.3557   -3.6024    2.3171 C   0  0  0  0  0  0  0  0  0  0  0  0
    0.6584   -4.6506   -0.4643 H   0  0  0  0  0  0  0  0  0  0  0  0
   -1.4091   -3.3101    1.1082 H   0  0  0  0  0  0  0  0  0  0  0  0
    1.4375   -3.7336    2.1985 H   0  0  0  0  0  0  0  0  0  0  0  0
    0.1969   -2.7243    2.9517 H   0  0  0  0  0  0  0  0  0  0  0  0
   -0.0294   -4.4803    2.8470 H   0  0  0  0  0  0  0  0  0  0  0  0
   -0.4616   -1.0893    0.5050 N   0  0  0  0  0  0  0  0  0  0  0  0
   -0.0884    0.2050   -0.0621 C   0  0  2  0  0  0  0  0  0  0  0  0
    0.5401   -0.0530   -1.4286 C   0  0  0  0  0  0  0  0  0  0  0  0
   -0.0528   -0.6242   -2.3417 O   0  0  0  0  0  0  0  0  0  0  0  0
    0.9111    0.9625    0.8249 C   0  0  0  0  0  0  0  0  0  0  0  0
    0.3115    1.4280    2.1559 C   0  0  0  0  0  0  0  0  0  0  0  0
    1.3410    2.1970    2.9884 C   0  0  0  0  0  0  0  0  0  0  0  0
    0.7501    2.6396    4.3259 C   0  0  0  0  0  0  0  0  0  0  0  0
    1.7524    3.3487    5.1123 N   0  0  0  0  0  0  0  0  0  0  0  0
   -1.2794   -1.1113    1.0935 H   0  0  0  0  0  0  0  0  0  0  0  0
   -0.9980    0.8033   -0.1933 H   0  0  0  0  0  0  0  0  0  0  0  0
    1.2835    1.8391    0.2788 H   0  0  0  0  0  0  0  0  0  0  0  0
    1.7906    0.3334    1.0184 H   0  0  0  0  0  0  0  0  0  0  0  0
   -0.0429    0.5663    2.7327 H   0  0  0  0  0  0  0  0  0  0  0  0
   -0.5560    2.0702    1.9623 H   0  0  0  0  0  0  0  0  0  0  0  0
    2.2184    1.5609    3.1609 H   0  0  0  0  0  0  0  0  0  0  0  0
    1.6840    3.0748    2.4262 H   0  0  0  0  0  0  0  0  0  0  0  0
    0.3951    1.7701    4.8898 H   0  0  0  0  0  0  0  0  0  0  0  0
   -0.1062    3.3015    4.1589 H   0  0  0  0  0  0  0  0  0  0  0  0
    2.6026    3.3600    4.5989 H   0  0  0  0  0  0  0  0  0  0  0  0
    1.4280    4.2741    5.2706 H   0  0  0  0  0  0  0  0  0  0  0  0
    1.8467    0.4103   -1.4985 N   0  0  0  0  0  0  0  0  0  0  0  0
    2.6749    0.2713   -2.6748 C   0  0  2  0  0  0  0  0  0  0  0  0
    4.1184    0.1091   -2.2171 C   0  0  0  0  0  0  0  0  0  0  0  0
    4.5729    0.6671   -1.2206 O   0  0  0  0  0  0  0  0  0  0  0  0
    2.5291    1.4702   -3.5990 C   0  0  0  0  0  0  0  0  0  0  0  0
    2.2519    0.8800   -0.6943 H   0  0  0  0  0  0  0  0  0  0  0  0
    2.3483   -0.6412   -3.1854 H   0  0  0  0  0  0  0  0  0  0  0  0
    2.8515    2.3938   -3.1046 H   0  0  0  0  0  0  0  0  0  0  0  0
    3.1352    1.3502   -4.5030 H   0  0  0  0  0  0  0  0  0  0  0  0
    1.4853    1.6030   -3.9033 H   0  0  0  0  0  0  0  0  0  0  0  0
    4.8508   -0.6978   -3.0766 N   0  0  0  0  0  0  0  0  0  0  0  0
    6.2559   -0.9702   -2.8825 C   0  0  0  0  0  0  0  0  0  0  0  0
    4.3833   -1.1516   -3.8559 H   0  0  0  0  0  0  0  0  0  0  0  0
    6.8531   -0.2370   -3.4444 H   0  0  0  0  0  0  0  0  0  0  0  0
    6.4988   -0.8976   -1.8121 H   0  0  0  0  0  0  0  0  0  0  0  0
    6.4859   -1.9837   -3.2428 H   0  0  0  0  0  0  0  0  0  0  0  0
  1  3  1  0  0  0  0
  1  7  1  0  0  0  0
  1  2  2  0  0  0  0
 39 40  1  0  0  0  0
 40 48  1  0  0  0  0
 40 41  2  0  0  0  0
  8  9  1  0  0  0  0
  9 17  1  0  0  0  0
  9 10  2  0  0  0  0
 18 19  1  0  0  0  0
 19 38  1  0  0  0  0
 19 20  2  0  0  0  0
 39 42  1  0  0  0  0
  8 11  1  0  0  0  0
 48 49  1  0  0  0  0
 22 23  1  0  0  0  0
 21 22  1  0  0  0  0
 23 24  1  0  0  0  0
 18 21  1  0  0  0  0
 24 25  1  0  0  0  0
 38 39  1  0  0  0  0
  7  8  1  0  0  0  0
 17 18  1  0  0  0  0
  3  4  1  0  0  0  0
  3  5  1  0  0  0  0
  3  6  1  0  0  0  0
 42 45  1  0  0  0  0
 42 46  1  0  0  0  0
 42 47  1  0  0  0  0
 11 14  1  0  0  0  0
 11 15  1  0  0  0  0
 11 16  1  0  0  0  0
 49 51  1  0  0  0  0
 49 52  1  0  0  0  0
 49 53  1  0  0  0  0
 22 30  1  0  0  0  0
 22 31  1  0  0  0  0
 23 32  1  0  0  0  0
 23 33  1  0  0  0  0
 21 28  1  0  0  0  0
 21 29  1  0  0  0  0
 24 34  1  0  0  0  0
 24 35  1  0  0  0  0
 39 44  1  0  0  0  0
  8 13  1  0  0  0  0
 18 27  1  0  0  0  0
 25 36  1  0  0  0  0
 25 37  1  0  0  0  0
 48 50  1  0  0  0  0
  7 12  1  0  0  0  0
 38 43  1  0  0  0  0
 17 26  1  0  0  0  0
M  END
$$$$

  -OEChem-05262214473D

 53 52  0     1  0  0  0  0  0999 V2000
   -1.0338   -5.6785    0.1476 C   0  0  0  0  0  0  0  0  0  0  0  0
   -2.0514   -5.7797    0.8227 O   0  0  0  0  0  0  0  0  0  0  0  0
   -0.6558   -6.7819   -0.7841 C   0  0  0  0  0  0  0  0  0  0  0  0
   -0.0111   -7.5354   -0.3038 H   0  0  0  0  0  0  0  0  0  0  0  0
   -1.5317   -7.3401   -1.1520 H   0  0  0  0  0  0  0  0  0  0  0  0
   -0.1109   -6.4687   -1.6890 H   0  0  0  0  0  0  0  0  0  0  0  0
   -0.1543   -4.6083    0.1480 N   0  0  0  0  0  0  0  0  0  0  0  0
   -0.3302   -3.4398    0.9696 C   0  0  2  0  0  0  0  0  0  0  0  0
    0.2328   -2.2439    0.2131 C   0  0  0  0  0  0  0  0  0  0  0  0
    1.2097   -2.3192   -0.5294 O   0  0  0  0  0  0  0  0  0  0  0  0
    0.3557   -3.6024    2.3171 C   0  0  0  0  0  0  0  0  0  0  0  0
    0.6584   -4.6506   -0.4643 H   0  0  0  0  0  0  0  0  0  0  0  0
   -1.4091   -3.3101    1.1082 H   0  0  0  0  0  0  0  0  0  0  0  0
    1.4375   -3.7336    2.1985 H   0  0  0  0  0  0  0  0  0  0  0  0
    0.1969   -2.7243    2.9517 H   0  0  0  0  0  0  0  0  0  0  0  0
   -0.0294   -4.4803    2.8470 H   0  0  0  0  0  0  0  0  0  0  0  0
   -0.4616   -1.0893    0.5050 N   0  0  0  0  0  0  0  0  0  0  0  0
   -0.0884    0.2050   -0.0621 C   0  0  2  0  0  0  0  0  0  0  0  0
    0.5401   -0.0530   -1.4286 C   0  0  0  0  0  0  0  0  0  0  0  0
   -0.1156   -0.3739   -2.4178 O   0  0  0  0  0  0  0  0  0  0  0  0
    0.9111    0.9625    0.8249 C   0  0  0  0  0  0  0  0  0  0  0  0
    0.3115    1.4280    2.1559 C   0  0  0  0  0  0  0  0  0  0  0  0
    1.3410    2.1970    2.9884 C   0  0  0  0  0  0  0  0  0  0  0  0
    0.7501    2.6396    4.3259 C   0  0  0  0  0  0  0  0  0  0  0  0
    1.7524    3.3487    5.1123 N   0  0  0  0  0  0  0  0  0  0  0  0
   -1.2794   -1.1113    1.0935 H   0  0  0  0  0  0  0  0  0  0  0  0
   -0.9980    0.8033   -0.1933 H   0  0  0  0  0  0  0  0  0  0  0  0
    1.2835    1.8391    0.2788 H   0  0  0  0  0  0  0  0  0  0  0  0
    1.7906    0.3334    1.0184 H   0  0  0  0  0  0  0  0  0  0  0  0
   -0.0429    0.5663    2.7327 H   0  0  0  0  0  0  0  0  0  0  0  0
   -0.5560    2.0702    1.9623 H   0  0  0  0  0  0  0  0  0  0  0  0
    2.2184    1.5609    3.1609 H   0  0  0  0  0  0  0  0  0  0  0  0
    1.6840    3.0748    2.4262 H   0  0  0  0  0  0  0  0  0  0  0  0
    0.3951    1.7701    4.8898 H   0  0  0  0  0  0  0  0  0  0  0  0
   -0.1062    3.3015    4.1589 H   0  0  0  0  0  0  0  0  0  0  0  0
    2.6026    3.3600    4.5989 H   0  0  0  0  0  0  0  0  0  0  0  0
    1.4280    4.2741    5.2706 H   0  0  0  0  0  0  0  0  0  0  0  0
    1.9199    0.0961   -1.4055 N   0  0  0  0  0  0  0  0  0  0  0  0
    2.7590   -0.1129   -2.5635 C   0  0  2  0  0  0  0  0  0  0  0  0
    4.0987   -0.6541   -2.0821 C   0  0  0  0  0  0  0  0  0  0  0  0
    4.6122   -0.3220   -1.0157 O   0  0  0  0  0  0  0  0  0  0  0  0
    2.9445    1.1742   -3.3521 C   0  0  0  0  0  0  0  0  0  0  0  0
    2.3761    0.3738   -0.5416 H   0  0  0  0  0  0  0  0  0  0  0  0
    2.2612   -0.8669   -3.1829 H   0  0  0  0  0  0  0  0  0  0  0  0
    3.4418    1.9416   -2.7478 H   0  0  0  0  0  0  0  0  0  0  0  0
    3.5568    1.0080   -4.2445 H   0  0  0  0  0  0  0  0  0  0  0  0
    1.9778    1.5779   -3.6721 H   0  0  0  0  0  0  0  0  0  0  0  0
    4.6738   -1.5186   -3.0031 N   0  0  0  0  0  0  0  0  0  0  0  0
    5.9656   -2.1306   -2.7969 C   0  0  0  0  0  0  0  0  0  0  0  0
    4.1593   -1.7689   -3.8423 H   0  0  0  0  0  0  0  0  0  0  0  0
    6.7458   -1.5046   -3.2545 H   0  0  0  0  0  0  0  0  0  0  0  0
    6.1581   -2.2259   -1.7180 H   0  0  0  0  0  0  0  0  0  0  0  0
    5.9770   -3.1279   -3.2608 H   0  0  0  0  0  0  0  0  0  0  0  0
  1  3  1  0  0  0  0
  1  7  1  0  0  0  0
  1  2  2  0  0  0  0
 39 40  1  0  0  0  0
 40 48  1  0  0  0  0
 40 41  2  0  0  0  0
  8  9  1  0  0  0  0
  9 17  1  0  0  0  0
  9 10  2  0  0  0  0
 18 19  1  0  0  0  0
 19 38  1  0  0  0  0
 19 20  2  0  0  0  0
 39 42  1  0  0  0  0
  8 11  1  0  0  0  0
 48 49  1  0  0  0  0
 22 23  1  0  0  0  0
 21 22  1  0  0  0  0
 23 24  1  0  0  0  0
 18 21  1  0  0  0  0
 24 25  1  0  0  0  0
 38 39  1  0  0  0  0
  7  8  1  0  0  0  0
 17 18  1  0  0  0  0
  3  4  1  0  0  0  0
  3  5  1  0  0  0  0
  3  6  1  0  0  0  0
 42 45  1  0  0  0  0
 42 46  1  0  0  0  0
 42 47  1  0  0  0  0
 11 14  1  0  0  0  0
 11 15  1  0  0  0  0
 11 16  1  0  0  0  0
 49 51  1  0  0  0  0
 49 52  1  0  0  0  0
 49 53  1  0  0  0  0
 22 30  1  0  0  0  0
 22 31  1  0  0  0  0
 23 32  1  0  0  0  0
 23 33  1  0  0  0  0
 21 28  1  0  0  0  0
 21 29  1  0  0  0  0
 24 34  1  0  0  0  0
 24 35  1  0  0  0  0
 39 44  1  0  0  0  0
  8 13  1  0  0  0  0
 18 27  1  0  0  0  0
 25 36  1  0  0  0  0
 25 37  1  0  0  0  0
 48 50  1  0  0  0  0
  7 12  1  0  0  0  0
 38 43  1  0  0  0  0
 17 26  1  0  0  0  0
M  END
$$$$

  -OEChem-05262214473D

 53 52  0     1  0  0  0  0  0999 V2000
   -1.0338   -5.6785    0.1476 C   0  0  0  0  0  0  0  0  0  0  0  0
   -2.0514   -5.7797    0.8227 O   0  0  0  0  0  0  0  0  0  0  0  0
   -0.6558   -6.7819   -0.7841 C   0  0  0  0  0  0  0  0  0  0  0  0
   -0.0111   -7.5354   -0.3038 H   0  0  0  0  0  0  0  0  0  0  0  0
   -1.5317   -7.3401   -1.1520 H   0  0  0  0  0  0  0  0  0  0  0  0
   -0.1109   -6.4687   -1.6890 H   0  0  0  0  0  0  0  0  0  0  0  0
   -0.1543   -4.6083    0.1480 N   0  0  0  0  0  0  0  0  0  0  0  0
   -0.3302   -3.4398    0.9696 C   0  0  2  0  0  0  0  0  0  0  0  0
    0.2328   -2.2439    0.2131 C   0  0  0  0  0  0  0  0  0  0  0  0
    1.2097   -2.3192   -0.5294 O   0  0  0  0  0  0  0  0  0  0  0  0
    0.3557   -3.6024    2.3171 C   0  0  0  0  0  0  0  0  0  0  0  0
    0.6584   -4.6506   -0.4643 H   0  0  0  0  0  0  0  0  0  0  0  0
   -1.4091   -3.3101    1.1082 H   0  0  0  0  0  0  0  0  0  0  0  0
    1.4375   -3.7336    2.1985 H   0  0  0  0  0  0  0  0  0  0  0  0
    0.1969   -2.7243    2.9517 H   0  0  0  0  0  0  0  0  0  0  0  0
   -0.0294   -4.4803    2.8470 H   0  0  0  0  0  0  0  0  0  0  0  0
   -0.4616   -1.0893    0.5050 N   0  0  0  0  0  0  0  0  0  0  0  0
   -0.0884    0.2050   -0.0621 C   0  0  2  0  0  0  0  0  0  0  0  0
    0.5401   -0.0530   -1.4286 C   0  0  0  0  0  0  0  0  0  0  0  0
   -0.1150   -0.1094   -2.4675 O   0  0  0  0  0  0  0  0  0  0  0  0
    0.9111    0.9625    0.8249 C   0  0  0  0  0  0  0  0  0  0  0  0
    0.3115    1.4280    2.1559 C   0  0  0  0  0  0  0  0  0  0  0  0
    1.3410    2.1970    2.9884 C   0  0  0  0  0  0  0  0  0  0  0  0
    0.7501    2.6396    4.3259 C   0  0  0  0  0  0  0  0  0  0  0  0
    1.7524    3.3487    5.1123 N   0  0  0  0  0  0  0  0  0  0  0  0
   -1.2794   -1.1113    1.0935 H   0  0  0  0  0  0  0  0  0  0  0  0
   -0.9980    0.8033   -0.1933 H   0  0  0  0  0  0  0  0  0  0  0  0
    1.2835    1.8391    0.2788 H   0  0  0  0  0  0  0  0  0  0  0  0
    1.7906    0.3334    1.0184 H   0  0  0  0  0  0  0  0  0  0  0  0
   -0.0429    0.5663    2.7327 H   0  0  0  0  0  0  0  0  0  0  0  0
   -0.5560    2.0702    1.9623 H   0  0  0  0  0  0  0  0  0  0  0  0
    2.2184    1.5609    3.1609 H   0  0  0  0  0  0  0  0  0  0  0  0
    1.6840    3.0748    2.4262 H   0  0  0  0  0  0  0  0  0  0  0  0
    0.3951    1.7701    4.8898 H   0  0  0  0  0  0  0  0  0  0  0  0
   -0.1062    3.3015    4.1589 H   0  0  0  0  0  0  0  0  0  0  0  0
    2.6026    3.3600    4.5989 H   0  0  0  0  0  0  0  0  0  0  0  0
    1.4280    4.2741    5.2706 H   0  0  0  0  0  0  0  0  0  0  0  0
    1.9138   -0.2342   -1.3460 N   0  0  0  0  0  0  0  0  0  0  0  0
    2.7464   -0.5153   -2.4934 C   0  0  2  0  0  0  0  0  0  0  0  0
    3.8969   -1.4011   -2.0338 C   0  0  0  0  0  0  0  0  0  0  0  0
    4.4120   -1.3084   -0.9216 O   0  0  0  0  0  0  0  0  0  0  0  0
    3.2662    0.7657   -3.1270 C   0  0  0  0  0  0  0  0  0  0  0  0
    2.3721   -0.1601   -0.4427 H   0  0  0  0  0  0  0  0  0  0  0  0
    2.1245   -1.0650   -3.2083 H   0  0  0  0  0  0  0  0  0  0  0  0
    3.8915    1.3300   -2.4255 H   0  0  0  0  0  0  0  0  0  0  0  0
    3.8734    0.5522   -4.0128 H   0  0  0  0  0  0  0  0  0  0  0  0
    2.4376    1.4148   -3.4299 H   0  0  0  0  0  0  0  0  0  0  0  0
    4.3093   -2.2782   -3.0273 N   0  0  0  0  0  0  0  0  0  0  0  0
    5.4126   -3.1934   -2.8505 C   0  0  0  0  0  0  0  0  0  0  0  0
    3.7992   -2.3146   -3.9049 H   0  0  0  0  0  0  0  0  0  0  0  0
    6.3400   -2.7243   -3.2108 H   0  0  0  0  0  0  0  0  0  0  0  0
    5.5170   -3.4399   -1.7836 H   0  0  0  0  0  0  0  0  0  0  0  0
    5.2210   -4.1133   -3.4224 H   0  0  0  0  0  0  0  0  0  0  0  0
  1  3  1  0  0  0  0
  1  7  1  0  0  0  0
  1  2  2  0  0  0  0
 39 40  1  0  0  0  0
 40 48  1  0  0  0  0
 40 41  2  0  0  0  0
  8  9  1  0  0  0  0
  9 17  1  0  0  0  0
  9 10  2  0  0  0  0
 18 19  1  0  0  0  0
 19 38  1  0  0  0  0
 19 20  2  0  0  0  0
 39 42  1  0  0  0  0
  8 11  1  0  0  0  0
 48 49  1  0  0  0  0
 22 23  1  0  0  0  0
 21 22  1  0  0  0  0
 23 24  1  0  0  0  0
 18 21  1  0  0  0  0
 24 25  1  0  0  0  0
 38 39  1  0  0  0  0
  7  8  1  0  0  0  0
 17 18  1  0  0  0  0
  3  4  1  0  0  0  0
  3  5  1  0  0  0  0
  3  6  1  0  0  0  0
 42 45  1  0  0  0  0
 42 46  1  0  0  0  0
 42 47  1  0  0  0  0
 11 14  1  0  0  0  0
 11 15  1  0  0  0  0
 11 16  1  0  0  0  0
 49 51  1  0  0  0  0
 49 52  1  0  0  0  0
 49 53  1  0  0  0  0
 22 30  1  0  0  0  0
 22 31  1  0  0  0  0
 23 32  1  0  0  0  0
 23 33  1  0  0  0  0
 21 28  1  0  0  0  0
 21 29  1  0  0  0  0
 24 34  1  0  0  0  0
 24 35  1  0  0  0  0
 39 44  1  0  0  0  0
  8 13  1  0  0  0  0
 18 27  1  0  0  0  0
 25 36  1  0  0  0  0
 25 37  1  0  0  0  0
 48 50  1  0  0  0  0
  7 12  1  0  0  0  0
 38 43  1  0  0  0  0
 17 26  1  0  0  0  0
M  END
$$$$

  -OEChem-05262214473D

 53 52  0     1  0  0  0  0  0999 V2000
   -1.0338   -5.6785    0.1476 C   0  0  0  0  0  0  0  0  0  0  0  0
   -2.0514   -5.7797    0.8227 O   0  0  0  0  0  0  0  0  0  0  0  0
   -0.6558   -6.7819   -0.7841 C   0  0  0  0  0  0  0  0  0  0  0  0
   -0.0111   -7.5354   -0.3038 H   0  0  0  0  0  0  0  0  0  0  0  0
   -1.5317   -7.3401   -1.1520 H   0  0  0  0  0  0  0  0  0  0  0  0
   -0.1109   -6.4687   -1.6890 H   0  0  0  0  0  0  0  0  0  0  0  0
   -0.1543   -4.6083    0.1480 N   0  0  0  0  0  0  0  0  0  0  0  0
   -0.3302   -3.4398    0.9696 C   0  0  2  0  0  0  0  0  0  0  0  0
    0.2328   -2.2439    0.2131 C   0  0  0  0  0  0  0  0  0  0  0  0
    1.2097   -2.3192   -0.5294 O   0  0  0  0  0  0  0  0  0  0  0  0
    0.3557   -3.6024    2.3171 C   0  0  0  0  0  0  0  0  0  0  0  0
    0.6584   -4.6506   -0.4643 H   0  0  0  0  0  0  0  0  0  0  0  0
   -1.4091   -3.3101    1.1082 H   0  0  0  0  0  0  0  0  0  0  0  0
    1.4375   -3.7336    2.1985 H   0  0  0  0  0  0  0  0  0  0  0  0
    0.1969   -2.7243    2.9517 H   0  0  0  0  0  0  0  0  0  0  0  0
   -0.0294   -4.4803    2.8470 H   0  0  0  0  0  0  0  0  0  0  0  0
   -0.4616   -1.0893    0.5050 N   0  0  0  0  0  0  0  0  0  0  0  0
   -0.0884    0.2050   -0.0621 C   0  0  2  0  0  0  0  0  0  0  0  0
    0.5401   -0.0530   -1.4286 C   0  0  0  0  0  0  0  0  0  0  0  0
   -0.0509    0.1512   -2.4872 O   0  0  0  0  0  0  0  0  0  0  0  0
    0.9111    0.9625    0.8249 C   0  0  0  0  0  0  0  0  0  0  0  0
    0.3115    1.4280    2.1559 C   0  0  0  0  0  0  0  0  0  0  0  0
    1.3410    2.1970    2.9884 C   0  0  0  0  0  0  0  0  0  0  0  0
    0.7501    2.6396    4.3259 C   0  0  0  0  0  0  0  0  0  0  0  0
    1.7524    3.3487    5.1123 N   0  0  0  0  0  0  0  0  0  0  0  0
   -1.2794   -1.1113    1.0935 H   0  0  0  0  0  0  0  0  0  0  0  0
   -0.9980    0.8033   -0.1933 H   0  0  0  0  0  0  0  0  0  0  0  0
    1.2835    1.8391    0.2788 H   0  0  0  0  0  0  0  0  0  0  0  0
    1.7906    0.3334    1.0184 H   0  0  0  0  0  0  0  0  0  0  0  0
   -0.0429    0.5663    2.7327 H   0  0  0  0  0  0  0  0  0  0  0  0
   -0.5560    2.0702    1.9623 H   0  0  0  0  0  0  0  0  0  0  0  0
    2.2184    1.5609    3.1609 H   0  0  0  0  0  0  0  0  0  0  0  0
    1.6840    3.0748    2.4262 H   0  0  0  0  0  0  0  0  0  0  0  0
    0.3951    1.7701    4.8898 H   0  0  0  0  0  0  0  0  0  0  0  0
   -0.1062    3.3015    4.1589 H   0  0  0  0  0  0  0  0  0  0  0  0
    2.6026    3.3600    4.5989 H   0  0  0  0  0  0  0  0  0  0  0  0
    1.4280    4.2741    5.2706 H   0  0  0  0  0  0  0  0  0  0  0  0
    1.8287   -0.5582   -1.3240 N   0  0  0  0  0  0  0  0  0  0  0  0
    2.6379   -0.9086   -2.4690 C   0  0  2  0  0  0  0  0  0  0  0  0
    3.5268   -2.0811   -2.0757 C   0  0  0  0  0  0  0  0  0  0  0  0
    3.9859   -2.2248   -0.9445 O   0  0  0  0  0  0  0  0  0  0  0  0
    3.4725    0.2726   -2.9390 C   0  0  0  0  0  0  0  0  0  0  0  0
    2.2402   -0.6855   -0.4042 H   0  0  0  0  0  0  0  0  0  0  0  0
    1.9478   -1.2220   -3.2600 H   0  0  0  0  0  0  0  0  0  0  0  0
    4.1701    0.6007   -2.1597 H   0  0  0  0  0  0  0  0  0  0  0  0
    4.0635    0.0138   -3.8238 H   0  0  0  0  0  0  0  0  0  0  0  0
    2.8333    1.1249   -3.1931 H   0  0  0  0  0  0  0  0  0  0  0  0
    3.7822   -2.9249   -3.1476 N   0  0  0  0  0  0  0  0  0  0  0  0
    4.6344   -4.0860   -3.0399 C   0  0  0  0  0  0  0  0  0  0  0  0
    3.3276   -2.7517   -4.0392 H   0  0  0  0  0  0  0  0  0  0  0  0
    5.6635   -3.8131   -3.3163 H   0  0  0  0  0  0  0  0  0  0  0  0
    4.6192   -4.4571   -2.0045 H   0  0  0  0  0  0  0  0  0  0  0  0
    4.2694   -4.8726   -3.7167 H   0  0  0  0  0  0  0  0  0  0  0  0
  1  3  1  0  0  0  0
  1  7  1  0  0  0  0
  1  2  2  0  0  0  0
 39 40  1  0  0  0  0
 40 48  1  0  0  0  0
 40 41  2  0  0  0  0
  8  9  1  0  0  0  0
  9 17  1  0  0  0  0
  9 10  2  0  0  0  0
 18 19  1  0  0  0  0
 19 38  1  0  0  0  0
 19 20  2  0  0  0  0
 39 42  1  0  0  0  0
  8 11  1  0  0  0  0
 48 49  1  0  0  0  0
 22 23  1  0  0  0  0
 21 22  1  0  0  0  0
 23 24  1  0  0  0  0
 18 21  1  0  0  0  0
 24 25  1  0  0  0  0
 38 39  1  0  0  0  0
  7  8  1  0  0  0  0
 17 18  1  0  0  0  0
  3  4  1  0  0  0  0
  3  5  1  0  0  0  0
  3  6  1  0  0  0  0
 42 45  1  0  0  0  0
 42 46  1  0  0  0  0
 42 47  1  0  0  0  0
 11 14  1  0  0  0  0
 11 15  1  0  0  0  0
 11 16  1  0  0  0  0
 49 51  1  0  0  0  0
 49 52  1  0  0  0  0
 49 53  1  0  0  0  0
 22 30  1  0  0  0  0
 22 31  1  0  0  0  0
 23 32  1  0  0  0  0
 23 33  1  0  0  0  0
 21 28  1  0  0  0  0
 21 29  1  0  0  0  0
 24 34  1  0  0  0  0
 24 35  1  0  0  0  0
 39 44  1  0  0  0  0
  8 13  1  0  0  0  0
 18 27  1  0  0  0  0
 25 36  1  0  0  0  0
 25 37  1  0  0  0  0
 48 50  1  0  0  0  0
  7 12  1  0  0  0  0
 38 43  1  0  0  0  0
 17 26  1  0  0  0  0
M  END
$$$$

  -OEChem-05262214473D

 53 52  0     1  0  0  0  0  0999 V2000
   -1.0338   -5.6785    0.1476 C   0  0  0  0  0  0  0  0  0  0  0  0
   -2.0514   -5.7797    0.8227 O   0  0  0  0  0  0  0  0  0  0  0  0
   -0.6558   -6.7819   -0.7841 C   0  0  0  0  0  0  0  0  0  0  0  0
   -0.0111   -7.5354   -0.3038 H   0  0  0  0  0  0  0  0  0  0  0  0
   -1.5317   -7.3401   -1.1520 H   0  0  0  0  0  0  0  0  0  0  0  0
   -0.1109   -6.4687   -1.6890 H   0  0  0  0  0  0  0  0  0  0  0  0
   -0.1543   -4.6083    0.1480 N   0  0  0  0  0  0  0  0  0  0  0  0
   -0.3302   -3.4398    0.9696 C   0  0  2  0  0  0  0  0  0  0  0  0
    0.2328   -2.2439    0.2131 C   0  0  0  0  0  0  0  0  0  0  0  0
    1.2097   -2.3192   -0.5294 O   0  0  0  0  0  0  0  0  0  0  0  0
    0.3557   -3.6024    2.3171 C   0  0  0  0  0  0  0  0  0  0  0  0
    0.6584   -4.6506   -0.4643 H   0  0  0  0  0  0  0  0  0  0  0  0
   -1.4091   -3.3101    1.1082 H   0  0  0  0  0  0  0  0  0  0  0  0
    1.4375   -3.7336    2.1985 H   0  0  0  0  0  0  0  0  0  0  0  0
    0.1969   -2.7243    2.9517 H   0  0  0  0  0  0  0  0  0  0  0  0
   -0.0294   -4.4803    2.8470 H   0  0  0  0  0  0  0  0  0  0  0  0
   -0.4616   -1.0893    0.5050 N   0  0  0  0  0  0  0  0  0  0  0  0
   -0.0884    0.2050   -0.0621 C   0  0  2  0  0  0  0  0  0  0  0  0
    0.5401   -0.0530   -1.4286 C   0  0  0  0  0  0  0  0  0  0  0  0
    0.0723    0.3901   -2.4757 O   0  0  0  0  0  0  0  0  0  0  0  0
    0.9111    0.9625    0.8249 C   0  0  0  0  0  0  0  0  0  0  0  0
    0.3115    1.4280    2.1559 C   0  0  0  0  0  0  0  0  0  0  0  0
    1.3410    2.1970    2.9884 C   0  0  0  0  0  0  0  0  0  0  0  0
    0.7501    2.6396    4.3259 C   0  0  0  0  0  0  0  0  0  0  0  0
    1.7524    3.3487    5.1123 N   0  0  0  0  0  0  0  0  0  0  0  0
   -1.2794   -1.1113    1.0935 H   0  0  0  0  0  0  0  0  0  0  0  0
   -0.9980    0.8033   -0.1933 H   0  0  0  0  0  0  0  0  0  0  0  0
    1.2835    1.8391    0.2788 H   0  0  0  0  0  0  0  0  0  0  0  0
    1.7906    0.3334    1.0184 H   0  0  0  0  0  0  0  0  0  0  0  0
   -0.0429    0.5663    2.7327 H   0  0  0  0  0  0  0  0  0  0  0  0
   -0.5560    2.0702    1.9623 H   0  0  0  0  0  0  0  0  0  0  0  0
    2.2184    1.5609    3.1609 H   0  0  0  0  0  0  0  0  0  0  0  0
    1.6840    3.0748    2.4262 H   0  0  0  0  0  0  0  0  0  0  0  0
    0.3951    1.7701    4.8898 H   0  0  0  0  0  0  0  0  0  0  0  0
   -0.1062    3.3015    4.1589 H   0  0  0  0  0  0  0  0  0  0  0  0
    2.6026    3.3600    4.5989 H   0  0  0  0  0  0  0  0  0  0  0  0
    1.4280    4.2741    5.2706 H   0  0  0  0  0  0  0  0  0  0  0  0
    1.6704   -0.8538   -1.3409 N   0  0  0  0  0  0  0  0  0  0  0  0
    2.4408   -1.2659   -2.4922 C   0  0  2  0  0  0  0  0  0  0  0  0
    3.0135   -2.6476   -2.2048 C   0  0  0  0  0  0  0  0  0  0  0  0
    3.3629   -3.0088   -1.0830 O   0  0  0  0  0  0  0  0  0  0  0  0
    3.5493   -0.2716   -2.8009 C   0  0  0  0  0  0  0  0  0  0  0  0
    1.9893   -1.1665   -0.4287 H   0  0  0  0  0  0  0  0  0  0  0  0
    1.7429   -1.3271   -3.3343 H   0  0  0  0  0  0  0  0  0  0  0  0
    4.2585   -0.1967   -1.9685 H   0  0  0  0  0  0  0  0  0  0  0  0
    4.1140   -0.5704   -3.6903 H   0  0  0  0  0  0  0  0  0  0  0  0
    3.1380    0.7280   -2.9781 H   0  0  0  0  0  0  0  0  0  0  0  0
    3.1285   -3.4146   -3.3557 N   0  0  0  0  0  0  0  0  0  0  0  0
    3.6842   -4.7477   -3.3519 C   0  0  0  0  0  0  0  0  0  0  0  0
    2.7767   -3.0502   -4.2362 H   0  0  0  0  0  0  0  0  0  0  0  0
    4.7624   -4.6967   -3.5639 H   0  0  0  0  0  0  0  0  0  0  0  0
    3.5260   -5.2079   -2.3654 H   0  0  0  0  0  0  0  0  0  0  0  0
    3.1872   -5.3541   -4.1234 H   0  0  0  0  0  0  0  0  0  0  0  0
  1  3  1  0  0  0  0
  1  7  1  0  0  0  0
  1  2  2  0  0  0  0
 39 40  1  0  0  0  0
 40 48  1  0  0  0  0
 40 41  2  0  0  0  0
  8  9  1  0  0  0  0
  9 17  1  0  0  0  0
  9 10  2  0  0  0  0
 18 19  1  0  0  0  0
 19 38  1  0  0  0  0
 19 20  2  0  0  0  0
 39 42  1  0  0  0  0
  8 11  1  0  0  0  0
 48 49  1  0  0  0  0
 22 23  1  0  0  0  0
 21 22  1  0  0  0  0
 23 24  1  0  0  0  0
 18 21  1  0  0  0  0
 24 25  1  0  0  0  0
 38 39  1  0  0  0  0
  7  8  1  0  0  0  0
 17 18  1  0  0  0  0
  3  4  1  0  0  0  0
  3  5  1  0  0  0  0
  3  6  1  0  0  0  0
 42 45  1  0  0  0  0
 42 46  1  0  0  0  0
 42 47  1  0  0  0  0
 11 14  1  0  0  0  0
 11 15  1  0  0  0  0
 11 16  1  0  0  0  0
 49 51  1  0  0  0  0
 49 52  1  0  0  0  0
 49 53  1  0  0  0  0
 22 30  1  0  0  0  0
 22 31  1  0  0  0  0
 23 32  1  0  0  0  0
 23 33  1  0  0  0  0
 21 28  1  0  0  0  0
 21 29  1  0  0  0  0
 24 34  1  0  0  0  0
 24 35  1  0  0  0  0
 39 44  1  0  0  0  0
  8 13  1  0  0  0  0
 18 27  1  0  0  0  0
 25 36  1  0  0  0  0
 25 37  1  0  0  0  0
 48 50  1  0  0  0  0
  7 12  1  0  0  0  0
 38 43  1  0  0  0  0
 17 26  1  0  0  0  0
M  END
$$$$

  -OEChem-05262214473D

 53 52  0     1  0  0  0  0  0999 V2000
   -1.0338   -5.6785    0.1476 C   0  0  0  0  0  0  0  0  0  0  0  0
   -2.0514   -5.7797    0.8227 O   0  0  0  0  0  0  0  0  0  0  0  0
   -0.6558   -6.7819   -0.7841 C   0  0  0  0  0  0  0  0  0  0  0  0
   -0.0111   -7.5354   -0.3038 H   0  0  0  0  0  0  0  0  0  0  0  0
   -1.5317   -7.3401   -1.1520 H   0  0  0  0  0  0  0  0  0  0  0  0
   -0.1109   -6.4687   -1.6890 H   0  0  0  0  0  0  0  0  0  0  0  0
   -0.1543   -4.6083    0.1480 N   0  0  0  0  0  0  0  0  0  0  0  0
   -0.3302   -3.4398    0.9696 C   0  0  2  0  0  0  0  0  0  0  0  0
    0.2328   -2.2439    0.2131 C   0  0  0  0  0  0  0  0  0  0  0  0
    1.2097   -2.3192   -0.5294 O   0  0  0  0  0  0  0  0  0  0  0  0
    0.3557   -3.6024    2.3171 C   0  0  0  0  0  0  0  0  0  0  0  0
    0.6584   -4.6506   -0.4643 H   0  0  0  0  0  0  0  0  0  0  0  0
   -1.4091   -3.3101    1.1082 H   0  0  0  0  0  0  0  0  0  0  0  0
    1.4375   -3.7336    2.1985 H   0  0  0  0  0  0  0  0  0  0  0  0
    0.1969   -2.7243    2.9517 H   0  0  0  0  0  0  0  0  0  0  0  0
   -0.0294   -4.4803    2.8470 H   0  0  0  0  0  0  0  0  0  0  0  0
   -0.4616   -1.0893    0.5050 N   0  0  0  0  0  0  0  0  0  0  0  0
   -0.0884    0.2050   -0.0621 C   0  0  2  0  0  0  0  0  0  0  0  0
    0.5401   -0.0530   -1.4286 C   0  0  0  0  0  0  0  0  0  0  0  0
    0.2461    0.5912   -2.4337 O   0  0  0  0  0  0  0  0  0  0  0  0
    0.9111    0.9625    0.8249 C   0  0  0  0  0  0  0  0  0  0  0  0
    0.3115    1.4280    2.1559 C   0  0  0  0  0  0  0  0  0  0  0  0
    1.3410    2.1970    2.9884 C   0  0  0  0  0  0  0  0  0  0  0  0
    0.7501    2.6396    4.3259 C   0  0  0  0  0  0  0  0  0  0  0  0
    1.7524    3.3487    5.1123 N   0  0  0  0  0  0  0  0  0  0  0  0
   -1.2794   -1.1113    1.0935 H   0  0  0  0  0  0  0  0  0  0  0  0
   -0.9980    0.8033   -0.1933 H   0  0  0  0  0  0  0  0  0  0  0  0
    1.2835    1.8391    0.2788 H   0  0  0  0  0  0  0  0  0  0  0  0
    1.7906    0.3334    1.0184 H   0  0  0  0  0  0  0  0  0  0  0  0
   -0.0429    0.5663    2.7327 H   0  0  0  0  0  0  0  0  0  0  0  0
   -0.5560    2.0702    1.9623 H   0  0  0  0  0  0  0  0  0  0  0  0
    2.2184    1.5609    3.1609 H   0  0  0  0  0  0  0  0  0  0  0  0
    1.6840    3.0748    2.4262 H   0  0  0  0  0  0  0  0  0  0  0  0
    0.3951    1.7701    4.8898 H   0  0  0  0  0  0  0  0  0  0  0  0
   -0.1062    3.3015    4.1589 H   0  0  0  0  0  0  0  0  0  0  0  0
    2.6026    3.3600    4.5989 H   0  0  0  0  0  0  0  0  0  0  0  0
    1.4280    4.2741    5.2706 H   0  0  0  0  0  0  0  0  0  0  0  0
    1.4498   -1.1009   -1.3958 N   0  0  0  0  0  0  0  0  0  0  0  0
    2.1687   -1.5629   -2.5612 C   0  0  2  0  0  0  0  0  0  0  0  0
    2.3920   -3.0621   -2.4123 C   0  0  0  0  0  0  0  0  0  0  0  0
    2.5856   -3.6070   -1.3276 O   0  0  0  0  0  0  0  0  0  0  0  0
    3.4913   -0.8297   -2.7222 C   0  0  0  0  0  0  0  0  0  0  0  0
    1.6365   -1.5704   -0.5147 H   0  0  0  0  0  0  0  0  0  0  0  0
    1.5240   -1.3733   -3.4263 H   0  0  0  0  0  0  0  0  0  0  0  0
    4.1507   -1.0078   -1.8649 H   0  0  0  0  0  0  0  0  0  0  0  0
    4.0215   -1.1607   -3.6213 H   0  0  0  0  0  0  0  0  0  0  0  0
    3.3309    0.2511   -2.7993 H   0  0  0  0  0  0  0  0  0  0  0  0
    2.3927   -3.7139   -3.6376 N   0  0  0  0  0  0  0  0  0  0  0  0
    2.6266   -5.1334   -3.7655 C   0  0  0  0  0  0  0  0  0  0  0  0
    2.1840   -3.1899   -4.4824 H   0  0  0  0  0  0  0  0  0  0  0  0
    3.6979   -5.3150   -3.9367 H   0  0  0  0  0  0  0  0  0  0  0  0
    2.3117   -5.6414   -2.8420 H   0  0  0  0  0  0  0  0  0  0  0  0
    2.0481   -5.5251   -4.6150 H   0  0  0  0  0  0  0  0  0  0  0  0
  1  3  1  0  0  0  0
  1  7  1  0  0  0  0
  1  2  2  0  0  0  0
 39 40  1  0  0  0  0
 40 48  1  0  0  0  0
 40 41  2  0  0  0  0
  8  9  1  0  0  0  0
  9 17  1  0  0  0  0
  9 10  2  0  0  0  0
 18 19  1  0  0  0  0
 19 38  1  0  0  0  0
 19 20  2  0  0  0  0
 39 42  1  0  0  0  0
  8 11  1  0  0  0  0
 48 49  1  0  0  0  0
 22 23  1  0  0  0  0
 21 22  1  0  0  0  0
 23 24  1  0  0  0  0
 18 21  1  0  0  0  0
 24 25  1  0  0  0  0
 38 39  1  0  0  0  0
  7  8  1  0  0  0  0
 17 18  1  0  0  0  0
  3  4  1  0  0  0  0
  3  5  1  0  0  0  0
  3  6  1  0  0  0  0
 42 45  1  0  0  0  0
 42 46  1  0  0  0  0
 42 47  1  0  0  0  0
 11 14  1  0  0  0  0
 11 15  1  0  0  0  0
 11 16  1  0  0  0  0
 49 51  1  0  0  0  0
 49 52  1  0  0  0  0
 49 53  1  0  0  0  0
 22 30  1  0  0  0  0
 22 31  1  0  0  0  0
 23 32  1  0  0  0  0
 23 33  1  0  0  0  0
 21 28  1  0  0  0  0
 21 29  1  0  0  0  0
 24 34  1  0  0  0  0
 24 35  1  0  0  0  0
 39 44  1  0  0  0  0
  8 13  1  0  0  0  0
 18 27  1  0  0  0  0
 25 36  1  0  0  0  0
 25 37  1  0  0  0  0
 48 50  1  0  0  0  0
  7 12  1  0  0  0  0
 38 43  1  0  0  0  0
 17 26  1  0  0  0  0
M  END
$$$$

  -OEChem-05262214473D

 53 52  0     1  0  0  0  0  0999 V2000
   -1.0338   -5.6785    0.1476 C   0  0  0  0  0  0  0  0  0  0  0  0
   -2.0514   -5.7797    0.8227 O   0  0  0  0  0  0  0  0  0  0  0  0
   -0.6558   -6.7819   -0.7841 C   0  0  0  0  0  0  0  0  0  0  0  0
   -0.0111   -7.5354   -0.3038 H   0  0  0  0  0  0  0  0  0  0  0  0
   -1.5317   -7.3401   -1.1520 H   0  0  0  0  0  0  0  0  0  0  0  0
   -0.1109   -6.4687   -1.6890 H   0  0  0  0  0  0  0  0  0  0  0  0
   -0.1543   -4.6083    0.1480 N   0  0  0  0  0  0  0  0  0  0  0  0
   -0.3302   -3.4398    0.9696 C   0  0  2  0  0  0  0  0  0  0  0  0
    0.2328   -2.2439    0.2131 C   0  0  0  0  0  0  0  0  0  0  0  0
    1.2097   -2.3192   -0.5294 O   0  0  0  0  0  0  0  0  0  0  0  0
    0.3557   -3.6024    2.3171 C   0  0  0  0  0  0  0  0  0  0  0  0
    0.6584   -4.6506   -0.4643 H   0  0  0  0  0  0  0  0  0  0  0  0
   -1.4091   -3.3101    1.1082 H   0  0  0  0  0  0  0  0  0  0  0  0
    1.4375   -3.7336    2.1985 H   0  0  0  0  0  0  0  0  0  0  0  0
    0.1969   -2.7243    2.9517 H   0  0  0  0  0  0  0  0  0  0  0  0
   -0.0294   -4.4803    2.8470 H   0  0  0  0  0  0  0  0  0  0  0  0
   -0.4616   -1.0893    0.5050 N   0  0  0  0  0  0  0  0  0  0  0  0
   -0.0884    0.2050   -0.0621 C   0  0  2  0  0  0  0  0  0  0  0  0
    0.5401   -0.0530   -1.4286 C   0  0  0  0  0  0  0  0  0  0  0  0
    0.4588    0.7406   -2.3641 O   0  0  0  0  0  0  0  0  0  0  0  0
    0.9111    0.9625    0.8249 C   0  0  0  0  0  0  0  0  0  0  0  0
    0.3115    1.4280    2.1559 C   0  0  0  0  0  0  0  0  0  0  0  0
    1.3410    2.1970    2.9884 C   0  0  0  0  0  0  0  0  0  0  0  0
    0.7501    2.6396    4.3259 C   0  0  0  0  0  0  0  0  0  0  0  0
    1.7524    3.3487    5.1123 N   0  0  0  0  0  0  0  0  0  0  0  0
   -1.2794   -1.1113    1.0935 H   0  0  0  0  0  0  0  0  0  0  0  0
   -0.9980    0.8033   -0.1933 H   0  0  0  0  0  0  0  0  0  0  0  0
    1.2835    1.8391    0.2788 H   0  0  0  0  0  0  0  0  0  0  0  0
    1.7906    0.3334    1.0184 H   0  0  0  0  0  0  0  0  0  0  0  0
   -0.0429    0.5663    2.7327 H   0  0  0  0  0  0  0  0  0  0  0  0
   -0.5560    2.0702    1.9623 H   0  0  0  0  0  0  0  0  0  0  0  0
    2.2184    1.5609    3.1609 H   0  0  0  0  0  0  0  0  0  0  0  0
    1.6840    3.0748    2.4262 H   0  0  0  0  0  0  0  0  0  0  0  0
    0.3951    1.7701    4.8898 H   0  0  0  0  0  0  0  0  0  0  0  0
   -0.1062    3.3015    4.1589 H   0  0  0  0  0  0  0  0  0  0  0  0
    2.6026    3.3600    4.5989 H   0  0  0  0  0  0  0  0  0  0  0  0
    1.4280    4.2741    5.2706 H   0  0  0  0  0  0  0  0  0  0  0  0
    1.1818   -1.2825   -1.4847 N   0  0  0  0  0  0  0  0  0  0  0  0
    1.8401   -1.7794   -2.6715 C   0  0  2  0  0  0  0  0  0  0  0  0
    1.7048   -3.2963   -2.6842 C   0  0  0  0  0  0  0  0  0  0  0  0
    1.7067   -3.9785   -1.6616 O   0  0  0  0  0  0  0  0  0  0  0  0
    3.3025   -1.3638   -2.7083 C   0  0  0  0  0  0  0  0  0  0  0  0
    1.2059   -1.8696   -0.6562 H   0  0  0  0  0  0  0  0  0  0  0  0
    1.3058   -1.3573   -3.5297 H   0  0  0  0  0  0  0  0  0  0  0  0
    3.8541   -1.7773   -1.8561 H   0  0  0  0  0  0  0  0  0  0  0  0
    3.7924   -1.7167   -3.6217 H   0  0  0  0  0  0  0  0  0  0  0  0
    3.3989   -0.2734   -2.6690 H   0  0  0  0  0  0  0  0  0  0  0  0
    1.6249   -3.8024   -3.9740 N   0  0  0  0  0  0  0  0  0  0  0  0
    1.5338   -5.2167   -4.2523 C   0  0  0  0  0  0  0  0  0  0  0  0
    1.5899   -3.1613   -4.7611 H   0  0  0  0  0  0  0  0  0  0  0  0
    2.5428   -5.6258   -4.4093 H   0  0  0  0  0  0  0  0  0  0  0  0
    1.0593   -5.7279   -3.4017 H   0  0  0  0  0  0  0  0  0  0  0  0
    0.9296   -5.3739   -5.1580 H   0  0  0  0  0  0  0  0  0  0  0  0
  1  3  1  0  0  0  0
  1  7  1  0  0  0  0
  1  2  2  0  0  0  0
 39 40  1  0  0  0  0
 40 48  1  0  0  0  0
 40 41  2  0  0  0  0
  8  9  1  0  0  0  0
  9 17  1  0  0  0  0
  9 10  2  0  0  0  0
 18 19  1  0  0  0  0
 19 38  1  0  0  0  0
 19 20  2  0  0  0  0
 39 42  1  0  0  0  0
  8 11  1  0  0  0  0
 48 49  1  0  0  0  0
 22 23  1  0  0  0  0
 21 22  1  0  0  0  0
 23 24  1  0  0  0  0
 18 21  1  0  0  0  0
 24 25  1  0  0  0  0
 38 39  1  0  0  0  0
  7  8  1  0  0  0  0
 17 18  1  0  0  0  0
  3  4  1  0  0  0  0
  3  5  1  0  0  0  0
  3  6  1  0  0  0  0
 42 45  1  0  0  0  0
 42 46  1  0  0  0  0
 42 47  1  0  0  0  0
 11 14  1  0  0  0  0
 11 15  1  0  0  0  0
 11 16  1  0  0  0  0
 49 51  1  0  0  0  0
 49 52  1  0  0  0  0
 49 53  1  0  0  0  0
 22 30  1  0  0  0  0
 22 31  1  0  0  0  0
 23 32  1  0  0  0  0
 23 33  1  0  0  0  0
 21 28  1  0  0  0  0
 21 29  1  0  0  0  0
 24 34  1  0  0  0  0
 24 35  1  0  0  0  0
 39 44  1  0  0  0  0
  8 13  1  0  0  0  0
 18 27  1  0  0  0  0
 25 36  1  0  0  0  0
 25 37  1  0  0  0  0
 48 50  1  0  0  0  0
  7 12  1  0  0  0  0
 38 43  1  0  0  0  0
 17 26  1  0  0  0  0
M  END
$$$$

  -OEChem-05262214473D

 53 52  0     1  0  0  0  0  0999 V2000
   -1.0338   -5.6785    0.1476 C   0  0  0  0  0  0  0  0  0  0  0  0
   -2.0514   -5.7797    0.8227 O   0  0  0  0  0  0  0  0  0  0  0  0
   -0.6558   -6.7819   -0.7841 C   0  0  0  0  0  0  0  0  0  0  0  0
   -0.0111   -7.5354   -0.3038 H   0  0  0  0  0  0  0  0  0  0  0  0
   -1.5317   -7.3401   -1.1520 H   0  0  0  0  0  0  0  0  0  0  0  0
   -0.1109   -6.4687   -1.6890 H   0  0  0  0  0  0  0  0  0  0  0  0
   -0.1543   -4.6083    0.1480 N   0  0  0  0  0  0  0  0  0  0  0  0
   -0.3302   -3.4398    0.9696 C   0  0  2  0  0  0  0  0  0  0  0  0
    0.2328   -2.2439    0.2131 C   0  0  0  0  0  0  0  0  0  0  0  0
    1.2097   -2.3192   -0.5294 O   0  0  0  0  0  0  0  0  0  0  0  0
    0.3557   -3.6024    2.3171 C   0  0  0  0  0  0  0  0  0  0  0  0
    0.6584   -4.6506   -0.4643 H   0  0  0  0  0  0  0  0  0  0  0  0
   -1.4091   -3.3101    1.1082 H   0  0  0  0  0  0  0  0  0  0  0  0
    1.4375   -3.7336    2.1985 H   0  0  0  0  0  0  0  0  0  0  0  0
    0.1969   -2.7243    2.9517 H   0  0  0  0  0  0  0  0  0  0  0  0
   -0.0294   -4.4803    2.8470 H   0  0  0  0  0  0  0  0  0  0  0  0
   -0.4616   -1.0893    0.5050 N   0  0  0  0  0  0  0  0  0  0  0  0
   -0.0884    0.2050   -0.0621 C   0  0  2  0  0  0  0  0  0  0  0  0
    0.5401   -0.0530   -1.4286 C   0  0  0  0  0  0  0  0  0  0  0  0
    0.6958    0.8283   -2.2716 O   0  0  0  0  0  0  0  0  0  0  0  0
    0.9111    0.9625    0.8249 C   0  0  0  0  0  0  0  0  0  0  0  0
    0.3115    1.4280    2.1559 C   0  0  0  0  0  0  0  0  0  0  0  0
    1.3410    2.1970    2.9884 C   0  0  0  0  0  0  0  0  0  0  0  0
    0.7501    2.6396    4.3259 C   0  0  0  0  0  0  0  0  0  0  0  0
    1.7524    3.3487    5.1123 N   0  0  0  0  0  0  0  0  0  0  0  0
   -1.2794   -1.1113    1.0935 H   0  0  0  0  0  0  0  0  0  0  0  0
   -0.9980    0.8033   -0.1933 H   0  0  0  0  0  0  0  0  0  0  0  0
    1.2835    1.8391    0.2788 H   0  0  0  0  0  0  0  0  0  0  0  0
    1.7906    0.3334    1.0184 H   0  0  0  0  0  0  0  0  0  0  0  0
   -0.0429    0.5663    2.7327 H   0  0  0  0  0  0  0  0  0  0  0  0
   -0.5560    2.0702    1.9623 H   0  0  0  0  0  0  0  0  0  0  0  0
    2.2184    1.5609    3.1609 H   0  0  0  0  0  0  0  0  0  0  0  0
    1.6840    3.0748    2.4262 H   0  0  0  0  0  0  0  0  0  0  0  0
    0.3951    1.7701    4.8898 H   0  0  0  0  0  0  0  0  0  0  0  0
   -0.1062    3.3015    4.1589 H   0  0  0  0  0  0  0  0  0  0  0  0
    2.6026    3.3600    4.5989 H   0  0  0  0  0  0  0  0  0  0  0  0
    1.4280    4.2741    5.2706 H   0  0  0  0  0  0  0  0  0  0  0  0
    0.8848   -1.3864   -1.6017 N   0  0  0  0  0  0  0  0  0  0  0  0
    1.4772   -1.9006   -2.8155 C   0  0  2  0  0  0  0  0  0  0  0  0
    0.9985   -3.3343   -3.0018 C   0  0  0  0  0  0  0  0  0  0  0  0
    0.7864   -4.0981   -2.0622 O   0  0  0  0  0  0  0  0  0  0  0  0
    2.9957   -1.8374   -2.7599 C   0  0  0  0  0  0  0  0  0  0  0  0
    0.7269   -2.0437   -0.8437 H   0  0  0  0  0  0  0  0  0  0  0  0
    1.1032   -1.2803   -3.6374 H   0  0  0  0  0  0  0  0  0  0  0  0
    3.3888   -2.4528   -1.9425 H   0  0  0  0  0  0  0  0  0  0  0  0
    3.4423   -2.2007   -3.6914 H   0  0  0  0  0  0  0  0  0  0  0  0
    3.3373   -0.8096   -2.5961 H   0  0  0  0  0  0  0  0  0  0  0  0
    0.8775   -3.6741   -4.3419 N   0  0  0  0  0  0  0  0  0  0  0  0
    0.4802   -4.9921   -4.7792 C   0  0  0  0  0  0  0  0  0  0  0  0
    1.0349   -2.9662   -5.0531 H   0  0  0  0  0  0  0  0  0  0  0  0
    1.3757   -5.6079   -4.9494 H   0  0  0  0  0  0  0  0  0  0  0  0
   -0.1460   -5.4615   -4.0063 H   0  0  0  0  0  0  0  0  0  0  0  0
   -0.0919   -4.9107   -5.7152 H   0  0  0  0  0  0  0  0  0  0  0  0
  1  3  1  0  0  0  0
  1  7  1  0  0  0  0
  1  2  2  0  0  0  0
 39 40  1  0  0  0  0
 40 48  1  0  0  0  0
 40 41  2  0  0  0  0
  8  9  1  0  0  0  0
  9 17  1  0  0  0  0
  9 10  2  0  0  0  0
 18 19  1  0  0  0  0
 19 38  1  0  0  0  0
 19 20  2  0  0  0  0
 39 42  1  0  0  0  0
  8 11  1  0  0  0  0
 48 49  1  0  0  0  0
 22 23  1  0  0  0  0
 21 22  1  0  0  0  0
 23 24  1  0  0  0  0
 18 21  1  0  0  0  0
 24 25  1  0  0  0  0
 38 39  1  0  0  0  0
  7  8  1  0  0  0  0
 17 18  1  0  0  0  0
  3  4  1  0  0  0  0
  3  5  1  0  0  0  0
  3  6  1  0  0  0  0
 42 45  1  0  0  0  0
 42 46  1  0  0  0  0
 42 47  1  0  0  0  0
 11 14  1  0  0  0  0
 11 15  1  0  0  0  0
 11 16  1  0  0  0  0
 49 51  1  0  0  0  0
 49 52  1  0  0  0  0
 49 53  1  0  0  0  0
 22 30  1  0  0  0  0
 22 31  1  0  0  0  0
 23 32  1  0  0  0  0
 23 33  1  0  0  0  0
 21 28  1  0  0  0  0
 21 29  1  0  0  0  0
 24 34  1  0  0  0  0
 24 35  1  0  0  0  0
 39 44  1  0  0  0  0
  8 13  1  0  0  0  0
 18 27  1  0  0  0  0
 25 36  1  0  0  0  0
 25 37  1  0  0  0  0
 48 50  1  0  0  0  0
  7 12  1  0  0  0  0
 38 43  1  0  0  0  0
 17 26  1  0  0  0  0
M  END
$$$$

  -OEChem-05262214473D

 53 52  0     1  0  0  0  0  0999 V2000
   -1.0338   -5.6785    0.1476 C   0  0  0  0  0  0  0  0  0  0  0  0
   -2.0514   -5.7797    0.8227 O   0  0  0  0  0  0  0  0  0  0  0  0
   -0.6558   -6.7819   -0.7841 C   0  0  0  0  0  0  0  0  0  0  0  0
   -0.0111   -7.5354   -0.3038 H   0  0  0  0  0  0  0  0  0  0  0  0
   -1.5317   -7.3401   -1.1520 H   0  0  0  0  0  0  0  0  0  0  0  0
   -0.1109   -6.4687   -1.6890 H   0  0  0  0  0  0  0  0  0  0  0  0
   -0.1543   -4.6083    0.1480 N   0  0  0  0  0  0  0  0  0  0  0  0
   -0.3302   -3.4398    0.9696 C   0  0  2  0  0  0  0  0  0  0  0  0
    0.2328   -2.2439    0.2131 C   0  0  0  0  0  0  0  0  0  0  0  0
    1.2097   -2.3192   -0.5294 O   0  0  0  0  0  0  0  0  0  0  0  0
    0.3557   -3.6024    2.3171 C   0  0  0  0  0  0  0  0  0  0  0  0
    0.6584   -4.6506   -0.4643 H   0  0  0  0  0  0  0  0  0  0  0  0
   -1.4091   -3.3101    1.1082 H   0  0  0  0  0  0  0  0  0  0  0  0
    1.4375   -3.7336    2.1985 H   0  0  0  0  0  0  0  0  0  0  0  0
    0.1969   -2.7243    2.9517 H   0  0  0  0  0  0  0  0  0  0  0  0
   -0.0294   -4.4803    2.8470 H   0  0  0  0  0  0  0  0  0  0  0  0
   -0.4616   -1.0893    0.5050 N   0  0  0  0  0  0  0  0  0  0  0  0
   -0.0884    0.2050   -0.0621 C   0  0  2  0  0  0  0  0  0  0  0  0
    0.5401   -0.0530   -1.4286 C   0  0  0  0  0  0  0  0  0  0  0  0
    0.9411    0.8481   -2.1626 O   0  0  0  0  0  0  0  0  0  0  0  0
    0.9111    0.9625    0.8249 C   0  0  0  0  0  0  0  0  0  0  0  0
    0.3115    1.4280    2.1559 C   0  0  0  0  0  0  0  0  0  0  0  0
    1.3410    2.1970    2.9884 C   0  0  0  0  0  0  0  0  0  0  0  0
    0.7501    2.6396    4.3259 C   0  0  0  0  0  0  0  0  0  0  0  0
    1.7524    3.3487    5.1123 N   0  0  0  0  0  0  0  0  0  0  0  0
   -1.2794   -1.1113    1.0935 H   0  0  0  0  0  0  0  0  0  0  0  0
   -0.9980    0.8033   -0.1933 H   0  0  0  0  0  0  0  0  0  0  0  0
    1.2835    1.8391    0.2788 H   0  0  0  0  0  0  0  0  0  0  0  0
    1.7906    0.3334    1.0184 H   0  0  0  0  0  0  0  0  0  0  0  0
   -0.0429    0.5663    2.7327 H   0  0  0  0  0  0  0  0  0  0  0  0
   -0.5560    2.0702    1.9623 H   0  0  0  0  0  0  0  0  0  0  0  0
    2.2184    1.5609    3.1609 H   0  0  0  0  0  0  0  0  0  0  0  0
    1.6840    3.0748    2.4262 H   0  0  0  0  0  0  0  0  0  0  0  0
    0.3951    1.7701    4.8898 H   0  0  0  0  0  0  0  0  0  0  0  0
   -0.1062    3.3015    4.1589 H   0  0  0  0  0  0  0  0  0  0  0  0
    2.6026    3.3600    4.5989 H   0  0  0  0  0  0  0  0  0  0  0  0
    1.4280    4.2741    5.2706 H   0  0  0  0  0  0  0  0  0  0  0  0
    0.5789   -1.4054   -1.7388 N   0  0  0  0  0  0  0  0  0  0  0  0
    1.1050   -1.9182   -2.9834 C   0  0  2  0  0  0  0  0  0  0  0  0
    0.3215   -3.1735   -3.3435 C   0  0  0  0  0  0  0  0  0  0  0  0
   -0.1128   -3.9576   -2.5023 O   0  0  0  0  0  0  0  0  0  0  0  0
    2.5919   -2.2182   -2.8737 C   0  0  0  0  0  0  0  0  0  0  0  0
    0.2320   -2.0808   -1.0642 H   0  0  0  0  0  0  0  0  0  0  0  0
    0.9302   -1.1475   -3.7420 H   0  0  0  0  0  0  0  0  0  0  0  0
    2.7867   -2.9882   -2.1183 H   0  0  0  0  0  0  0  0  0  0  0  0
    2.9949   -2.5796   -3.8256 H   0  0  0  0  0  0  0  0  0  0  0  0
    3.1503   -1.3211   -2.5855 H   0  0  0  0  0  0  0  0  0  0  0  0
    0.2014   -3.3378   -4.7164 N   0  0  0  0  0  0  0  0  0  0  0  0
   -0.4623   -4.4747   -5.3104 C   0  0  0  0  0  0  0  0  0  0  0  0
    0.5568   -2.6180   -5.3388 H   0  0  0  0  0  0  0  0  0  0  0  0
    0.2761   -5.2626   -5.5203 H   0  0  0  0  0  0  0  0  0  0  0  0
   -1.2221   -4.8604   -4.6146 H   0  0  0  0  0  0  0  0  0  0  0  0
   -0.9469   -4.1672   -6.2488 H   0  0  0  0  0  0  0  0  0  0  0  0
  1  3  1  0  0  0  0
  1  7  1  0  0  0  0
  1  2  2  0  0  0  0
 39 40  1  0  0  0  0
 40 48  1  0  0  0  0
 40 41  2  0  0  0  0
  8  9  1  0  0  0  0
  9 17  1  0  0  0  0
  9 10  2  0  0  0  0
 18 19  1  0  0  0  0
 19 38  1  0  0  0  0
 19 20  2  0  0  0  0
 39 42  1  0  0  0  0
  8 11  1  0  0  0  0
 48 49  1  0  0  0  0
 22 23  1  0  0  0  0
 21 22  1  0  0  0  0
 23 24  1  0  0  0  0
 18 21  1  0  0  0  0
 24 25  1  0  0  0  0
 38 39  1  0  0  0  0
  7  8  1  0  0  0  0
 17 18  1  0  0  0  0
  3  4  1  0  0  0  0
  3  5  1  0  0  0  0
  3  6  1  0  0  0  0
 42 45  1  0  0  0  0
 42 46  1  0  0  0  0
 42 47  1  0  0  0  0
 11 14  1  0  0  0  0
 11 15  1  0  0  0  0
 11 16  1  0  0  0  0
 49 51  1  0  0  0  0
 49 52  1  0  0  0  0
 49 53  1  0  0  0  0
 22 30  1  0  0  0  0
 22 31  1  0  0  0  0
 23 32  1  0  0  0  0
 23 33  1  0  0  0  0
 21 28  1  0  0  0  0
 21 29  1  0  0  0  0
 24 34  1  0  0  0  0
 24 35  1  0  0  0  0
 39 44  1  0  0  0  0
  8 13  1  0  0  0  0
 18 27  1  0  0  0  0
 25 36  1  0  0  0  0
 25 37  1  0  0  0  0
 48 50  1  0  0  0  0
  7 12  1  0  0  0  0
 38 43  1  0  0  0  0
 17 26  1  0  0  0  0
M  END
$$$$

  -OEChem-05262214473D

 53 52  0     1  0  0  0  0  0999 V2000
   -1.0338   -5.6785    0.1476 C   0  0  0  0  0  0  0  0  0  0  0  0
   -2.0514   -5.7797    0.8227 O   0  0  0  0  0  0  0  0  0  0  0  0
   -0.6558   -6.7819   -0.7841 C   0  0  0  0  0  0  0  0  0  0  0  0
   -0.0111   -7.5354   -0.3038 H   0  0  0  0  0  0  0  0  0  0  0  0
   -1.5317   -7.3401   -1.1520 H   0  0  0  0  0  0  0  0  0  0  0  0
   -0.1109   -6.4687   -1.6890 H   0  0  0  0  0  0  0  0  0  0  0  0
   -0.1543   -4.6083    0.1480 N   0  0  0  0  0  0  0  0  0  0  0  0
   -0.3302   -3.4398    0.9696 C   0  0  2  0  0  0  0  0  0  0  0  0
    0.2328   -2.2439    0.2131 C   0  0  0  0  0  0  0  0  0  0  0  0
    1.2097   -2.3192   -0.5294 O   0  0  0  0  0  0  0  0  0  0  0  0
    0.3557   -3.6024    2.3171 C   0  0  0  0  0  0  0  0  0  0  0  0
    0.6584   -4.6506   -0.4643 H   0  0  0  0  0  0  0  0  0  0  0  0
   -1.4091   -3.3101    1.1082 H   0  0  0  0  0  0  0  0  0  0  0  0
    1.4375   -3.7336    2.1985 H   0  0  0  0  0  0  0  0  0  0  0  0
    0.1969   -2.7243    2.9517 H   0  0  0  0  0  0  0  0  0  0  0  0
   -0.0294   -4.4803    2.8470 H   0  0  0  0  0  0  0  0  0  0  0  0
   -0.4616   -1.0893    0.5050 N   0  0  0  0  0  0  0  0  0  0  0  0
   -0.0884    0.2050   -0.0621 C   0  0  2  0  0  0  0  0  0  0  0  0
    0.5401   -0.0530   -1.4286 C   0  0  0  0  0  0  0  0  0  0  0  0
    1.1777    0.7989   -2.0444 O   0  0  0  0  0  0  0  0  0  0  0  0
    0.9111    0.9625    0.8249 C   0  0  0  0  0  0  0  0  0  0  0  0
    0.3115    1.4280    2.1559 C   0  0  0  0  0  0  0  0  0  0  0  0
    1.3410    2.1970    2.9884 C   0  0  0  0  0  0  0  0  0  0  0  0
    0.7501    2.6396    4.3259 C   0  0  0  0  0  0  0  0  0  0  0  0
    1.7524    3.3487    5.1123 N   0  0  0  0  0  0  0  0  0  0  0  0
   -1.2794   -1.1113    1.0935 H   0  0  0  0  0  0  0  0  0  0  0  0
   -0.9980    0.8033   -0.1933 H   0  0  0  0  0  0  0  0  0  0  0  0
    1.2835    1.8391    0.2788 H   0  0  0  0  0  0  0  0  0  0  0  0
    1.7906    0.3334    1.0184 H   0  0  0  0  0  0  0  0  0  0  0  0
   -0.0429    0.5663    2.7327 H   0  0  0  0  0  0  0  0  0  0  0  0
   -0.5560    2.0702    1.9623 H   0  0  0  0  0  0  0  0  0  0  0  0
    2.2184    1.5609    3.1609 H   0  0  0  0  0  0  0  0  0  0  0  0
    1.6840    3.0748    2.4262 H   0  0  0  0  0  0  0  0  0  0  0  0
    0.3951    1.7701    4.8898 H   0  0  0  0  0  0  0  0  0  0  0  0
   -0.1062    3.3015    4.1589 H   0  0  0  0  0  0  0  0  0  0  0  0
    2.6026    3.3600    4.5989 H   0  0  0  0  0  0  0  0  0  0  0  0
    1.4280    4.2741    5.2706 H   0  0  0  0  0  0  0  0  0  0  0  0
    0.2850   -1.3382   -1.8866 N   0  0  0  0  0  0  0  0  0  0  0  0
    0.7488   -1.8310   -3.1637 C   0  0  2  0  0  0  0  0  0  0  0  0
   -0.2803   -2.8248   -3.6861 C   0  0  0  0  0  0  0  0  0  0  0  0
   -0.9295   -3.5666   -2.9517 O   0  0  0  0  0  0  0  0  0  0  0  0
    2.1185   -2.4804   -3.0419 C   0  0  0  0  0  0  0  0  0  0  0  0
   -0.2450   -1.9785   -1.3029 H   0  0  0  0  0  0  0  0  0  0  0  0
    0.7983   -0.9680   -3.8366 H   0  0  0  0  0  0  0  0  0  0  0  0
    2.0886   -3.3471   -2.3716 H   0  0  0  0  0  0  0  0  0  0  0  0
    2.4809   -2.8276   -4.0151 H   0  0  0  0  0  0  0  0  0  0  0  0
    2.8507   -1.7729   -2.6380 H   0  0  0  0  0  0  0  0  0  0  0  0
   -0.3574   -2.8163   -5.0718 N   0  0  0  0  0  0  0  0  0  0  0  0
   -1.2296   -3.7000   -5.8095 C   0  0  0  0  0  0  0  0  0  0  0  0
    0.1881   -2.1404   -5.5985 H   0  0  0  0  0  0  0  0  0  0  0  0
   -0.6810   -4.6133   -6.0830 H   0  0  0  0  0  0  0  0  0  0  0  0
   -2.0955   -3.9655   -5.1853 H   0  0  0  0  0  0  0  0  0  0  0  0
   -1.5771   -3.1940   -6.7223 H   0  0  0  0  0  0  0  0  0  0  0  0
  1  3  1  0  0  0  0
  1  7  1  0  0  0  0
  1  2  2  0  0  0  0
 39 40  1  0  0  0  0
 40 48  1  0  0  0  0
 40 41  2  0  0  0  0
  8  9  1  0  0  0  0
  9 17  1  0  0  0  0
  9 10  2  0  0  0  0
 18 19  1  0  0  0  0
 19 38  1  0  0  0  0
 19 20  2  0  0  0  0
 39 42  1  0  0  0  0
  8 11  1  0  0  0  0
 48 49  1  0  0  0  0
 22 23  1  0  0  0  0
 21 22  1  0  0  0  0
 23 24  1  0  0  0  0
 18 21  1  0  0  0  0
 24 25  1  0  0  0  0
 38 39  1  0  0  0  0
  7  8  1  0  0  0  0
 17 18  1  0  0  0  0
  3  4  1  0  0  0  0
  3  5  1  0  0  0  0
  3  6  1  0  0  0  0
 42 45  1  0  0  0  0
 42 46  1  0  0  0  0
 42 47  1  0  0  0  0
 11 14  1  0  0  0  0
 11 15  1  0  0  0  0
 11 16  1  0  0  0  0
 49 51  1  0  0  0  0
 49 52  1  0  0  0  0
 49 53  1  0  0  0  0
 22 30  1  0  0  0  0
 22 31  1  0  0  0  0
 23 32  1  0  0  0  0
 23 33  1  0  0  0  0
 21 28  1  0  0  0  0
 21 29  1  0  0  0  0
 24 34  1  0  0  0  0
 24 35  1  0  0  0  0
 39 44  1  0  0  0  0
  8 13  1  0  0  0  0
 18 27  1  0  0  0  0
 25 36  1  0  0  0  0
 25 37  1  0  0  0  0
 48 50  1  0  0  0  0
  7 12  1  0  0  0  0
 38 43  1  0  0  0  0
 17 26  1  0  0  0  0
M  END
$$$$

  -OEChem-05262214473D

 53 52  0     1  0  0  0  0  0999 V2000
   -1.0338   -5.6785    0.1476 C   0  0  0  0  0  0  0  0  0  0  0  0
   -2.0514   -5.7797    0.8227 O   0  0  0  0  0  0  0  0  0  0  0  0
   -0.6558   -6.7819   -0.7841 C   0  0  0  0  0  0  0  0  0  0  0  0
   -0.0111   -7.5354   -0.3038 H   0  0  0  0  0  0  0  0  0  0  0  0
   -1.5317   -7.3401   -1.1520 H   0  0  0  0  0  0  0  0  0  0  0  0
   -0.1109   -6.4687   -1.6890 H   0  0  0  0  0  0  0  0  0  0  0  0
   -0.1543   -4.6083    0.1480 N   0  0  0  0  0  0  0  0  0  0  0  0
   -0.3302   -3.4398    0.9696 C   0  0  2  0  0  0  0  0  0  0  0  0
    0.2328   -2.2439    0.2131 C   0  0  0  0  0  0  0  0  0  0  0  0
    1.2097   -2.3192   -0.5294 O   0  0  0  0  0  0  0  0  0  0  0  0
    0.3557   -3.6024    2.3171 C   0  0  0  0  0  0  0  0  0  0  0  0
    0.6584   -4.6506   -0.4643 H   0  0  0  0  0  0  0  0  0  0  0  0
   -1.4091   -3.3101    1.1082 H   0  0  0  0  0  0  0  0  0  0  0  0
    1.4375   -3.7336    2.1985 H   0  0  0  0  0  0  0  0  0  0  0  0
    0.1969   -2.7243    2.9517 H   0  0  0  0  0  0  0  0  0  0  0  0
   -0.0294   -4.4803    2.8470 H   0  0  0  0  0  0  0  0  0  0  0  0
   -0.4616   -1.0893    0.5050 N   0  0  0  0  0  0  0  0  0  0  0  0
   -0.0884    0.2050   -0.0621 C   0  0  2  0  0  0  0  0  0  0  0  0
    0.5401   -0.0530   -1.4286 C   0  0  0  0  0  0  0  0  0  0  0  0
    1.3898    0.6838   -1.9252 O   0  0  0  0  0  0  0  0  0  0  0  0
    0.9111    0.9625    0.8249 C   0  0  0  0  0  0  0  0  0  0  0  0
    0.3115    1.4280    2.1559 C   0  0  0  0  0  0  0  0  0  0  0  0
    1.3410    2.1970    2.9884 C   0  0  0  0  0  0  0  0  0  0  0  0
    0.7501    2.6396    4.3259 C   0  0  0  0  0  0  0  0  0  0  0  0
    1.7524    3.3487    5.1123 N   0  0  0  0  0  0  0  0  0  0  0  0
   -1.2794   -1.1113    1.0935 H   0  0  0  0  0  0  0  0  0  0  0  0
   -0.9980    0.8033   -0.1933 H   0  0  0  0  0  0  0  0  0  0  0  0
    1.2835    1.8391    0.2788 H   0  0  0  0  0  0  0  0  0  0  0  0
    1.7906    0.3334    1.0184 H   0  0  0  0  0  0  0  0  0  0  0  0
   -0.0429    0.5663    2.7327 H   0  0  0  0  0  0  0  0  0  0  0  0
   -0.5560    2.0702    1.9623 H   0  0  0  0  0  0  0  0  0  0  0  0
    2.2184    1.5609    3.1609 H   0  0  0  0  0  0  0  0  0  0  0  0
    1.6840    3.0748    2.4262 H   0  0  0  0  0  0  0  0  0  0  0  0
    0.3951    1.7701    4.8898 H   0  0  0  0  0  0  0  0  0  0  0  0
   -0.1062    3.3015    4.1589 H   0  0  0  0  0  0  0  0  0  0  0  0
    2.6026    3.3600    4.5989 H   0  0  0  0  0  0  0  0  0  0  0  0
    1.4280    4.2741    5.2706 H   0  0  0  0  0  0  0  0  0  0  0  0
    0.0232   -1.1895   -2.0351 N   0  0  0  0  0  0  0  0  0  0  0  0
    0.4327   -1.6450   -3.3441 C   0  0  2  0  0  0  0  0  0  0  0  0
   -0.7658   -2.3120   -4.0062 C   0  0  0  0  0  0  0  0  0  0  0  0
   -1.6081   -2.9517   -3.3799 O   0  0  0  0  0  0  0  0  0  0  0  0
    1.6079   -2.6060   -3.2530 C   0  0  0  0  0  0  0  0  0  0  0  0
   -0.6715   -1.7437   -1.5434 H   0  0  0  0  0  0  0  0  0  0  0  0
    0.7167   -0.7540   -3.9145 H   0  0  0  0  0  0  0  0  0  0  0  0
    1.3423   -3.5050   -2.6850 H   0  0  0  0  0  0  0  0  0  0  0  0
    1.9352   -2.9279   -4.2472 H   0  0  0  0  0  0  0  0  0  0  0  0
    2.4589   -2.1343   -2.7500 H   0  0  0  0  0  0  0  0  0  0  0  0
   -0.7607   -2.1452   -5.3840 N   0  0  0  0  0  0  0  0  0  0  0  0
   -1.7694   -2.7206   -6.2427 C   0  0  0  0  0  0  0  0  0  0  0  0
   -0.0459   -1.5660   -5.8145 H   0  0  0  0  0  0  0  0  0  0  0  0
   -1.4304   -3.7044   -6.5992 H   0  0  0  0  0  0  0  0  0  0  0  0
   -2.7069   -2.8379   -5.6793 H   0  0  0  0  0  0  0  0  0  0  0  0
   -1.9396   -2.0574   -7.1036 H   0  0  0  0  0  0  0  0  0  0  0  0
  1  3  1  0  0  0  0
  1  7  1  0  0  0  0
  1  2  2  0  0  0  0
 39 40  1  0  0  0  0
 40 48  1  0  0  0  0
 40 41  2  0  0  0  0
  8  9  1  0  0  0  0
  9 17  1  0  0  0  0
  9 10  2  0  0  0  0
 18 19  1  0  0  0  0
 19 38  1  0  0  0  0
 19 20  2  0  0  0  0
 39 42  1  0  0  0  0
  8 11  1  0  0  0  0
 48 49  1  0  0  0  0
 22 23  1  0  0  0  0
 21 22  1  0  0  0  0
 23 24  1  0  0  0  0
 18 21  1  0  0  0  0
 24 25  1  0  0  0  0
 38 39  1  0  0  0  0
  7  8  1  0  0  0  0
 17 18  1  0  0  0  0
  3  4  1  0  0  0  0
  3  5  1  0  0  0  0
  3  6  1  0  0  0  0
 42 45  1  0  0  0  0
 42 46  1  0  0  0  0
 42 47  1  0  0  0  0
 11 14  1  0  0  0  0
 11 15  1  0  0  0  0
 11 16  1  0  0  0  0
 49 51  1  0  0  0  0
 49 52  1  0  0  0  0
 49 53  1  0  0  0  0
 22 30  1  0  0  0  0
 22 31  1  0  0  0  0
 23 32  1  0  0  0  0
 23 33  1  0  0  0  0
 21 28  1  0  0  0  0
 21 29  1  0  0  0  0
 24 34  1  0  0  0  0
 24 35  1  0  0  0  0
 39 44  1  0  0  0  0
  8 13  1  0  0  0  0
 18 27  1  0  0  0  0
 25 36  1  0  0  0  0
 25 37  1  0  0  0  0
 48 50  1  0  0  0  0
  7 12  1  0  0  0  0
 38 43  1  0  0  0  0
 17 26  1  0  0  0  0
M  END
$$$$

  -OEChem-05262214473D

 53 52  0     1  0  0  0  0  0999 V2000
   -1.0338   -5.6785    0.1476 C   0  0  0  0  0  0  0  0  0  0  0  0
   -2.0514   -5.7797    0.8227 O   0  0  0  0  0  0  0  0  0  0  0  0
   -0.6558   -6.7819   -0.7841 C   0  0  0  0  0  0  0  0  0  0  0  0
   -0.0111   -7.5354   -0.3038 H   0  0  0  0  0  0  0  0  0  0  0  0
   -1.5317   -7.3401   -1.1520 H   0  0  0  0  0  0  0  0  0  0  0  0
   -0.1109   -6.4687   -1.6890 H   0  0  0  0  0  0  0  0  0  0  0  0
   -0.1543   -4.6083    0.1480 N   0  0  0  0  0  0  0  0  0  0  0  0
   -0.3302   -3.4398    0.9696 C   0  0  2  0  0  0  0  0  0  0  0  0
    0.2328   -2.2439    0.2131 C   0  0  0  0  0  0  0  0  0  0  0  0
    1.2097   -2.3192   -0.5294 O   0  0  0  0  0  0  0  0  0  0  0  0
    0.3557   -3.6024    2.3171 C   0  0  0  0  0  0  0  0  0  0  0  0
    0.6584   -4.6506   -0.4643 H   0  0  0  0  0  0  0  0  0  0  0  0
   -1.4091   -3.3101    1.1082 H   0  0  0  0  0  0  0  0  0  0  0  0
    1.4375   -3.7336    2.1985 H   0  0  0  0  0  0  0  0  0  0  0  0
    0.1969   -2.7243    2.9517 H   0  0  0  0  0  0  0  0  0  0  0  0
   -0.0294   -4.4803    2.8470 H   0  0  0  0  0  0  0  0  0  0  0  0
   -0.4616   -1.0893    0.5050 N   0  0  0  0  0  0  0  0  0  0  0  0
   -0.0884    0.2050   -0.0621 C   0  0  2  0  0  0  0  0  0  0  0  0
    0.5401   -0.0530   -1.4286 C   0  0  0  0  0  0  0  0  0  0  0  0
    1.5627    0.5109   -1.8130 O   0  0  0  0  0  0  0  0  0  0  0  0
    0.9111    0.9625    0.8249 C   0  0  0  0  0  0  0  0  0  0  0  0
    0.3115    1.4280    2.1559 C   0  0  0  0  0  0  0  0  0  0  0  0
    1.3410    2.1970    2.9884 C   0  0  0  0  0  0  0  0  0  0  0  0
    0.7501    2.6396    4.3259 C   0  0  0  0  0  0  0  0  0  0  0  0
    1.7524    3.3487    5.1123 N   0  0  0  0  0  0  0  0  0  0  0  0
   -1.2794   -1.1113    1.0935 H   0  0  0  0  0  0  0  0  0  0  0  0
   -0.9980    0.8033   -0.1933 H   0  0  0  0  0  0  0  0  0  0  0  0
    1.2835    1.8391    0.2788 H   0  0  0  0  0  0  0  0  0  0  0  0
    1.7906    0.3334    1.0184 H   0  0  0  0  0  0  0  0  0  0  0  0
   -0.0429    0.5663    2.7327 H   0  0  0  0  0  0  0  0  0  0  0  0
   -0.5560    2.0702    1.9623 H   0  0  0  0  0  0  0  0  0  0  0  0
    2.2184    1.5609    3.1609 H   0  0  0  0  0  0  0  0  0  0  0  0
    1.6840    3.0748    2.4262 H   0  0  0  0  0  0  0  0  0  0  0  0
    0.3951    1.7701    4.8898 H   0  0  0  0  0  0  0  0  0  0  0  0
   -0.1062    3.3015    4.1589 H   0  0  0  0  0  0  0  0  0  0  0  0
    2.6026    3.3600    4.5989 H   0  0  0  0  0  0  0  0  0  0  0  0
    1.4280    4.2741    5.2706 H   0  0  0  0  0  0  0  0  0  0  0  0
   -0.1887   -0.9694   -2.1741 N   0  0  0  0  0  0  0  0  0  0  0  0
    0.1784   -1.3729   -3.5124 C   0  0  2  0  0  0  0  0  0  0  0  0
   -1.1018   -1.6701   -4.2819 C   0  0  0  0  0  0  0  0  0  0  0  0
   -2.1024   -2.1549   -3.7576 O   0  0  0  0  0  0  0  0  0  0  0  0
    1.0948   -2.5864   -3.4927 C   0  0  0  0  0  0  0  0  0  0  0  0
   -1.0186   -1.3925   -1.7694 H   0  0  0  0  0  0  0  0  0  0  0  0
    0.6909   -0.5200   -3.9705 H   0  0  0  0  0  0  0  0  0  0  0  0
    0.5985   -3.4511   -3.0372 H   0  0  0  0  0  0  0  0  0  0  0  0
    1.3950   -2.8735   -4.5059 H   0  0  0  0  0  0  0  0  0  0  0  0
    2.0016   -2.3807   -2.9138 H   0  0  0  0  0  0  0  0  0  0  0  0
   -0.9810   -1.3702   -5.6316 N   0  0  0  0  0  0  0  0  0  0  0  0
   -2.0448   -1.6033   -6.5803 C   0  0  0  0  0  0  0  0  0  0  0  0
   -0.1294   -0.9339   -5.9723 H   0  0  0  0  0  0  0  0  0  0  0  0
   -1.9211   -2.5978   -7.0338 H   0  0  0  0  0  0  0  0  0  0  0  0
   -3.0144   -1.5544   -6.0631 H   0  0  0  0  0  0  0  0  0  0  0  0
   -2.0096   -0.8349   -7.3666 H   0  0  0  0  0  0  0  0  0  0  0  0
  1  3  1  0  0  0  0
  1  7  1  0  0  0  0
  1  2  2  0  0  0  0
 39 40  1  0  0  0  0
 40 48  1  0  0  0  0
 40 41  2  0  0  0  0
  8  9  1  0  0  0  0
  9 17  1  0  0  0  0
  9 10  2  0  0  0  0
 18 19  1  0  0  0  0
 19 38  1  0  0  0  0
 19 20  2  0  0  0  0
 39 42  1  0  0  0  0
  8 11  1  0  0  0  0
 48 49  1  0  0  0  0
 22 23  1  0  0  0  0
 21 22  1  0  0  0  0
 23 24  1  0  0  0  0
 18 21  1  0  0  0  0
 24 25  1  0  0  0  0
 38 39  1  0  0  0  0
  7  8  1  0  0  0  0
 17 18  1  0  0  0  0
  3  4  1  0  0  0  0
  3  5  1  0  0  0  0
  3  6  1  0  0  0  0
 42 45  1  0  0  0  0
 42 46  1  0  0  0  0
 42 47  1  0  0  0  0
 11 14  1  0  0  0  0
 11 15  1  0  0  0  0
 11 16  1  0  0  0  0
 49 51  1  0  0  0  0
 49 52  1  0  0  0  0
 49 53  1  0  0  0  0
 22 30  1  0  0  0  0
 22 31  1  0  0  0  0
 23 32  1  0  0  0  0
 23 33  1  0  0  0  0
 21 28  1  0  0  0  0
 21 29  1  0  0  0  0
 24 34  1  0  0  0  0
 24 35  1  0  0  0  0
 39 44  1  0  0  0  0
  8 13  1  0  0  0  0
 18 27  1  0  0  0  0
 25 36  1  0  0  0  0
 25 37  1  0  0  0  0
 48 50  1  0  0  0  0
  7 12  1  0  0  0  0
 38 43  1  0  0  0  0
 17 26  1  0  0  0  0
M  END
$$$$

  -OEChem-05262214473D

 53 52  0     1  0  0  0  0  0999 V2000
   -1.0338   -5.6785    0.1476 C   0  0  0  0  0  0  0  0  0  0  0  0
   -2.0514   -5.7797    0.8227 O   0  0  0  0  0  0  0  0  0  0  0  0
   -0.6558   -6.7819   -0.7841 C   0  0  0  0  0  0  0  0  0  0  0  0
   -0.0111   -7.5354   -0.3038 H   0  0  0  0  0  0  0  0  0  0  0  0
   -1.5317   -7.3401   -1.1520 H   0  0  0  0  0  0  0  0  0  0  0  0
   -0.1109   -6.4687   -1.6890 H   0  0  0  0  0  0  0  0  0  0  0  0
   -0.1543   -4.6083    0.1480 N   0  0  0  0  0  0  0  0  0  0  0  0
   -0.3302   -3.4398    0.9696 C   0  0  2  0  0  0  0  0  0  0  0  0
    0.2328   -2.2439    0.2131 C   0  0  0  0  0  0  0  0  0  0  0  0
    1.2097   -2.3192   -0.5294 O   0  0  0  0  0  0  0  0  0  0  0  0
    0.3557   -3.6024    2.3171 C   0  0  0  0  0  0  0  0  0  0  0  0
    0.6584   -4.6506   -0.4643 H   0  0  0  0  0  0  0  0  0  0  0  0
   -1.4091   -3.3101    1.1082 H   0  0  0  0  0  0  0  0  0  0  0  0
    1.4375   -3.7336    2.1985 H   0  0  0  0  0  0  0  0  0  0  0  0
    0.1969   -2.7243    2.9517 H   0  0  0  0  0  0  0  0  0  0  0  0
   -0.0294   -4.4803    2.8470 H   0  0  0  0  0  0  0  0  0  0  0  0
   -0.4616   -1.0893    0.5050 N   0  0  0  0  0  0  0  0  0  0  0  0
   -0.0884    0.2050   -0.0621 C   0  0  2  0  0  0  0  0  0  0  0  0
    0.5401   -0.0530   -1.4286 C   0  0  0  0  0  0  0  0  0  0  0  0
    1.6848    0.2918   -1.7155 O   0  0  0  0  0  0  0  0  0  0  0  0
    0.9111    0.9625    0.8249 C   0  0  0  0  0  0  0  0  0  0  0  0
    0.3115    1.4280    2.1559 C   0  0  0  0  0  0  0  0  0  0  0  0
    1.3410    2.1970    2.9884 C   0  0  0  0  0  0  0  0  0  0  0  0
    0.7501    2.6396    4.3259 C   0  0  0  0  0  0  0  0  0  0  0  0
    1.7524    3.3487    5.1123 N   0  0  0  0  0  0  0  0  0  0  0  0
   -1.2794   -1.1113    1.0935 H   0  0  0  0  0  0  0  0  0  0  0  0
   -0.9980    0.8033   -0.1933 H   0  0  0  0  0  0  0  0  0  0  0  0
    1.2835    1.8391    0.2788 H   0  0  0  0  0  0  0  0  0  0  0  0
    1.7906    0.3334    1.0184 H   0  0  0  0  0  0  0  0  0  0  0  0
   -0.0429    0.5663    2.7327 H   0  0  0  0  0  0  0  0  0  0  0  0
   -0.5560    2.0702    1.9623 H   0  0  0  0  0  0  0  0  0  0  0  0
    2.2184    1.5609    3.1609 H   0  0  0  0  0  0  0  0  0  0  0  0
    1.6840    3.0748    2.4262 H   0  0  0  0  0  0  0  0  0  0  0  0
    0.3951    1.7701    4.8898 H   0  0  0  0  0  0  0  0  0  0  0  0
   -0.1062    3.3015    4.1589 H   0  0  0  0  0  0  0  0  0  0  0  0
    2.6026    3.3600    4.5989 H   0  0  0  0  0  0  0  0  0  0  0  0
    1.4280    4.2741    5.2706 H   0  0  0  0  0  0  0  0  0  0  0  0
   -0.3363   -0.6928   -2.2942 N   0  0  0  0  0  0  0  0  0  0  0  0
    0.0032   -1.0332   -3.6571 C   0  0  2  0  0  0  0  0  0  0  0  0
   -1.2656   -0.9427   -4.4946 C   0  0  0  0  0  0  0  0  0  0  0  0
   -2.3786   -1.2304   -4.0592 O   0  0  0  0  0  0  0  0  0  0  0  0
    0.6142   -2.4231   -3.7445 C   0  0  0  0  0  0  0  0  0  0  0  0
   -1.2626   -0.9486   -1.9654 H   0  0  0  0  0  0  0  0  0  0  0  0
    0.7227   -0.2820   -4.0008 H   0  0  0  0  0  0  0  0  0  0  0  0
   -0.0921   -3.1892   -3.4043 H   0  0  0  0  0  0  0  0  0  0  0  0
    0.8971   -2.6681   -4.7736 H   0  0  0  0  0  0  0  0  0  0  0  0
    1.5099   -2.4952   -3.1182 H   0  0  0  0  0  0  0  0  0  0  0  0
   -1.0034   -0.5442   -5.7979 N   0  0  0  0  0  0  0  0  0  0  0  0
   -2.0372   -0.4243   -6.7994 C   0  0  0  0  0  0  0  0  0  0  0  0
   -0.0566   -0.2872   -6.0609 H   0  0  0  0  0  0  0  0  0  0  0  0
   -2.1195   -1.3688   -7.3571 H   0  0  0  0  0  0  0  0  0  0  0  0
   -2.9972   -0.2024   -6.3104 H   0  0  0  0  0  0  0  0  0  0  0  0
   -1.7824    0.3902   -7.4934 H   0  0  0  0  0  0  0  0  0  0  0  0
  1  3  1  0  0  0  0
  1  7  1  0  0  0  0
  1  2  2  0  0  0  0
 39 40  1  0  0  0  0
 40 48  1  0  0  0  0
 40 41  2  0  0  0  0
  8  9  1  0  0  0  0
  9 17  1  0  0  0  0
  9 10  2  0  0  0  0
 18 19  1  0  0  0  0
 19 38  1  0  0  0  0
 19 20  2  0  0  0  0
 39 42  1  0  0  0  0
  8 11  1  0  0  0  0
 48 49  1  0  0  0  0
 22 23  1  0  0  0  0
 21 22  1  0  0  0  0
 23 24  1  0  0  0  0
 18 21  1  0  0  0  0
 24 25  1  0  0  0  0
 38 39  1  0  0  0  0
  7  8  1  0  0  0  0
 17 18  1  0  0  0  0
  3  4  1  0  0  0  0
  3  5  1  0  0  0  0
  3  6  1  0  0  0  0
 42 45  1  0  0  0  0
 42 46  1  0  0  0  0
 42 47  1  0  0  0  0
 11 14  1  0  0  0  0
 11 15  1  0  0  0  0
 11 16  1  0  0  0  0
 49 51  1  0  0  0  0
 49 52  1  0  0  0  0
 49 53  1  0  0  0  0
 22 30  1  0  0  0  0
 22 31  1  0  0  0  0
 23 32  1  0  0  0  0
 23 33  1  0  0  0  0
 21 28  1  0  0  0  0
 21 29  1  0  0  0  0
 24 34  1  0  0  0  0
 24 35  1  0  0  0  0
 39 44  1  0  0  0  0
  8 13  1  0  0  0  0
 18 27  1  0  0  0  0
 25 36  1  0  0  0  0
 25 37  1  0  0  0  0
 48 50  1  0  0  0  0
  7 12  1  0  0  0  0
 38 43  1  0  0  0  0
 17 26  1  0  0  0  0
M  END
$$$$

  -OEChem-05262214473D

 53 52  0     1  0  0  0  0  0999 V2000
   -1.0338   -5.6785    0.1476 C   0  0  0  0  0  0  0  0  0  0  0  0
   -2.0514   -5.7797    0.8227 O   0  0  0  0  0  0  0  0  0  0  0  0
   -0.6558   -6.7819   -0.7841 C   0  0  0  0  0  0  0  0  0  0  0  0
   -0.0111   -7.5354   -0.3038 H   0  0  0  0  0  0  0  0  0  0  0  0
   -1.5317   -7.3401   -1.1520 H   0  0  0  0  0  0  0  0  0  0  0  0
   -0.1109   -6.4687   -1.6890 H   0  0  0  0  0  0  0  0  0  0  0  0
   -0.1543   -4.6083    0.1480 N   0  0  0  0  0  0  0  0  0  0  0  0
   -0.3302   -3.4398    0.9696 C   0  0  2  0  0  0  0  0  0  0  0  0
    0.2328   -2.2439    0.2131 C   0  0  0  0  0  0  0  0  0  0  0  0
    1.2097   -2.3192   -0.5294 O   0  0  0  0  0  0  0  0  0  0  0  0
    0.3557   -3.6024    2.3171 C   0  0  0  0  0  0  0  0  0  0  0  0
    0.6584   -4.6506   -0.4643 H   0  0  0  0  0  0  0  0  0  0  0  0
   -1.4091   -3.3101    1.1082 H   0  0  0  0  0  0  0  0  0  0  0  0
    1.4375   -3.7336    2.1985 H   0  0  0  0  0  0  0  0  0  0  0  0
    0.1969   -2.7243    2.9517 H   0  0  0  0  0  0  0  0  0  0  0  0
   -0.0294   -4.4803    2.8470 H   0  0  0  0  0  0  0  0  0  0  0  0
   -0.4616   -1.0893    0.5050 N   0  0  0  0  0  0  0  0  0  0  0  0
   -0.0884    0.2050   -0.0621 C   0  0  2  0  0  0  0  0  0  0  0  0
    0.5401   -0.0530   -1.4286 C   0  0  0  0  0  0  0  0  0  0  0  0
    1.7476    0.0414   -1.6394 O   0  0  0  0  0  0  0  0  0  0  0  0
    0.9111    0.9625    0.8249 C   0  0  0  0  0  0  0  0  0  0  0  0
    0.3115    1.4280    2.1559 C   0  0  0  0  0  0  0  0  0  0  0  0
    1.3410    2.1970    2.9884 C   0  0  0  0  0  0  0  0  0  0  0  0
    0.7501    2.6396    4.3259 C   0  0  0  0  0  0  0  0  0  0  0  0
    1.7524    3.3487    5.1123 N   0  0  0  0  0  0  0  0  0  0  0  0
   -1.2794   -1.1113    1.0935 H   0  0  0  0  0  0  0  0  0  0  0  0
   -0.9980    0.8033   -0.1933 H   0  0  0  0  0  0  0  0  0  0  0  0
    1.2835    1.8391    0.2788 H   0  0  0  0  0  0  0  0  0  0  0  0
    1.7906    0.3334    1.0184 H   0  0  0  0  0  0  0  0  0  0  0  0
   -0.0429    0.5663    2.7327 H   0  0  0  0  0  0  0  0  0  0  0  0
   -0.5560    2.0702    1.9623 H   0  0  0  0  0  0  0  0  0  0  0  0
    2.2184    1.5609    3.1609 H   0  0  0  0  0  0  0  0  0  0  0  0
    1.6840    3.0748    2.4262 H   0  0  0  0  0  0  0  0  0  0  0  0
    0.3951    1.7701    4.8898 H   0  0  0  0  0  0  0  0  0  0  0  0
   -0.1062    3.3015    4.1589 H   0  0  0  0  0  0  0  0  0  0  0  0
    2.6026    3.3600    4.5989 H   0  0  0  0  0  0  0  0  0  0  0  0
    1.4280    4.2741    5.2706 H   0  0  0  0  0  0  0  0  0  0  0  0
   -0.4096   -0.3787   -2.3872 N   0  0  0  0  0  0  0  0  0  0  0  0
   -0.0809   -0.6490   -3.7684 C   0  0  2  0  0  0  0  0  0  0  0  0
   -1.2459   -0.1795   -4.6296 C   0  0  0  0  0  0  0  0  0  0  0  0
   -2.4180   -0.2413   -4.2641 O   0  0  0  0  0  0  0  0  0  0  0  0
    0.1989   -2.1271   -3.9914 C   0  0  0  0  0  0  0  0  0  0  0  0
   -1.3868   -0.4425   -2.1181 H   0  0  0  0  0  0  0  0  0  0  0  0
    0.8099   -0.0563   -4.0034 H   0  0  0  0  0  0  0  0  0  0  0  0
   -0.6823   -2.7370   -3.7611 H   0  0  0  0  0  0  0  0  0  0  0  0
    0.4755   -2.3259   -5.0321 H   0  0  0  0  0  0  0  0  0  0  0  0
    1.0175   -2.4700   -3.3495 H   0  0  0  0  0  0  0  0  0  0  0  0
   -0.8264    0.2766   -5.8714 N   0  0  0  0  0  0  0  0  0  0  0  0
   -1.7469    0.7362   -6.8850 C   0  0  0  0  0  0  0  0  0  0  0  0
    0.1675    0.3301   -6.0744 H   0  0  0  0  0  0  0  0  0  0  0  0
   -2.0122   -0.1013   -7.5471 H   0  0  0  0  0  0  0  0  0  0  0  0
   -2.6565    1.1258   -6.4045 H   0  0  0  0  0  0  0  0  0  0  0  0
   -1.2734    1.5344   -7.4754 H   0  0  0  0  0  0  0  0  0  0  0  0
  1  3  1  0  0  0  0
  1  7  1  0  0  0  0
  1  2  2  0  0  0  0
 39 40  1  0  0  0  0
 40 48  1  0  0  0  0
 40 41  2  0  0  0  0
  8  9  1  0  0  0  0
  9 17  1  0  0  0  0
  9 10  2  0  0  0  0
 18 19  1  0  0  0  0
 19 38  1  0  0  0  0
 19 20  2  0  0  0  0
 39 42  1  0  0  0  0
  8 11  1  0  0  0  0
 48 49  1  0  0  0  0
 22 23  1  0  0  0  0
 21 22  1  0  0  0  0
 23 24  1  0  0  0  0
 18 21  1  0  0  0  0
 24 25  1  0  0  0  0
 38 39  1  0  0  0  0
  7  8  1  0  0  0  0
 17 18  1  0  0  0  0
  3  4  1  0  0  0  0
  3  5  1  0  0  0  0
  3  6  1  0  0  0  0
 42 45  1  0  0  0  0
 42 46  1  0  0  0  0
 42 47  1  0  0  0  0
 11 14  1  0  0  0  0
 11 15  1  0  0  0  0
 11 16  1  0  0  0  0
 49 51  1  0  0  0  0
 49 52  1  0  0  0  0
 49 53  1  0  0  0  0
 22 30  1  0  0  0  0
 22 31  1  0  0  0  0
 23 32  1  0  0  0  0
 23 33  1  0  0  0  0
 21 28  1  0  0  0  0
 21 29  1  0  0  0  0
 24 34  1  0  0  0  0
 24 35  1  0  0  0  0
 39 44  1  0  0  0  0
  8 13  1  0  0  0  0
 18 27  1  0  0  0  0
 25 36  1  0  0  0  0
 25 37  1  0  0  0  0
 48 50  1  0  0  0  0
  7 12  1  0  0  0  0
 38 43  1  0  0  0  0
 17 26  1  0  0  0  0
M  END
$$$$

  -OEChem-05262214473D

 53 52  0     1  0  0  0  0  0999 V2000
   -1.0338   -5.6785    0.1476 C   0  0  0  0  0  0  0  0  0  0  0  0
   -2.0514   -5.7797    0.8227 O   0  0  0  0  0  0  0  0  0  0  0  0
   -0.6558   -6.7819   -0.7841 C   0  0  0  0  0  0  0  0  0  0  0  0
   -0.0111   -7.5354   -0.3038 H   0  0  0  0  0  0  0  0  0  0  0  0
   -1.5317   -7.3401   -1.1520 H   0  0  0  0  0  0  0  0  0  0  0  0
   -0.1109   -6.4687   -1.6890 H   0  0  0  0  0  0  0  0  0  0  0  0
   -0.1543   -4.6083    0.1480 N   0  0  0  0  0  0  0  0  0  0  0  0
   -0.3302   -3.4398    0.9696 C   0  0  2  0  0  0  0  0  0  0  0  0
    0.2328   -2.2439    0.2131 C   0  0  0  0  0  0  0  0  0  0  0  0
    1.2097   -2.3192   -0.5294 O   0  0  0  0  0  0  0  0  0  0  0  0
    0.3557   -3.6024    2.3171 C   0  0  0  0  0  0  0  0  0  0  0  0
    0.6584   -4.6506   -0.4643 H   0  0  0  0  0  0  0  0  0  0  0  0
   -1.4091   -3.3101    1.1082 H   0  0  0  0  0  0  0  0  0  0  0  0
    1.4375   -3.7336    2.1985 H   0  0  0  0  0  0  0  0  0  0  0  0
    0.1969   -2.7243    2.9517 H   0  0  0  0  0  0  0  0  0  0  0  0
   -0.0294   -4.4803    2.8470 H   0  0  0  0  0  0  0  0  0  0  0  0
   -0.4616   -1.0893    0.5050 N   0  0  0  0  0  0  0  0  0  0  0  0
   -0.0884    0.2050   -0.0621 C   0  0  2  0  0  0  0  0  0  0  0  0
    0.5401   -0.0530   -1.4286 C   0  0  0  0  0  0  0  0  0  0  0  0
    1.7470   -0.2230   -1.5897 O   0  0  0  0  0  0  0  0  0  0  0  0
    0.9111    0.9625    0.8249 C   0  0  0  0  0  0  0  0  0  0  0  0
    0.3115    1.4280    2.1559 C   0  0  0  0  0  0  0  0  0  0  0  0
    1.3410    2.1970    2.9884 C   0  0  0  0  0  0  0  0  0  0  0  0
    0.7501    2.6396    4.3259 C   0  0  0  0  0  0  0  0  0  0  0  0
    1.7524    3.3487    5.1123 N   0  0  0  0  0  0  0  0  0  0  0  0
   -1.2794   -1.1113    1.0935 H   0  0  0  0  0  0  0  0  0  0  0  0
   -0.9980    0.8033   -0.1933 H   0  0  0  0  0  0  0  0  0  0  0  0
    1.2835    1.8391    0.2788 H   0  0  0  0  0  0  0  0  0  0  0  0
    1.7906    0.3334    1.0184 H   0  0  0  0  0  0  0  0  0  0  0  0
   -0.0429    0.5663    2.7327 H   0  0  0  0  0  0  0  0  0  0  0  0
   -0.5560    2.0702    1.9623 H   0  0  0  0  0  0  0  0  0  0  0  0
    2.2184    1.5609    3.1609 H   0  0  0  0  0  0  0  0  0  0  0  0
    1.6840    3.0748    2.4262 H   0  0  0  0  0  0  0  0  0  0  0  0
    0.3951    1.7701    4.8898 H   0  0  0  0  0  0  0  0  0  0  0  0
   -0.1062    3.3015    4.1589 H   0  0  0  0  0  0  0  0  0  0  0  0
    2.6026    3.3600    4.5989 H   0  0  0  0  0  0  0  0  0  0  0  0
    1.4280    4.2741    5.2706 H   0  0  0  0  0  0  0  0  0  0  0  0
   -0.4034   -0.0483   -2.4467 N   0  0  0  0  0  0  0  0  0  0  0  0
   -0.0683   -0.2466   -3.8385 C   0  0  2  0  0  0  0  0  0  0  0  0
   -1.0441    0.5675   -4.6779 C   0  0  0  0  0  0  0  0  0  0  0  0
   -2.2178    0.7451   -4.3582 O   0  0  0  0  0  0  0  0  0  0  0  0
   -0.1229   -1.7186   -4.2165 C   0  0  0  0  0  0  0  0  0  0  0  0
   -1.3828    0.0915   -2.2170 H   0  0  0  0  0  0  0  0  0  0  0  0
    0.9465    0.1418   -3.9780 H   0  0  0  0  0  0  0  0  0  0  0  0
   -1.1320   -2.1254   -4.0834 H   0  0  0  0  0  0  0  0  0  0  0  0
    0.1589   -1.8701   -5.2638 H   0  0  0  0  0  0  0  0  0  0  0  0
    0.5577   -2.3070   -3.5917 H   0  0  0  0  0  0  0  0  0  0  0  0
   -0.4619    1.0362   -5.8472 N   0  0  0  0  0  0  0  0  0  0  0  0
   -1.1939    1.7989   -6.8313 C   0  0  0  0  0  0  0  0  0  0  0  0
    0.5275    0.8759   -6.0119 H   0  0  0  0  0  0  0  0  0  0  0  0
   -1.6064    1.1185   -7.5908 H   0  0  0  0  0  0  0  0  0  0  0  0
   -2.0154    2.3399   -6.3389 H   0  0  0  0  0  0  0  0  0  0  0  0
   -0.5174    2.5198   -7.3138 H   0  0  0  0  0  0  0  0  0  0  0  0
  1  3  1  0  0  0  0
  1  7  1  0  0  0  0
  1  2  2  0  0  0  0
 39 40  1  0  0  0  0
 40 48  1  0  0  0  0
 40 41  2  0  0  0  0
  8  9  1  0  0  0  0
  9 17  1  0  0  0  0
  9 10  2  0  0  0  0
 18 19  1  0  0  0  0
 19 38  1  0  0  0  0
 19 20  2  0  0  0  0
 39 42  1  0  0  0  0
  8 11  1  0  0  0  0
 48 49  1  0  0  0  0
 22 23  1  0  0  0  0
 21 22  1  0  0  0  0
 23 24  1  0  0  0  0
 18 21  1  0  0  0  0
 24 25  1  0  0  0  0
 38 39  1  0  0  0  0
  7  8  1  0  0  0  0
 17 18  1  0  0  0  0
  3  4  1  0  0  0  0
  3  5  1  0  0  0  0
  3  6  1  0  0  0  0
 42 45  1  0  0  0  0
 42 46  1  0  0  0  0
 42 47  1  0  0  0  0
 11 14  1  0  0  0  0
 11 15  1  0  0  0  0
 11 16  1  0  0  0  0
 49 51  1  0  0  0  0
 49 52  1  0  0  0  0
 49 53  1  0  0  0  0
 22 30  1  0  0  0  0
 22 31  1  0  0  0  0
 23 32  1  0  0  0  0
 23 33  1  0  0  0  0
 21 28  1  0  0  0  0
 21 29  1  0  0  0  0
 24 34  1  0  0  0  0
 24 35  1  0  0  0  0
 39 44  1  0  0  0  0
  8 13  1  0  0  0  0
 18 27  1  0  0  0  0
 25 36  1  0  0  0  0
 25 37  1  0  0  0  0
 48 50  1  0  0  0  0
  7 12  1  0  0  0  0
 38 43  1  0  0  0  0
 17 26  1  0  0  0  0
M  END
$$$$

  -OEChem-05262214473D

 53 52  0     1  0  0  0  0  0999 V2000
   -1.0338   -5.6785    0.1476 C   0  0  0  0  0  0  0  0  0  0  0  0
   -2.0514   -5.7797    0.8227 O   0  0  0  0  0  0  0  0  0  0  0  0
   -0.6558   -6.7819   -0.7841 C   0  0  0  0  0  0  0  0  0  0  0  0
   -0.0111   -7.5354   -0.3038 H   0  0  0  0  0  0  0  0  0  0  0  0
   -1.5317   -7.3401   -1.1520 H   0  0  0  0  0  0  0  0  0  0  0  0
   -0.1109   -6.4687   -1.6890 H   0  0  0  0  0  0  0  0  0  0  0  0
   -0.1543   -4.6083    0.1480 N   0  0  0  0  0  0  0  0  0  0  0  0
   -0.3302   -3.4398    0.9696 C   0  0  2  0  0  0  0  0  0  0  0  0
    0.2328   -2.2439    0.2131 C   0  0  0  0  0  0  0  0  0  0  0  0
    1.2097   -2.3192   -0.5294 O   0  0  0  0  0  0  0  0  0  0  0  0
    0.3557   -3.6024    2.3171 C   0  0  0  0  0  0  0  0  0  0  0  0
    0.6584   -4.6506   -0.4643 H   0  0  0  0  0  0  0  0  0  0  0  0
   -1.4091   -3.3101    1.1082 H   0  0  0  0  0  0  0  0  0  0  0  0
    1.4375   -3.7336    2.1985 H   0  0  0  0  0  0  0  0  0  0  0  0
    0.1969   -2.7243    2.9517 H   0  0  0  0  0  0  0  0  0  0  0  0
   -0.0294   -4.4803    2.8470 H   0  0  0  0  0  0  0  0  0  0  0  0
   -0.4616   -1.0893    0.5050 N   0  0  0  0  0  0  0  0  0  0  0  0
   -0.0884    0.2050   -0.0621 C   0  0  2  0  0  0  0  0  0  0  0  0
    0.5401   -0.0530   -1.4286 C   0  0  0  0  0  0  0  0  0  0  0  0
    1.6829   -0.4836   -1.5700 O   0  0  0  0  0  0  0  0  0  0  0  0
    0.9111    0.9625    0.8249 C   0  0  0  0  0  0  0  0  0  0  0  0
    0.3115    1.4280    2.1559 C   0  0  0  0  0  0  0  0  0  0  0  0
    1.3410    2.1970    2.9884 C   0  0  0  0  0  0  0  0  0  0  0  0
    0.7501    2.6396    4.3259 C   0  0  0  0  0  0  0  0  0  0  0  0
    1.7524    3.3487    5.1123 N   0  0  0  0  0  0  0  0  0  0  0  0
   -1.2794   -1.1113    1.0935 H   0  0  0  0  0  0  0  0  0  0  0  0
   -0.9980    0.8033   -0.1933 H   0  0  0  0  0  0  0  0  0  0  0  0
    1.2835    1.8391    0.2788 H   0  0  0  0  0  0  0  0  0  0  0  0
    1.7906    0.3334    1.0184 H   0  0  0  0  0  0  0  0  0  0  0  0
   -0.0429    0.5663    2.7327 H   0  0  0  0  0  0  0  0  0  0  0  0
   -0.5560    2.0702    1.9623 H   0  0  0  0  0  0  0  0  0  0  0  0
    2.2184    1.5609    3.1609 H   0  0  0  0  0  0  0  0  0  0  0  0
    1.6840    3.0748    2.4262 H   0  0  0  0  0  0  0  0  0  0  0  0
    0.3951    1.7701    4.8898 H   0  0  0  0  0  0  0  0  0  0  0  0
   -0.1062    3.3015    4.1589 H   0  0  0  0  0  0  0  0  0  0  0  0
    2.6026    3.3600    4.5989 H   0  0  0  0  0  0  0  0  0  0  0  0
    1.4280    4.2741    5.2706 H   0  0  0  0  0  0  0  0  0  0  0  0
   -0.3183    0.2757   -2.4688 N   0  0  0  0  0  0  0  0  0  0  0  0
    0.0402    0.1467   -3.8629 C   0  0  2  0  0  0  0  0  0  0  0  0
   -0.6740    1.2474   -4.6360 C   0  0  0  0  0  0  0  0  0  0  0  0
   -1.7917    1.6615   -4.3353 O   0  0  0  0  0  0  0  0  0  0  0  0
   -0.3292   -1.2255   -4.4045 C   0  0  0  0  0  0  0  0  0  0  0  0
   -1.2509    0.6169   -2.2555 H   0  0  0  0  0  0  0  0  0  0  0  0
    1.1232    0.2987   -3.9263 H   0  0  0  0  0  0  0  0  0  0  0  0
   -1.4106   -1.3960   -4.3492 H   0  0  0  0  0  0  0  0  0  0  0  0
   -0.0311   -1.3317   -5.4528 H   0  0  0  0  0  0  0  0  0  0  0  0
    0.1620   -2.0171   -3.8284 H   0  0  0  0  0  0  0  0  0  0  0  0
    0.0652    1.6829   -5.7269 N   0  0  0  0  0  0  0  0  0  0  0  0
   -0.4157    2.6916   -6.6420 C   0  0  0  0  0  0  0  0  0  0  0  0
    0.9991    1.3129   -5.8775 H   0  0  0  0  0  0  0  0  0  0  0  0
   -0.9299    2.2072   -7.4852 H   0  0  0  0  0  0  0  0  0  0  0  0
   -1.1176    3.3570   -6.1181 H   0  0  0  0  0  0  0  0  0  0  0  0
    0.4341    3.2791   -7.0195 H   0  0  0  0  0  0  0  0  0  0  0  0
  1  3  1  0  0  0  0
  1  7  1  0  0  0  0
  1  2  2  0  0  0  0
 39 40  1  0  0  0  0
 40 48  1  0  0  0  0
 40 41  2  0  0  0  0
  8  9  1  0  0  0  0
  9 17  1  0  0  0  0
  9 10  2  0  0  0  0
 18 19  1  0  0  0  0
 19 38  1  0  0  0  0
 19 20  2  0  0  0  0
 39 42  1  0  0  0  0
  8 11  1  0  0  0  0
 48 49  1  0  0  0  0
 22 23  1  0  0  0  0
 21 22  1  0  0  0  0
 23 24  1  0  0  0  0
 18 21  1  0  0  0  0
 24 25  1  0  0  0  0
 38 39  1  0  0  0  0
  7  8  1  0  0  0  0
 17 18  1  0  0  0  0
  3  4  1  0  0  0  0
  3  5  1  0  0  0  0
  3  6  1  0  0  0  0
 42 45  1  0  0  0  0
 42 46  1  0  0  0  0
 42 47  1  0  0  0  0
 11 14  1  0  0  0  0
 11 15  1  0  0  0  0
 11 16  1  0  0  0  0
 49 51  1  0  0  0  0
 49 52  1  0  0  0  0
 49 53  1  0  0  0  0
 22 30  1  0  0  0  0
 22 31  1  0  0  0  0
 23 32  1  0  0  0  0
 23 33  1  0  0  0  0
 21 28  1  0  0  0  0
 21 29  1  0  0  0  0
 24 34  1  0  0  0  0
 24 35  1  0  0  0  0
 39 44  1  0  0  0  0
  8 13  1  0  0  0  0
 18 27  1  0  0  0  0
 25 36  1  0  0  0  0
 25 37  1  0  0  0  0
 48 50  1  0  0  0  0
  7 12  1  0  0  0  0
 38 43  1  0  0  0  0
 17 26  1  0  0  0  0
M  END
$$$$

  -OEChem-05262214473D

 53 52  0     1  0  0  0  0  0999 V2000
   -1.0338   -5.6785    0.1476 C   0  0  0  0  0  0  0  0  0  0  0  0
   -2.0514   -5.7797    0.8227 O   0  0  0  0  0  0  0  0  0  0  0  0
   -0.6558   -6.7819   -0.7841 C   0  0  0  0  0  0  0  0  0  0  0  0
   -0.0111   -7.5354   -0.3038 H   0  0  0  0  0  0  0  0  0  0  0  0
   -1.5317   -7.3401   -1.1520 H   0  0  0  0  0  0  0  0  0  0  0  0
   -0.1109   -6.4687   -1.6890 H   0  0  0  0  0  0  0  0  0  0  0  0
   -0.1543   -4.6083    0.1480 N   0  0  0  0  0  0  0  0  0  0  0  0
   -0.3302   -3.4398    0.9696 C   0  0  2  0  0  0  0  0  0  0  0  0
    0.2328   -2.2439    0.2131 C   0  0  0  0  0  0  0  0  0  0  0  0
    1.2097   -2.3192   -0.5294 O   0  0  0  0  0  0  0  0  0  0  0  0
    0.3557   -3.6024    2.3171 C   0  0  0  0  0  0  0  0  0  0  0  0
    0.6584   -4.6506   -0.4643 H   0  0  0  0  0  0  0  0  0  0  0  0
   -1.4091   -3.3101    1.1082 H   0  0  0  0  0  0  0  0  0  0  0  0
    1.4375   -3.7336    2.1985 H   0  0  0  0  0  0  0  0  0  0  0  0
    0.1969   -2.7243    2.9517 H   0  0  0  0  0  0  0  0  0  0  0  0
   -0.0294   -4.4803    2.8470 H   0  0  0  0  0  0  0  0  0  0  0  0
   -0.4616   -1.0893    0.5050 N   0  0  0  0  0  0  0  0  0  0  0  0
   -0.0884    0.2050   -0.0621 C   0  0  2  0  0  0  0  0  0  0  0  0
    0.5401   -0.0530   -1.4286 C   0  0  0  0  0  0  0  0  0  0  0  0
    1.5597   -0.7226   -1.5815 O   0  0  0  0  0  0  0  0  0  0  0  0
    0.9111    0.9625    0.8249 C   0  0  0  0  0  0  0  0  0  0  0  0
    0.3115    1.4280    2.1559 C   0  0  0  0  0  0  0  0  0  0  0  0
    1.3410    2.1970    2.9884 C   0  0  0  0  0  0  0  0  0  0  0  0
    0.7501    2.6396    4.3259 C   0  0  0  0  0  0  0  0  0  0  0  0
    1.7524    3.3487    5.1123 N   0  0  0  0  0  0  0  0  0  0  0  0
   -1.2794   -1.1113    1.0935 H   0  0  0  0  0  0  0  0  0  0  0  0
   -0.9980    0.8033   -0.1933 H   0  0  0  0  0  0  0  0  0  0  0  0
    1.2835    1.8391    0.2788 H   0  0  0  0  0  0  0  0  0  0  0  0
    1.7906    0.3334    1.0184 H   0  0  0  0  0  0  0  0  0  0  0  0
   -0.0429    0.5663    2.7327 H   0  0  0  0  0  0  0  0  0  0  0  0
   -0.5560    2.0702    1.9623 H   0  0  0  0  0  0  0  0  0  0  0  0
    2.2184    1.5609    3.1609 H   0  0  0  0  0  0  0  0  0  0  0  0
    1.6840    3.0748    2.4262 H   0  0  0  0  0  0  0  0  0  0  0  0
    0.3951    1.7701    4.8898 H   0  0  0  0  0  0  0  0  0  0  0  0
   -0.1062    3.3015    4.1589 H   0  0  0  0  0  0  0  0  0  0  0  0
    2.6026    3.3600    4.5989 H   0  0  0  0  0  0  0  0  0  0  0  0
    1.4280    4.2741    5.2706 H   0  0  0  0  0  0  0  0  0  0  0  0
   -0.1600    0.5713   -2.4518 N   0  0  0  0  0  0  0  0  0  0  0  0
    0.2373    0.5040   -3.8397 C   0  0  2  0  0  0  0  0  0  0  0  0
   -0.1607    1.8139   -4.5069 C   0  0  0  0  0  0  0  0  0  0  0  0
   -1.1687    2.4455   -4.1968 O   0  0  0  0  0  0  0  0  0  0  0  0
   -0.4060   -0.6813   -4.5426 C   0  0  0  0  0  0  0  0  0  0  0  0
   -1.0000    1.0979   -2.2310 H   0  0  0  0  0  0  0  0  0  0  0  0
    1.3281    0.4039   -3.8520 H   0  0  0  0  0  0  0  0  0  0  0  0
   -1.4990   -0.5986   -4.5404 H   0  0  0  0  0  0  0  0  0  0  0  0
   -0.0816   -0.7475   -5.5863 H   0  0  0  0  0  0  0  0  0  0  0  0
   -0.1427   -1.6202   -4.0435 H   0  0  0  0  0  0  0  0  0  0  0  0
    0.7189    2.1726   -5.5188 N   0  0  0  0  0  0  0  0  0  0  0  0
    0.5345    3.3533   -6.3299 C   0  0  0  0  0  0  0  0  0  0  0  0
    1.5500    1.6115   -5.6805 H   0  0  0  0  0  0  0  0  0  0  0  0
   -0.0287    3.0909   -7.2376 H   0  0  0  0  0  0  0  0  0  0  0  0
   -0.0244    4.1079   -5.7571 H   0  0  0  0  0  0  0  0  0  0  0  0
    1.5164    3.7607   -6.6128 H   0  0  0  0  0  0  0  0  0  0  0  0
  1  3  1  0  0  0  0
  1  7  1  0  0  0  0
  1  2  2  0  0  0  0
 39 40  1  0  0  0  0
 40 48  1  0  0  0  0
 40 41  2  0  0  0  0
  8  9  1  0  0  0  0
  9 17  1  0  0  0  0
  9 10  2  0  0  0  0
 18 19  1  0  0  0  0
 19 38  1  0  0  0  0
 19 20  2  0  0  0  0
 39 42  1  0  0  0  0
  8 11  1  0  0  0  0
 48 49  1  0  0  0  0
 22 23  1  0  0  0  0
 21 22  1  0  0  0  0
 23 24  1  0  0  0  0
 18 21  1  0  0  0  0
 24 25  1  0  0  0  0
 38 39  1  0  0  0  0
  7  8  1  0  0  0  0
 17 18  1  0  0  0  0
  3  4  1  0  0  0  0
  3  5  1  0  0  0  0
  3  6  1  0  0  0  0
 42 45  1  0  0  0  0
 42 46  1  0  0  0  0
 42 47  1  0  0  0  0
 11 14  1  0  0  0  0
 11 15  1  0  0  0  0
 11 16  1  0  0  0  0
 49 51  1  0  0  0  0
 49 52  1  0  0  0  0
 49 53  1  0  0  0  0
 22 30  1  0  0  0  0
 22 31  1  0  0  0  0
 23 32  1  0  0  0  0
 23 33  1  0  0  0  0
 21 28  1  0  0  0  0
 21 29  1  0  0  0  0
 24 34  1  0  0  0  0
 24 35  1  0  0  0  0
 39 44  1  0  0  0  0
  8 13  1  0  0  0  0
 18 27  1  0  0  0  0
 25 36  1  0  0  0  0
 25 37  1  0  0  0  0
 48 50  1  0  0  0  0
  7 12  1  0  0  0  0
 38 43  1  0  0  0  0
 17 26  1  0  0  0  0
M  END
$$$$

  -OEChem-05262214473D

 53 52  0     1  0  0  0  0  0999 V2000
   -1.0338   -5.6785    0.1476 C   0  0  0  0  0  0  0  0  0  0  0  0
   -2.0514   -5.7797    0.8227 O   0  0  0  0  0  0  0  0  0  0  0  0
   -0.6558   -6.7819   -0.7841 C   0  0  0  0  0  0  0  0  0  0  0  0
   -0.0111   -7.5354   -0.3038 H   0  0  0  0  0  0  0  0  0  0  0  0
   -1.5317   -7.3401   -1.1520 H   0  0  0  0  0  0  0  0  0  0  0  0
   -0.1109   -6.4687   -1.6890 H   0  0  0  0  0  0  0  0  0  0  0  0
   -0.1543   -4.6083    0.1480 N   0  0  0  0  0  0  0  0  0  0  0  0
   -0.3302   -3.4398    0.9696 C   0  0  2  0  0  0  0  0  0  0  0  0
    0.2328   -2.2439    0.2131 C   0  0  0  0  0  0  0  0  0  0  0  0
    1.2097   -2.3192   -0.5294 O   0  0  0  0  0  0  0  0  0  0  0  0
    0.3557   -3.6024    2.3171 C   0  0  0  0  0  0  0  0  0  0  0  0
    0.6584   -4.6506   -0.4643 H   0  0  0  0  0  0  0  0  0  0  0  0
   -1.4091   -3.3101    1.1082 H   0  0  0  0  0  0  0  0  0  0  0  0
    1.4375   -3.7336    2.1985 H   0  0  0  0  0  0  0  0  0  0  0  0
    0.1969   -2.7243    2.9517 H   0  0  0  0  0  0  0  0  0  0  0  0
   -0.0294   -4.4803    2.8470 H   0  0  0  0  0  0  0  0  0  0  0  0
   -0.4616   -1.0893    0.5050 N   0  0  0  0  0  0  0  0  0  0  0  0
   -0.0884    0.2050   -0.0621 C   0  0  2  0  0  0  0  0  0  0  0  0
    0.5401   -0.0530   -1.4286 C   0  0  0  0  0  0  0  0  0  0  0  0
    1.3859   -0.9237   -1.6235 O   0  0  0  0  0  0  0  0  0  0  0  0
    0.9111    0.9625    0.8249 C   0  0  0  0  0  0  0  0  0  0  0  0
    0.3115    1.4280    2.1559 C   0  0  0  0  0  0  0  0  0  0  0  0
    1.3410    2.1970    2.9884 C   0  0  0  0  0  0  0  0  0  0  0  0
    0.7501    2.6396    4.3259 C   0  0  0  0  0  0  0  0  0  0  0  0
    1.7524    3.3487    5.1123 N   0  0  0  0  0  0  0  0  0  0  0  0
   -1.2794   -1.1113    1.0935 H   0  0  0  0  0  0  0  0  0  0  0  0
   -0.9980    0.8033   -0.1933 H   0  0  0  0  0  0  0  0  0  0  0  0
    1.2835    1.8391    0.2788 H   0  0  0  0  0  0  0  0  0  0  0  0
    1.7906    0.3334    1.0184 H   0  0  0  0  0  0  0  0  0  0  0  0
   -0.0429    0.5663    2.7327 H   0  0  0  0  0  0  0  0  0  0  0  0
   -0.5560    2.0702    1.9623 H   0  0  0  0  0  0  0  0  0  0  0  0
    2.2184    1.5609    3.1609 H   0  0  0  0  0  0  0  0  0  0  0  0
    1.6840    3.0748    2.4262 H   0  0  0  0  0  0  0  0  0  0  0  0
    0.3951    1.7701    4.8898 H   0  0  0  0  0  0  0  0  0  0  0  0
   -0.1062    3.3015    4.1589 H   0  0  0  0  0  0  0  0  0  0  0  0
    2.6026    3.3600    4.5989 H   0  0  0  0  0  0  0  0  0  0  0  0
    1.4280    4.2741    5.2706 H   0  0  0  0  0  0  0  0  0  0  0  0
    0.0606    0.8183   -2.3970 N   0  0  0  0  0  0  0  0  0  0  0  0
    0.5094    0.8010   -3.7707 C   0  0  2  0  0  0  0  0  0  0  0  0
    0.4607    2.2284   -4.2994 C   0  0  0  0  0  0  0  0  0  0  0  0
   -0.3913    3.0437   -3.9522 O   0  0  0  0  0  0  0  0  0  0  0  0
   -0.3480   -0.1232   -4.6213 C   0  0  0  0  0  0  0  0  0  0  0  0
   -0.6472    1.5018   -2.1450 H   0  0  0  0  0  0  0  0  0  0  0  0
    1.5471    0.4500   -3.7600 H   0  0  0  0  0  0  0  0  0  0  0  0
   -1.3912    0.2124   -4.6439 H   0  0  0  0  0  0  0  0  0  0  0  0
    0.0108   -0.1573   -5.6553 H   0  0  0  0  0  0  0  0  0  0  0  0
   -0.3356   -1.1432   -4.2222 H   0  0  0  0  0  0  0  0  0  0  0  0
    1.4547    2.4719   -5.2369 N   0  0  0  0  0  0  0  0  0  0  0  0
    1.5921    3.7389   -5.9164 C   0  0  0  0  0  0  0  0  0  0  0  0
    2.1427    1.7512   -5.4343 H   0  0  0  0  0  0  0  0  0  0  0  0
    1.0357    3.7092   -6.8648 H   0  0  0  0  0  0  0  0  0  0  0  0
    1.1898    4.5414   -5.2805 H   0  0  0  0  0  0  0  0  0  0  0  0
    2.6555    3.9316   -6.1212 H   0  0  0  0  0  0  0  0  0  0  0  0
  1  3  1  0  0  0  0
  1  7  1  0  0  0  0
  1  2  2  0  0  0  0
 39 40  1  0  0  0  0
 40 48  1  0  0  0  0
 40 41  2  0  0  0  0
  8  9  1  0  0  0  0
  9 17  1  0  0  0  0
  9 10  2  0  0  0  0
 18 19  1  0  0  0  0
 19 38  1  0  0  0  0
 19 20  2  0  0  0  0
 39 42  1  0  0  0  0
  8 11  1  0  0  0  0
 48 49  1  0  0  0  0
 22 23  1  0  0  0  0
 21 22  1  0  0  0  0
 23 24  1  0  0  0  0
 18 21  1  0  0  0  0
 24 25  1  0  0  0  0
 38 39  1  0  0  0  0
  7  8  1  0  0  0  0
 17 18  1  0  0  0  0
  3  4  1  0  0  0  0
  3  5  1  0  0  0  0
  3  6  1  0  0  0  0
 42 45  1  0  0  0  0
 42 46  1  0  0  0  0
 42 47  1  0  0  0  0
 11 14  1  0  0  0  0
 11 15  1  0  0  0  0
 11 16  1  0  0  0  0
 49 51  1  0  0  0  0
 49 52  1  0  0  0  0
 49 53  1  0  0  0  0
 22 30  1  0  0  0  0
 22 31  1  0  0  0  0
 23 32  1  0  0  0  0
 23 33  1  0  0  0  0
 21 28  1  0  0  0  0
 21 29  1  0  0  0  0
 24 34  1  0  0  0  0
 24 35  1  0  0  0  0
 39 44  1  0  0  0  0
  8 13  1  0  0  0  0
 18 27  1  0  0  0  0
 25 36  1  0  0  0  0
 25 37  1  0  0  0  0
 48 50  1  0  0  0  0
  7 12  1  0  0  0  0
 38 43  1  0  0  0  0
 17 26  1  0  0  0  0
M  END
$$$$

  -OEChem-05262214473D

 53 52  0     1  0  0  0  0  0999 V2000
   -1.0338   -5.6785    0.1476 C   0  0  0  0  0  0  0  0  0  0  0  0
   -2.0514   -5.7797    0.8227 O   0  0  0  0  0  0  0  0  0  0  0  0
   -0.6558   -6.7819   -0.7841 C   0  0  0  0  0  0  0  0  0  0  0  0
   -0.0111   -7.5354   -0.3038 H   0  0  0  0  0  0  0  0  0  0  0  0
   -1.5317   -7.3401   -1.1520 H   0  0  0  0  0  0  0  0  0  0  0  0
   -0.1109   -6.4687   -1.6890 H   0  0  0  0  0  0  0  0  0  0  0  0
   -0.1543   -4.6083    0.1480 N   0  0  0  0  0  0  0  0  0  0  0  0
   -0.3302   -3.4398    0.9696 C   0  0  2  0  0  0  0  0  0  0  0  0
    0.2328   -2.2439    0.2131 C   0  0  0  0  0  0  0  0  0  0  0  0
    1.2097   -2.3192   -0.5294 O   0  0  0  0  0  0  0  0  0  0  0  0
    0.3557   -3.6024    2.3171 C   0  0  0  0  0  0  0  0  0  0  0  0
    0.6584   -4.6506   -0.4643 H   0  0  0  0  0  0  0  0  0  0  0  0
   -1.4091   -3.3101    1.1082 H   0  0  0  0  0  0  0  0  0  0  0  0
    1.4375   -3.7336    2.1985 H   0  0  0  0  0  0  0  0  0  0  0  0
    0.1969   -2.7243    2.9517 H   0  0  0  0  0  0  0  0  0  0  0  0
   -0.0294   -4.4803    2.8470 H   0  0  0  0  0  0  0  0  0  0  0  0
   -0.4616   -1.0893    0.5050 N   0  0  0  0  0  0  0  0  0  0  0  0
   -0.0884    0.2050   -0.0621 C   0  0  2  0  0  0  0  0  0  0  0  0
    0.5401   -0.0530   -1.4286 C   0  0  0  0  0  0  0  0  0  0  0  0
    1.1732   -1.0731   -1.6931 O   0  0  0  0  0  0  0  0  0  0  0  0
    0.9111    0.9625    0.8249 C   0  0  0  0  0  0  0  0  0  0  0  0
    0.3115    1.4280    2.1559 C   0  0  0  0  0  0  0  0  0  0  0  0
    1.3410    2.1970    2.9884 C   0  0  0  0  0  0  0  0  0  0  0  0
    0.7501    2.6396    4.3259 C   0  0  0  0  0  0  0  0  0  0  0  0
    1.7524    3.3487    5.1123 N   0  0  0  0  0  0  0  0  0  0  0  0
   -1.2794   -1.1113    1.0935 H   0  0  0  0  0  0  0  0  0  0  0  0
   -0.9980    0.8033   -0.1933 H   0  0  0  0  0  0  0  0  0  0  0  0
    1.2835    1.8391    0.2788 H   0  0  0  0  0  0  0  0  0  0  0  0
    1.7906    0.3334    1.0184 H   0  0  0  0  0  0  0  0  0  0  0  0
   -0.0429    0.5663    2.7327 H   0  0  0  0  0  0  0  0  0  0  0  0
   -0.5560    2.0702    1.9623 H   0  0  0  0  0  0  0  0  0  0  0  0
    2.2184    1.5609    3.1609 H   0  0  0  0  0  0  0  0  0  0  0  0
    1.6840    3.0748    2.4262 H   0  0  0  0  0  0  0  0  0  0  0  0
    0.3951    1.7701    4.8898 H   0  0  0  0  0  0  0  0  0  0  0  0
   -0.1062    3.3015    4.1589 H   0  0  0  0  0  0  0  0  0  0  0  0
    2.6026    3.3600    4.5989 H   0  0  0  0  0  0  0  0  0  0  0  0
    1.4280    4.2741    5.2706 H   0  0  0  0  0  0  0  0  0  0  0  0
    0.3286    1.0000   -2.3080 N   0  0  0  0  0  0  0  0  0  0  0  0
    0.8381    1.0175   -3.6604 C   0  0  2  0  0  0  0  0  0  0  0  0
    1.1480    2.4627   -4.0275 C   0  0  0  0  0  0  0  0  0  0  0  0
    0.4875    3.4152   -3.6182 O   0  0  0  0  0  0  0  0  0  0  0  0
   -0.1591    0.4109   -4.6353 C   0  0  0  0  0  0  0  0  0  0  0  0
   -0.2166    1.8009   -2.0035 H   0  0  0  0  0  0  0  0  0  0  0  0
    1.7652    0.4341   -3.6566 H   0  0  0  0  0  0  0  0  0  0  0  0
   -1.0946    0.9819   -4.6528 H   0  0  0  0  0  0  0  0  0  0  0  0
    0.2399    0.3988   -5.6549 H   0  0  0  0  0  0  0  0  0  0  0  0
   -0.4036   -0.6188   -4.3525 H   0  0  0  0  0  0  0  0  0  0  0  0
    2.2225    2.5604   -4.9005 N   0  0  0  0  0  0  0  0  0  0  0  0
    2.6849    3.8223   -5.4295 C   0  0  0  0  0  0  0  0  0  0  0  0
    2.7368    1.7225   -5.1557 H   0  0  0  0  0  0  0  0  0  0  0  0
    2.1908    4.0200   -6.3923 H   0  0  0  0  0  0  0  0  0  0  0  0
    2.4423    4.6278   -4.7209 H   0  0  0  0  0  0  0  0  0  0  0  0
    3.7740    3.7804   -5.5782 H   0  0  0  0  0  0  0  0  0  0  0  0
  1  3  1  0  0  0  0
  1  7  1  0  0  0  0
  1  2  2  0  0  0  0
 39 40  1  0  0  0  0
 40 48  1  0  0  0  0
 40 41  2  0  0  0  0
  8  9  1  0  0  0  0
  9 17  1  0  0  0  0
  9 10  2  0  0  0  0
 18 19  1  0  0  0  0
 19 38  1  0  0  0  0
 19 20  2  0  0  0  0
 39 42  1  0  0  0  0
  8 11  1  0  0  0  0
 48 49  1  0  0  0  0
 22 23  1  0  0  0  0
 21 22  1  0  0  0  0
 23 24  1  0  0  0  0
 18 21  1  0  0  0  0
 24 25  1  0  0  0  0
 38 39  1  0  0  0  0
  7  8  1  0  0  0  0
 17 18  1  0  0  0  0
  3  4  1  0  0  0  0
  3  5  1  0  0  0  0
  3  6  1  0  0  0  0
 42 45  1  0  0  0  0
 42 46  1  0  0  0  0
 42 47  1  0  0  0  0
 11 14  1  0  0  0  0
 11 15  1  0  0  0  0
 11 16  1  0  0  0  0
 49 51  1  0  0  0  0
 49 52  1  0  0  0  0
 49 53  1  0  0  0  0
 22 30  1  0  0  0  0
 22 31  1  0  0  0  0
 23 32  1  0  0  0  0
 23 33  1  0  0  0  0
 21 28  1  0  0  0  0
 21 29  1  0  0  0  0
 24 34  1  0  0  0  0
 24 35  1  0  0  0  0
 39 44  1  0  0  0  0
  8 13  1  0  0  0  0
 18 27  1  0  0  0  0
 25 36  1  0  0  0  0
 25 37  1  0  0  0  0
 48 50  1  0  0  0  0
  7 12  1  0  0  0  0
 38 43  1  0  0  0  0
 17 26  1  0  0  0  0
M  END
$$$$

  -OEChem-05262214473D

 53 52  0     1  0  0  0  0  0999 V2000
   -1.0338   -5.6785    0.1476 C   0  0  0  0  0  0  0  0  0  0  0  0
   -2.0514   -5.7797    0.8227 O   0  0  0  0  0  0  0  0  0  0  0  0
   -0.6558   -6.7819   -0.7841 C   0  0  0  0  0  0  0  0  0  0  0  0
   -0.0111   -7.5354   -0.3038 H   0  0  0  0  0  0  0  0  0  0  0  0
   -1.5317   -7.3401   -1.1520 H   0  0  0  0  0  0  0  0  0  0  0  0
   -0.1109   -6.4687   -1.6890 H   0  0  0  0  0  0  0  0  0  0  0  0
   -0.1543   -4.6083    0.1480 N   0  0  0  0  0  0  0  0  0  0  0  0
   -0.3302   -3.4398    0.9696 C   0  0  2  0  0  0  0  0  0  0  0  0
    0.2328   -2.2439    0.2131 C   0  0  0  0  0  0  0  0  0  0  0  0
    1.2097   -2.3192   -0.5294 O   0  0  0  0  0  0  0  0  0  0  0  0
    0.3557   -3.6024    2.3171 C   0  0  0  0  0  0  0  0  0  0  0  0
    0.6584   -4.6506   -0.4643 H   0  0  0  0  0  0  0  0  0  0  0  0
   -1.4091   -3.3101    1.1082 H   0  0  0  0  0  0  0  0  0  0  0  0
    1.4375   -3.7336    2.1985 H   0  0  0  0  0  0  0  0  0  0  0  0
    0.1969   -2.7243    2.9517 H   0  0  0  0  0  0  0  0  0  0  0  0
   -0.0294   -4.4803    2.8470 H   0  0  0  0  0  0  0  0  0  0  0  0
   -0.4616   -1.0893    0.5050 N   0  0  0  0  0  0  0  0  0  0  0  0
   -0.0884    0.2050   -0.0621 C   0  0  2  0  0  0  0  0  0  0  0  0
    0.5401   -0.0530   -1.4286 C   0  0  0  0  0  0  0  0  0  0  0  0
    0.9362   -1.1607   -1.7856 O   0  0  0  0  0  0  0  0  0  0  0  0
    0.9111    0.9625    0.8249 C   0  0  0  0  0  0  0  0  0  0  0  0
    0.3115    1.4280    2.1559 C   0  0  0  0  0  0  0  0  0  0  0  0
    1.3410    2.1970    2.9884 C   0  0  0  0  0  0  0  0  0  0  0  0
    0.7501    2.6396    4.3259 C   0  0  0  0  0  0  0  0  0  0  0  0
    1.7524    3.3487    5.1123 N   0  0  0  0  0  0  0  0  0  0  0  0
   -1.2794   -1.1113    1.0935 H   0  0  0  0  0  0  0  0  0  0  0  0
   -0.9980    0.8033   -0.1933 H   0  0  0  0  0  0  0  0  0  0  0  0
    1.2835    1.8391    0.2788 H   0  0  0  0  0  0  0  0  0  0  0  0
    1.7906    0.3334    1.0184 H   0  0  0  0  0  0  0  0  0  0  0  0
   -0.0429    0.5663    2.7327 H   0  0  0  0  0  0  0  0  0  0  0  0
   -0.5560    2.0702    1.9623 H   0  0  0  0  0  0  0  0  0  0  0  0
    2.2184    1.5609    3.1609 H   0  0  0  0  0  0  0  0  0  0  0  0
    1.6840    3.0748    2.4262 H   0  0  0  0  0  0  0  0  0  0  0  0
    0.3951    1.7701    4.8898 H   0  0  0  0  0  0  0  0  0  0  0  0
   -0.1062    3.3015    4.1589 H   0  0  0  0  0  0  0  0  0  0  0  0
    2.6026    3.3600    4.5989 H   0  0  0  0  0  0  0  0  0  0  0  0
    1.4280    4.2741    5.2706 H   0  0  0  0  0  0  0  0  0  0  0  0
    0.6256    1.1038   -2.1910 N   0  0  0  0  0  0  0  0  0  0  0  0
    1.2009    1.1386   -3.5164 C   0  0  2  0  0  0  0  0  0  0  0  0
    1.8542    2.5007   -3.7099 C   0  0  0  0  0  0  0  0  0  0  0  0
    1.4079    3.5348   -3.2176 O   0  0  0  0  0  0  0  0  0  0  0  0
    0.1476    0.8845   -4.5836 C   0  0  0  0  0  0  0  0  0  0  0  0
    0.2624    1.9751   -1.8160 H   0  0  0  0  0  0  0  0  0  0  0  0
    1.9678    0.3571   -3.5489 H   0  0  0  0  0  0  0  0  0  0  0  0
   -0.6293    1.6574   -4.5664 H   0  0  0  0  0  0  0  0  0  0  0  0
    0.5901    0.8828   -5.5852 H   0  0  0  0  0  0  0  0  0  0  0  0
   -0.3420   -0.0825   -4.4254 H   0  0  0  0  0  0  0  0  0  0  0  0
    2.9699    2.4321   -4.5326 N   0  0  0  0  0  0  0  0  0  0  0  0
    3.7385    3.5976   -4.9026 C   0  0  0  0  0  0  0  0  0  0  0  0
    3.2918    1.5274   -4.8636 H   0  0  0  0  0  0  0  0  0  0  0  0
    3.3580    4.0021   -5.8522 H   0  0  0  0  0  0  0  0  0  0  0  0
    3.6476    4.3614   -4.1163 H   0  0  0  0  0  0  0  0  0  0  0  0
    4.7955    3.3172   -5.0210 H   0  0  0  0  0  0  0  0  0  0  0  0
  1  3  1  0  0  0  0
  1  7  1  0  0  0  0
  1  2  2  0  0  0  0
 39 40  1  0  0  0  0
 40 48  1  0  0  0  0
 40 41  2  0  0  0  0
  8  9  1  0  0  0  0
  9 17  1  0  0  0  0
  9 10  2  0  0  0  0
 18 19  1  0  0  0  0
 19 38  1  0  0  0  0
 19 20  2  0  0  0  0
 39 42  1  0  0  0  0
  8 11  1  0  0  0  0
 48 49  1  0  0  0  0
 22 23  1  0  0  0  0
 21 22  1  0  0  0  0
 23 24  1  0  0  0  0
 18 21  1  0  0  0  0
 24 25  1  0  0  0  0
 38 39  1  0  0  0  0
  7  8  1  0  0  0  0
 17 18  1  0  0  0  0
  3  4  1  0  0  0  0
  3  5  1  0  0  0  0
  3  6  1  0  0  0  0
 42 45  1  0  0  0  0
 42 46  1  0  0  0  0
 42 47  1  0  0  0  0
 11 14  1  0  0  0  0
 11 15  1  0  0  0  0
 11 16  1  0  0  0  0
 49 51  1  0  0  0  0
 49 52  1  0  0  0  0
 49 53  1  0  0  0  0
 22 30  1  0  0  0  0
 22 31  1  0  0  0  0
 23 32  1  0  0  0  0
 23 33  1  0  0  0  0
 21 28  1  0  0  0  0
 21 29  1  0  0  0  0
 24 34  1  0  0  0  0
 24 35  1  0  0  0  0
 39 44  1  0  0  0  0
  8 13  1  0  0  0  0
 18 27  1  0  0  0  0
 25 36  1  0  0  0  0
 25 37  1  0  0  0  0
 48 50  1  0  0  0  0
  7 12  1  0  0  0  0
 38 43  1  0  0  0  0
 17 26  1  0  0  0  0
M  END
$$$$

  -OEChem-05262214473D

 53 52  0     1  0  0  0  0  0999 V2000
   -1.0338   -5.6785    0.1476 C   0  0  0  0  0  0  0  0  0  0  0  0
   -2.0514   -5.7797    0.8227 O   0  0  0  0  0  0  0  0  0  0  0  0
   -0.6558   -6.7819   -0.7841 C   0  0  0  0  0  0  0  0  0  0  0  0
   -0.0111   -7.5354   -0.3038 H   0  0  0  0  0  0  0  0  0  0  0  0
   -1.5317   -7.3401   -1.1520 H   0  0  0  0  0  0  0  0  0  0  0  0
   -0.1109   -6.4687   -1.6890 H   0  0  0  0  0  0  0  0  0  0  0  0
   -0.1543   -4.6083    0.1480 N   0  0  0  0  0  0  0  0  0  0  0  0
   -0.3302   -3.4398    0.9696 C   0  0  2  0  0  0  0  0  0  0  0  0
    0.2328   -2.2439    0.2131 C   0  0  0  0  0  0  0  0  0  0  0  0
    1.2097   -2.3192   -0.5294 O   0  0  0  0  0  0  0  0  0  0  0  0
    0.3557   -3.6024    2.3171 C   0  0  0  0  0  0  0  0  0  0  0  0
    0.6584   -4.6506   -0.4643 H   0  0  0  0  0  0  0  0  0  0  0  0
   -1.4091   -3.3101    1.1082 H   0  0  0  0  0  0  0  0  0  0  0  0
    1.4375   -3.7336    2.1985 H   0  0  0  0  0  0  0  0  0  0  0  0
    0.1969   -2.7243    2.9517 H   0  0  0  0  0  0  0  0  0  0  0  0
   -0.0294   -4.4803    2.8470 H   0  0  0  0  0  0  0  0  0  0  0  0
   -0.4616   -1.0893    0.5050 N   0  0  0  0  0  0  0  0  0  0  0  0
   -0.0884    0.2050   -0.0621 C   0  0  2  0  0  0  0  0  0  0  0  0
    0.1836   -0.0030   -1.5492 C   0  0  0  0  0  0  0  0  0  0  0  0
    0.1025   -1.1001   -2.0982 O   0  0  0  0  0  0  0  0  0  0  0  0
    1.1614    0.7952    0.6080 C   0  0  0  0  0  0  0  0  0  0  0  0
    0.9319    1.2093    2.0652 C   0  0  0  0  0  0  0  0  0  0  0  0
    2.1998    1.8125    2.6760 C   0  0  0  0  0  0  0  0  0  0  0  0
    1.9776    2.2026    4.1363 C   0  0  0  0  0  0  0  0  0  0  0  0
    3.2022    2.7524    4.7054 N   0  0  0  0  0  0  0  0  0  0  0  0
   -1.2794   -1.1113    1.0935 H   0  0  0  0  0  0  0  0  0  0  0  0
   -0.9340    0.8934    0.0546 H   0  0  0  0  0  0  0  0  0  0  0  0
    1.4935    1.6734    0.0387 H   0  0  0  0  0  0  0  0  0  0  0  0
    1.9886    0.0742    0.5571 H   0  0  0  0  0  0  0  0  0  0  0  0
    0.6259    0.3420    2.6608 H   0  0  0  0  0  0  0  0  0  0  0  0
    0.1177    1.9423    2.1139 H   0  0  0  0  0  0  0  0  0  0  0  0
    3.0194    1.0863    2.6049 H   0  0  0  0  0  0  0  0  0  0  0  0
    2.4998    2.6958    2.0980 H   0  0  0  0  0  0  0  0  0  0  0  0
    1.6672    1.3285    4.7192 H   0  0  0  0  0  0  0  0  0  0  0  0
    1.1824    2.9520    4.2093 H   0  0  0  0  0  0  0  0  0  0  0  0
    3.9106    2.7247    4.0097 H   0  0  0  0  0  0  0  0  0  0  0  0
    3.0240    3.6887    4.9849 H   0  0  0  0  0  0  0  0  0  0  0  0
    0.5484    1.1765   -2.1836 N   0  0  0  0  0  0  0  0  0  0  0  0
    0.8808    1.2509   -3.5881 C   0  0  2  0  0  0  0  0  0  0  0  0
    1.9321    2.3385   -3.7657 C   0  0  0  0  0  0  0  0  0  0  0  0
    1.9624    3.3600   -3.0826 O   0  0  0  0  0  0  0  0  0  0  0  0
   -0.3496    1.5411   -4.4334 C   0  0  0  0  0  0  0  0  0  0  0  0
    0.5795    2.0398   -1.6495 H   0  0  0  0  0  0  0  0  0  0  0  0
    1.3082    0.2806   -3.8638 H   0  0  0  0  0  0  0  0  0  0  0  0
   -0.7917    2.5093   -4.1714 H   0  0  0  0  0  0  0  0  0  0  0  0
   -0.1012    1.5688   -5.4994 H   0  0  0  0  0  0  0  0  0  0  0  0
   -1.1165    0.7738   -4.2817 H   0  0  0  0  0  0  0  0  0  0  0  0
    2.8065    2.0543   -4.8053 N   0  0  0  0  0  0  0  0  0  0  0  0
    3.8668    2.9523   -5.1996 C   0  0  0  0  0  0  0  0  0  0  0  0
    2.7326    1.1657   -5.2917 H   0  0  0  0  0  0  0  0  0  0  0  0
    3.5073    3.6160   -5.9998 H   0  0  0  0  0  0  0  0  0  0  0  0
    4.1766    3.5562   -4.3340 H   0  0  0  0  0  0  0  0  0  0  0  0
    4.7245    2.3685   -5.5653 H   0  0  0  0  0  0  0  0  0  0  0  0
  1  3  1  0  0  0  0
  1  7  1  0  0  0  0
  1  2  2  0  0  0  0
 39 40  1  0  0  0  0
 40 48  1  0  0  0  0
 40 41  2  0  0  0  0
  8  9  1  0  0  0  0
  9 17  1  0  0  0  0
  9 10  2  0  0  0  0
 18 19  1  0  0  0  0
 19 38  1  0  0  0  0
 19 20  2  0  0  0  0
 39 42  1  0  0  0  0
  8 11  1  0  0  0  0
 48 49  1  0  0  0  0
 22 23  1  0  0  0  0
 21 22  1  0  0  0  0
 23 24  1  0  0  0  0
 18 21  1  0  0  0  0
 24 25  1  0  0  0  0
 38 39  1  0  0  0  0
  7  8  1  0  0  0  0
 17 18  1  0  0  0  0
  3  4  1  0  0  0  0
  3  5  1  0  0  0  0
  3  6  1  0  0  0  0
 42 45  1  0  0  0  0
 42 46  1  0  0  0  0
 42 47  1  0  0  0  0
 11 14  1  0  0  0  0
 11 15  1  0  0  0  0
 11 16  1  0  0  0  0
 49 51  1  0  0  0  0
 49 52  1  0  0  0  0
 49 53  1  0  0  0  0
 22 30  1  0  0  0  0
 22 31  1  0  0  0  0
 23 32  1  0  0  0  0
 23 33  1  0  0  0  0
 21 28  1  0  0  0  0
 21 29  1  0  0  0  0
 24 34  1  0  0  0  0
 24 35  1  0  0  0  0
 39 44  1  0  0  0  0
  8 13  1  0  0  0  0
 18 27  1  0  0  0  0
 25 36  1  0  0  0  0
 25 37  1  0  0  0  0
 48 50  1  0  0  0  0
  7 12  1  0  0  0  0
 38 43  1  0  0  0  0
 17 26  1  0  0  0  0
M  END
$$$$

  -OEChem-05262214473D

 53 52  0     1  0  0  0  0  0999 V2000
   -1.0338   -5.6785    0.1476 C   0  0  0  0  0  0  0  0  0  0  0  0
   -2.0514   -5.7797    0.8227 O   0  0  0  0  0  0  0  0  0  0  0  0
   -0.6558   -6.7819   -0.7841 C   0  0  0  0  0  0  0  0  0  0  0  0
   -0.0111   -7.5354   -0.3038 H   0  0  0  0  0  0  0  0  0  0  0  0
   -1.5317   -7.3401   -1.1520 H   0  0  0  0  0  0  0  0  0  0  0  0
   -0.1109   -6.4687   -1.6890 H   0  0  0  0  0  0  0  0  0  0  0  0
   -0.1543   -4.6083    0.1480 N   0  0  0  0  0  0  0  0  0  0  0  0
   -0.3302   -3.4398    0.9696 C   0  0  2  0  0  0  0  0  0  0  0  0
    0.2328   -2.2439    0.2131 C   0  0  0  0  0  0  0  0  0  0  0  0
    1.2097   -2.3192   -0.5294 O   0  0  0  0  0  0  0  0  0  0  0  0
    0.3557   -3.6024    2.3171 C   0  0  0  0  0  0  0  0  0  0  0  0
    0.6584   -4.6506   -0.4643 H   0  0  0  0  0  0  0  0  0  0  0  0
   -1.4091   -3.3101    1.1082 H   0  0  0  0  0  0  0  0  0  0  0  0
    1.4375   -3.7336    2.1985 H   0  0  0  0  0  0  0  0  0  0  0  0
    0.1969   -2.7243    2.9517 H   0  0  0  0  0  0  0  0  0  0  0  0
   -0.0294   -4.4803    2.8470 H   0  0  0  0  0  0  0  0  0  0  0  0
   -0.4616   -1.0893    0.5050 N   0  0  0  0  0  0  0  0  0  0  0  0
   -0.0884    0.2050   -0.0621 C   0  0  2  0  0  0  0  0  0  0  0  0
    0.1836   -0.0030   -1.5492 C   0  0  0  0  0  0  0  0  0  0  0  0
   -0.1480   -1.0200   -2.1552 O   0  0  0  0  0  0  0  0  0  0  0  0
    1.1614    0.7952    0.6080 C   0  0  0  0  0  0  0  0  0  0  0  0
    0.9319    1.2093    2.0652 C   0  0  0  0  0  0  0  0  0  0  0  0
    2.1998    1.8125    2.6760 C   0  0  0  0  0  0  0  0  0  0  0  0
    1.9776    2.2026    4.1363 C   0  0  0  0  0  0  0  0  0  0  0  0
    3.2022    2.7524    4.7054 N   0  0  0  0  0  0  0  0  0  0  0  0
   -1.2794   -1.1113    1.0935 H   0  0  0  0  0  0  0  0  0  0  0  0
   -0.9340    0.8934    0.0546 H   0  0  0  0  0  0  0  0  0  0  0  0
    1.4935    1.6734    0.0387 H   0  0  0  0  0  0  0  0  0  0  0  0
    1.9886    0.0742    0.5571 H   0  0  0  0  0  0  0  0  0  0  0  0
    0.6259    0.3420    2.6608 H   0  0  0  0  0  0  0  0  0  0  0  0
    0.1177    1.9423    2.1139 H   0  0  0  0  0  0  0  0  0  0  0  0
    3.0194    1.0863    2.6049 H   0  0  0  0  0  0  0  0  0  0  0  0
    2.4998    2.6958    2.0980 H   0  0  0  0  0  0  0  0  0  0  0  0
    1.6672    1.3285    4.7192 H   0  0  0  0  0  0  0  0  0  0  0  0
    1.1824    2.9520    4.2093 H   0  0  0  0  0  0  0  0  0  0  0  0
    3.9106    2.7247    4.0097 H   0  0  0  0  0  0  0  0  0  0  0  0
    3.0240    3.6887    4.9849 H   0  0  0  0  0  0  0  0  0  0  0  0
    0.8590    1.0711   -2.1120 N   0  0  0  0  0  0  0  0  0  0  0  0
    1.2570    1.1173   -3.5006 C   0  0  2  0  0  0  0  0  0  0  0  0
    2.5543    1.9099   -3.5919 C   0  0  0  0  0  0  0  0  0  0  0  0
    2.8123    2.8612   -2.8574 O   0  0  0  0  0  0  0  0  0  0  0  0
    0.1750    1.7443   -4.3659 C   0  0  0  0  0  0  0  0  0  0  0  0
    1.0841    1.8755   -1.5342 H   0  0  0  0  0  0  0  0  0  0  0  0
    1.4377    0.0828   -3.8124 H   0  0  0  0  0  0  0  0  0  0  0  0
   -0.0199    2.7812   -4.0683 H   0  0  0  0  0  0  0  0  0  0  0  0
    0.4661    1.7526   -5.4214 H   0  0  0  0  0  0  0  0  0  0  0  0
   -0.7657    1.1904   -4.2759 H   0  0  0  0  0  0  0  0  0  0  0  0
    3.3713    1.4572   -4.6185 N   0  0  0  0  0  0  0  0  0  0  0  0
    4.6386    2.0732   -4.9355 C   0  0  0  0  0  0  0  0  0  0  0  0
    3.0965    0.6373   -5.1512 H   0  0  0  0  0  0  0  0  0  0  0  0
    4.4908    2.8390   -5.7112 H   0  0  0  0  0  0  0  0  0  0  0  0
    5.0544    2.5425   -4.0317 H   0  0  0  0  0  0  0  0  0  0  0  0
    5.3363    1.3072   -5.3049 H   0  0  0  0  0  0  0  0  0  0  0  0
  1  3  1  0  0  0  0
  1  7  1  0  0  0  0
  1  2  2  0  0  0  0
 39 40  1  0  0  0  0
 40 48  1  0  0  0  0
 40 41  2  0  0  0  0
  8  9  1  0  0  0  0
  9 17  1  0  0  0  0
  9 10  2  0  0  0  0
 18 19  1  0  0  0  0
 19 38  1  0  0  0  0
 19 20  2  0  0  0  0
 39 42  1  0  0  0  0
  8 11  1  0  0  0  0
 48 49  1  0  0  0  0
 22 23  1  0  0  0  0
 21 22  1  0  0  0  0
 23 24  1  0  0  0  0
 18 21  1  0  0  0  0
 24 25  1  0  0  0  0
 38 39  1  0  0  0  0
  7  8  1  0  0  0  0
 17 18  1  0  0  0  0
  3  4  1  0  0  0  0
  3  5  1  0  0  0  0
  3  6  1  0  0  0  0
 42 45  1  0  0  0  0
 42 46  1  0  0  0  0
 42 47  1  0  0  0  0
 11 14  1  0  0  0  0
 11 15  1  0  0  0  0
 11 16  1  0  0  0  0
 49 51  1  0  0  0  0
 49 52  1  0  0  0  0
 49 53  1  0  0  0  0
 22 30  1  0  0  0  0
 22 31  1  0  0  0  0
 23 32  1  0  0  0  0
 23 33  1  0  0  0  0
 21 28  1  0  0  0  0
 21 29  1  0  0  0  0
 24 34  1  0  0  0  0
 24 35  1  0  0  0  0
 39 44  1  0  0  0  0
  8 13  1  0  0  0  0
 18 27  1  0  0  0  0
 25 36  1  0  0  0  0
 25 37  1  0  0  0  0
 48 50  1  0  0  0  0
  7 12  1  0  0  0  0
 38 43  1  0  0  0  0
 17 26  1  0  0  0  0
M  END
$$$$

  -OEChem-05262214473D

 53 52  0     1  0  0  0  0  0999 V2000
   -1.0338   -5.6785    0.1476 C   0  0  0  0  0  0  0  0  0  0  0  0
   -2.0514   -5.7797    0.8227 O   0  0  0  0  0  0  0  0  0  0  0  0
   -0.6558   -6.7819   -0.7841 C   0  0  0  0  0  0  0  0  0  0  0  0
   -0.0111   -7.5354   -0.3038 H   0  0  0  0  0  0  0  0  0  0  0  0
   -1.5317   -7.3401   -1.1520 H   0  0  0  0  0  0  0  0  0  0  0  0
   -0.1109   -6.4687   -1.6890 H   0  0  0  0  0  0  0  0  0  0  0  0
   -0.1543   -4.6083    0.1480 N   0  0  0  0  0  0  0  0  0  0  0  0
   -0.3302   -3.4398    0.9696 C   0  0  2  0  0  0  0  0  0  0  0  0
    0.2328   -2.2439    0.2131 C   0  0  0  0  0  0  0  0  0  0  0  0
    1.2097   -2.3192   -0.5294 O   0  0  0  0  0  0  0  0  0  0  0  0
    0.3557   -3.6024    2.3171 C   0  0  0  0  0  0  0  0  0  0  0  0
    0.6584   -4.6506   -0.4643 H   0  0  0  0  0  0  0  0  0  0  0  0
   -1.4091   -3.3101    1.1082 H   0  0  0  0  0  0  0  0  0  0  0  0
    1.4375   -3.7336    2.1985 H   0  0  0  0  0  0  0  0  0  0  0  0
    0.1969   -2.7243    2.9517 H   0  0  0  0  0  0  0  0  0  0  0  0
   -0.0294   -4.4803    2.8470 H   0  0  0  0  0  0  0  0  0  0  0  0
   -0.4616   -1.0893    0.5050 N   0  0  0  0  0  0  0  0  0  0  0  0
   -0.0884    0.2050   -0.0621 C   0  0  2  0  0  0  0  0  0  0  0  0
    0.1836   -0.0030   -1.5492 C   0  0  0  0  0  0  0  0  0  0  0  0
   -0.3678   -0.8769   -2.2154 O   0  0  0  0  0  0  0  0  0  0  0  0
    1.1614    0.7952    0.6080 C   0  0  0  0  0  0  0  0  0  0  0  0
    0.9319    1.2093    2.0652 C   0  0  0  0  0  0  0  0  0  0  0  0
    2.1998    1.8125    2.6760 C   0  0  0  0  0  0  0  0  0  0  0  0
    1.9776    2.2026    4.1363 C   0  0  0  0  0  0  0  0  0  0  0  0
    3.2022    2.7524    4.7054 N   0  0  0  0  0  0  0  0  0  0  0  0
   -1.2794   -1.1113    1.0935 H   0  0  0  0  0  0  0  0  0  0  0  0
   -0.9340    0.8934    0.0546 H   0  0  0  0  0  0  0  0  0  0  0  0
    1.4935    1.6734    0.0387 H   0  0  0  0  0  0  0  0  0  0  0  0
    1.9886    0.0742    0.5571 H   0  0  0  0  0  0  0  0  0  0  0  0
    0.6259    0.3420    2.6608 H   0  0  0  0  0  0  0  0  0  0  0  0
    0.1177    1.9423    2.1139 H   0  0  0  0  0  0  0  0  0  0  0  0
    3.0194    1.0863    2.6049 H   0  0  0  0  0  0  0  0  0  0  0  0
    2.4998    2.6958    2.0980 H   0  0  0  0  0  0  0  0  0  0  0  0
    1.6672    1.3285    4.7192 H   0  0  0  0  0  0  0  0  0  0  0  0
    1.1824    2.9520    4.2093 H   0  0  0  0  0  0  0  0  0  0  0  0
    3.9106    2.7247    4.0097 H   0  0  0  0  0  0  0  0  0  0  0  0
    3.0240    3.6887    4.9849 H   0  0  0  0  0  0  0  0  0  0  0  0
    1.1300    0.8877   -2.0368 N   0  0  0  0  0  0  0  0  0  0  0  0
    1.5837    0.8894   -3.4090 C   0  0  2  0  0  0  0  0  0  0  0  0
    3.0412    1.3310   -3.4219 C   0  0  0  0  0  0  0  0  0  0  0  0
    3.4995    2.1546   -2.6329 O   0  0  0  0  0  0  0  0  0  0  0  0
    0.7306    1.8052   -4.2728 C   0  0  0  0  0  0  0  0  0  0  0  0
    1.5260    1.5842   -1.4127 H   0  0  0  0  0  0  0  0  0  0  0  0
    1.5112   -0.1433   -3.7674 H   0  0  0  0  0  0  0  0  0  0  0  0
    0.7905    2.8443   -3.9290 H   0  0  0  0  0  0  0  0  0  0  0  0
    1.0577    1.7834   -5.3176 H   0  0  0  0  0  0  0  0  0  0  0  0
   -0.3220    1.5041   -4.2387 H   0  0  0  0  0  0  0  0  0  0  0  0
    3.7597    0.7294   -4.4456 N   0  0  0  0  0  0  0  0  0  0  0  0
    5.1531    1.0173   -4.6937 C   0  0  0  0  0  0  0  0  0  0  0  0
    3.3097    0.0285   -5.0271 H   0  0  0  0  0  0  0  0  0  0  0  0
    5.2347    1.8271   -5.4337 H   0  0  0  0  0  0  0  0  0  0  0  0
    5.6359    1.3281   -3.7554 H   0  0  0  0  0  0  0  0  0  0  0  0
    5.6504    0.1157   -5.0808 H   0  0  0  0  0  0  0  0  0  0  0  0
  1  3  1  0  0  0  0
  1  7  1  0  0  0  0
  1  2  2  0  0  0  0
 39 40  1  0  0  0  0
 40 48  1  0  0  0  0
 40 41  2  0  0  0  0
  8  9  1  0  0  0  0
  9 17  1  0  0  0  0
  9 10  2  0  0  0  0
 18 19  1  0  0  0  0
 19 38  1  0  0  0  0
 19 20  2  0  0  0  0
 39 42  1  0  0  0  0
  8 11  1  0  0  0  0
 48 49  1  0  0  0  0
 22 23  1  0  0  0  0
 21 22  1  0  0  0  0
 23 24  1  0  0  0  0
 18 21  1  0  0  0  0
 24 25  1  0  0  0  0
 38 39  1  0  0  0  0
  7  8  1  0  0  0  0
 17 18  1  0  0  0  0
  3  4  1  0  0  0  0
  3  5  1  0  0  0  0
  3  6  1  0  0  0  0
 42 45  1  0  0  0  0
 42 46  1  0  0  0  0
 42 47  1  0  0  0  0
 11 14  1  0  0  0  0
 11 15  1  0  0  0  0
 11 16  1  0  0  0  0
 49 51  1  0  0  0  0
 49 52  1  0  0  0  0
 49 53  1  0  0  0  0
 22 30  1  0  0  0  0
 22 31  1  0  0  0  0
 23 32  1  0  0  0  0
 23 33  1  0  0  0  0
 21 28  1  0  0  0  0
 21 29  1  0  0  0  0
 24 34  1  0  0  0  0
 24 35  1  0  0  0  0
 39 44  1  0  0  0  0
  8 13  1  0  0  0  0
 18 27  1  0  0  0  0
 25 36  1  0  0  0  0
 25 37  1  0  0  0  0
 48 50  1  0  0  0  0
  7 12  1  0  0  0  0
 38 43  1  0  0  0  0
 17 26  1  0  0  0  0
M  END
$$$$

  -OEChem-05262214473D

 53 52  0     1  0  0  0  0  0999 V2000
   -1.0338   -5.6785    0.1476 C   0  0  0  0  0  0  0  0  0  0  0  0
   -2.0514   -5.7797    0.8227 O   0  0  0  0  0  0  0  0  0  0  0  0
   -0.6558   -6.7819   -0.7841 C   0  0  0  0  0  0  0  0  0  0  0  0
   -0.0111   -7.5354   -0.3038 H   0  0  0  0  0  0  0  0  0  0  0  0
   -1.5317   -7.3401   -1.1520 H   0  0  0  0  0  0  0  0  0  0  0  0
   -0.1109   -6.4687   -1.6890 H   0  0  0  0  0  0  0  0  0  0  0  0
   -0.1543   -4.6083    0.1480 N   0  0  0  0  0  0  0  0  0  0  0  0
   -0.3302   -3.4398    0.9696 C   0  0  2  0  0  0  0  0  0  0  0  0
    0.2328   -2.2439    0.2131 C   0  0  0  0  0  0  0  0  0  0  0  0
    1.2097   -2.3192   -0.5294 O   0  0  0  0  0  0  0  0  0  0  0  0
    0.3557   -3.6024    2.3171 C   0  0  0  0  0  0  0  0  0  0  0  0
    0.6584   -4.6506   -0.4643 H   0  0  0  0  0  0  0  0  0  0  0  0
   -1.4091   -3.3101    1.1082 H   0  0  0  0  0  0  0  0  0  0  0  0
    1.4375   -3.7336    2.1985 H   0  0  0  0  0  0  0  0  0  0  0  0
    0.1969   -2.7243    2.9517 H   0  0  0  0  0  0  0  0  0  0  0  0
   -0.0294   -4.4803    2.8470 H   0  0  0  0  0  0  0  0  0  0  0  0
   -0.4616   -1.0893    0.5050 N   0  0  0  0  0  0  0  0  0  0  0  0
   -0.0884    0.2050   -0.0621 C   0  0  2  0  0  0  0  0  0  0  0  0
    0.1836   -0.0030   -1.5492 C   0  0  0  0  0  0  0  0  0  0  0  0
   -0.5419   -0.6805   -2.2747 O   0  0  0  0  0  0  0  0  0  0  0  0
    1.1614    0.7952    0.6080 C   0  0  0  0  0  0  0  0  0  0  0  0
    0.9319    1.2093    2.0652 C   0  0  0  0  0  0  0  0  0  0  0  0
    2.1998    1.8125    2.6760 C   0  0  0  0  0  0  0  0  0  0  0  0
    1.9776    2.2026    4.1363 C   0  0  0  0  0  0  0  0  0  0  0  0
    3.2022    2.7524    4.7054 N   0  0  0  0  0  0  0  0  0  0  0  0
   -1.2794   -1.1113    1.0935 H   0  0  0  0  0  0  0  0  0  0  0  0
   -0.9340    0.8934    0.0546 H   0  0  0  0  0  0  0  0  0  0  0  0
    1.4935    1.6734    0.0387 H   0  0  0  0  0  0  0  0  0  0  0  0
    1.9886    0.0742    0.5571 H   0  0  0  0  0  0  0  0  0  0  0  0
    0.6259    0.3420    2.6608 H   0  0  0  0  0  0  0  0  0  0  0  0
    0.1177    1.9423    2.1139 H   0  0  0  0  0  0  0  0  0  0  0  0
    3.0194    1.0863    2.6049 H   0  0  0  0  0  0  0  0  0  0  0  0
    2.4998    2.6958    2.0980 H   0  0  0  0  0  0  0  0  0  0  0  0
    1.6672    1.3285    4.7192 H   0  0  0  0  0  0  0  0  0  0  0  0
    1.1824    2.9520    4.2093 H   0  0  0  0  0  0  0  0  0  0  0  0
    3.9106    2.7247    4.0097 H   0  0  0  0  0  0  0  0  0  0  0  0
    3.0240    3.6887    4.9849 H   0  0  0  0  0  0  0  0  0  0  0  0
    1.3427    0.6387   -1.9631 N   0  0  0  0  0  0  0  0  0  0  0  0
    1.8384    0.5826   -3.3195 C   0  0  2  0  0  0  0  0  0  0  0  0
    3.3594    0.6411   -3.2672 C   0  0  0  0  0  0  0  0  0  0  0  0
    3.9772    1.2884   -2.4244 O   0  0  0  0  0  0  0  0  0  0  0  0
    1.2793    1.7196   -4.1605 C   0  0  0  0  0  0  0  0  0  0  0  0
    1.8751    1.1857   -1.2931 H   0  0  0  0  0  0  0  0  0  0  0  0
    1.5235   -0.3823   -3.7317 H   0  0  0  0  0  0  0  0  0  0  0  0
    1.5844    2.6945   -3.7628 H   0  0  0  0  0  0  0  0  0  0  0  0
    1.6332    1.6592   -5.1949 H   0  0  0  0  0  0  0  0  0  0  0  0
    0.1843    1.6935   -4.1726 H   0  0  0  0  0  0  0  0  0  0  0  0
    3.9452   -0.0796   -4.2985 N   0  0  0  0  0  0  0  0  0  0  0  0
    5.3752   -0.1436   -4.4907 C   0  0  0  0  0  0  0  0  0  0  0  0
    3.3578   -0.6189   -4.9277 H   0  0  0  0  0  0  0  0  0  0  0  0
    5.6881    0.6493   -5.1860 H   0  0  0  0  0  0  0  0  0  0  0  0
    5.8815   -0.0044   -3.5241 H   0  0  0  0  0  0  0  0  0  0  0  0
    5.6454   -1.1248   -4.9081 H   0  0  0  0  0  0  0  0  0  0  0  0
  1  3  1  0  0  0  0
  1  7  1  0  0  0  0
  1  2  2  0  0  0  0
 39 40  1  0  0  0  0
 40 48  1  0  0  0  0
 40 41  2  0  0  0  0
  8  9  1  0  0  0  0
  9 17  1  0  0  0  0
  9 10  2  0  0  0  0
 18 19  1  0  0  0  0
 19 38  1  0  0  0  0
 19 20  2  0  0  0  0
 39 42  1  0  0  0  0
  8 11  1  0  0  0  0
 48 49  1  0  0  0  0
 22 23  1  0  0  0  0
 21 22  1  0  0  0  0
 23 24  1  0  0  0  0
 18 21  1  0  0  0  0
 24 25  1  0  0  0  0
 38 39  1  0  0  0  0
  7  8  1  0  0  0  0
 17 18  1  0  0  0  0
  3  4  1  0  0  0  0
  3  5  1  0  0  0  0
  3  6  1  0  0  0  0
 42 45  1  0  0  0  0
 42 46  1  0  0  0  0
 42 47  1  0  0  0  0
 11 14  1  0  0  0  0
 11 15  1  0  0  0  0
 11 16  1  0  0  0  0
 49 51  1  0  0  0  0
 49 52  1  0  0  0  0
 49 53  1  0  0  0  0
 22 30  1  0  0  0  0
 22 31  1  0  0  0  0
 23 32  1  0  0  0  0
 23 33  1  0  0  0  0
 21 28  1  0  0  0  0
 21 29  1  0  0  0  0
 24 34  1  0  0  0  0
 24 35  1  0  0  0  0
 39 44  1  0  0  0  0
  8 13  1  0  0  0  0
 18 27  1  0  0  0  0
 25 36  1  0  0  0  0
 25 37  1  0  0  0  0
 48 50  1  0  0  0  0
  7 12  1  0  0  0  0
 38 43  1  0  0  0  0
 17 26  1  0  0  0  0
M  END
$$$$

  -OEChem-05262214473D

 53 52  0     1  0  0  0  0  0999 V2000
   -1.0338   -5.6785    0.1476 C   0  0  0  0  0  0  0  0  0  0  0  0
   -2.0514   -5.7797    0.8227 O   0  0  0  0  0  0  0  0  0  0  0  0
   -0.6558   -6.7819   -0.7841 C   0  0  0  0  0  0  0  0  0  0  0  0
   -0.0111   -7.5354   -0.3038 H   0  0  0  0  0  0  0  0  0  0  0  0
   -1.5317   -7.3401   -1.1520 H   0  0  0  0  0  0  0  0  0  0  0  0
   -0.1109   -6.4687   -1.6890 H   0  0  0  0  0  0  0  0  0  0  0  0
   -0.1543   -4.6083    0.1480 N   0  0  0  0  0  0  0  0  0  0  0  0
   -0.3302   -3.4398    0.9696 C   0  0  2  0  0  0  0  0  0  0  0  0
    0.2328   -2.2439    0.2131 C   0  0  0  0  0  0  0  0  0  0  0  0
    1.2097   -2.3192   -0.5294 O   0  0  0  0  0  0  0  0  0  0  0  0
    0.3557   -3.6024    2.3171 C   0  0  0  0  0  0  0  0  0  0  0  0
    0.6584   -4.6506   -0.4643 H   0  0  0  0  0  0  0  0  0  0  0  0
   -1.4091   -3.3101    1.1082 H   0  0  0  0  0  0  0  0  0  0  0  0
    1.4375   -3.7336    2.1985 H   0  0  0  0  0  0  0  0  0  0  0  0
    0.1969   -2.7243    2.9517 H   0  0  0  0  0  0  0  0  0  0  0  0
   -0.0294   -4.4803    2.8470 H   0  0  0  0  0  0  0  0  0  0  0  0
   -0.4616   -1.0893    0.5050 N   0  0  0  0  0  0  0  0  0  0  0  0
   -0.0884    0.2050   -0.0621 C   0  0  2  0  0  0  0  0  0  0  0  0
    0.1836   -0.0030   -1.5492 C   0  0  0  0  0  0  0  0  0  0  0  0
   -0.6584   -0.4441   -2.3291 O   0  0  0  0  0  0  0  0  0  0  0  0
    1.1614    0.7952    0.6080 C   0  0  0  0  0  0  0  0  0  0  0  0
    0.9319    1.2093    2.0652 C   0  0  0  0  0  0  0  0  0  0  0  0
    2.1998    1.8125    2.6760 C   0  0  0  0  0  0  0  0  0  0  0  0
    1.9776    2.2026    4.1363 C   0  0  0  0  0  0  0  0  0  0  0  0
    3.2022    2.7524    4.7054 N   0  0  0  0  0  0  0  0  0  0  0  0
   -1.2794   -1.1113    1.0935 H   0  0  0  0  0  0  0  0  0  0  0  0
   -0.9340    0.8934    0.0546 H   0  0  0  0  0  0  0  0  0  0  0  0
    1.4935    1.6734    0.0387 H   0  0  0  0  0  0  0  0  0  0  0  0
    1.9886    0.0742    0.5571 H   0  0  0  0  0  0  0  0  0  0  0  0
    0.6259    0.3420    2.6608 H   0  0  0  0  0  0  0  0  0  0  0  0
    0.1177    1.9423    2.1139 H   0  0  0  0  0  0  0  0  0  0  0  0
    3.0194    1.0863    2.6049 H   0  0  0  0  0  0  0  0  0  0  0  0
    2.4998    2.6958    2.0980 H   0  0  0  0  0  0  0  0  0  0  0  0
    1.6672    1.3285    4.7192 H   0  0  0  0  0  0  0  0  0  0  0  0
    1.1824    2.9520    4.2093 H   0  0  0  0  0  0  0  0  0  0  0  0
    3.9106    2.7247    4.0097 H   0  0  0  0  0  0  0  0  0  0  0  0
    3.0240    3.6887    4.9849 H   0  0  0  0  0  0  0  0  0  0  0  0
    1.4829    0.3411   -1.8958 N   0  0  0  0  0  0  0  0  0  0  0  0
    2.0040    0.2179   -3.2382 C   0  0  2  0  0  0  0  0  0  0  0  0
    3.4873   -0.1126   -3.1384 C   0  0  0  0  0  0  0  0  0  0  0  0
    4.2127    0.3217   -2.2460 O   0  0  0  0  0  0  0  0  0  0  0  0
    1.7838    1.4933   -4.0366 C   0  0  0  0  0  0  0  0  0  0  0  0
    2.1076    0.7072   -1.1836 H   0  0  0  0  0  0  0  0  0  0  0  0
    1.4739   -0.6179   -3.7078 H   0  0  0  0  0  0  0  0  0  0  0  0
    2.3075    2.3419   -3.5813 H   0  0  0  0  0  0  0  0  0  0  0  0
    2.1535    1.3885   -5.0619 H   0  0  0  0  0  0  0  0  0  0  0  0
    0.7189    1.7457   -4.0821 H   0  0  0  0  0  0  0  0  0  0  0  0
    3.9151   -0.9145   -4.1872 N   0  0  0  0  0  0  0  0  0  0  0  0
    5.2898   -1.3303   -4.3403 C   0  0  0  0  0  0  0  0  0  0  0  0
    3.2375   -1.2611   -4.8599 H   0  0  0  0  0  0  0  0  0  0  0  0
    5.8204   -0.6142   -4.9850 H   0  0  0  0  0  0  0  0  0  0  0  0
    5.7746   -1.3640   -3.3535 H   0  0  0  0  0  0  0  0  0  0  0  0
    5.3216   -2.3297   -4.7988 H   0  0  0  0  0  0  0  0  0  0  0  0
  1  3  1  0  0  0  0
  1  7  1  0  0  0  0
  1  2  2  0  0  0  0
 39 40  1  0  0  0  0
 40 48  1  0  0  0  0
 40 41  2  0  0  0  0
  8  9  1  0  0  0  0
  9 17  1  0  0  0  0
  9 10  2  0  0  0  0
 18 19  1  0  0  0  0
 19 38  1  0  0  0  0
 19 20  2  0  0  0  0
 39 42  1  0  0  0  0
  8 11  1  0  0  0  0
 48 49  1  0  0  0  0
 22 23  1  0  0  0  0
 21 22  1  0  0  0  0
 23 24  1  0  0  0  0
 18 21  1  0  0  0  0
 24 25  1  0  0  0  0
 38 39  1  0  0  0  0
  7  8  1  0  0  0  0
 17 18  1  0  0  0  0
  3  4  1  0  0  0  0
  3  5  1  0  0  0  0
  3  6  1  0  0  0  0
 42 45  1  0  0  0  0
 42 46  1  0  0  0  0
 42 47  1  0  0  0  0
 11 14  1  0  0  0  0
 11 15  1  0  0  0  0
 11 16  1  0  0  0  0
 49 51  1  0  0  0  0
 49 52  1  0  0  0  0
 49 53  1  0  0  0  0
 22 30  1  0  0  0  0
 22 31  1  0  0  0  0
 23 32  1  0  0  0  0
 23 33  1  0  0  0  0
 21 28  1  0  0  0  0
 21 29  1  0  0  0  0
 24 34  1  0  0  0  0
 24 35  1  0  0  0  0
 39 44  1  0  0  0  0
  8 13  1  0  0  0  0
 18 27  1  0  0  0  0
 25 36  1  0  0  0  0
 25 37  1  0  0  0  0
 48 50  1  0  0  0  0
  7 12  1  0  0  0  0
 38 43  1  0  0  0  0
 17 26  1  0  0  0  0
M  END
$$$$

  -OEChem-05262214473D

 53 52  0     1  0  0  0  0  0999 V2000
   -1.0338   -5.6785    0.1476 C   0  0  0  0  0  0  0  0  0  0  0  0
   -2.0514   -5.7797    0.8227 O   0  0  0  0  0  0  0  0  0  0  0  0
   -0.6558   -6.7819   -0.7841 C   0  0  0  0  0  0  0  0  0  0  0  0
   -0.0111   -7.5354   -0.3038 H   0  0  0  0  0  0  0  0  0  0  0  0
   -1.5317   -7.3401   -1.1520 H   0  0  0  0  0  0  0  0  0  0  0  0
   -0.1109   -6.4687   -1.6890 H   0  0  0  0  0  0  0  0  0  0  0  0
   -0.1543   -4.6083    0.1480 N   0  0  0  0  0  0  0  0  0  0  0  0
   -0.3302   -3.4398    0.9696 C   0  0  2  0  0  0  0  0  0  0  0  0
    0.2328   -2.2439    0.2131 C   0  0  0  0  0  0  0  0  0  0  0  0
    1.2097   -2.3192   -0.5294 O   0  0  0  0  0  0  0  0  0  0  0  0
    0.3557   -3.6024    2.3171 C   0  0  0  0  0  0  0  0  0  0  0  0
    0.6584   -4.6506   -0.4643 H   0  0  0  0  0  0  0  0  0  0  0  0
   -1.4091   -3.3101    1.1082 H   0  0  0  0  0  0  0  0  0  0  0  0
    1.4375   -3.7336    2.1985 H   0  0  0  0  0  0  0  0  0  0  0  0
    0.1969   -2.7243    2.9517 H   0  0  0  0  0  0  0  0  0  0  0  0
   -0.0294   -4.4803    2.8470 H   0  0  0  0  0  0  0  0  0  0  0  0
   -0.4616   -1.0893    0.5050 N   0  0  0  0  0  0  0  0  0  0  0  0
   -0.0884    0.2050   -0.0621 C   0  0  2  0  0  0  0  0  0  0  0  0
    0.1836   -0.0030   -1.5492 C   0  0  0  0  0  0  0  0  0  0  0  0
   -0.7093   -0.1838   -2.3748 O   0  0  0  0  0  0  0  0  0  0  0  0
    1.1614    0.7952    0.6080 C   0  0  0  0  0  0  0  0  0  0  0  0
    0.9319    1.2093    2.0652 C   0  0  0  0  0  0  0  0  0  0  0  0
    2.1998    1.8125    2.6760 C   0  0  0  0  0  0  0  0  0  0  0  0
    1.9776    2.2026    4.1363 C   0  0  0  0  0  0  0  0  0  0  0  0
    3.2022    2.7524    4.7054 N   0  0  0  0  0  0  0  0  0  0  0  0
   -1.2794   -1.1113    1.0935 H   0  0  0  0  0  0  0  0  0  0  0  0
   -0.9340    0.8934    0.0546 H   0  0  0  0  0  0  0  0  0  0  0  0
    1.4935    1.6734    0.0387 H   0  0  0  0  0  0  0  0  0  0  0  0
    1.9886    0.0742    0.5571 H   0  0  0  0  0  0  0  0  0  0  0  0
    0.6259    0.3420    2.6608 H   0  0  0  0  0  0  0  0  0  0  0  0
    0.1177    1.9423    2.1139 H   0  0  0  0  0  0  0  0  0  0  0  0
    3.0194    1.0863    2.6049 H   0  0  0  0  0  0  0  0  0  0  0  0
    2.4998    2.6958    2.0980 H   0  0  0  0  0  0  0  0  0  0  0  0
    1.6672    1.3285    4.7192 H   0  0  0  0  0  0  0  0  0  0  0  0
    1.1824    2.9520    4.2093 H   0  0  0  0  0  0  0  0  0  0  0  0
    3.9106    2.7247    4.0097 H   0  0  0  0  0  0  0  0  0  0  0  0
    3.0240    3.6887    4.9849 H   0  0  0  0  0  0  0  0  0  0  0  0
    1.5408    0.0152   -1.8397 N   0  0  0  0  0  0  0  0  0  0  0  0
    2.0690   -0.1799   -3.1707 C   0  0  2  0  0  0  0  0  0  0  0  0
    3.4163   -0.8789   -3.0442 C   0  0  0  0  0  0  0  0  0  0  0  0
    4.1901   -0.6798   -2.1101 O   0  0  0  0  0  0  0  0  0  0  0  0
    2.2097    1.1418   -3.9095 C   0  0  0  0  0  0  0  0  0  0  0  0
    2.2076    0.1814   -1.0918 H   0  0  0  0  0  0  0  0  0  0  0  0
    1.3656   -0.8341   -3.6973 H   0  0  0  0  0  0  0  0  0  0  0  0
    2.9106    1.8105   -3.3967 H   0  0  0  0  0  0  0  0  0  0  0  0
    2.5830    0.9895   -4.9276 H   0  0  0  0  0  0  0  0  0  0  0  0
    1.2452    1.6571   -3.9735 H   0  0  0  0  0  0  0  0  0  0  0  0
    3.6715   -1.7186   -4.1193 N   0  0  0  0  0  0  0  0  0  0  0  0
    4.9026   -2.4620   -4.2528 C   0  0  0  0  0  0  0  0  0  0  0  0
    2.9568   -1.8541   -4.8282 H   0  0  0  0  0  0  0  0  0  0  0  0
    5.6223   -1.8772   -4.8445 H   0  0  0  0  0  0  0  0  0  0  0  0
    5.3223   -2.6583   -3.2551 H   0  0  0  0  0  0  0  0  0  0  0  0
    4.7010   -3.4169   -4.7602 H   0  0  0  0  0  0  0  0  0  0  0  0
  1  3  1  0  0  0  0
  1  7  1  0  0  0  0
  1  2  2  0  0  0  0
 39 40  1  0  0  0  0
 40 48  1  0  0  0  0
 40 41  2  0  0  0  0
  8  9  1  0  0  0  0
  9 17  1  0  0  0  0
  9 10  2  0  0  0  0
 18 19  1  0  0  0  0
 19 38  1  0  0  0  0
 19 20  2  0  0  0  0
 39 42  1  0  0  0  0
  8 11  1  0  0  0  0
 48 49  1  0  0  0  0
 22 23  1  0  0  0  0
 21 22  1  0  0  0  0
 23 24  1  0  0  0  0
 18 21  1  0  0  0  0
 24 25  1  0  0  0  0
 38 39  1  0  0  0  0
  7  8  1  0  0  0  0
 17 18  1  0  0  0  0
  3  4  1  0  0  0  0
  3  5  1  0  0  0  0
  3  6  1  0  0  0  0
 42 45  1  0  0  0  0
 42 46  1  0  0  0  0
 42 47  1  0  0  0  0
 11 14  1  0  0  0  0
 11 15  1  0  0  0  0
 11 16  1  0  0  0  0
 49 51  1  0  0  0  0
 49 52  1  0  0  0  0
 49 53  1  0  0  0  0
 22 30  1  0  0  0  0
 22 31  1  0  0  0  0
 23 32  1  0  0  0  0
 23 33  1  0  0  0  0
 21 28  1  0  0  0  0
 21 29  1  0  0  0  0
 24 34  1  0  0  0  0
 24 35  1  0  0  0  0
 39 44  1  0  0  0  0
  8 13  1  0  0  0  0
 18 27  1  0  0  0  0
 25 36  1  0  0  0  0
 25 37  1  0  0  0  0
 48 50  1  0  0  0  0
  7 12  1  0  0  0  0
 38 43  1  0  0  0  0
 17 26  1  0  0  0  0
M  END
$$$$

  -OEChem-05262214473D

 53 52  0     1  0  0  0  0  0999 V2000
   -1.0338   -5.6785    0.1476 C   0  0  0  0  0  0  0  0  0  0  0  0
   -2.0514   -5.7797    0.8227 O   0  0  0  0  0  0  0  0  0  0  0  0
   -0.6558   -6.7819   -0.7841 C   0  0  0  0  0  0  0  0  0  0  0  0
   -0.0111   -7.5354   -0.3038 H   0  0  0  0  0  0  0  0  0  0  0  0
   -1.5317   -7.3401   -1.1520 H   0  0  0  0  0  0  0  0  0  0  0  0
   -0.1109   -6.4687   -1.6890 H   0  0  0  0  0  0  0  0  0  0  0  0
   -0.1543   -4.6083    0.1480 N   0  0  0  0  0  0  0  0  0  0  0  0
   -0.3302   -3.4398    0.9696 C   0  0  2  0  0  0  0  0  0  0  0  0
    0.2328   -2.2439    0.2131 C   0  0  0  0  0  0  0  0  0  0  0  0
    1.2097   -2.3192   -0.5294 O   0  0  0  0  0  0  0  0  0  0  0  0
    0.3557   -3.6024    2.3171 C   0  0  0  0  0  0  0  0  0  0  0  0
    0.6584   -4.6506   -0.4643 H   0  0  0  0  0  0  0  0  0  0  0  0
   -1.4091   -3.3101    1.1082 H   0  0  0  0  0  0  0  0  0  0  0  0
    1.4375   -3.7336    2.1985 H   0  0  0  0  0  0  0  0  0  0  0  0
    0.1969   -2.7243    2.9517 H   0  0  0  0  0  0  0  0  0  0  0  0
   -0.0294   -4.4803    2.8470 H   0  0  0  0  0  0  0  0  0  0  0  0
   -0.4616   -1.0893    0.5050 N   0  0  0  0  0  0  0  0  0  0  0  0
   -0.0884    0.2050   -0.0621 C   0  0  2  0  0  0  0  0  0  0  0  0
    0.1836   -0.0030   -1.5492 C   0  0  0  0  0  0  0  0  0  0  0  0
   -0.6913    0.0825   -2.4088 O   0  0  0  0  0  0  0  0  0  0  0  0
    1.1614    0.7952    0.6080 C   0  0  0  0  0  0  0  0  0  0  0  0
    0.9319    1.2093    2.0652 C   0  0  0  0  0  0  0  0  0  0  0  0
    2.1998    1.8125    2.6760 C   0  0  0  0  0  0  0  0  0  0  0  0
    1.9776    2.2026    4.1363 C   0  0  0  0  0  0  0  0  0  0  0  0
    3.2022    2.7524    4.7054 N   0  0  0  0  0  0  0  0  0  0  0  0
   -1.2794   -1.1113    1.0935 H   0  0  0  0  0  0  0  0  0  0  0  0
   -0.9340    0.8934    0.0546 H   0  0  0  0  0  0  0  0  0  0  0  0
    1.4935    1.6734    0.0387 H   0  0  0  0  0  0  0  0  0  0  0  0
    1.9886    0.0742    0.5571 H   0  0  0  0  0  0  0  0  0  0  0  0
    0.6259    0.3420    2.6608 H   0  0  0  0  0  0  0  0  0  0  0  0
    0.1177    1.9423    2.1139 H   0  0  0  0  0  0  0  0  0  0  0  0
    3.0194    1.0863    2.6049 H   0  0  0  0  0  0  0  0  0  0  0  0
    2.4998    2.6958    2.0980 H   0  0  0  0  0  0  0  0  0  0  0  0
    1.6672    1.3285    4.7192 H   0  0  0  0  0  0  0  0  0  0  0  0
    1.1824    2.9520    4.2093 H   0  0  0  0  0  0  0  0  0  0  0  0
    3.9106    2.7247    4.0097 H   0  0  0  0  0  0  0  0  0  0  0  0
    3.0240    3.6887    4.9849 H   0  0  0  0  0  0  0  0  0  0  0  0
    1.5126   -0.3167   -1.7984 N   0  0  0  0  0  0  0  0  0  0  0  0
    2.0292   -0.5837   -3.1215 C   0  0  2  0  0  0  0  0  0  0  0  0
    3.1510   -1.6054   -2.9910 C   0  0  0  0  0  0  0  0  0  0  0  0
    3.9109   -1.6477   -2.0257 O   0  0  0  0  0  0  0  0  0  0  0  0
    2.5279    0.6890   -3.7880 C   0  0  0  0  0  0  0  0  0  0  0  0
    2.1683   -0.3560   -1.0238 H   0  0  0  0  0  0  0  0  0  0  0  0
    1.2062   -1.0161   -3.7010 H   0  0  0  0  0  0  0  0  0  0  0  0
    3.3527    1.1366   -3.2216 H   0  0  0  0  0  0  0  0  0  0  0  0
    2.8926    0.4897   -4.8010 H   0  0  0  0  0  0  0  0  0  0  0  0
    1.7274    1.4338   -3.8541 H   0  0  0  0  0  0  0  0  0  0  0  0
    3.2311   -2.4370   -4.0993 N   0  0  0  0  0  0  0  0  0  0  0  0
    4.2402   -3.4614   -4.2341 C   0  0  0  0  0  0  0  0  0  0  0  0
    2.5351   -2.3576   -4.8349 H   0  0  0  0  0  0  0  0  0  0  0  0
    5.1075   -3.0538   -4.7741 H   0  0  0  0  0  0  0  0  0  0  0  0
    4.5555   -3.7989   -3.2357 H   0  0  0  0  0  0  0  0  0  0  0  0
    3.8261   -4.3123   -4.7949 H   0  0  0  0  0  0  0  0  0  0  0  0
  1  3  1  0  0  0  0
  1  7  1  0  0  0  0
  1  2  2  0  0  0  0
 39 40  1  0  0  0  0
 40 48  1  0  0  0  0
 40 41  2  0  0  0  0
  8  9  1  0  0  0  0
  9 17  1  0  0  0  0
  9 10  2  0  0  0  0
 18 19  1  0  0  0  0
 19 38  1  0  0  0  0
 19 20  2  0  0  0  0
 39 42  1  0  0  0  0
  8 11  1  0  0  0  0
 48 49  1  0  0  0  0
 22 23  1  0  0  0  0
 21 22  1  0  0  0  0
 23 24  1  0  0  0  0
 18 21  1  0  0  0  0
 24 25  1  0  0  0  0
 38 39  1  0  0  0  0
  7  8  1  0  0  0  0
 17 18  1  0  0  0  0
  3  4  1  0  0  0  0
  3  5  1  0  0  0  0
  3  6  1  0  0  0  0
 42 45  1  0  0  0  0
 42 46  1  0  0  0  0
 42 47  1  0  0  0  0
 11 14  1  0  0  0  0
 11 15  1  0  0  0  0
 11 16  1  0  0  0  0
 49 51  1  0  0  0  0
 49 52  1  0  0  0  0
 49 53  1  0  0  0  0
 22 30  1  0  0  0  0
 22 31  1  0  0  0  0
 23 32  1  0  0  0  0
 23 33  1  0  0  0  0
 21 28  1  0  0  0  0
 21 29  1  0  0  0  0
 24 34  1  0  0  0  0
 24 35  1  0  0  0  0
 39 44  1  0  0  0  0
  8 13  1  0  0  0  0
 18 27  1  0  0  0  0
 25 36  1  0  0  0  0
 25 37  1  0  0  0  0
 48 50  1  0  0  0  0
  7 12  1  0  0  0  0
 38 43  1  0  0  0  0
 17 26  1  0  0  0  0
M  END
$$$$

  -OEChem-05262214473D

 53 52  0     1  0  0  0  0  0999 V2000
   -1.0338   -5.6785    0.1476 C   0  0  0  0  0  0  0  0  0  0  0  0
   -2.0514   -5.7797    0.8227 O   0  0  0  0  0  0  0  0  0  0  0  0
   -0.6558   -6.7819   -0.7841 C   0  0  0  0  0  0  0  0  0  0  0  0
   -0.0111   -7.5354   -0.3038 H   0  0  0  0  0  0  0  0  0  0  0  0
   -1.5317   -7.3401   -1.1520 H   0  0  0  0  0  0  0  0  0  0  0  0
   -0.1109   -6.4687   -1.6890 H   0  0  0  0  0  0  0  0  0  0  0  0
   -0.1543   -4.6083    0.1480 N   0  0  0  0  0  0  0  0  0  0  0  0
   -0.3302   -3.4398    0.9696 C   0  0  2  0  0  0  0  0  0  0  0  0
    0.2328   -2.2439    0.2131 C   0  0  0  0  0  0  0  0  0  0  0  0
    1.2097   -2.3192   -0.5294 O   0  0  0  0  0  0  0  0  0  0  0  0
    0.3557   -3.6024    2.3171 C   0  0  0  0  0  0  0  0  0  0  0  0
    0.6584   -4.6506   -0.4643 H   0  0  0  0  0  0  0  0  0  0  0  0
   -1.4091   -3.3101    1.1082 H   0  0  0  0  0  0  0  0  0  0  0  0
    1.4375   -3.7336    2.1985 H   0  0  0  0  0  0  0  0  0  0  0  0
    0.1969   -2.7243    2.9517 H   0  0  0  0  0  0  0  0  0  0  0  0
   -0.0294   -4.4803    2.8470 H   0  0  0  0  0  0  0  0  0  0  0  0
   -0.4616   -1.0893    0.5050 N   0  0  0  0  0  0  0  0  0  0  0  0
   -0.0884    0.2050   -0.0621 C   0  0  2  0  0  0  0  0  0  0  0  0
    0.1836   -0.0030   -1.5492 C   0  0  0  0  0  0  0  0  0  0  0  0
   -0.6055    0.3368   -2.4286 O   0  0  0  0  0  0  0  0  0  0  0  0
    1.1614    0.7952    0.6080 C   0  0  0  0  0  0  0  0  0  0  0  0
    0.9319    1.2093    2.0652 C   0  0  0  0  0  0  0  0  0  0  0  0
    2.1998    1.8125    2.6760 C   0  0  0  0  0  0  0  0  0  0  0  0
    1.9776    2.2026    4.1363 C   0  0  0  0  0  0  0  0  0  0  0  0
    3.2022    2.7524    4.7054 N   0  0  0  0  0  0  0  0  0  0  0  0
   -1.2794   -1.1113    1.0935 H   0  0  0  0  0  0  0  0  0  0  0  0
   -0.9340    0.8934    0.0546 H   0  0  0  0  0  0  0  0  0  0  0  0
    1.4935    1.6734    0.0387 H   0  0  0  0  0  0  0  0  0  0  0  0
    1.9886    0.0742    0.5571 H   0  0  0  0  0  0  0  0  0  0  0  0
    0.6259    0.3420    2.6608 H   0  0  0  0  0  0  0  0  0  0  0  0
    0.1177    1.9423    2.1139 H   0  0  0  0  0  0  0  0  0  0  0  0
    3.0194    1.0863    2.6049 H   0  0  0  0  0  0  0  0  0  0  0  0
    2.4998    2.6958    2.0980 H   0  0  0  0  0  0  0  0  0  0  0  0
    1.6672    1.3285    4.7192 H   0  0  0  0  0  0  0  0  0  0  0  0
    1.1824    2.9520    4.2093 H   0  0  0  0  0  0  0  0  0  0  0  0
    3.9106    2.7247    4.0097 H   0  0  0  0  0  0  0  0  0  0  0  0
    3.0240    3.6887    4.9849 H   0  0  0  0  0  0  0  0  0  0  0  0
    1.4001   -0.6322   -1.7748 N   0  0  0  0  0  0  0  0  0  0  0  0
    1.8871   -0.9659   -3.0940 C   0  0  2  0  0  0  0  0  0  0  0  0
    2.7097   -2.2428   -2.9826 C   0  0  0  0  0  0  0  0  0  0  0  0
    3.3941   -2.5161   -1.9987 O   0  0  0  0  0  0  0  0  0  0  0  0
    2.7167    0.1657   -3.6802 C   0  0  0  0  0  0  0  0  0  0  0  0
    1.9925   -0.8682   -0.9843 H   0  0  0  0  0  0  0  0  0  0  0  0
    1.0065   -1.1515   -3.7186 H   0  0  0  0  0  0  0  0  0  0  0  0
    3.6035    0.3661   -3.0679 H   0  0  0  0  0  0  0  0  0  0  0  0
    3.0610   -0.0771   -4.6910 H   0  0  0  0  0  0  0  0  0  0  0  0
    2.1326    1.0909   -3.7320 H   0  0  0  0  0  0  0  0  0  0  0  0
    2.6237   -3.0207   -4.1287 N   0  0  0  0  0  0  0  0  0  0  0  0
    3.3475   -4.2606   -4.2855 C   0  0  0  0  0  0  0  0  0  0  0  0
    2.0010   -2.7372   -4.8794 H   0  0  0  0  0  0  0  0  0  0  0  0
    4.3110   -4.0636   -4.7784 H   0  0  0  0  0  0  0  0  0  0  0  0
    3.5265   -4.7081   -3.2967 H   0  0  0  0  0  0  0  0  0  0  0  0
    2.7563   -4.9550   -4.9006 H   0  0  0  0  0  0  0  0  0  0  0  0
  1  3  1  0  0  0  0
  1  7  1  0  0  0  0
  1  2  2  0  0  0  0
 39 40  1  0  0  0  0
 40 48  1  0  0  0  0
 40 41  2  0  0  0  0
  8  9  1  0  0  0  0
  9 17  1  0  0  0  0
  9 10  2  0  0  0  0
 18 19  1  0  0  0  0
 19 38  1  0  0  0  0
 19 20  2  0  0  0  0
 39 42  1  0  0  0  0
  8 11  1  0  0  0  0
 48 49  1  0  0  0  0
 22 23  1  0  0  0  0
 21 22  1  0  0  0  0
 23 24  1  0  0  0  0
 18 21  1  0  0  0  0
 24 25  1  0  0  0  0
 38 39  1  0  0  0  0
  7  8  1  0  0  0  0
 17 18  1  0  0  0  0
  3  4  1  0  0  0  0
  3  5  1  0  0  0  0
  3  6  1  0  0  0  0
 42 45  1  0  0  0  0
 42 46  1  0  0  0  0
 42 47  1  0  0  0  0
 11 14  1  0  0  0  0
 11 15  1  0  0  0  0
 11 16  1  0  0  0  0
 49 51  1  0  0  0  0
 49 52  1  0  0  0  0
 49 53  1  0  0  0  0
 22 30  1  0  0  0  0
 22 31  1  0  0  0  0
 23 32  1  0  0  0  0
 23 33  1  0  0  0  0
 21 28  1  0  0  0  0
 21 29  1  0  0  0  0
 24 34  1  0  0  0  0
 24 35  1  0  0  0  0
 39 44  1  0  0  0  0
  8 13  1  0  0  0  0
 18 27  1  0  0  0  0
 25 36  1  0  0  0  0
 25 37  1  0  0  0  0
 48 50  1  0  0  0  0
  7 12  1  0  0  0  0
 38 43  1  0  0  0  0
 17 26  1  0  0  0  0
M  END
$$$$

  -OEChem-05262214473D

 53 52  0     1  0  0  0  0  0999 V2000
   -1.0338   -5.6785    0.1476 C   0  0  0  0  0  0  0  0  0  0  0  0
   -2.0514   -5.7797    0.8227 O   0  0  0  0  0  0  0  0  0  0  0  0
   -0.6558   -6.7819   -0.7841 C   0  0  0  0  0  0  0  0  0  0  0  0
   -0.0111   -7.5354   -0.3038 H   0  0  0  0  0  0  0  0  0  0  0  0
   -1.5317   -7.3401   -1.1520 H   0  0  0  0  0  0  0  0  0  0  0  0
   -0.1109   -6.4687   -1.6890 H   0  0  0  0  0  0  0  0  0  0  0  0
   -0.1543   -4.6083    0.1480 N   0  0  0  0  0  0  0  0  0  0  0  0
   -0.3302   -3.4398    0.9696 C   0  0  2  0  0  0  0  0  0  0  0  0
    0.2328   -2.2439    0.2131 C   0  0  0  0  0  0  0  0  0  0  0  0
    1.2097   -2.3192   -0.5294 O   0  0  0  0  0  0  0  0  0  0  0  0
    0.3557   -3.6024    2.3171 C   0  0  0  0  0  0  0  0  0  0  0  0
    0.6584   -4.6506   -0.4643 H   0  0  0  0  0  0  0  0  0  0  0  0
   -1.4091   -3.3101    1.1082 H   0  0  0  0  0  0  0  0  0  0  0  0
    1.4375   -3.7336    2.1985 H   0  0  0  0  0  0  0  0  0  0  0  0
    0.1969   -2.7243    2.9517 H   0  0  0  0  0  0  0  0  0  0  0  0
   -0.0294   -4.4803    2.8470 H   0  0  0  0  0  0  0  0  0  0  0  0
   -0.4616   -1.0893    0.5050 N   0  0  0  0  0  0  0  0  0  0  0  0
   -0.0884    0.2050   -0.0621 C   0  0  2  0  0  0  0  0  0  0  0  0
    0.1836   -0.0030   -1.5492 C   0  0  0  0  0  0  0  0  0  0  0  0
   -0.4579    0.5617   -2.4331 O   0  0  0  0  0  0  0  0  0  0  0  0
    1.1614    0.7952    0.6080 C   0  0  0  0  0  0  0  0  0  0  0  0
    0.9319    1.2093    2.0652 C   0  0  0  0  0  0  0  0  0  0  0  0
    2.1998    1.8125    2.6760 C   0  0  0  0  0  0  0  0  0  0  0  0
    1.9776    2.2026    4.1363 C   0  0  0  0  0  0  0  0  0  0  0  0
    3.2022    2.7524    4.7054 N   0  0  0  0  0  0  0  0  0  0  0  0
   -1.2794   -1.1113    1.0935 H   0  0  0  0  0  0  0  0  0  0  0  0
   -0.9340    0.8934    0.0546 H   0  0  0  0  0  0  0  0  0  0  0  0
    1.4935    1.6734    0.0387 H   0  0  0  0  0  0  0  0  0  0  0  0
    1.9886    0.0742    0.5571 H   0  0  0  0  0  0  0  0  0  0  0  0
    0.6259    0.3420    2.6608 H   0  0  0  0  0  0  0  0  0  0  0  0
    0.1177    1.9423    2.1139 H   0  0  0  0  0  0  0  0  0  0  0  0
    3.0194    1.0863    2.6049 H   0  0  0  0  0  0  0  0  0  0  0  0
    2.4998    2.6958    2.0980 H   0  0  0  0  0  0  0  0  0  0  0  0
    1.6672    1.3285    4.7192 H   0  0  0  0  0  0  0  0  0  0  0  0
    1.1824    2.9520    4.2093 H   0  0  0  0  0  0  0  0  0  0  0  0
    3.9106    2.7247    4.0097 H   0  0  0  0  0  0  0  0  0  0  0  0
    3.0240    3.6887    4.9849 H   0  0  0  0  0  0  0  0  0  0  0  0
    1.2111   -0.9096   -1.7706 N   0  0  0  0  0  0  0  0  0  0  0  0
    1.6524   -1.3005   -3.0901 C   0  0  2  0  0  0  0  0  0  0  0  0
    2.1223   -2.7475   -3.0193 C   0  0  0  0  0  0  0  0  0  0  0  0
    2.6750   -3.2257   -2.0309 O   0  0  0  0  0  0  0  0  0  0  0  0
    2.7634   -0.3923   -3.5936 C   0  0  0  0  0  0  0  0  0  0  0  0
    1.6920   -1.3206   -0.9759 H   0  0  0  0  0  0  0  0  0  0  0  0
    0.7800   -1.2311   -3.7489 H   0  0  0  0  0  0  0  0  0  0  0  0
    3.6460   -0.4485   -2.9462 H   0  0  0  0  0  0  0  0  0  0  0  0
    3.0769   -0.6721   -4.6048 H   0  0  0  0  0  0  0  0  0  0  0  0
    2.4332    0.6519   -3.6156 H   0  0  0  0  0  0  0  0  0  0  0  0
    1.8909   -3.4300   -4.2054 N   0  0  0  0  0  0  0  0  0  0  0  0
    2.2856   -4.8051   -4.4035 C   0  0  0  0  0  0  0  0  0  0  0  0
    1.3909   -2.9672   -4.9588 H   0  0  0  0  0  0  0  0  0  0  0  0
    3.2870   -4.8380   -4.8573 H   0  0  0  0  0  0  0  0  0  0  0  0
    2.3054   -5.3240   -3.4338 H   0  0  0  0  0  0  0  0  0  0  0  0
    1.5646   -5.3010   -5.0701 H   0  0  0  0  0  0  0  0  0  0  0  0
  1  3  1  0  0  0  0
  1  7  1  0  0  0  0
  1  2  2  0  0  0  0
 39 40  1  0  0  0  0
 40 48  1  0  0  0  0
 40 41  2  0  0  0  0
  8  9  1  0  0  0  0
  9 17  1  0  0  0  0
  9 10  2  0  0  0  0
 18 19  1  0  0  0  0
 19 38  1  0  0  0  0
 19 20  2  0  0  0  0
 39 42  1  0  0  0  0
  8 11  1  0  0  0  0
 48 49  1  0  0  0  0
 22 23  1  0  0  0  0
 21 22  1  0  0  0  0
 23 24  1  0  0  0  0
 18 21  1  0  0  0  0
 24 25  1  0  0  0  0
 38 39  1  0  0  0  0
  7  8  1  0  0  0  0
 17 18  1  0  0  0  0
  3  4  1  0  0  0  0
  3  5  1  0  0  0  0
  3  6  1  0  0  0  0
 42 45  1  0  0  0  0
 42 46  1  0  0  0  0
 42 47  1  0  0  0  0
 11 14  1  0  0  0  0
 11 15  1  0  0  0  0
 11 16  1  0  0  0  0
 49 51  1  0  0  0  0
 49 52  1  0  0  0  0
 49 53  1  0  0  0  0
 22 30  1  0  0  0  0
 22 31  1  0  0  0  0
 23 32  1  0  0  0  0
 23 33  1  0  0  0  0
 21 28  1  0  0  0  0
 21 29  1  0  0  0  0
 24 34  1  0  0  0  0
 24 35  1  0  0  0  0
 39 44  1  0  0  0  0
  8 13  1  0  0  0  0
 18 27  1  0  0  0  0
 25 36  1  0  0  0  0
 25 37  1  0  0  0  0
 48 50  1  0  0  0  0
  7 12  1  0  0  0  0
 38 43  1  0  0  0  0
 17 26  1  0  0  0  0
M  END
$$$$

  -OEChem-05262214473D

 53 52  0     1  0  0  0  0  0999 V2000
   -1.0338   -5.6785    0.1476 C   0  0  0  0  0  0  0  0  0  0  0  0
   -2.0514   -5.7797    0.8227 O   0  0  0  0  0  0  0  0  0  0  0  0
   -0.6558   -6.7819   -0.7841 C   0  0  0  0  0  0  0  0  0  0  0  0
   -0.0111   -7.5354   -0.3038 H   0  0  0  0  0  0  0  0  0  0  0  0
   -1.5317   -7.3401   -1.1520 H   0  0  0  0  0  0  0  0  0  0  0  0
   -0.1109   -6.4687   -1.6890 H   0  0  0  0  0  0  0  0  0  0  0  0
   -0.1543   -4.6083    0.1480 N   0  0  0  0  0  0  0  0  0  0  0  0
   -0.3302   -3.4398    0.9696 C   0  0  2  0  0  0  0  0  0  0  0  0
    0.2328   -2.2439    0.2131 C   0  0  0  0  0  0  0  0  0  0  0  0
    1.2097   -2.3192   -0.5294 O   0  0  0  0  0  0  0  0  0  0  0  0
    0.3557   -3.6024    2.3171 C   0  0  0  0  0  0  0  0  0  0  0  0
    0.6584   -4.6506   -0.4643 H   0  0  0  0  0  0  0  0  0  0  0  0
   -1.4091   -3.3101    1.1082 H   0  0  0  0  0  0  0  0  0  0  0  0
    1.4375   -3.7336    2.1985 H   0  0  0  0  0  0  0  0  0  0  0  0
    0.1969   -2.7243    2.9517 H   0  0  0  0  0  0  0  0  0  0  0  0
   -0.0294   -4.4803    2.8470 H   0  0  0  0  0  0  0  0  0  0  0  0
   -0.4616   -1.0893    0.5050 N   0  0  0  0  0  0  0  0  0  0  0  0
   -0.0884    0.2050   -0.0621 C   0  0  2  0  0  0  0  0  0  0  0  0
    0.1836   -0.0030   -1.5492 C   0  0  0  0  0  0  0  0  0  0  0  0
   -0.2583    0.7418   -2.4218 O   0  0  0  0  0  0  0  0  0  0  0  0
    1.1614    0.7952    0.6080 C   0  0  0  0  0  0  0  0  0  0  0  0
    0.9319    1.2093    2.0652 C   0  0  0  0  0  0  0  0  0  0  0  0
    2.1998    1.8125    2.6760 C   0  0  0  0  0  0  0  0  0  0  0  0
    1.9776    2.2026    4.1363 C   0  0  0  0  0  0  0  0  0  0  0  0
    3.2022    2.7524    4.7054 N   0  0  0  0  0  0  0  0  0  0  0  0
   -1.2794   -1.1113    1.0935 H   0  0  0  0  0  0  0  0  0  0  0  0
   -0.9340    0.8934    0.0546 H   0  0  0  0  0  0  0  0  0  0  0  0
    1.4935    1.6734    0.0387 H   0  0  0  0  0  0  0  0  0  0  0  0
    1.9886    0.0742    0.5571 H   0  0  0  0  0  0  0  0  0  0  0  0
    0.6259    0.3420    2.6608 H   0  0  0  0  0  0  0  0  0  0  0  0
    0.1177    1.9423    2.1139 H   0  0  0  0  0  0  0  0  0  0  0  0
    3.0194    1.0863    2.6049 H   0  0  0  0  0  0  0  0  0  0  0  0
    2.4998    2.6958    2.0980 H   0  0  0  0  0  0  0  0  0  0  0  0
    1.6672    1.3285    4.7192 H   0  0  0  0  0  0  0  0  0  0  0  0
    1.1824    2.9520    4.2093 H   0  0  0  0  0  0  0  0  0  0  0  0
    3.9106    2.7247    4.0097 H   0  0  0  0  0  0  0  0  0  0  0  0
    3.0240    3.6887    4.9849 H   0  0  0  0  0  0  0  0  0  0  0  0
    0.9584   -1.1301   -1.7859 N   0  0  0  0  0  0  0  0  0  0  0  0
    1.3413   -1.5648   -3.1100 C   0  0  2  0  0  0  0  0  0  0  0  0
    1.4290   -3.0852   -3.0989 C   0  0  0  0  0  0  0  0  0  0  0  0
    1.8024   -3.7284   -2.1202 O   0  0  0  0  0  0  0  0  0  0  0  0
    2.6647   -0.9471   -3.5341 C   0  0  0  0  0  0  0  0  0  0  0  0
    1.2874   -1.6820   -0.9993 H   0  0  0  0  0  0  0  0  0  0  0  0
    0.5422   -1.2494   -3.7898 H   0  0  0  0  0  0  0  0  0  0  0  0
    3.4774   -1.2516   -2.8646 H   0  0  0  0  0  0  0  0  0  0  0  0
    2.9392   -1.2548   -4.5485 H   0  0  0  0  0  0  0  0  0  0  0  0
    2.6088    0.1467   -3.5128 H   0  0  0  0  0  0  0  0  0  0  0  0
    1.0825   -3.6369   -4.3243 N   0  0  0  0  0  0  0  0  0  0  0  0
    1.1266   -5.0577   -4.5801 C   0  0  0  0  0  0  0  0  0  0  0  0
    0.7463   -3.0318   -5.0676 H   0  0  0  0  0  0  0  0  0  0  0  0
    2.1055   -5.3240   -5.0054 H   0  0  0  0  0  0  0  0  0  0  0  0
    0.9754   -5.6046   -3.6377 H   0  0  0  0  0  0  0  0  0  0  0  0
    0.3322   -5.3269   -5.2918 H   0  0  0  0  0  0  0  0  0  0  0  0
  1  3  1  0  0  0  0
  1  7  1  0  0  0  0
  1  2  2  0  0  0  0
 39 40  1  0  0  0  0
 40 48  1  0  0  0  0
 40 41  2  0  0  0  0
  8  9  1  0  0  0  0
  9 17  1  0  0  0  0
  9 10  2  0  0  0  0
 18 19  1  0  0  0  0
 19 38  1  0  0  0  0
 19 20  2  0  0  0  0
 39 42  1  0  0  0  0
  8 11  1  0  0  0  0
 48 49  1  0  0  0  0
 22 23  1  0  0  0  0
 21 22  1  0  0  0  0
 23 24  1  0  0  0  0
 18 21  1  0  0  0  0
 24 25  1  0  0  0  0
 38 39  1  0  0  0  0
  7  8  1  0  0  0  0
 17 18  1  0  0  0  0
  3  4  1  0  0  0  0
  3  5  1  0  0  0  0
  3  6  1  0  0  0  0
 42 45  1  0  0  0  0
 42 46  1  0  0  0  0
 42 47  1  0  0  0  0
 11 14  1  0  0  0  0
 11 15  1  0  0  0  0
 11 16  1  0  0  0  0
 49 51  1  0  0  0  0
 49 52  1  0  0  0  0
 49 53  1  0  0  0  0
 22 30  1  0  0  0  0
 22 31  1  0  0  0  0
 23 32  1  0  0  0  0
 23 33  1  0  0  0  0
 21 28  1  0  0  0  0
 21 29  1  0  0  0  0
 24 34  1  0  0  0  0
 24 35  1  0  0  0  0
 39 44  1  0  0  0  0
  8 13  1  0  0  0  0
 18 27  1  0  0  0  0
 25 36  1  0  0  0  0
 25 37  1  0  0  0  0
 48 50  1  0  0  0  0
  7 12  1  0  0  0  0
 38 43  1  0  0  0  0
 17 26  1  0  0  0  0
M  END
$$$$

  -OEChem-05262214473D

 53 52  0     1  0  0  0  0  0999 V2000
   -1.0338   -5.6785    0.1476 C   0  0  0  0  0  0  0  0  0  0  0  0
   -2.0514   -5.7797    0.8227 O   0  0  0  0  0  0  0  0  0  0  0  0
   -0.6558   -6.7819   -0.7841 C   0  0  0  0  0  0  0  0  0  0  0  0
   -0.0111   -7.5354   -0.3038 H   0  0  0  0  0  0  0  0  0  0  0  0
   -1.5317   -7.3401   -1.1520 H   0  0  0  0  0  0  0  0  0  0  0  0
   -0.1109   -6.4687   -1.6890 H   0  0  0  0  0  0  0  0  0  0  0  0
   -0.1543   -4.6083    0.1480 N   0  0  0  0  0  0  0  0  0  0  0  0
   -0.3302   -3.4398    0.9696 C   0  0  2  0  0  0  0  0  0  0  0  0
    0.2328   -2.2439    0.2131 C   0  0  0  0  0  0  0  0  0  0  0  0
    1.2097   -2.3192   -0.5294 O   0  0  0  0  0  0  0  0  0  0  0  0
    0.3557   -3.6024    2.3171 C   0  0  0  0  0  0  0  0  0  0  0  0
    0.6584   -4.6506   -0.4643 H   0  0  0  0  0  0  0  0  0  0  0  0
   -1.4091   -3.3101    1.1082 H   0  0  0  0  0  0  0  0  0  0  0  0
    1.4375   -3.7336    2.1985 H   0  0  0  0  0  0  0  0  0  0  0  0
    0.1969   -2.7243    2.9517 H   0  0  0  0  0  0  0  0  0  0  0  0
   -0.0294   -4.4803    2.8470 H   0  0  0  0  0  0  0  0  0  0  0  0
   -0.4616   -1.0893    0.5050 N   0  0  0  0  0  0  0  0  0  0  0  0
   -0.0884    0.2050   -0.0621 C   0  0  2  0  0  0  0  0  0  0  0  0
    0.1836   -0.0030   -1.5492 C   0  0  0  0  0  0  0  0  0  0  0  0
   -0.0206    0.8650   -2.3956 O   0  0  0  0  0  0  0  0  0  0  0  0
    1.1614    0.7952    0.6080 C   0  0  0  0  0  0  0  0  0  0  0  0
    0.9319    1.2093    2.0652 C   0  0  0  0  0  0  0  0  0  0  0  0
    2.1998    1.8125    2.6760 C   0  0  0  0  0  0  0  0  0  0  0  0
    1.9776    2.2026    4.1363 C   0  0  0  0  0  0  0  0  0  0  0  0
    3.2022    2.7524    4.7054 N   0  0  0  0  0  0  0  0  0  0  0  0
   -1.2794   -1.1113    1.0935 H   0  0  0  0  0  0  0  0  0  0  0  0
   -0.9340    0.8934    0.0546 H   0  0  0  0  0  0  0  0  0  0  0  0
    1.4935    1.6734    0.0387 H   0  0  0  0  0  0  0  0  0  0  0  0
    1.9886    0.0742    0.5571 H   0  0  0  0  0  0  0  0  0  0  0  0
    0.6259    0.3420    2.6608 H   0  0  0  0  0  0  0  0  0  0  0  0
    0.1177    1.9423    2.1139 H   0  0  0  0  0  0  0  0  0  0  0  0
    3.0194    1.0863    2.6049 H   0  0  0  0  0  0  0  0  0  0  0  0
    2.4998    2.6958    2.0980 H   0  0  0  0  0  0  0  0  0  0  0  0
    1.6672    1.3285    4.7192 H   0  0  0  0  0  0  0  0  0  0  0  0
    1.1824    2.9520    4.2093 H   0  0  0  0  0  0  0  0  0  0  0  0
    3.9106    2.7247    4.0097 H   0  0  0  0  0  0  0  0  0  0  0  0
    3.0240    3.6887    4.9849 H   0  0  0  0  0  0  0  0  0  0  0  0
    0.6592   -1.2787   -1.8198 N   0  0  0  0  0  0  0  0  0  0  0  0
    0.9748   -1.7406   -3.1524 C   0  0  2  0  0  0  0  0  0  0  0  0
    0.6769   -3.2328   -3.2157 C   0  0  0  0  0  0  0  0  0  0  0  0
    0.8360   -3.9897   -2.2603 O   0  0  0  0  0  0  0  0  0  0  0  0
    2.4272   -1.4608   -3.5056 C   0  0  0  0  0  0  0  0  0  0  0  0
    0.8062   -1.9281   -1.0529 H   0  0  0  0  0  0  0  0  0  0  0  0
    0.3093   -1.2053   -3.8385 H   0  0  0  0  0  0  0  0  0  0  0  0
    3.1090   -1.9887   -2.8289 H   0  0  0  0  0  0  0  0  0  0  0  0
    2.6572   -1.7855   -4.5258 H   0  0  0  0  0  0  0  0  0  0  0  0
    2.6473   -0.3904   -3.4307 H   0  0  0  0  0  0  0  0  0  0  0  0
    0.2536   -3.6275   -4.4772 N   0  0  0  0  0  0  0  0  0  0  0  0
   -0.0504   -5.0013   -4.8032 C   0  0  0  0  0  0  0  0  0  0  0  0
    0.1113   -2.9266   -5.1985 H   0  0  0  0  0  0  0  0  0  0  0  0
    0.8468   -5.4887   -5.2125 H   0  0  0  0  0  0  0  0  0  0  0  0
   -0.3729   -5.5308   -3.8946 H   0  0  0  0  0  0  0  0  0  0  0  0
   -0.8568   -5.0308   -5.5506 H   0  0  0  0  0  0  0  0  0  0  0  0
  1  3  1  0  0  0  0
  1  7  1  0  0  0  0
  1  2  2  0  0  0  0
 39 40  1  0  0  0  0
 40 48  1  0  0  0  0
 40 41  2  0  0  0  0
  8  9  1  0  0  0  0
  9 17  1  0  0  0  0
  9 10  2  0  0  0  0
 18 19  1  0  0  0  0
 19 38  1  0  0  0  0
 19 20  2  0  0  0  0
 39 42  1  0  0  0  0
  8 11  1  0  0  0  0
 48 49  1  0  0  0  0
 22 23  1  0  0  0  0
 21 22  1  0  0  0  0
 23 24  1  0  0  0  0
 18 21  1  0  0  0  0
 24 25  1  0  0  0  0
 38 39  1  0  0  0  0
  7  8  1  0  0  0  0
 17 18  1  0  0  0  0
  3  4  1  0  0  0  0
  3  5  1  0  0  0  0
  3  6  1  0  0  0  0
 42 45  1  0  0  0  0
 42 46  1  0  0  0  0
 42 47  1  0  0  0  0
 11 14  1  0  0  0  0
 11 15  1  0  0  0  0
 11 16  1  0  0  0  0
 49 51  1  0  0  0  0
 49 52  1  0  0  0  0
 49 53  1  0  0  0  0
 22 30  1  0  0  0  0
 22 31  1  0  0  0  0
 23 32  1  0  0  0  0
 23 33  1  0  0  0  0
 21 28  1  0  0  0  0
 21 29  1  0  0  0  0
 24 34  1  0  0  0  0
 24 35  1  0  0  0  0
 39 44  1  0  0  0  0
  8 13  1  0  0  0  0
 18 27  1  0  0  0  0
 25 36  1  0  0  0  0
 25 37  1  0  0  0  0
 48 50  1  0  0  0  0
  7 12  1  0  0  0  0
 38 43  1  0  0  0  0
 17 26  1  0  0  0  0
M  END
$$$$

  -OEChem-05262214473D

 53 52  0     1  0  0  0  0  0999 V2000
   -1.0338   -5.6785    0.1476 C   0  0  0  0  0  0  0  0  0  0  0  0
   -2.0514   -5.7797    0.8227 O   0  0  0  0  0  0  0  0  0  0  0  0
   -0.6558   -6.7819   -0.7841 C   0  0  0  0  0  0  0  0  0  0  0  0
   -0.0111   -7.5354   -0.3038 H   0  0  0  0  0  0  0  0  0  0  0  0
   -1.5317   -7.3401   -1.1520 H   0  0  0  0  0  0  0  0  0  0  0  0
   -0.1109   -6.4687   -1.6890 H   0  0  0  0  0  0  0  0  0  0  0  0
   -0.1543   -4.6083    0.1480 N   0  0  0  0  0  0  0  0  0  0  0  0
   -0.3302   -3.4398    0.9696 C   0  0  2  0  0  0  0  0  0  0  0  0
    0.2328   -2.2439    0.2131 C   0  0  0  0  0  0  0  0  0  0  0  0
    1.2097   -2.3192   -0.5294 O   0  0  0  0  0  0  0  0  0  0  0  0
    0.3557   -3.6024    2.3171 C   0  0  0  0  0  0  0  0  0  0  0  0
    0.6584   -4.6506   -0.4643 H   0  0  0  0  0  0  0  0  0  0  0  0
   -1.4091   -3.3101    1.1082 H   0  0  0  0  0  0  0  0  0  0  0  0
    1.4375   -3.7336    2.1985 H   0  0  0  0  0  0  0  0  0  0  0  0
    0.1969   -2.7243    2.9517 H   0  0  0  0  0  0  0  0  0  0  0  0
   -0.0294   -4.4803    2.8470 H   0  0  0  0  0  0  0  0  0  0  0  0
   -0.4616   -1.0893    0.5050 N   0  0  0  0  0  0  0  0  0  0  0  0
   -0.0884    0.2050   -0.0621 C   0  0  2  0  0  0  0  0  0  0  0  0
    0.1836   -0.0030   -1.5492 C   0  0  0  0  0  0  0  0  0  0  0  0
    0.2393    0.9229   -2.3562 O   0  0  0  0  0  0  0  0  0  0  0  0
    1.1614    0.7952    0.6080 C   0  0  0  0  0  0  0  0  0  0  0  0
    0.9319    1.2093    2.0652 C   0  0  0  0  0  0  0  0  0  0  0  0
    2.1998    1.8125    2.6760 C   0  0  0  0  0  0  0  0  0  0  0  0
    1.9776    2.2026    4.1363 C   0  0  0  0  0  0  0  0  0  0  0  0
    3.2022    2.7524    4.7054 N   0  0  0  0  0  0  0  0  0  0  0  0
   -1.2794   -1.1113    1.0935 H   0  0  0  0  0  0  0  0  0  0  0  0
   -0.9340    0.8934    0.0546 H   0  0  0  0  0  0  0  0  0  0  0  0
    1.4935    1.6734    0.0387 H   0  0  0  0  0  0  0  0  0  0  0  0
    1.9886    0.0742    0.5571 H   0  0  0  0  0  0  0  0  0  0  0  0
    0.6259    0.3420    2.6608 H   0  0  0  0  0  0  0  0  0  0  0  0
    0.1177    1.9423    2.1139 H   0  0  0  0  0  0  0  0  0  0  0  0
    3.0194    1.0863    2.6049 H   0  0  0  0  0  0  0  0  0  0  0  0
    2.4998    2.6958    2.0980 H   0  0  0  0  0  0  0  0  0  0  0  0
    1.6672    1.3285    4.7192 H   0  0  0  0  0  0  0  0  0  0  0  0
    1.1824    2.9520    4.2093 H   0  0  0  0  0  0  0  0  0  0  0  0
    3.9106    2.7247    4.0097 H   0  0  0  0  0  0  0  0  0  0  0  0
    3.0240    3.6887    4.9849 H   0  0  0  0  0  0  0  0  0  0  0  0
    0.3340   -1.3451   -1.8700 N   0  0  0  0  0  0  0  0  0  0  0  0
    0.5779   -1.8160   -3.2145 C   0  0  2  0  0  0  0  0  0  0  0  0
   -0.0826   -3.1803   -3.3620 C   0  0  0  0  0  0  0  0  0  0  0  0
   -0.1584   -3.9919   -2.4418 O   0  0  0  0  0  0  0  0  0  0  0  0
    2.0674   -1.8984   -3.5102 C   0  0  0  0  0  0  0  0  0  0  0  0
    0.2813   -2.0419   -1.1330 H   0  0  0  0  0  0  0  0  0  0  0  0
    0.0973   -1.1017   -3.8918 H   0  0  0  0  0  0  0  0  0  0  0  0
    2.5660   -2.6093   -2.8413 H   0  0  0  0  0  0  0  0  0  0  0  0
    2.2501   -2.2280   -4.5383 H   0  0  0  0  0  0  0  0  0  0  0  0
    2.5462   -0.9226   -3.3747 H   0  0  0  0  0  0  0  0  0  0  0  0
   -0.5392   -3.4022   -4.6537 N   0  0  0  0  0  0  0  0  0  0  0  0
   -1.1651   -4.6396   -5.0576 C   0  0  0  0  0  0  0  0  0  0  0  0
   -0.4709   -2.6587   -5.3424 H   0  0  0  0  0  0  0  0  0  0  0  0
   -0.4032   -5.3207   -5.4646 H   0  0  0  0  0  0  0  0  0  0  0  0
   -1.6476   -5.1076   -4.1869 H   0  0  0  0  0  0  0  0  0  0  0  0
   -1.9216   -4.4330   -5.8290 H   0  0  0  0  0  0  0  0  0  0  0  0
  1  3  1  0  0  0  0
  1  7  1  0  0  0  0
  1  2  2  0  0  0  0
 39 40  1  0  0  0  0
 40 48  1  0  0  0  0
 40 41  2  0  0  0  0
  8  9  1  0  0  0  0
  9 17  1  0  0  0  0
  9 10  2  0  0  0  0
 18 19  1  0  0  0  0
 19 38  1  0  0  0  0
 19 20  2  0  0  0  0
 39 42  1  0  0  0  0
  8 11  1  0  0  0  0
 48 49  1  0  0  0  0
 22 23  1  0  0  0  0
 21 22  1  0  0  0  0
 23 24  1  0  0  0  0
 18 21  1  0  0  0  0
 24 25  1  0  0  0  0
 38 39  1  0  0  0  0
  7  8  1  0  0  0  0
 17 18  1  0  0  0  0
  3  4  1  0  0  0  0
  3  5  1  0  0  0  0
  3  6  1  0  0  0  0
 42 45  1  0  0  0  0
 42 46  1  0  0  0  0
 42 47  1  0  0  0  0
 11 14  1  0  0  0  0
 11 15  1  0  0  0  0
 11 16  1  0  0  0  0
 49 51  1  0  0  0  0
 49 52  1  0  0  0  0
 49 53  1  0  0  0  0
 22 30  1  0  0  0  0
 22 31  1  0  0  0  0
 23 32  1  0  0  0  0
 23 33  1  0  0  0  0
 21 28  1  0  0  0  0
 21 29  1  0  0  0  0
 24 34  1  0  0  0  0
 24 35  1  0  0  0  0
 39 44  1  0  0  0  0
  8 13  1  0  0  0  0
 18 27  1  0  0  0  0
 25 36  1  0  0  0  0
 25 37  1  0  0  0  0
 48 50  1  0  0  0  0
  7 12  1  0  0  0  0
 38 43  1  0  0  0  0
 17 26  1  0  0  0  0
M  END
$$$$

  -OEChem-05262214473D

 53 52  0     1  0  0  0  0  0999 V2000
   -1.0338   -5.6785    0.1476 C   0  0  0  0  0  0  0  0  0  0  0  0
   -2.0514   -5.7797    0.8227 O   0  0  0  0  0  0  0  0  0  0  0  0
   -0.6558   -6.7819   -0.7841 C   0  0  0  0  0  0  0  0  0  0  0  0
   -0.0111   -7.5354   -0.3038 H   0  0  0  0  0  0  0  0  0  0  0  0
   -1.5317   -7.3401   -1.1520 H   0  0  0  0  0  0  0  0  0  0  0  0
   -0.1109   -6.4687   -1.6890 H   0  0  0  0  0  0  0  0  0  0  0  0
   -0.1543   -4.6083    0.1480 N   0  0  0  0  0  0  0  0  0  0  0  0
   -0.3302   -3.4398    0.9696 C   0  0  2  0  0  0  0  0  0  0  0  0
    0.2328   -2.2439    0.2131 C   0  0  0  0  0  0  0  0  0  0  0  0
    1.2097   -2.3192   -0.5294 O   0  0  0  0  0  0  0  0  0  0  0  0
    0.3557   -3.6024    2.3171 C   0  0  0  0  0  0  0  0  0  0  0  0
    0.6584   -4.6506   -0.4643 H   0  0  0  0  0  0  0  0  0  0  0  0
   -1.4091   -3.3101    1.1082 H   0  0  0  0  0  0  0  0  0  0  0  0
    1.4375   -3.7336    2.1985 H   0  0  0  0  0  0  0  0  0  0  0  0
    0.1969   -2.7243    2.9517 H   0  0  0  0  0  0  0  0  0  0  0  0
   -0.0294   -4.4803    2.8470 H   0  0  0  0  0  0  0  0  0  0  0  0
   -0.4616   -1.0893    0.5050 N   0  0  0  0  0  0  0  0  0  0  0  0
   -0.0884    0.2050   -0.0621 C   0  0  2  0  0  0  0  0  0  0  0  0
    0.1836   -0.0030   -1.5492 C   0  0  0  0  0  0  0  0  0  0  0  0
    0.5034    0.9114   -2.3063 O   0  0  0  0  0  0  0  0  0  0  0  0
    1.1614    0.7952    0.6080 C   0  0  0  0  0  0  0  0  0  0  0  0
    0.9319    1.2093    2.0652 C   0  0  0  0  0  0  0  0  0  0  0  0
    2.1998    1.8125    2.6760 C   0  0  0  0  0  0  0  0  0  0  0  0
    1.9776    2.2026    4.1363 C   0  0  0  0  0  0  0  0  0  0  0  0
    3.2022    2.7524    4.7054 N   0  0  0  0  0  0  0  0  0  0  0  0
   -1.2794   -1.1113    1.0935 H   0  0  0  0  0  0  0  0  0  0  0  0
   -0.9340    0.8934    0.0546 H   0  0  0  0  0  0  0  0  0  0  0  0
    1.4935    1.6734    0.0387 H   0  0  0  0  0  0  0  0  0  0  0  0
    1.9886    0.0742    0.5571 H   0  0  0  0  0  0  0  0  0  0  0  0
    0.6259    0.3420    2.6608 H   0  0  0  0  0  0  0  0  0  0  0  0
    0.1177    1.9423    2.1139 H   0  0  0  0  0  0  0  0  0  0  0  0
    3.0194    1.0863    2.6049 H   0  0  0  0  0  0  0  0  0  0  0  0
    2.4998    2.6958    2.0980 H   0  0  0  0  0  0  0  0  0  0  0  0
    1.6672    1.3285    4.7192 H   0  0  0  0  0  0  0  0  0  0  0  0
    1.1824    2.9520    4.2093 H   0  0  0  0  0  0  0  0  0  0  0  0
    3.9106    2.7247    4.0097 H   0  0  0  0  0  0  0  0  0  0  0  0
    3.0240    3.6887    4.9849 H   0  0  0  0  0  0  0  0  0  0  0  0
    0.0049   -1.3250   -1.9330 N   0  0  0  0  0  0  0  0  0  0  0  0
    0.1777   -1.7859   -3.2918 C   0  0  2  0  0  0  0  0  0  0  0  0
   -0.7979   -2.9313   -3.5276 C   0  0  0  0  0  0  0  0  0  0  0  0
   -1.1132   -3.7349   -2.6524 O   0  0  0  0  0  0  0  0  0  0  0  0
    1.6095   -2.2302   -3.5475 C   0  0  0  0  0  0  0  0  0  0  0  0
   -0.2517   -2.0158   -1.2341 H   0  0  0  0  0  0  0  0  0  0  0  0
   -0.0796   -0.9457   -3.9460 H   0  0  0  0  0  0  0  0  0  0  0  0
    1.8855   -3.0713   -2.9011 H   0  0  0  0  0  0  0  0  0  0  0  0
    1.7457   -2.5522   -4.5852 H   0  0  0  0  0  0  0  0  0  0  0  0
    2.3123   -1.4138   -3.3488 H   0  0  0  0  0  0  0  0  0  0  0  0
   -1.2420   -2.9765   -4.8417 N   0  0  0  0  0  0  0  0  0  0  0  0
   -2.1416   -3.9973   -5.3260 C   0  0  0  0  0  0  0  0  0  0  0  0
   -0.9606   -2.2466   -5.4896 H   0  0  0  0  0  0  0  0  0  0  0  0
   -1.5593   -4.8315   -5.7444 H   0  0  0  0  0  0  0  0  0  0  0  0
   -2.7617   -4.3638   -4.4947 H   0  0  0  0  0  0  0  0  0  0  0  0
   -2.7895   -3.5741   -6.1078 H   0  0  0  0  0  0  0  0  0  0  0  0
  1  3  1  0  0  0  0
  1  7  1  0  0  0  0
  1  2  2  0  0  0  0
 39 40  1  0  0  0  0
 40 48  1  0  0  0  0
 40 41  2  0  0  0  0
  8  9  1  0  0  0  0
  9 17  1  0  0  0  0
  9 10  2  0  0  0  0
 18 19  1  0  0  0  0
 19 38  1  0  0  0  0
 19 20  2  0  0  0  0
 39 42  1  0  0  0  0
  8 11  1  0  0  0  0
 48 49  1  0  0  0  0
 22 23  1  0  0  0  0
 21 22  1  0  0  0  0
 23 24  1  0  0  0  0
 18 21  1  0  0  0  0
 24 25  1  0  0  0  0
 38 39  1  0  0  0  0
  7  8  1  0  0  0  0
 17 18  1  0  0  0  0
  3  4  1  0  0  0  0
  3  5  1  0  0  0  0
  3  6  1  0  0  0  0
 42 45  1  0  0  0  0
 42 46  1  0  0  0  0
 42 47  1  0  0  0  0
 11 14  1  0  0  0  0
 11 15  1  0  0  0  0
 11 16  1  0  0  0  0
 49 51  1  0  0  0  0
 49 52  1  0  0  0  0
 49 53  1  0  0  0  0
 22 30  1  0  0  0  0
 22 31  1  0  0  0  0
 23 32  1  0  0  0  0
 23 33  1  0  0  0  0
 21 28  1  0  0  0  0
 21 29  1  0  0  0  0
 24 34  1  0  0  0  0
 24 35  1  0  0  0  0
 39 44  1  0  0  0  0
  8 13  1  0  0  0  0
 18 27  1  0  0  0  0
 25 36  1  0  0  0  0
 25 37  1  0  0  0  0
 48 50  1  0  0  0  0
  7 12  1  0  0  0  0
 38 43  1  0  0  0  0
 17 26  1  0  0  0  0
M  END
$$$$

  -OEChem-05262214473D

 53 52  0     1  0  0  0  0  0999 V2000
   -1.0338   -5.6785    0.1476 C   0  0  0  0  0  0  0  0  0  0  0  0
   -2.0514   -5.7797    0.8227 O   0  0  0  0  0  0  0  0  0  0  0  0
   -0.6558   -6.7819   -0.7841 C   0  0  0  0  0  0  0  0  0  0  0  0
   -0.0111   -7.5354   -0.3038 H   0  0  0  0  0  0  0  0  0  0  0  0
   -1.5317   -7.3401   -1.1520 H   0  0  0  0  0  0  0  0  0  0  0  0
   -0.1109   -6.4687   -1.6890 H   0  0  0  0  0  0  0  0  0  0  0  0
   -0.1543   -4.6083    0.1480 N   0  0  0  0  0  0  0  0  0  0  0  0
   -0.3302   -3.4398    0.9696 C   0  0  2  0  0  0  0  0  0  0  0  0
    0.2328   -2.2439    0.2131 C   0  0  0  0  0  0  0  0  0  0  0  0
    1.2097   -2.3192   -0.5294 O   0  0  0  0  0  0  0  0  0  0  0  0
    0.3557   -3.6024    2.3171 C   0  0  0  0  0  0  0  0  0  0  0  0
    0.6584   -4.6506   -0.4643 H   0  0  0  0  0  0  0  0  0  0  0  0
   -1.4091   -3.3101    1.1082 H   0  0  0  0  0  0  0  0  0  0  0  0
    1.4375   -3.7336    2.1985 H   0  0  0  0  0  0  0  0  0  0  0  0
    0.1969   -2.7243    2.9517 H   0  0  0  0  0  0  0  0  0  0  0  0
   -0.0294   -4.4803    2.8470 H   0  0  0  0  0  0  0  0  0  0  0  0
   -0.4616   -1.0893    0.5050 N   0  0  0  0  0  0  0  0  0  0  0  0
   -0.0884    0.2050   -0.0621 C   0  0  2  0  0  0  0  0  0  0  0  0
    0.1836   -0.0030   -1.5492 C   0  0  0  0  0  0  0  0  0  0  0  0
    0.7539    0.8313   -2.2492 O   0  0  0  0  0  0  0  0  0  0  0  0
    1.1614    0.7952    0.6080 C   0  0  0  0  0  0  0  0  0  0  0  0
    0.9319    1.2093    2.0652 C   0  0  0  0  0  0  0  0  0  0  0  0
    2.1998    1.8125    2.6760 C   0  0  0  0  0  0  0  0  0  0  0  0
    1.9776    2.2026    4.1363 C   0  0  0  0  0  0  0  0  0  0  0  0
    3.2022    2.7524    4.7054 N   0  0  0  0  0  0  0  0  0  0  0  0
   -1.2794   -1.1113    1.0935 H   0  0  0  0  0  0  0  0  0  0  0  0
   -0.9340    0.8934    0.0546 H   0  0  0  0  0  0  0  0  0  0  0  0
    1.4935    1.6734    0.0387 H   0  0  0  0  0  0  0  0  0  0  0  0
    1.9886    0.0742    0.5571 H   0  0  0  0  0  0  0  0  0  0  0  0
    0.6259    0.3420    2.6608 H   0  0  0  0  0  0  0  0  0  0  0  0
    0.1177    1.9423    2.1139 H   0  0  0  0  0  0  0  0  0  0  0  0
    3.0194    1.0863    2.6049 H   0  0  0  0  0  0  0  0  0  0  0  0
    2.4998    2.6958    2.0980 H   0  0  0  0  0  0  0  0  0  0  0  0
    1.6672    1.3285    4.7192 H   0  0  0  0  0  0  0  0  0  0  0  0
    1.1824    2.9520    4.2093 H   0  0  0  0  0  0  0  0  0  0  0  0
    3.9106    2.7247    4.0097 H   0  0  0  0  0  0  0  0  0  0  0  0
    3.0240    3.6887    4.9849 H   0  0  0  0  0  0  0  0  0  0  0  0
   -0.3058   -1.2196   -2.0046 N   0  0  0  0  0  0  0  0  0  0  0  0
   -0.1985   -1.6523   -3.3793 C   0  0  2  0  0  0  0  0  0  0  0  0
   -1.4202   -2.5028   -3.7013 C   0  0  0  0  0  0  0  0  0  0  0  0
   -1.9631   -3.2361   -2.8776 O   0  0  0  0  0  0  0  0  0  0  0  0
    1.0849   -2.4334   -3.6150 C   0  0  0  0  0  0  0  0  0  0  0  0
   -0.7563   -1.8514   -1.3493 H   0  0  0  0  0  0  0  0  0  0  0  0
   -0.2091   -0.7479   -3.9973 H   0  0  0  0  0  0  0  0  0  0  0  0
    1.1137   -3.3431   -3.0042 H   0  0  0  0  0  0  0  0  0  0  0  0
    1.1784   -2.7360   -4.6632 H   0  0  0  0  0  0  0  0  0  0  0  0
    1.9615   -1.8304   -3.3546 H   0  0  0  0  0  0  0  0  0  0  0  0
   -1.8068   -2.3794   -5.0285 N   0  0  0  0  0  0  0  0  0  0  0  0
   -2.9135   -3.1183   -5.5901 C   0  0  0  0  0  0  0  0  0  0  0  0
   -1.3245   -1.7181   -5.6301 H   0  0  0  0  0  0  0  0  0  0  0  0
   -2.5428   -4.0545   -6.0329 H   0  0  0  0  0  0  0  0  0  0  0  0
   -3.6395   -3.3502   -4.7970 H   0  0  0  0  0  0  0  0  0  0  0  0
   -3.4013   -2.5128   -6.3682 H   0  0  0  0  0  0  0  0  0  0  0  0
  1  3  1  0  0  0  0
  1  7  1  0  0  0  0
  1  2  2  0  0  0  0
 39 40  1  0  0  0  0
 40 48  1  0  0  0  0
 40 41  2  0  0  0  0
  8  9  1  0  0  0  0
  9 17  1  0  0  0  0
  9 10  2  0  0  0  0
 18 19  1  0  0  0  0
 19 38  1  0  0  0  0
 19 20  2  0  0  0  0
 39 42  1  0  0  0  0
  8 11  1  0  0  0  0
 48 49  1  0  0  0  0
 22 23  1  0  0  0  0
 21 22  1  0  0  0  0
 23 24  1  0  0  0  0
 18 21  1  0  0  0  0
 24 25  1  0  0  0  0
 38 39  1  0  0  0  0
  7  8  1  0  0  0  0
 17 18  1  0  0  0  0
  3  4  1  0  0  0  0
  3  5  1  0  0  0  0
  3  6  1  0  0  0  0
 42 45  1  0  0  0  0
 42 46  1  0  0  0  0
 42 47  1  0  0  0  0
 11 14  1  0  0  0  0
 11 15  1  0  0  0  0
 11 16  1  0  0  0  0
 49 51  1  0  0  0  0
 49 52  1  0  0  0  0
 49 53  1  0  0  0  0
 22 30  1  0  0  0  0
 22 31  1  0  0  0  0
 23 32  1  0  0  0  0
 23 33  1  0  0  0  0
 21 28  1  0  0  0  0
 21 29  1  0  0  0  0
 24 34  1  0  0  0  0
 24 35  1  0  0  0  0
 39 44  1  0  0  0  0
  8 13  1  0  0  0  0
 18 27  1  0  0  0  0
 25 36  1  0  0  0  0
 25 37  1  0  0  0  0
 48 50  1  0  0  0  0
  7 12  1  0  0  0  0
 38 43  1  0  0  0  0
 17 26  1  0  0  0  0
M  END
$$$$

  -OEChem-05262214473D

 53 52  0     1  0  0  0  0  0999 V2000
   -1.0338   -5.6785    0.1476 C   0  0  0  0  0  0  0  0  0  0  0  0
   -2.0514   -5.7797    0.8227 O   0  0  0  0  0  0  0  0  0  0  0  0
   -0.6558   -6.7819   -0.7841 C   0  0  0  0  0  0  0  0  0  0  0  0
   -0.0111   -7.5354   -0.3038 H   0  0  0  0  0  0  0  0  0  0  0  0
   -1.5317   -7.3401   -1.1520 H   0  0  0  0  0  0  0  0  0  0  0  0
   -0.1109   -6.4687   -1.6890 H   0  0  0  0  0  0  0  0  0  0  0  0
   -0.1543   -4.6083    0.1480 N   0  0  0  0  0  0  0  0  0  0  0  0
   -0.3302   -3.4398    0.9696 C   0  0  2  0  0  0  0  0  0  0  0  0
    0.2328   -2.2439    0.2131 C   0  0  0  0  0  0  0  0  0  0  0  0
    1.2097   -2.3192   -0.5294 O   0  0  0  0  0  0  0  0  0  0  0  0
    0.3557   -3.6024    2.3171 C   0  0  0  0  0  0  0  0  0  0  0  0
    0.6584   -4.6506   -0.4643 H   0  0  0  0  0  0  0  0  0  0  0  0
   -1.4091   -3.3101    1.1082 H   0  0  0  0  0  0  0  0  0  0  0  0
    1.4375   -3.7336    2.1985 H   0  0  0  0  0  0  0  0  0  0  0  0
    0.1969   -2.7243    2.9517 H   0  0  0  0  0  0  0  0  0  0  0  0
   -0.0294   -4.4803    2.8470 H   0  0  0  0  0  0  0  0  0  0  0  0
   -0.4616   -1.0893    0.5050 N   0  0  0  0  0  0  0  0  0  0  0  0
   -0.0884    0.2050   -0.0621 C   0  0  2  0  0  0  0  0  0  0  0  0
    0.1836   -0.0030   -1.5492 C   0  0  0  0  0  0  0  0  0  0  0  0
    0.9737    0.6882   -2.1890 O   0  0  0  0  0  0  0  0  0  0  0  0
    1.1614    0.7952    0.6080 C   0  0  0  0  0  0  0  0  0  0  0  0
    0.9319    1.2093    2.0652 C   0  0  0  0  0  0  0  0  0  0  0  0
    2.1998    1.8125    2.6760 C   0  0  0  0  0  0  0  0  0  0  0  0
    1.9776    2.2026    4.1363 C   0  0  0  0  0  0  0  0  0  0  0  0
    3.2022    2.7524    4.7054 N   0  0  0  0  0  0  0  0  0  0  0  0
   -1.2794   -1.1113    1.0935 H   0  0  0  0  0  0  0  0  0  0  0  0
   -0.9340    0.8934    0.0546 H   0  0  0  0  0  0  0  0  0  0  0  0
    1.4935    1.6734    0.0387 H   0  0  0  0  0  0  0  0  0  0  0  0
    1.9886    0.0742    0.5571 H   0  0  0  0  0  0  0  0  0  0  0  0
    0.6259    0.3420    2.6608 H   0  0  0  0  0  0  0  0  0  0  0  0
    0.1177    1.9423    2.1139 H   0  0  0  0  0  0  0  0  0  0  0  0
    3.0194    1.0863    2.6049 H   0  0  0  0  0  0  0  0  0  0  0  0
    2.4998    2.6958    2.0980 H   0  0  0  0  0  0  0  0  0  0  0  0
    1.6672    1.3285    4.7192 H   0  0  0  0  0  0  0  0  0  0  0  0
    1.1824    2.9520    4.2093 H   0  0  0  0  0  0  0  0  0  0  0  0
    3.9106    2.7247    4.0097 H   0  0  0  0  0  0  0  0  0  0  0  0
    3.0240    3.6887    4.9849 H   0  0  0  0  0  0  0  0  0  0  0  0
   -0.5767   -1.0361   -2.0798 N   0  0  0  0  0  0  0  0  0  0  0  0
   -0.5251   -1.4244   -3.4709 C   0  0  2  0  0  0  0  0  0  0  0  0
   -1.9070   -1.9238   -3.8714 C   0  0  0  0  0  0  0  0  0  0  0  0
   -2.6503   -2.5295   -3.1021 O   0  0  0  0  0  0  0  0  0  0  0  0
    0.5293   -2.4943   -3.7081 C   0  0  0  0  0  0  0  0  0  0  0  0
   -1.1982   -1.5601   -1.4709 H   0  0  0  0  0  0  0  0  0  0  0  0
   -0.2826   -0.5218   -4.0424 H   0  0  0  0  0  0  0  0  0  0  0  0
    0.3032   -3.4063   -3.1436 H   0  0  0  0  0  0  0  0  0  0  0  0
    0.5869   -2.7668   -4.7671 H   0  0  0  0  0  0  0  0  0  0  0  0
    1.5178   -2.1442   -3.3918 H   0  0  0  0  0  0  0  0  0  0  0  0
   -2.1952   -1.6516   -5.2014 N   0  0  0  0  0  0  0  0  0  0  0  0
   -3.4279   -2.0624   -5.8319 C   0  0  0  0  0  0  0  0  0  0  0  0
   -1.5378   -1.1094   -5.7542 H   0  0  0  0  0  0  0  0  0  0  0  0
   -3.2867   -3.0427   -6.3105 H   0  0  0  0  0  0  0  0  0  0  0  0
   -4.2210   -2.1358   -5.0732 H   0  0  0  0  0  0  0  0  0  0  0  0
   -3.7154   -1.3213   -6.5923 H   0  0  0  0  0  0  0  0  0  0  0  0
  1  3  1  0  0  0  0
  1  7  1  0  0  0  0
  1  2  2  0  0  0  0
 39 40  1  0  0  0  0
 40 48  1  0  0  0  0
 40 41  2  0  0  0  0
  8  9  1  0  0  0  0
  9 17  1  0  0  0  0
  9 10  2  0  0  0  0
 18 19  1  0  0  0  0
 19 38  1  0  0  0  0
 19 20  2  0  0  0  0
 39 42  1  0  0  0  0
  8 11  1  0  0  0  0
 48 49  1  0  0  0  0
 22 23  1  0  0  0  0
 21 22  1  0  0  0  0
 23 24  1  0  0  0  0
 18 21  1  0  0  0  0
 24 25  1  0  0  0  0
 38 39  1  0  0  0  0
  7  8  1  0  0  0  0
 17 18  1  0  0  0  0
  3  4  1  0  0  0  0
  3  5  1  0  0  0  0
  3  6  1  0  0  0  0
 42 45  1  0  0  0  0
 42 46  1  0  0  0  0
 42 47  1  0  0  0  0
 11 14  1  0  0  0  0
 11 15  1  0  0  0  0
 11 16  1  0  0  0  0
 49 51  1  0  0  0  0
 49 52  1  0  0  0  0
 49 53  1  0  0  0  0
 22 30  1  0  0  0  0
 22 31  1  0  0  0  0
 23 32  1  0  0  0  0
 23 33  1  0  0  0  0
 21 28  1  0  0  0  0
 21 29  1  0  0  0  0
 24 34  1  0  0  0  0
 24 35  1  0  0  0  0
 39 44  1  0  0  0  0
  8 13  1  0  0  0  0
 18 27  1  0  0  0  0
 25 36  1  0  0  0  0
 25 37  1  0  0  0  0
 48 50  1  0  0  0  0
  7 12  1  0  0  0  0
 38 43  1  0  0  0  0
 17 26  1  0  0  0  0
M  END
$$$$

  -OEChem-05262214473D

 53 52  0     1  0  0  0  0  0999 V2000
   -1.0338   -5.6785    0.1476 C   0  0  0  0  0  0  0  0  0  0  0  0
   -2.0514   -5.7797    0.8227 O   0  0  0  0  0  0  0  0  0  0  0  0
   -0.6558   -6.7819   -0.7841 C   0  0  0  0  0  0  0  0  0  0  0  0
   -0.0111   -7.5354   -0.3038 H   0  0  0  0  0  0  0  0  0  0  0  0
   -1.5317   -7.3401   -1.1520 H   0  0  0  0  0  0  0  0  0  0  0  0
   -0.1109   -6.4687   -1.6890 H   0  0  0  0  0  0  0  0  0  0  0  0
   -0.1543   -4.6083    0.1480 N   0  0  0  0  0  0  0  0  0  0  0  0
   -0.3302   -3.4398    0.9696 C   0  0  2  0  0  0  0  0  0  0  0  0
    0.2328   -2.2439    0.2131 C   0  0  0  0  0  0  0  0  0  0  0  0
    1.2097   -2.3192   -0.5294 O   0  0  0  0  0  0  0  0  0  0  0  0
    0.3557   -3.6024    2.3171 C   0  0  0  0  0  0  0  0  0  0  0  0
    0.6584   -4.6506   -0.4643 H   0  0  0  0  0  0  0  0  0  0  0  0
   -1.4091   -3.3101    1.1082 H   0  0  0  0  0  0  0  0  0  0  0  0
    1.4375   -3.7336    2.1985 H   0  0  0  0  0  0  0  0  0  0  0  0
    0.1969   -2.7243    2.9517 H   0  0  0  0  0  0  0  0  0  0  0  0
   -0.0294   -4.4803    2.8470 H   0  0  0  0  0  0  0  0  0  0  0  0
   -0.4616   -1.0893    0.5050 N   0  0  0  0  0  0  0  0  0  0  0  0
   -0.0884    0.2050   -0.0621 C   0  0  2  0  0  0  0  0  0  0  0  0
    0.1836   -0.0030   -1.5492 C   0  0  0  0  0  0  0  0  0  0  0  0
    1.1478    0.4918   -2.1297 O   0  0  0  0  0  0  0  0  0  0  0  0
    1.1614    0.7952    0.6080 C   0  0  0  0  0  0  0  0  0  0  0  0
    0.9319    1.2093    2.0652 C   0  0  0  0  0  0  0  0  0  0  0  0
    2.1998    1.8125    2.6760 C   0  0  0  0  0  0  0  0  0  0  0  0
    1.9776    2.2026    4.1363 C   0  0  0  0  0  0  0  0  0  0  0  0
    3.2022    2.7524    4.7054 N   0  0  0  0  0  0  0  0  0  0  0  0
   -1.2794   -1.1113    1.0935 H   0  0  0  0  0  0  0  0  0  0  0  0
   -0.9340    0.8934    0.0546 H   0  0  0  0  0  0  0  0  0  0  0  0
    1.4935    1.6734    0.0387 H   0  0  0  0  0  0  0  0  0  0  0  0
    1.9886    0.0742    0.5571 H   0  0  0  0  0  0  0  0  0  0  0  0
    0.6259    0.3420    2.6608 H   0  0  0  0  0  0  0  0  0  0  0  0
    0.1177    1.9423    2.1139 H   0  0  0  0  0  0  0  0  0  0  0  0
    3.0194    1.0863    2.6049 H   0  0  0  0  0  0  0  0  0  0  0  0
    2.4998    2.6958    2.0980 H   0  0  0  0  0  0  0  0  0  0  0  0
    1.6672    1.3285    4.7192 H   0  0  0  0  0  0  0  0  0  0  0  0
    1.1824    2.9520    4.2093 H   0  0  0  0  0  0  0  0  0  0  0  0
    3.9106    2.7247    4.0097 H   0  0  0  0  0  0  0  0  0  0  0  0
    3.0240    3.6887    4.9849 H   0  0  0  0  0  0  0  0  0  0  0  0
   -0.7895   -0.7871   -2.1535 N   0  0  0  0  0  0  0  0  0  0  0  0
   -0.7799   -1.1176   -3.5604 C   0  0  2  0  0  0  0  0  0  0  0  0
   -2.2253   -1.2340   -4.0261 C   0  0  0  0  0  0  0  0  0  0  0  0
   -3.1280   -1.6633   -3.3106 O   0  0  0  0  0  0  0  0  0  0  0  0
   -0.0195   -2.4087   -3.8204 C   0  0  0  0  0  0  0  0  0  0  0  0
   -1.5473   -1.1616   -1.5905 H   0  0  0  0  0  0  0  0  0  0  0  0
   -0.2949   -0.2828   -4.0781 H   0  0  0  0  0  0  0  0  0  0  0  0
   -0.4906   -3.2565   -3.3097 H   0  0  0  0  0  0  0  0  0  0  0  0
    0.0113   -2.6426   -4.8897 H   0  0  0  0  0  0  0  0  0  0  0  0
    1.0115   -2.3335   -3.4579 H   0  0  0  0  0  0  0  0  0  0  0  0
   -2.3807   -0.8426   -5.3485 N   0  0  0  0  0  0  0  0  0  0  0  0
   -3.6500   -0.9015   -6.0349 C   0  0  0  0  0  0  0  0  0  0  0  0
   -1.5859   -0.4619   -5.8536 H   0  0  0  0  0  0  0  0  0  0  0  0
   -3.7402   -1.8648   -6.5582 H   0  0  0  0  0  0  0  0  0  0  0  0
   -4.4667   -0.8033   -5.3045 H   0  0  0  0  0  0  0  0  0  0  0  0
   -3.7104   -0.0808   -6.7649 H   0  0  0  0  0  0  0  0  0  0  0  0
  1  3  1  0  0  0  0
  1  7  1  0  0  0  0
  1  2  2  0  0  0  0
 39 40  1  0  0  0  0
 40 48  1  0  0  0  0
 40 41  2  0  0  0  0
  8  9  1  0  0  0  0
  9 17  1  0  0  0  0
  9 10  2  0  0  0  0
 18 19  1  0  0  0  0
 19 38  1  0  0  0  0
 19 20  2  0  0  0  0
 39 42  1  0  0  0  0
  8 11  1  0  0  0  0
 48 49  1  0  0  0  0
 22 23  1  0  0  0  0
 21 22  1  0  0  0  0
 23 24  1  0  0  0  0
 18 21  1  0  0  0  0
 24 25  1  0  0  0  0
 38 39  1  0  0  0  0
  7  8  1  0  0  0  0
 17 18  1  0  0  0  0
  3  4  1  0  0  0  0
  3  5  1  0  0  0  0
  3  6  1  0  0  0  0
 42 45  1  0  0  0  0
 42 46  1  0  0  0  0
 42 47  1  0  0  0  0
 11 14  1  0  0  0  0
 11 15  1  0  0  0  0
 11 16  1  0  0  0  0
 49 51  1  0  0  0  0
 49 52  1  0  0  0  0
 49 53  1  0  0  0  0
 22 30  1  0  0  0  0
 22 31  1  0  0  0  0
 23 32  1  0  0  0  0
 23 33  1  0  0  0  0
 21 28  1  0  0  0  0
 21 29  1  0  0  0  0
 24 34  1  0  0  0  0
 24 35  1  0  0  0  0
 39 44  1  0  0  0  0
  8 13  1  0  0  0  0
 18 27  1  0  0  0  0
 25 36  1  0  0  0  0
 25 37  1  0  0  0  0
 48 50  1  0  0  0  0
  7 12  1  0  0  0  0
 38 43  1  0  0  0  0
 17 26  1  0  0  0  0
M  END
$$$$

  -OEChem-05262214473D

 53 52  0     1  0  0  0  0  0999 V2000
   -1.0338   -5.6785    0.1476 C   0  0  0  0  0  0  0  0  0  0  0  0
   -2.0514   -5.7797    0.8227 O   0  0  0  0  0  0  0  0  0  0  0  0
   -0.6558   -6.7819   -0.7841 C   0  0  0  0  0  0  0  0  0  0  0  0
   -0.0111   -7.5354   -0.3038 H   0  0  0  0  0  0  0  0  0  0  0  0
   -1.5317   -7.3401   -1.1520 H   0  0  0  0  0  0  0  0  0  0  0  0
   -0.1109   -6.4687   -1.6890 H   0  0  0  0  0  0  0  0  0  0  0  0
   -0.1543   -4.6083    0.1480 N   0  0  0  0  0  0  0  0  0  0  0  0
   -0.3302   -3.4398    0.9696 C   0  0  2  0  0  0  0  0  0  0  0  0
    0.2328   -2.2439    0.2131 C   0  0  0  0  0  0  0  0  0  0  0  0
    1.2097   -2.3192   -0.5294 O   0  0  0  0  0  0  0  0  0  0  0  0
    0.3557   -3.6024    2.3171 C   0  0  0  0  0  0  0  0  0  0  0  0
    0.6584   -4.6506   -0.4643 H   0  0  0  0  0  0  0  0  0  0  0  0
   -1.4091   -3.3101    1.1082 H   0  0  0  0  0  0  0  0  0  0  0  0
    1.4375   -3.7336    2.1985 H   0  0  0  0  0  0  0  0  0  0  0  0
    0.1969   -2.7243    2.9517 H   0  0  0  0  0  0  0  0  0  0  0  0
   -0.0294   -4.4803    2.8470 H   0  0  0  0  0  0  0  0  0  0  0  0
   -0.4616   -1.0893    0.5050 N   0  0  0  0  0  0  0  0  0  0  0  0
   -0.0884    0.2050   -0.0621 C   0  0  2  0  0  0  0  0  0  0  0  0
    0.1836   -0.0030   -1.5492 C   0  0  0  0  0  0  0  0  0  0  0  0
    1.2643    0.2554   -2.0754 O   0  0  0  0  0  0  0  0  0  0  0  0
    1.1614    0.7952    0.6080 C   0  0  0  0  0  0  0  0  0  0  0  0
    0.9319    1.2093    2.0652 C   0  0  0  0  0  0  0  0  0  0  0  0
    2.1998    1.8125    2.6760 C   0  0  0  0  0  0  0  0  0  0  0  0
    1.9776    2.2026    4.1363 C   0  0  0  0  0  0  0  0  0  0  0  0
    3.2022    2.7524    4.7054 N   0  0  0  0  0  0  0  0  0  0  0  0
   -1.2794   -1.1113    1.0935 H   0  0  0  0  0  0  0  0  0  0  0  0
   -0.9340    0.8934    0.0546 H   0  0  0  0  0  0  0  0  0  0  0  0
    1.4935    1.6734    0.0387 H   0  0  0  0  0  0  0  0  0  0  0  0
    1.9886    0.0742    0.5571 H   0  0  0  0  0  0  0  0  0  0  0  0
    0.6259    0.3420    2.6608 H   0  0  0  0  0  0  0  0  0  0  0  0
    0.1177    1.9423    2.1139 H   0  0  0  0  0  0  0  0  0  0  0  0
    3.0194    1.0863    2.6049 H   0  0  0  0  0  0  0  0  0  0  0  0
    2.4998    2.6958    2.0980 H   0  0  0  0  0  0  0  0  0  0  0  0
    1.6672    1.3285    4.7192 H   0  0  0  0  0  0  0  0  0  0  0  0
    1.1824    2.9520    4.2093 H   0  0  0  0  0  0  0  0  0  0  0  0
    3.9106    2.7247    4.0097 H   0  0  0  0  0  0  0  0  0  0  0  0
    3.0240    3.6887    4.9849 H   0  0  0  0  0  0  0  0  0  0  0  0
   -0.9296   -0.4896   -2.2208 N   0  0  0  0  0  0  0  0  0  0  0  0
   -0.9454   -0.7529   -3.6417 C   0  0  2  0  0  0  0  0  0  0  0  0
   -2.3532   -0.4803   -4.1549 C   0  0  0  0  0  0  0  0  0  0  0  0
   -3.3635   -0.6966   -3.4889 O   0  0  0  0  0  0  0  0  0  0  0  0
   -0.5239   -2.1824   -3.9443 C   0  0  0  0  0  0  0  0  0  0  0  0
   -1.7798   -0.6832   -1.6999 H   0  0  0  0  0  0  0  0  0  0  0  0
   -0.2453   -0.0472   -4.1020 H   0  0  0  0  0  0  0  0  0  0  0  0
   -1.2137   -2.9039   -3.4913 H   0  0  0  0  0  0  0  0  0  0  0  0
   -0.5089   -2.3718   -5.0227 H   0  0  0  0  0  0  0  0  0  0  0  0
    0.4769   -2.3857   -3.5484 H   0  0  0  0  0  0  0  0  0  0  0  0
   -2.3506   -0.0076   -5.4598 N   0  0  0  0  0  0  0  0  0  0  0  0
   -3.5646    0.2852   -6.1853 C   0  0  0  0  0  0  0  0  0  0  0  0
   -1.4655    0.1802   -5.9214 H   0  0  0  0  0  0  0  0  0  0  0  0
   -3.8724   -0.6014   -6.7591 H   0  0  0  0  0  0  0  0  0  0  0  0
   -4.3597    0.5564   -5.4752 H   0  0  0  0  0  0  0  0  0  0  0  0
   -3.3866    1.1241   -6.8743 H   0  0  0  0  0  0  0  0  0  0  0  0
  1  3  1  0  0  0  0
  1  7  1  0  0  0  0
  1  2  2  0  0  0  0
 39 40  1  0  0  0  0
 40 48  1  0  0  0  0
 40 41  2  0  0  0  0
  8  9  1  0  0  0  0
  9 17  1  0  0  0  0
  9 10  2  0  0  0  0
 18 19  1  0  0  0  0
 19 38  1  0  0  0  0
 19 20  2  0  0  0  0
 39 42  1  0  0  0  0
  8 11  1  0  0  0  0
 48 49  1  0  0  0  0
 22 23  1  0  0  0  0
 21 22  1  0  0  0  0
 23 24  1  0  0  0  0
 18 21  1  0  0  0  0
 24 25  1  0  0  0  0
 38 39  1  0  0  0  0
  7  8  1  0  0  0  0
 17 18  1  0  0  0  0
  3  4  1  0  0  0  0
  3  5  1  0  0  0  0
  3  6  1  0  0  0  0
 42 45  1  0  0  0  0
 42 46  1  0  0  0  0
 42 47  1  0  0  0  0
 11 14  1  0  0  0  0
 11 15  1  0  0  0  0
 11 16  1  0  0  0  0
 49 51  1  0  0  0  0
 49 52  1  0  0  0  0
 49 53  1  0  0  0  0
 22 30  1  0  0  0  0
 22 31  1  0  0  0  0
 23 32  1  0  0  0  0
 23 33  1  0  0  0  0
 21 28  1  0  0  0  0
 21 29  1  0  0  0  0
 24 34  1  0  0  0  0
 24 35  1  0  0  0  0
 39 44  1  0  0  0  0
  8 13  1  0  0  0  0
 18 27  1  0  0  0  0
 25 36  1  0  0  0  0
 25 37  1  0  0  0  0
 48 50  1  0  0  0  0
  7 12  1  0  0  0  0
 38 43  1  0  0  0  0
 17 26  1  0  0  0  0
M  END
$$$$

  -OEChem-05262214473D

 53 52  0     1  0  0  0  0  0999 V2000
   -1.0338   -5.6785    0.1476 C   0  0  0  0  0  0  0  0  0  0  0  0
   -2.0514   -5.7797    0.8227 O   0  0  0  0  0  0  0  0  0  0  0  0
   -0.6558   -6.7819   -0.7841 C   0  0  0  0  0  0  0  0  0  0  0  0
   -0.0111   -7.5354   -0.3038 H   0  0  0  0  0  0  0  0  0  0  0  0
   -1.5317   -7.3401   -1.1520 H   0  0  0  0  0  0  0  0  0  0  0  0
   -0.1109   -6.4687   -1.6890 H   0  0  0  0  0  0  0  0  0  0  0  0
   -0.1543   -4.6083    0.1480 N   0  0  0  0  0  0  0  0  0  0  0  0
   -0.3302   -3.4398    0.9696 C   0  0  2  0  0  0  0  0  0  0  0  0
    0.2328   -2.2439    0.2131 C   0  0  0  0  0  0  0  0  0  0  0  0
    1.2097   -2.3192   -0.5294 O   0  0  0  0  0  0  0  0  0  0  0  0
    0.3557   -3.6024    2.3171 C   0  0  0  0  0  0  0  0  0  0  0  0
    0.6584   -4.6506   -0.4643 H   0  0  0  0  0  0  0  0  0  0  0  0
   -1.4091   -3.3101    1.1082 H   0  0  0  0  0  0  0  0  0  0  0  0
    1.4375   -3.7336    2.1985 H   0  0  0  0  0  0  0  0  0  0  0  0
    0.1969   -2.7243    2.9517 H   0  0  0  0  0  0  0  0  0  0  0  0
   -0.0294   -4.4803    2.8470 H   0  0  0  0  0  0  0  0  0  0  0  0
   -0.4616   -1.0893    0.5050 N   0  0  0  0  0  0  0  0  0  0  0  0
   -0.0884    0.2050   -0.0621 C   0  0  2  0  0  0  0  0  0  0  0  0
    0.1836   -0.0030   -1.5492 C   0  0  0  0  0  0  0  0  0  0  0  0
    1.3152   -0.0049   -2.0296 O   0  0  0  0  0  0  0  0  0  0  0  0
    1.1614    0.7952    0.6080 C   0  0  0  0  0  0  0  0  0  0  0  0
    0.9319    1.2093    2.0652 C   0  0  0  0  0  0  0  0  0  0  0  0
    2.1998    1.8125    2.6760 C   0  0  0  0  0  0  0  0  0  0  0  0
    1.9776    2.2026    4.1363 C   0  0  0  0  0  0  0  0  0  0  0  0
    3.2022    2.7524    4.7054 N   0  0  0  0  0  0  0  0  0  0  0  0
   -1.2794   -1.1113    1.0935 H   0  0  0  0  0  0  0  0  0  0  0  0
   -0.9340    0.8934    0.0546 H   0  0  0  0  0  0  0  0  0  0  0  0
    1.4935    1.6734    0.0387 H   0  0  0  0  0  0  0  0  0  0  0  0
    1.9886    0.0742    0.5571 H   0  0  0  0  0  0  0  0  0  0  0  0
    0.6259    0.3420    2.6608 H   0  0  0  0  0  0  0  0  0  0  0  0
    0.1177    1.9423    2.1139 H   0  0  0  0  0  0  0  0  0  0  0  0
    3.0194    1.0863    2.6049 H   0  0  0  0  0  0  0  0  0  0  0  0
    2.4998    2.6958    2.0980 H   0  0  0  0  0  0  0  0  0  0  0  0
    1.6672    1.3285    4.7192 H   0  0  0  0  0  0  0  0  0  0  0  0
    1.1824    2.9520    4.2093 H   0  0  0  0  0  0  0  0  0  0  0  0
    3.9106    2.7247    4.0097 H   0  0  0  0  0  0  0  0  0  0  0  0
    3.0240    3.6887    4.9849 H   0  0  0  0  0  0  0  0  0  0  0  0
   -0.9875   -0.1637   -2.2769 N   0  0  0  0  0  0  0  0  0  0  0  0
   -1.0105   -0.3551   -3.7093 C   0  0  2  0  0  0  0  0  0  0  0  0
   -2.2821    0.2860   -4.2491 C   0  0  0  0  0  0  0  0  0  0  0  0
   -3.3409    0.3049   -3.6249 O   0  0  0  0  0  0  0  0  0  0  0  0
   -0.9498   -1.8309   -4.0713 C   0  0  0  0  0  0  0  0  0  0  0  0
   -1.8798   -0.1574   -1.7918 H   0  0  0  0  0  0  0  0  0  0  0  0
   -0.1371    0.1689   -4.1124 H   0  0  0  0  0  0  0  0  0  0  0  0
   -1.8168   -2.3725   -3.6759 H   0  0  0  0  0  0  0  0  0  0  0  0
   -0.9385   -1.9729   -5.1570 H   0  0  0  0  0  0  0  0  0  0  0  0
   -0.0494   -2.2971   -3.6570 H   0  0  0  0  0  0  0  0  0  0  0  0
   -2.1070    0.7964   -5.5277 N   0  0  0  0  0  0  0  0  0  0  0  0
   -3.1775    1.4169   -6.2729 C   0  0  0  0  0  0  0  0  0  0  0  0
   -1.1849    0.7732   -5.9531 H   0  0  0  0  0  0  0  0  0  0  0  0
   -3.6743    0.6617   -6.8996 H   0  0  0  0  0  0  0  0  0  0  0  0
   -3.9074    1.8506   -5.5736 H   0  0  0  0  0  0  0  0  0  0  0  0
   -2.7661    2.2113   -6.9129 H   0  0  0  0  0  0  0  0  0  0  0  0
  1  3  1  0  0  0  0
  1  7  1  0  0  0  0
  1  2  2  0  0  0  0
 39 40  1  0  0  0  0
 40 48  1  0  0  0  0
 40 41  2  0  0  0  0
  8  9  1  0  0  0  0
  9 17  1  0  0  0  0
  9 10  2  0  0  0  0
 18 19  1  0  0  0  0
 19 38  1  0  0  0  0
 19 20  2  0  0  0  0
 39 42  1  0  0  0  0
  8 11  1  0  0  0  0
 48 49  1  0  0  0  0
 22 23  1  0  0  0  0
 21 22  1  0  0  0  0
 23 24  1  0  0  0  0
 18 21  1  0  0  0  0
 24 25  1  0  0  0  0
 38 39  1  0  0  0  0
  7  8  1  0  0  0  0
 17 18  1  0  0  0  0
  3  4  1  0  0  0  0
  3  5  1  0  0  0  0
  3  6  1  0  0  0  0
 42 45  1  0  0  0  0
 42 46  1  0  0  0  0
 42 47  1  0  0  0  0
 11 14  1  0  0  0  0
 11 15  1  0  0  0  0
 11 16  1  0  0  0  0
 49 51  1  0  0  0  0
 49 52  1  0  0  0  0
 49 53  1  0  0  0  0
 22 30  1  0  0  0  0
 22 31  1  0  0  0  0
 23 32  1  0  0  0  0
 23 33  1  0  0  0  0
 21 28  1  0  0  0  0
 21 29  1  0  0  0  0
 24 34  1  0  0  0  0
 24 35  1  0  0  0  0
 39 44  1  0  0  0  0
  8 13  1  0  0  0  0
 18 27  1  0  0  0  0
 25 36  1  0  0  0  0
 25 37  1  0  0  0  0
 48 50  1  0  0  0  0
  7 12  1  0  0  0  0
 38 43  1  0  0  0  0
 17 26  1  0  0  0  0
M  END
$$$$

  -OEChem-05262214473D

 53 52  0     1  0  0  0  0  0999 V2000
   -1.0338   -5.6785    0.1476 C   0  0  0  0  0  0  0  0  0  0  0  0
   -2.0514   -5.7797    0.8227 O   0  0  0  0  0  0  0  0  0  0  0  0
   -0.6558   -6.7819   -0.7841 C   0  0  0  0  0  0  0  0  0  0  0  0
   -0.0111   -7.5354   -0.3038 H   0  0  0  0  0  0  0  0  0  0  0  0
   -1.5317   -7.3401   -1.1520 H   0  0  0  0  0  0  0  0  0  0  0  0
   -0.1109   -6.4687   -1.6890 H   0  0  0  0  0  0  0  0  0  0  0  0
   -0.1543   -4.6083    0.1480 N   0  0  0  0  0  0  0  0  0  0  0  0
   -0.3302   -3.4398    0.9696 C   0  0  2  0  0  0  0  0  0  0  0  0
    0.2328   -2.2439    0.2131 C   0  0  0  0  0  0  0  0  0  0  0  0
    1.2097   -2.3192   -0.5294 O   0  0  0  0  0  0  0  0  0  0  0  0
    0.3557   -3.6024    2.3171 C   0  0  0  0  0  0  0  0  0  0  0  0
    0.6584   -4.6506   -0.4643 H   0  0  0  0  0  0  0  0  0  0  0  0
   -1.4091   -3.3101    1.1082 H   0  0  0  0  0  0  0  0  0  0  0  0
    1.4375   -3.7336    2.1985 H   0  0  0  0  0  0  0  0  0  0  0  0
    0.1969   -2.7243    2.9517 H   0  0  0  0  0  0  0  0  0  0  0  0
   -0.0294   -4.4803    2.8470 H   0  0  0  0  0  0  0  0  0  0  0  0
   -0.4616   -1.0893    0.5050 N   0  0  0  0  0  0  0  0  0  0  0  0
   -0.0884    0.2050   -0.0621 C   0  0  2  0  0  0  0  0  0  0  0  0
    0.1836   -0.0030   -1.5492 C   0  0  0  0  0  0  0  0  0  0  0  0
    1.2972   -0.2712   -1.9957 O   0  0  0  0  0  0  0  0  0  0  0  0
    1.1614    0.7952    0.6080 C   0  0  0  0  0  0  0  0  0  0  0  0
    0.9319    1.2093    2.0652 C   0  0  0  0  0  0  0  0  0  0  0  0
    2.1998    1.8125    2.6760 C   0  0  0  0  0  0  0  0  0  0  0  0
    1.9776    2.2026    4.1363 C   0  0  0  0  0  0  0  0  0  0  0  0
    3.2022    2.7524    4.7054 N   0  0  0  0  0  0  0  0  0  0  0  0
   -1.2794   -1.1113    1.0935 H   0  0  0  0  0  0  0  0  0  0  0  0
   -0.9340    0.8934    0.0546 H   0  0  0  0  0  0  0  0  0  0  0  0
    1.4935    1.6734    0.0387 H   0  0  0  0  0  0  0  0  0  0  0  0
    1.9886    0.0742    0.5571 H   0  0  0  0  0  0  0  0  0  0  0  0
    0.6259    0.3420    2.6608 H   0  0  0  0  0  0  0  0  0  0  0  0
    0.1177    1.9423    2.1139 H   0  0  0  0  0  0  0  0  0  0  0  0
    3.0194    1.0863    2.6049 H   0  0  0  0  0  0  0  0  0  0  0  0
    2.4998    2.6958    2.0980 H   0  0  0  0  0  0  0  0  0  0  0  0
    1.6672    1.3285    4.7192 H   0  0  0  0  0  0  0  0  0  0  0  0
    1.1824    2.9520    4.2093 H   0  0  0  0  0  0  0  0  0  0  0  0
    3.9106    2.7247    4.0097 H   0  0  0  0  0  0  0  0  0  0  0  0
    3.0240    3.6887    4.9849 H   0  0  0  0  0  0  0  0  0  0  0  0
   -0.9593    0.1683   -2.3182 N   0  0  0  0  0  0  0  0  0  0  0  0
   -0.9706    0.0487   -3.7585 C   0  0  2  0  0  0  0  0  0  0  0  0
   -2.0169    1.0126   -4.3022 C   0  0  0  0  0  0  0  0  0  0  0  0
   -3.0617    1.2728   -3.7092 O   0  0  0  0  0  0  0  0  0  0  0  0
   -1.2680   -1.3781   -4.1929 C   0  0  0  0  0  0  0  0  0  0  0  0
   -1.8405    0.3800   -1.8598 H   0  0  0  0  0  0  0  0  0  0  0  0
    0.0224    0.3509   -4.1087 H   0  0  0  0  0  0  0  0  0  0  0  0
   -2.2589   -1.6986   -3.8510 H   0  0  0  0  0  0  0  0  0  0  0  0
   -1.2480   -1.4731   -5.2836 H   0  0  0  0  0  0  0  0  0  0  0  0
   -0.5316   -2.0738   -3.7764 H   0  0  0  0  0  0  0  0  0  0  0  0
   -1.6666    1.5148   -5.5477 N   0  0  0  0  0  0  0  0  0  0  0  0
   -2.5150    2.4164   -6.2916 C   0  0  0  0  0  0  0  0  0  0  0  0
   -0.7632    1.2767   -5.9464 H   0  0  0  0  0  0  0  0  0  0  0  0
   -3.1595    1.8382   -6.9701 H   0  0  0  0  0  0  0  0  0  0  0  0
   -3.1406    2.9912   -5.5929 H   0  0  0  0  0  0  0  0  0  0  0  0
   -1.8911    3.1067   -6.8782 H   0  0  0  0  0  0  0  0  0  0  0  0
  1  3  1  0  0  0  0
  1  7  1  0  0  0  0
  1  2  2  0  0  0  0
 39 40  1  0  0  0  0
 40 48  1  0  0  0  0
 40 41  2  0  0  0  0
  8  9  1  0  0  0  0
  9 17  1  0  0  0  0
  9 10  2  0  0  0  0
 18 19  1  0  0  0  0
 19 38  1  0  0  0  0
 19 20  2  0  0  0  0
 39 42  1  0  0  0  0
  8 11  1  0  0  0  0
 48 49  1  0  0  0  0
 22 23  1  0  0  0  0
 21 22  1  0  0  0  0
 23 24  1  0  0  0  0
 18 21  1  0  0  0  0
 24 25  1  0  0  0  0
 38 39  1  0  0  0  0
  7  8  1  0  0  0  0
 17 18  1  0  0  0  0
  3  4  1  0  0  0  0
  3  5  1  0  0  0  0
  3  6  1  0  0  0  0
 42 45  1  0  0  0  0
 42 46  1  0  0  0  0
 42 47  1  0  0  0  0
 11 14  1  0  0  0  0
 11 15  1  0  0  0  0
 11 16  1  0  0  0  0
 49 51  1  0  0  0  0
 49 52  1  0  0  0  0
 49 53  1  0  0  0  0
 22 30  1  0  0  0  0
 22 31  1  0  0  0  0
 23 32  1  0  0  0  0
 23 33  1  0  0  0  0
 21 28  1  0  0  0  0
 21 29  1  0  0  0  0
 24 34  1  0  0  0  0
 24 35  1  0  0  0  0
 39 44  1  0  0  0  0
  8 13  1  0  0  0  0
 18 27  1  0  0  0  0
 25 36  1  0  0  0  0
 25 37  1  0  0  0  0
 48 50  1  0  0  0  0
  7 12  1  0  0  0  0
 38 43  1  0  0  0  0
 17 26  1  0  0  0  0
M  END
$$$$

  -OEChem-05262214473D

 53 52  0     1  0  0  0  0  0999 V2000
   -1.0338   -5.6785    0.1476 C   0  0  0  0  0  0  0  0  0  0  0  0
   -2.0514   -5.7797    0.8227 O   0  0  0  0  0  0  0  0  0  0  0  0
   -0.6558   -6.7819   -0.7841 C   0  0  0  0  0  0  0  0  0  0  0  0
   -0.0111   -7.5354   -0.3038 H   0  0  0  0  0  0  0  0  0  0  0  0
   -1.5317   -7.3401   -1.1520 H   0  0  0  0  0  0  0  0  0  0  0  0
   -0.1109   -6.4687   -1.6890 H   0  0  0  0  0  0  0  0  0  0  0  0
   -0.1543   -4.6083    0.1480 N   0  0  0  0  0  0  0  0  0  0  0  0
   -0.3302   -3.4398    0.9696 C   0  0  2  0  0  0  0  0  0  0  0  0
    0.2328   -2.2439    0.2131 C   0  0  0  0  0  0  0  0  0  0  0  0
    1.2097   -2.3192   -0.5294 O   0  0  0  0  0  0  0  0  0  0  0  0
    0.3557   -3.6024    2.3171 C   0  0  0  0  0  0  0  0  0  0  0  0
    0.6584   -4.6506   -0.4643 H   0  0  0  0  0  0  0  0  0  0  0  0
   -1.4091   -3.3101    1.1082 H   0  0  0  0  0  0  0  0  0  0  0  0
    1.4375   -3.7336    2.1985 H   0  0  0  0  0  0  0  0  0  0  0  0
    0.1969   -2.7243    2.9517 H   0  0  0  0  0  0  0  0  0  0  0  0
   -0.0294   -4.4803    2.8470 H   0  0  0  0  0  0  0  0  0  0  0  0
   -0.4616   -1.0893    0.5050 N   0  0  0  0  0  0  0  0  0  0  0  0
   -0.0884    0.2050   -0.0621 C   0  0  2  0  0  0  0  0  0  0  0  0
    0.1836   -0.0030   -1.5492 C   0  0  0  0  0  0  0  0  0  0  0  0
    1.2115   -0.5255   -1.9758 O   0  0  0  0  0  0  0  0  0  0  0  0
    1.1614    0.7952    0.6080 C   0  0  0  0  0  0  0  0  0  0  0  0
    0.9319    1.2093    2.0652 C   0  0  0  0  0  0  0  0  0  0  0  0
    2.1998    1.8125    2.6760 C   0  0  0  0  0  0  0  0  0  0  0  0
    1.9776    2.2026    4.1363 C   0  0  0  0  0  0  0  0  0  0  0  0
    3.2022    2.7524    4.7054 N   0  0  0  0  0  0  0  0  0  0  0  0
   -1.2794   -1.1113    1.0935 H   0  0  0  0  0  0  0  0  0  0  0  0
   -0.9340    0.8934    0.0546 H   0  0  0  0  0  0  0  0  0  0  0  0
    1.4935    1.6734    0.0387 H   0  0  0  0  0  0  0  0  0  0  0  0
    1.9886    0.0742    0.5571 H   0  0  0  0  0  0  0  0  0  0  0  0
    0.6259    0.3420    2.6608 H   0  0  0  0  0  0  0  0  0  0  0  0
    0.1177    1.9423    2.1139 H   0  0  0  0  0  0  0  0  0  0  0  0
    3.0194    1.0863    2.6049 H   0  0  0  0  0  0  0  0  0  0  0  0
    2.4998    2.6958    2.0980 H   0  0  0  0  0  0  0  0  0  0  0  0
    1.6672    1.3285    4.7192 H   0  0  0  0  0  0  0  0  0  0  0  0
    1.1824    2.9520    4.2093 H   0  0  0  0  0  0  0  0  0  0  0  0
    3.9106    2.7247    4.0097 H   0  0  0  0  0  0  0  0  0  0  0  0
    3.0240    3.6887    4.9849 H   0  0  0  0  0  0  0  0  0  0  0  0
   -0.8468    0.4837   -2.3418 N   0  0  0  0  0  0  0  0  0  0  0  0
   -0.8285    0.4309   -3.7860 C   0  0  2  0  0  0  0  0  0  0  0  0
   -1.5756    1.6499   -4.3107 C   0  0  0  0  0  0  0  0  0  0  0  0
   -2.5449    2.1412   -3.7362 O   0  0  0  0  0  0  0  0  0  0  0  0
   -1.4569   -0.8548   -4.3006 C   0  0  0  0  0  0  0  0  0  0  0  0
   -1.6646    0.8923   -1.8993 H   0  0  0  0  0  0  0  0  0  0  0  0
    0.2221    0.4863   -4.0912 H   0  0  0  0  0  0  0  0  0  0  0  0
   -2.5097   -0.9281   -4.0046 H   0  0  0  0  0  0  0  0  0  0  0  0
   -1.4165   -0.9063   -5.3937 H   0  0  0  0  0  0  0  0  0  0  0  0
   -0.9368   -1.7310   -3.8985 H   0  0  0  0  0  0  0  0  0  0  0  0
   -1.0592    2.0985   -5.5183 N   0  0  0  0  0  0  0  0  0  0  0  0
   -1.6224    3.2156   -6.2402 C   0  0  0  0  0  0  0  0  0  0  0  0
   -0.2290    1.6564   -5.9019 H   0  0  0  0  0  0  0  0  0  0  0  0
   -2.3630    2.8481   -6.9657 H   0  0  0  0  0  0  0  0  0  0  0  0
   -2.1116    3.9005   -5.5320 H   0  0  0  0  0  0  0  0  0  0  0  0
   -0.8213    3.7493   -6.7725 H   0  0  0  0  0  0  0  0  0  0  0  0
  1  3  1  0  0  0  0
  1  7  1  0  0  0  0
  1  2  2  0  0  0  0
 39 40  1  0  0  0  0
 40 48  1  0  0  0  0
 40 41  2  0  0  0  0
  8  9  1  0  0  0  0
  9 17  1  0  0  0  0
  9 10  2  0  0  0  0
 18 19  1  0  0  0  0
 19 38  1  0  0  0  0
 19 20  2  0  0  0  0
 39 42  1  0  0  0  0
  8 11  1  0  0  0  0
 48 49  1  0  0  0  0
 22 23  1  0  0  0  0
 21 22  1  0  0  0  0
 23 24  1  0  0  0  0
 18 21  1  0  0  0  0
 24 25  1  0  0  0  0
 38 39  1  0  0  0  0
  7  8  1  0  0  0  0
 17 18  1  0  0  0  0
  3  4  1  0  0  0  0
  3  5  1  0  0  0  0
  3  6  1  0  0  0  0
 42 45  1  0  0  0  0
 42 46  1  0  0  0  0
 42 47  1  0  0  0  0
 11 14  1  0  0  0  0
 11 15  1  0  0  0  0
 11 16  1  0  0  0  0
 49 51  1  0  0  0  0
 49 52  1  0  0  0  0
 49 53  1  0  0  0  0
 22 30  1  0  0  0  0
 22 31  1  0  0  0  0
 23 32  1  0  0  0  0
 23 33  1  0  0  0  0
 21 28  1  0  0  0  0
 21 29  1  0  0  0  0
 24 34  1  0  0  0  0
 24 35  1  0  0  0  0
 39 44  1  0  0  0  0
  8 13  1  0  0  0  0
 18 27  1  0  0  0  0
 25 36  1  0  0  0  0
 25 37  1  0  0  0  0
 48 50  1  0  0  0  0
  7 12  1  0  0  0  0
 38 43  1  0  0  0  0
 17 26  1  0  0  0  0
M  END
$$$$

  -OEChem-05262214473D

 53 52  0     1  0  0  0  0  0999 V2000
   -1.0338   -5.6785    0.1476 C   0  0  0  0  0  0  0  0  0  0  0  0
   -2.0514   -5.7797    0.8227 O   0  0  0  0  0  0  0  0  0  0  0  0
   -0.6558   -6.7819   -0.7841 C   0  0  0  0  0  0  0  0  0  0  0  0
   -0.0111   -7.5354   -0.3038 H   0  0  0  0  0  0  0  0  0  0  0  0
   -1.5317   -7.3401   -1.1520 H   0  0  0  0  0  0  0  0  0  0  0  0
   -0.1109   -6.4687   -1.6890 H   0  0  0  0  0  0  0  0  0  0  0  0
   -0.1543   -4.6083    0.1480 N   0  0  0  0  0  0  0  0  0  0  0  0
   -0.3302   -3.4398    0.9696 C   0  0  2  0  0  0  0  0  0  0  0  0
    0.2328   -2.2439    0.2131 C   0  0  0  0  0  0  0  0  0  0  0  0
    1.2097   -2.3192   -0.5294 O   0  0  0  0  0  0  0  0  0  0  0  0
    0.3557   -3.6024    2.3171 C   0  0  0  0  0  0  0  0  0  0  0  0
    0.6584   -4.6506   -0.4643 H   0  0  0  0  0  0  0  0  0  0  0  0
   -1.4091   -3.3101    1.1082 H   0  0  0  0  0  0  0  0  0  0  0  0
    1.4375   -3.7336    2.1985 H   0  0  0  0  0  0  0  0  0  0  0  0
    0.1969   -2.7243    2.9517 H   0  0  0  0  0  0  0  0  0  0  0  0
   -0.0294   -4.4803    2.8470 H   0  0  0  0  0  0  0  0  0  0  0  0
   -0.4616   -1.0893    0.5050 N   0  0  0  0  0  0  0  0  0  0  0  0
   -0.0884    0.2050   -0.0621 C   0  0  2  0  0  0  0  0  0  0  0  0
    0.1836   -0.0030   -1.5492 C   0  0  0  0  0  0  0  0  0  0  0  0
    1.0638   -0.7504   -1.9713 O   0  0  0  0  0  0  0  0  0  0  0  0
    1.1614    0.7952    0.6080 C   0  0  0  0  0  0  0  0  0  0  0  0
    0.9319    1.2093    2.0652 C   0  0  0  0  0  0  0  0  0  0  0  0
    2.1998    1.8125    2.6760 C   0  0  0  0  0  0  0  0  0  0  0  0
    1.9776    2.2026    4.1363 C   0  0  0  0  0  0  0  0  0  0  0  0
    3.2022    2.7524    4.7054 N   0  0  0  0  0  0  0  0  0  0  0  0
   -1.2794   -1.1113    1.0935 H   0  0  0  0  0  0  0  0  0  0  0  0
   -0.9340    0.8934    0.0546 H   0  0  0  0  0  0  0  0  0  0  0  0
    1.4935    1.6734    0.0387 H   0  0  0  0  0  0  0  0  0  0  0  0
    1.9886    0.0742    0.5571 H   0  0  0  0  0  0  0  0  0  0  0  0
    0.6259    0.3420    2.6608 H   0  0  0  0  0  0  0  0  0  0  0  0
    0.1177    1.9423    2.1139 H   0  0  0  0  0  0  0  0  0  0  0  0
    3.0194    1.0863    2.6049 H   0  0  0  0  0  0  0  0  0  0  0  0
    2.4998    2.6958    2.0980 H   0  0  0  0  0  0  0  0  0  0  0  0
    1.6672    1.3285    4.7192 H   0  0  0  0  0  0  0  0  0  0  0  0
    1.1824    2.9520    4.2093 H   0  0  0  0  0  0  0  0  0  0  0  0
    3.9106    2.7247    4.0097 H   0  0  0  0  0  0  0  0  0  0  0  0
    3.0240    3.6887    4.9849 H   0  0  0  0  0  0  0  0  0  0  0  0
   -0.6578    0.7612   -2.3460 N   0  0  0  0  0  0  0  0  0  0  0  0
   -0.5939    0.7655   -3.7899 C   0  0  2  0  0  0  0  0  0  0  0  0
   -0.9882    2.1546   -4.2739 C   0  0  0  0  0  0  0  0  0  0  0  0
   -1.8258    2.8509   -3.7040 O   0  0  0  0  0  0  0  0  0  0  0  0
   -1.5035   -0.2968   -4.3872 C   0  0  0  0  0  0  0  0  0  0  0  0
   -1.3642    1.3446   -1.9076 H   0  0  0  0  0  0  0  0  0  0  0  0
    0.4486    0.5659   -4.0609 H   0  0  0  0  0  0  0  0  0  0  0  0
   -2.5523   -0.1135   -4.1264 H   0  0  0  0  0  0  0  0  0  0  0  0
   -1.4324   -0.3113   -5.4798 H   0  0  0  0  0  0  0  0  0  0  0  0
   -1.2375   -1.2919   -4.0149 H   0  0  0  0  0  0  0  0  0  0  0  0
   -0.3263    2.5078   -5.4416 N   0  0  0  0  0  0  0  0  0  0  0  0
   -0.5604    3.7600   -6.1221 C   0  0  0  0  0  0  0  0  0  0  0  0
    0.3811    1.8863   -5.8225 H   0  0  0  0  0  0  0  0  0  0  0  0
   -1.3390    3.6224   -6.8868 H   0  0  0  0  0  0  0  0  0  0  0  0
   -0.8905    4.5164   -5.3949 H   0  0  0  0  0  0  0  0  0  0  0  0
    0.3704    4.0954   -6.6030 H   0  0  0  0  0  0  0  0  0  0  0  0
  1  3  1  0  0  0  0
  1  7  1  0  0  0  0
  1  2  2  0  0  0  0
 39 40  1  0  0  0  0
 40 48  1  0  0  0  0
 40 41  2  0  0  0  0
  8  9  1  0  0  0  0
  9 17  1  0  0  0  0
  9 10  2  0  0  0  0
 18 19  1  0  0  0  0
 19 38  1  0  0  0  0
 19 20  2  0  0  0  0
 39 42  1  0  0  0  0
  8 11  1  0  0  0  0
 48 49  1  0  0  0  0
 22 23  1  0  0  0  0
 21 22  1  0  0  0  0
 23 24  1  0  0  0  0
 18 21  1  0  0  0  0
 24 25  1  0  0  0  0
 38 39  1  0  0  0  0
  7  8  1  0  0  0  0
 17 18  1  0  0  0  0
  3  4  1  0  0  0  0
  3  5  1  0  0  0  0
  3  6  1  0  0  0  0
 42 45  1  0  0  0  0
 42 46  1  0  0  0  0
 42 47  1  0  0  0  0
 11 14  1  0  0  0  0
 11 15  1  0  0  0  0
 11 16  1  0  0  0  0
 49 51  1  0  0  0  0
 49 52  1  0  0  0  0
 49 53  1  0  0  0  0
 22 30  1  0  0  0  0
 22 31  1  0  0  0  0
 23 32  1  0  0  0  0
 23 33  1  0  0  0  0
 21 28  1  0  0  0  0
 21 29  1  0  0  0  0
 24 34  1  0  0  0  0
 24 35  1  0  0  0  0
 39 44  1  0  0  0  0
  8 13  1  0  0  0  0
 18 27  1  0  0  0  0
 25 36  1  0  0  0  0
 25 37  1  0  0  0  0
 48 50  1  0  0  0  0
  7 12  1  0  0  0  0
 38 43  1  0  0  0  0
 17 26  1  0  0  0  0
M  END
$$$$

  -OEChem-05262214473D

 53 52  0     1  0  0  0  0  0999 V2000
   -1.0338   -5.6785    0.1476 C   0  0  0  0  0  0  0  0  0  0  0  0
   -2.0514   -5.7797    0.8227 O   0  0  0  0  0  0  0  0  0  0  0  0
   -0.6558   -6.7819   -0.7841 C   0  0  0  0  0  0  0  0  0  0  0  0
   -0.0111   -7.5354   -0.3038 H   0  0  0  0  0  0  0  0  0  0  0  0
   -1.5317   -7.3401   -1.1520 H   0  0  0  0  0  0  0  0  0  0  0  0
   -0.1109   -6.4687   -1.6890 H   0  0  0  0  0  0  0  0  0  0  0  0
   -0.1543   -4.6083    0.1480 N   0  0  0  0  0  0  0  0  0  0  0  0
   -0.3302   -3.4398    0.9696 C   0  0  2  0  0  0  0  0  0  0  0  0
    0.2328   -2.2439    0.2131 C   0  0  0  0  0  0  0  0  0  0  0  0
    1.2097   -2.3192   -0.5294 O   0  0  0  0  0  0  0  0  0  0  0  0
    0.3557   -3.6024    2.3171 C   0  0  0  0  0  0  0  0  0  0  0  0
    0.6584   -4.6506   -0.4643 H   0  0  0  0  0  0  0  0  0  0  0  0
   -1.4091   -3.3101    1.1082 H   0  0  0  0  0  0  0  0  0  0  0  0
    1.4375   -3.7336    2.1985 H   0  0  0  0  0  0  0  0  0  0  0  0
    0.1969   -2.7243    2.9517 H   0  0  0  0  0  0  0  0  0  0  0  0
   -0.0294   -4.4803    2.8470 H   0  0  0  0  0  0  0  0  0  0  0  0
   -0.4616   -1.0893    0.5050 N   0  0  0  0  0  0  0  0  0  0  0  0
   -0.0884    0.2050   -0.0621 C   0  0  2  0  0  0  0  0  0  0  0  0
    0.1836   -0.0030   -1.5492 C   0  0  0  0  0  0  0  0  0  0  0  0
    0.8642   -0.9306   -1.9826 O   0  0  0  0  0  0  0  0  0  0  0  0
    1.1614    0.7952    0.6080 C   0  0  0  0  0  0  0  0  0  0  0  0
    0.9319    1.2093    2.0652 C   0  0  0  0  0  0  0  0  0  0  0  0
    2.1998    1.8125    2.6760 C   0  0  0  0  0  0  0  0  0  0  0  0
    1.9776    2.2026    4.1363 C   0  0  0  0  0  0  0  0  0  0  0  0
    3.2022    2.7524    4.7054 N   0  0  0  0  0  0  0  0  0  0  0  0
   -1.2794   -1.1113    1.0935 H   0  0  0  0  0  0  0  0  0  0  0  0
   -0.9340    0.8934    0.0546 H   0  0  0  0  0  0  0  0  0  0  0  0
    1.4935    1.6734    0.0387 H   0  0  0  0  0  0  0  0  0  0  0  0
    1.9886    0.0742    0.5571 H   0  0  0  0  0  0  0  0  0  0  0  0
    0.6259    0.3420    2.6608 H   0  0  0  0  0  0  0  0  0  0  0  0
    0.1177    1.9423    2.1139 H   0  0  0  0  0  0  0  0  0  0  0  0
    3.0194    1.0863    2.6049 H   0  0  0  0  0  0  0  0  0  0  0  0
    2.4998    2.6958    2.0980 H   0  0  0  0  0  0  0  0  0  0  0  0
    1.6672    1.3285    4.7192 H   0  0  0  0  0  0  0  0  0  0  0  0
    1.1824    2.9520    4.2093 H   0  0  0  0  0  0  0  0  0  0  0  0
    3.9106    2.7247    4.0097 H   0  0  0  0  0  0  0  0  0  0  0  0
    3.0240    3.6887    4.9849 H   0  0  0  0  0  0  0  0  0  0  0  0
   -0.4051    0.9817   -2.3307 N   0  0  0  0  0  0  0  0  0  0  0  0
   -0.2827    1.0297   -3.7699 C   0  0  2  0  0  0  0  0  0  0  0  0
   -0.2949    2.4923   -4.1944 C   0  0  0  0  0  0  0  0  0  0  0  0
   -0.9532    3.3535   -3.6148 O   0  0  0  0  0  0  0  0  0  0  0  0
   -1.4048    0.2580   -4.4468 C   0  0  0  0  0  0  0  0  0  0  0  0
   -0.9596    1.7061   -1.8842 H   0  0  0  0  0  0  0  0  0  0  0  0
    0.6864    0.5843   -4.0200 H   0  0  0  0  0  0  0  0  0  0  0  0
   -2.3836    0.6896   -4.2079 H   0  0  0  0  0  0  0  0  0  0  0  0
   -1.2946    0.2714   -5.5361 H   0  0  0  0  0  0  0  0  0  0  0  0
   -1.4130   -0.7867   -4.1176 H   0  0  0  0  0  0  0  0  0  0  0  0
    0.4821    2.7148   -5.3227 N   0  0  0  0  0  0  0  0  0  0  0  0
    0.5986    4.0126   -5.9456 C   0  0  0  0  0  0  0  0  0  0  0  0
    1.0256    1.9509   -5.7137 H   0  0  0  0  0  0  0  0  0  0  0  0
   -0.1575    4.1084   -6.7388 H   0  0  0  0  0  0  0  0  0  0  0  0
    0.4395    4.7970   -5.1909 H   0  0  0  0  0  0  0  0  0  0  0  0
    1.6027    4.1213   -6.3813 H   0  0  0  0  0  0  0  0  0  0  0  0
  1  3  1  0  0  0  0
  1  7  1  0  0  0  0
  1  2  2  0  0  0  0
 39 40  1  0  0  0  0
 40 48  1  0  0  0  0
 40 41  2  0  0  0  0
  8  9  1  0  0  0  0
  9 17  1  0  0  0  0
  9 10  2  0  0  0  0
 18 19  1  0  0  0  0
 19 38  1  0  0  0  0
 19 20  2  0  0  0  0
 39 42  1  0  0  0  0
  8 11  1  0  0  0  0
 48 49  1  0  0  0  0
 22 23  1  0  0  0  0
 21 22  1  0  0  0  0
 23 24  1  0  0  0  0
 18 21  1  0  0  0  0
 24 25  1  0  0  0  0
 38 39  1  0  0  0  0
  7  8  1  0  0  0  0
 17 18  1  0  0  0  0
  3  4  1  0  0  0  0
  3  5  1  0  0  0  0
  3  6  1  0  0  0  0
 42 45  1  0  0  0  0
 42 46  1  0  0  0  0
 42 47  1  0  0  0  0
 11 14  1  0  0  0  0
 11 15  1  0  0  0  0
 11 16  1  0  0  0  0
 49 51  1  0  0  0  0
 49 52  1  0  0  0  0
 49 53  1  0  0  0  0
 22 30  1  0  0  0  0
 22 31  1  0  0  0  0
 23 32  1  0  0  0  0
 23 33  1  0  0  0  0
 21 28  1  0  0  0  0
 21 29  1  0  0  0  0
 24 34  1  0  0  0  0
 24 35  1  0  0  0  0
 39 44  1  0  0  0  0
  8 13  1  0  0  0  0
 18 27  1  0  0  0  0
 25 36  1  0  0  0  0
 25 37  1  0  0  0  0
 48 50  1  0  0  0  0
  7 12  1  0  0  0  0
 38 43  1  0  0  0  0
 17 26  1  0  0  0  0
M  END
$$$$

  -OEChem-05262214473D

 53 52  0     1  0  0  0  0  0999 V2000
   -1.0338   -5.6785    0.1476 C   0  0  0  0  0  0  0  0  0  0  0  0
   -2.0514   -5.7797    0.8227 O   0  0  0  0  0  0  0  0  0  0  0  0
   -0.6558   -6.7819   -0.7841 C   0  0  0  0  0  0  0  0  0  0  0  0
   -0.0111   -7.5354   -0.3038 H   0  0  0  0  0  0  0  0  0  0  0  0
   -1.5317   -7.3401   -1.1520 H   0  0  0  0  0  0  0  0  0  0  0  0
   -0.1109   -6.4687   -1.6890 H   0  0  0  0  0  0  0  0  0  0  0  0
   -0.1543   -4.6083    0.1480 N   0  0  0  0  0  0  0  0  0  0  0  0
   -0.3302   -3.4398    0.9696 C   0  0  2  0  0  0  0  0  0  0  0  0
    0.2328   -2.2439    0.2131 C   0  0  0  0  0  0  0  0  0  0  0  0
    1.2097   -2.3192   -0.5294 O   0  0  0  0  0  0  0  0  0  0  0  0
    0.3557   -3.6024    2.3171 C   0  0  0  0  0  0  0  0  0  0  0  0
    0.6584   -4.6506   -0.4643 H   0  0  0  0  0  0  0  0  0  0  0  0
   -1.4091   -3.3101    1.1082 H   0  0  0  0  0  0  0  0  0  0  0  0
    1.4375   -3.7336    2.1985 H   0  0  0  0  0  0  0  0  0  0  0  0
    0.1969   -2.7243    2.9517 H   0  0  0  0  0  0  0  0  0  0  0  0
   -0.0294   -4.4803    2.8470 H   0  0  0  0  0  0  0  0  0  0  0  0
   -0.4616   -1.0893    0.5050 N   0  0  0  0  0  0  0  0  0  0  0  0
   -0.0884    0.2050   -0.0621 C   0  0  2  0  0  0  0  0  0  0  0  0
    0.1836   -0.0030   -1.5492 C   0  0  0  0  0  0  0  0  0  0  0  0
    0.6265   -1.0538   -2.0088 O   0  0  0  0  0  0  0  0  0  0  0  0
    1.1614    0.7952    0.6080 C   0  0  0  0  0  0  0  0  0  0  0  0
    0.9319    1.2093    2.0652 C   0  0  0  0  0  0  0  0  0  0  0  0
    2.1998    1.8125    2.6760 C   0  0  0  0  0  0  0  0  0  0  0  0
    1.9776    2.2026    4.1363 C   0  0  0  0  0  0  0  0  0  0  0  0
    3.2022    2.7524    4.7054 N   0  0  0  0  0  0  0  0  0  0  0  0
   -1.2794   -1.1113    1.0935 H   0  0  0  0  0  0  0  0  0  0  0  0
   -0.9340    0.8934    0.0546 H   0  0  0  0  0  0  0  0  0  0  0  0
    1.4935    1.6734    0.0387 H   0  0  0  0  0  0  0  0  0  0  0  0
    1.9886    0.0742    0.5571 H   0  0  0  0  0  0  0  0  0  0  0  0
    0.6259    0.3420    2.6608 H   0  0  0  0  0  0  0  0  0  0  0  0
    0.1177    1.9423    2.1139 H   0  0  0  0  0  0  0  0  0  0  0  0
    3.0194    1.0863    2.6049 H   0  0  0  0  0  0  0  0  0  0  0  0
    2.4998    2.6958    2.0980 H   0  0  0  0  0  0  0  0  0  0  0  0
    1.6672    1.3285    4.7192 H   0  0  0  0  0  0  0  0  0  0  0  0
    1.1824    2.9520    4.2093 H   0  0  0  0  0  0  0  0  0  0  0  0
    3.9106    2.7247    4.0097 H   0  0  0  0  0  0  0  0  0  0  0  0
    3.0240    3.6887    4.9849 H   0  0  0  0  0  0  0  0  0  0  0  0
   -0.1060    1.1302   -2.2968 N   0  0  0  0  0  0  0  0  0  0  0  0
    0.0838    1.2055   -3.7275 C   0  0  2  0  0  0  0  0  0  0  0  0
    0.4572    2.6400   -4.0775 C   0  0  0  0  0  0  0  0  0  0  0  0
    0.0132    3.6149   -3.4747 O   0  0  0  0  0  0  0  0  0  0  0  0
   -1.1674    0.7717   -4.4752 C   0  0  0  0  0  0  0  0  0  0  0  0
   -0.4784    1.9521   -1.8306 H   0  0  0  0  0  0  0  0  0  0  0  0
    0.9192    0.5402   -3.9712 H   0  0  0  0  0  0  0  0  0  0  0  0
   -2.0152    1.4267   -4.2437 H   0  0  0  0  0  0  0  0  0  0  0  0
   -1.0126    0.8021   -5.5588 H   0  0  0  0  0  0  0  0  0  0  0  0
   -1.4515   -0.2497   -4.1998 H   0  0  0  0  0  0  0  0  0  0  0  0
    1.3109    2.7053   -5.1698 N   0  0  0  0  0  0  0  0  0  0  0  0
    1.7755    3.9562   -5.7225 C   0  0  0  0  0  0  0  0  0  0  0  0
    1.6606    1.8457   -5.5828 H   0  0  0  0  0  0  0  0  0  0  0  0
    1.1012    4.2731   -6.5317 H   0  0  0  0  0  0  0  0  0  0  0  0
    1.7878    4.7232   -4.9341 H   0  0  0  0  0  0  0  0  0  0  0  0
    2.7918    3.8252   -6.1224 H   0  0  0  0  0  0  0  0  0  0  0  0
  1  3  1  0  0  0  0
  1  7  1  0  0  0  0
  1  2  2  0  0  0  0
 39 40  1  0  0  0  0
 40 48  1  0  0  0  0
 40 41  2  0  0  0  0
  8  9  1  0  0  0  0
  9 17  1  0  0  0  0
  9 10  2  0  0  0  0
 18 19  1  0  0  0  0
 19 38  1  0  0  0  0
 19 20  2  0  0  0  0
 39 42  1  0  0  0  0
  8 11  1  0  0  0  0
 48 49  1  0  0  0  0
 22 23  1  0  0  0  0
 21 22  1  0  0  0  0
 23 24  1  0  0  0  0
 18 21  1  0  0  0  0
 24 25  1  0  0  0  0
 38 39  1  0  0  0  0
  7  8  1  0  0  0  0
 17 18  1  0  0  0  0
  3  4  1  0  0  0  0
  3  5  1  0  0  0  0
  3  6  1  0  0  0  0
 42 45  1  0  0  0  0
 42 46  1  0  0  0  0
 42 47  1  0  0  0  0
 11 14  1  0  0  0  0
 11 15  1  0  0  0  0
 11 16  1  0  0  0  0
 49 51  1  0  0  0  0
 49 52  1  0  0  0  0
 49 53  1  0  0  0  0
 22 30  1  0  0  0  0
 22 31  1  0  0  0  0
 23 32  1  0  0  0  0
 23 33  1  0  0  0  0
 21 28  1  0  0  0  0
 21 29  1  0  0  0  0
 24 34  1  0  0  0  0
 24 35  1  0  0  0  0
 39 44  1  0  0  0  0
  8 13  1  0  0  0  0
 18 27  1  0  0  0  0
 25 36  1  0  0  0  0
 25 37  1  0  0  0  0
 48 50  1  0  0  0  0
  7 12  1  0  0  0  0
 38 43  1  0  0  0  0
 17 26  1  0  0  0  0
M  END
$$$$

  -OEChem-05262214473D

 53 52  0     1  0  0  0  0  0999 V2000
   -1.0338   -5.6785    0.1476 C   0  0  0  0  0  0  0  0  0  0  0  0
   -2.0514   -5.7797    0.8227 O   0  0  0  0  0  0  0  0  0  0  0  0
   -0.6558   -6.7819   -0.7841 C   0  0  0  0  0  0  0  0  0  0  0  0
   -0.0111   -7.5354   -0.3038 H   0  0  0  0  0  0  0  0  0  0  0  0
   -1.5317   -7.3401   -1.1520 H   0  0  0  0  0  0  0  0  0  0  0  0
   -0.1109   -6.4687   -1.6890 H   0  0  0  0  0  0  0  0  0  0  0  0
   -0.1543   -4.6083    0.1480 N   0  0  0  0  0  0  0  0  0  0  0  0
   -0.3302   -3.4398    0.9696 C   0  0  2  0  0  0  0  0  0  0  0  0
    0.2328   -2.2439    0.2131 C   0  0  0  0  0  0  0  0  0  0  0  0
    1.2097   -2.3192   -0.5294 O   0  0  0  0  0  0  0  0  0  0  0  0
    0.3557   -3.6024    2.3171 C   0  0  0  0  0  0  0  0  0  0  0  0
    0.6584   -4.6506   -0.4643 H   0  0  0  0  0  0  0  0  0  0  0  0
   -1.4091   -3.3101    1.1082 H   0  0  0  0  0  0  0  0  0  0  0  0
    1.4375   -3.7336    2.1985 H   0  0  0  0  0  0  0  0  0  0  0  0
    0.1969   -2.7243    2.9517 H   0  0  0  0  0  0  0  0  0  0  0  0
   -0.0294   -4.4803    2.8470 H   0  0  0  0  0  0  0  0  0  0  0  0
   -0.4616   -1.0893    0.5050 N   0  0  0  0  0  0  0  0  0  0  0  0
   -0.0884    0.2050   -0.0621 C   0  0  2  0  0  0  0  0  0  0  0  0
    0.1836   -0.0030   -1.5492 C   0  0  0  0  0  0  0  0  0  0  0  0
    0.3666   -1.1116   -2.0483 O   0  0  0  0  0  0  0  0  0  0  0  0
    1.1614    0.7952    0.6080 C   0  0  0  0  0  0  0  0  0  0  0  0
    0.9319    1.2093    2.0652 C   0  0  0  0  0  0  0  0  0  0  0  0
    2.1998    1.8125    2.6760 C   0  0  0  0  0  0  0  0  0  0  0  0
    1.9776    2.2026    4.1363 C   0  0  0  0  0  0  0  0  0  0  0  0
    3.2022    2.7524    4.7054 N   0  0  0  0  0  0  0  0  0  0  0  0
   -1.2794   -1.1113    1.0935 H   0  0  0  0  0  0  0  0  0  0  0  0
   -0.9340    0.8934    0.0546 H   0  0  0  0  0  0  0  0  0  0  0  0
    1.4935    1.6734    0.0387 H   0  0  0  0  0  0  0  0  0  0  0  0
    1.9886    0.0742    0.5571 H   0  0  0  0  0  0  0  0  0  0  0  0
    0.6259    0.3420    2.6608 H   0  0  0  0  0  0  0  0  0  0  0  0
    0.1177    1.9423    2.1139 H   0  0  0  0  0  0  0  0  0  0  0  0
    3.0194    1.0863    2.6049 H   0  0  0  0  0  0  0  0  0  0  0  0
    2.4998    2.6958    2.0980 H   0  0  0  0  0  0  0  0  0  0  0  0
    1.6672    1.3285    4.7192 H   0  0  0  0  0  0  0  0  0  0  0  0
    1.1824    2.9520    4.2093 H   0  0  0  0  0  0  0  0  0  0  0  0
    3.9106    2.7247    4.0097 H   0  0  0  0  0  0  0  0  0  0  0  0
    3.0240    3.6887    4.9849 H   0  0  0  0  0  0  0  0  0  0  0  0
    0.2193    1.1967   -2.2466 N   0  0  0  0  0  0  0  0  0  0  0  0
    0.4806    1.2810   -3.6655 C   0  0  2  0  0  0  0  0  0  0  0  0
    1.2168    2.5875   -3.9313 C   0  0  0  0  0  0  0  0  0  0  0  0
    1.0076    3.6171   -3.2931 O   0  0  0  0  0  0  0  0  0  0  0  0
   -0.8075    1.2094   -4.4707 C   0  0  0  0  0  0  0  0  0  0  0  0
    0.0466    2.0660   -1.7506 H   0  0  0  0  0  0  0  0  0  0  0  0
    1.1313    0.4366   -3.9180 H   0  0  0  0  0  0  0  0  0  0  0  0
   -1.4723    2.0473   -4.2312 H   0  0  0  0  0  0  0  0  0  0  0  0
   -0.6056    1.2446   -5.5463 H   0  0  0  0  0  0  0  0  0  0  0  0
   -1.3504    0.2826   -4.2558 H   0  0  0  0  0  0  0  0  0  0  0  0
    2.1037    2.4800   -4.9933 N   0  0  0  0  0  0  0  0  0  0  0  0
    2.8903    3.5945   -5.4680 C   0  0  0  0  0  0  0  0  0  0  0  0
    2.2428    1.5779   -5.4389 H   0  0  0  0  0  0  0  0  0  0  0  0
    2.3512    4.1051   -6.2796 H   0  0  0  0  0  0  0  0  0  0  0  0
    3.0625    4.2999   -4.6418 H   0  0  0  0  0  0  0  0  0  0  0  0
    3.8566    3.2274   -5.8441 H   0  0  0  0  0  0  0  0  0  0  0  0
  1  3  1  0  0  0  0
  1  7  1  0  0  0  0
  1  2  2  0  0  0  0
 39 40  1  0  0  0  0
 40 48  1  0  0  0  0
 40 41  2  0  0  0  0
  8  9  1  0  0  0  0
  9 17  1  0  0  0  0
  9 10  2  0  0  0  0
 18 19  1  0  0  0  0
 19 38  1  0  0  0  0
 19 20  2  0  0  0  0
 39 42  1  0  0  0  0
  8 11  1  0  0  0  0
 48 49  1  0  0  0  0
 22 23  1  0  0  0  0
 21 22  1  0  0  0  0
 23 24  1  0  0  0  0
 18 21  1  0  0  0  0
 24 25  1  0  0  0  0
 38 39  1  0  0  0  0
  7  8  1  0  0  0  0
 17 18  1  0  0  0  0
  3  4  1  0  0  0  0
  3  5  1  0  0  0  0
  3  6  1  0  0  0  0
 42 45  1  0  0  0  0
 42 46  1  0  0  0  0
 42 47  1  0  0  0  0
 11 14  1  0  0  0  0
 11 15  1  0  0  0  0
 11 16  1  0  0  0  0
 49 51  1  0  0  0  0
 49 52  1  0  0  0  0
 49 53  1  0  0  0  0
 22 30  1  0  0  0  0
 22 31  1  0  0  0  0
 23 32  1  0  0  0  0
 23 33  1  0  0  0  0
 21 28  1  0  0  0  0
 21 29  1  0  0  0  0
 24 34  1  0  0  0  0
 24 35  1  0  0  0  0
 39 44  1  0  0  0  0
  8 13  1  0  0  0  0
 18 27  1  0  0  0  0
 25 36  1  0  0  0  0
 25 37  1  0  0  0  0
 48 50  1  0  0  0  0
  7 12  1  0  0  0  0
 38 43  1  0  0  0  0
 17 26  1  0  0  0  0
M  END
$$$$

  -OEChem-05262214473D

 53 52  0     1  0  0  0  0  0999 V2000
   -1.0338   -5.6785    0.1476 C   0  0  0  0  0  0  0  0  0  0  0  0
   -2.0514   -5.7797    0.8227 O   0  0  0  0  0  0  0  0  0  0  0  0
   -0.6558   -6.7819   -0.7841 C   0  0  0  0  0  0  0  0  0  0  0  0
   -0.0111   -7.5354   -0.3038 H   0  0  0  0  0  0  0  0  0  0  0  0
   -1.5317   -7.3401   -1.1520 H   0  0  0  0  0  0  0  0  0  0  0  0
   -0.1109   -6.4687   -1.6890 H   0  0  0  0  0  0  0  0  0  0  0  0
   -0.1543   -4.6083    0.1480 N   0  0  0  0  0  0  0  0  0  0  0  0
   -0.3302   -3.4398    0.9696 C   0  0  2  0  0  0  0  0  0  0  0  0
    0.2328   -2.2439    0.2131 C   0  0  0  0  0  0  0  0  0  0  0  0
    1.2097   -2.3192   -0.5294 O   0  0  0  0  0  0  0  0  0  0  0  0
    0.3557   -3.6024    2.3171 C   0  0  0  0  0  0  0  0  0  0  0  0
    0.6584   -4.6506   -0.4643 H   0  0  0  0  0  0  0  0  0  0  0  0
   -1.4091   -3.3101    1.1082 H   0  0  0  0  0  0  0  0  0  0  0  0
    1.4375   -3.7336    2.1985 H   0  0  0  0  0  0  0  0  0  0  0  0
    0.1969   -2.7243    2.9517 H   0  0  0  0  0  0  0  0  0  0  0  0
   -0.0294   -4.4803    2.8470 H   0  0  0  0  0  0  0  0  0  0  0  0
   -0.4616   -1.0893    0.5050 N   0  0  0  0  0  0  0  0  0  0  0  0
   -0.0884    0.2050   -0.0621 C   0  0  2  0  0  0  0  0  0  0  0  0
   -0.1834    0.0890   -1.5808 C   0  0  0  0  0  0  0  0  0  0  0  0
   -0.5045   -0.9498   -2.1546 O   0  0  0  0  0  0  0  0  0  0  0  0
    1.3368    0.6229    0.3300 C   0  0  0  0  0  0  0  0  0  0  0  0
    1.4884    0.9419    1.8209 C   0  0  0  0  0  0  0  0  0  0  0  0
    2.9190    1.3755    2.1520 C   0  0  0  0  0  0  0  0  0  0  0  0
    3.0759    1.6697    3.6429 C   0  0  0  0  0  0  0  0  0  0  0  0
    4.4495    2.0577    3.9406 N   0  0  0  0  0  0  0  0  0  0  0  0
   -1.2794   -1.1113    1.0935 H   0  0  0  0  0  0  0  0  0  0  0  0
   -0.8063    0.9577    0.2853 H   0  0  0  0  0  0  0  0  0  0  0  0
    1.6246    1.5081   -0.2523 H   0  0  0  0  0  0  0  0  0  0  0  0
    2.0481   -0.1656    0.0490 H   0  0  0  0  0  0  0  0  0  0  0  0
    1.2328    0.0629    2.4234 H   0  0  0  0  0  0  0  0  0  0  0  0
    0.7904    1.7412    2.0975 H   0  0  0  0  0  0  0  0  0  0  0  0
    3.6180    0.5842    1.8528 H   0  0  0  0  0  0  0  0  0  0  0  0
    3.1745    2.2694    1.5690 H   0  0  0  0  0  0  0  0  0  0  0  0
    2.8125    0.7855    4.2336 H   0  0  0  0  0  0  0  0  0  0  0  0
    2.4035    2.4817    3.9395 H   0  0  0  0  0  0  0  0  0  0  0  0
    4.9752    2.0186    3.0988 H   0  0  0  0  0  0  0  0  0  0  0  0
    4.4412    2.9818    4.3044 H   0  0  0  0  0  0  0  0  0  0  0  0
    0.1541    1.2754   -2.2174 N   0  0  0  0  0  0  0  0  0  0  0  0
    0.1668    1.4277   -3.6546 C   0  0  2  0  0  0  0  0  0  0  0  0
    1.2620    2.4236   -4.0124 C   0  0  0  0  0  0  0  0  0  0  0  0
    1.5561    3.3817   -3.3005 O   0  0  0  0  0  0  0  0  0  0  0  0
   -1.1840    1.8956   -4.1734 C   0  0  0  0  0  0  0  0  0  0  0  0
    0.3981    2.0879   -1.6591 H   0  0  0  0  0  0  0  0  0  0  0  0
    0.4133    0.4463   -4.0744 H   0  0  0  0  0  0  0  0  0  0  0  0
   -1.4481    2.8773   -3.7636 H   0  0  0  0  0  0  0  0  0  0  0  0
   -1.1812    1.9830   -5.2649 H   0  0  0  0  0  0  0  0  0  0  0  0
   -1.9751    1.1932   -3.8896 H   0  0  0  0  0  0  0  0  0  0  0  0
    1.8431    2.1414   -5.2407 N   0  0  0  0  0  0  0  0  0  0  0  0
    2.8777    2.9651   -5.8214 C   0  0  0  0  0  0  0  0  0  0  0  0
    1.5656    1.3040   -5.7442 H   0  0  0  0  0  0  0  0  0  0  0  0
    2.4207    3.7195   -6.4787 H   0  0  0  0  0  0  0  0  0  0  0  0
    3.4384    3.4685   -5.0200 H   0  0  0  0  0  0  0  0  0  0  0  0
    3.5623    2.3345   -6.4077 H   0  0  0  0  0  0  0  0  0  0  0  0
  1  3  1  0  0  0  0
  1  7  1  0  0  0  0
  1  2  2  0  0  0  0
 39 40  1  0  0  0  0
 40 48  1  0  0  0  0
 40 41  2  0  0  0  0
  8  9  1  0  0  0  0
  9 17  1  0  0  0  0
  9 10  2  0  0  0  0
 18 19  1  0  0  0  0
 19 38  1  0  0  0  0
 19 20  2  0  0  0  0
 39 42  1  0  0  0  0
  8 11  1  0  0  0  0
 48 49  1  0  0  0  0
 22 23  1  0  0  0  0
 21 22  1  0  0  0  0
 23 24  1  0  0  0  0
 18 21  1  0  0  0  0
 24 25  1  0  0  0  0
 38 39  1  0  0  0  0
  7  8  1  0  0  0  0
 17 18  1  0  0  0  0
  3  4  1  0  0  0  0
  3  5  1  0  0  0  0
  3  6  1  0  0  0  0
 42 45  1  0  0  0  0
 42 46  1  0  0  0  0
 42 47  1  0  0  0  0
 11 14  1  0  0  0  0
 11 15  1  0  0  0  0
 11 16  1  0  0  0  0
 49 51  1  0  0  0  0
 49 52  1  0  0  0  0
 49 53  1  0  0  0  0
 22 30  1  0  0  0  0
 22 31  1  0  0  0  0
 23 32  1  0  0  0  0
 23 33  1  0  0  0  0
 21 28  1  0  0  0  0
 21 29  1  0  0  0  0
 24 34  1  0  0  0  0
 24 35  1  0  0  0  0
 39 44  1  0  0  0  0
  8 13  1  0  0  0  0
 18 27  1  0  0  0  0
 25 36  1  0  0  0  0
 25 37  1  0  0  0  0
 48 50  1  0  0  0  0
  7 12  1  0  0  0  0
 38 43  1  0  0  0  0
 17 26  1  0  0  0  0
M  END
$$$$

  -OEChem-05262214473D

 53 52  0     1  0  0  0  0  0999 V2000
   -1.0338   -5.6785    0.1476 C   0  0  0  0  0  0  0  0  0  0  0  0
   -2.0514   -5.7797    0.8227 O   0  0  0  0  0  0  0  0  0  0  0  0
   -0.6558   -6.7819   -0.7841 C   0  0  0  0  0  0  0  0  0  0  0  0
   -0.0111   -7.5354   -0.3038 H   0  0  0  0  0  0  0  0  0  0  0  0
   -1.5317   -7.3401   -1.1520 H   0  0  0  0  0  0  0  0  0  0  0  0
   -0.1109   -6.4687   -1.6890 H   0  0  0  0  0  0  0  0  0  0  0  0
   -0.1543   -4.6083    0.1480 N   0  0  0  0  0  0  0  0  0  0  0  0
   -0.3302   -3.4398    0.9696 C   0  0  2  0  0  0  0  0  0  0  0  0
    0.2328   -2.2439    0.2131 C   0  0  0  0  0  0  0  0  0  0  0  0
    1.2097   -2.3192   -0.5294 O   0  0  0  0  0  0  0  0  0  0  0  0
    0.3557   -3.6024    2.3171 C   0  0  0  0  0  0  0  0  0  0  0  0
    0.6584   -4.6506   -0.4643 H   0  0  0  0  0  0  0  0  0  0  0  0
   -1.4091   -3.3101    1.1082 H   0  0  0  0  0  0  0  0  0  0  0  0
    1.4375   -3.7336    2.1985 H   0  0  0  0  0  0  0  0  0  0  0  0
    0.1969   -2.7243    2.9517 H   0  0  0  0  0  0  0  0  0  0  0  0
   -0.0294   -4.4803    2.8470 H   0  0  0  0  0  0  0  0  0  0  0  0
   -0.4616   -1.0893    0.5050 N   0  0  0  0  0  0  0  0  0  0  0  0
   -0.0884    0.2050   -0.0621 C   0  0  2  0  0  0  0  0  0  0  0  0
   -0.1834    0.0890   -1.5808 C   0  0  0  0  0  0  0  0  0  0  0  0
   -0.7513   -0.8427   -2.1473 O   0  0  0  0  0  0  0  0  0  0  0  0
    1.3368    0.6229    0.3300 C   0  0  0  0  0  0  0  0  0  0  0  0
    1.4884    0.9419    1.8209 C   0  0  0  0  0  0  0  0  0  0  0  0
    2.9190    1.3755    2.1520 C   0  0  0  0  0  0  0  0  0  0  0  0
    3.0759    1.6697    3.6429 C   0  0  0  0  0  0  0  0  0  0  0  0
    4.4495    2.0577    3.9406 N   0  0  0  0  0  0  0  0  0  0  0  0
   -1.2794   -1.1113    1.0935 H   0  0  0  0  0  0  0  0  0  0  0  0
   -0.8063    0.9577    0.2853 H   0  0  0  0  0  0  0  0  0  0  0  0
    1.6246    1.5081   -0.2523 H   0  0  0  0  0  0  0  0  0  0  0  0
    2.0481   -0.1656    0.0490 H   0  0  0  0  0  0  0  0  0  0  0  0
    1.2328    0.0629    2.4234 H   0  0  0  0  0  0  0  0  0  0  0  0
    0.7904    1.7412    2.0975 H   0  0  0  0  0  0  0  0  0  0  0  0
    3.6180    0.5842    1.8528 H   0  0  0  0  0  0  0  0  0  0  0  0
    3.1745    2.2694    1.5690 H   0  0  0  0  0  0  0  0  0  0  0  0
    2.8125    0.7855    4.2336 H   0  0  0  0  0  0  0  0  0  0  0  0
    2.4035    2.4817    3.9395 H   0  0  0  0  0  0  0  0  0  0  0  0
    4.9752    2.0186    3.0988 H   0  0  0  0  0  0  0  0  0  0  0  0
    4.4412    2.9818    4.3044 H   0  0  0  0  0  0  0  0  0  0  0  0
    0.4596    1.1364   -2.2260 N   0  0  0  0  0  0  0  0  0  0  0  0
    0.5363    1.2534   -3.6644 C   0  0  2  0  0  0  0  0  0  0  0  0
    1.8574    1.9270   -4.0117 C   0  0  0  0  0  0  0  0  0  0  0  0
    2.3758    2.7902   -3.3067 O   0  0  0  0  0  0  0  0  0  0  0  0
   -0.6389    2.0435   -4.2188 C   0  0  0  0  0  0  0  0  0  0  0  0
    0.8949    1.8690   -1.6735 H   0  0  0  0  0  0  0  0  0  0  0  0
    0.5290    0.2340   -4.0655 H   0  0  0  0  0  0  0  0  0  0  0  0
   -0.6482    3.0676   -3.8282 H   0  0  0  0  0  0  0  0  0  0  0  0
   -0.5945    2.1068   -5.3111 H   0  0  0  0  0  0  0  0  0  0  0  0
   -1.5892    1.5738   -3.9428 H   0  0  0  0  0  0  0  0  0  0  0  0
    2.3676    1.4818   -5.2231 N   0  0  0  0  0  0  0  0  0  0  0  0
    3.5895    2.0004   -5.7923 C   0  0  0  0  0  0  0  0  0  0  0  0
    1.8925    0.7347   -5.7211 H   0  0  0  0  0  0  0  0  0  0  0  0
    3.3540    2.8346   -6.4695 H   0  0  0  0  0  0  0  0  0  0  0  0
    4.2469    2.3574   -4.9858 H   0  0  0  0  0  0  0  0  0  0  0  0
    4.0987    1.2040   -6.3549 H   0  0  0  0  0  0  0  0  0  0  0  0
  1  3  1  0  0  0  0
  1  7  1  0  0  0  0
  1  2  2  0  0  0  0
 39 40  1  0  0  0  0
 40 48  1  0  0  0  0
 40 41  2  0  0  0  0
  8  9  1  0  0  0  0
  9 17  1  0  0  0  0
  9 10  2  0  0  0  0
 18 19  1  0  0  0  0
 19 38  1  0  0  0  0
 19 20  2  0  0  0  0
 39 42  1  0  0  0  0
  8 11  1  0  0  0  0
 48 49  1  0  0  0  0
 22 23  1  0  0  0  0
 21 22  1  0  0  0  0
 23 24  1  0  0  0  0
 18 21  1  0  0  0  0
 24 25  1  0  0  0  0
 38 39  1  0  0  0  0
  7  8  1  0  0  0  0
 17 18  1  0  0  0  0
  3  4  1  0  0  0  0
  3  5  1  0  0  0  0
  3  6  1  0  0  0  0
 42 45  1  0  0  0  0
 42 46  1  0  0  0  0
 42 47  1  0  0  0  0
 11 14  1  0  0  0  0
 11 15  1  0  0  0  0
 11 16  1  0  0  0  0
 49 51  1  0  0  0  0
 49 52  1  0  0  0  0
 49 53  1  0  0  0  0
 22 30  1  0  0  0  0
 22 31  1  0  0  0  0
 23 32  1  0  0  0  0
 23 33  1  0  0  0  0
 21 28  1  0  0  0  0
 21 29  1  0  0  0  0
 24 34  1  0  0  0  0
 24 35  1  0  0  0  0
 39 44  1  0  0  0  0
  8 13  1  0  0  0  0
 18 27  1  0  0  0  0
 25 36  1  0  0  0  0
 25 37  1  0  0  0  0
 48 50  1  0  0  0  0
  7 12  1  0  0  0  0
 38 43  1  0  0  0  0
 17 26  1  0  0  0  0
M  END
$$$$

  -OEChem-05262214473D

 53 52  0     1  0  0  0  0  0999 V2000
   -1.0338   -5.6785    0.1476 C   0  0  0  0  0  0  0  0  0  0  0  0
   -2.0514   -5.7797    0.8227 O   0  0  0  0  0  0  0  0  0  0  0  0
   -0.6558   -6.7819   -0.7841 C   0  0  0  0  0  0  0  0  0  0  0  0
   -0.0111   -7.5354   -0.3038 H   0  0  0  0  0  0  0  0  0  0  0  0
   -1.5317   -7.3401   -1.1520 H   0  0  0  0  0  0  0  0  0  0  0  0
   -0.1109   -6.4687   -1.6890 H   0  0  0  0  0  0  0  0  0  0  0  0
   -0.1543   -4.6083    0.1480 N   0  0  0  0  0  0  0  0  0  0  0  0
   -0.3302   -3.4398    0.9696 C   0  0  2  0  0  0  0  0  0  0  0  0
    0.2328   -2.2439    0.2131 C   0  0  0  0  0  0  0  0  0  0  0  0
    1.2097   -2.3192   -0.5294 O   0  0  0  0  0  0  0  0  0  0  0  0
    0.3557   -3.6024    2.3171 C   0  0  0  0  0  0  0  0  0  0  0  0
    0.6584   -4.6506   -0.4643 H   0  0  0  0  0  0  0  0  0  0  0  0
   -1.4091   -3.3101    1.1082 H   0  0  0  0  0  0  0  0  0  0  0  0
    1.4375   -3.7336    2.1985 H   0  0  0  0  0  0  0  0  0  0  0  0
    0.1969   -2.7243    2.9517 H   0  0  0  0  0  0  0  0  0  0  0  0
   -0.0294   -4.4803    2.8470 H   0  0  0  0  0  0  0  0  0  0  0  0
   -0.4616   -1.0893    0.5050 N   0  0  0  0  0  0  0  0  0  0  0  0
   -0.0884    0.2050   -0.0621 C   0  0  2  0  0  0  0  0  0  0  0  0
   -0.1834    0.0890   -1.5808 C   0  0  0  0  0  0  0  0  0  0  0  0
   -0.9622   -0.6755   -2.1469 O   0  0  0  0  0  0  0  0  0  0  0  0
    1.3368    0.6229    0.3300 C   0  0  0  0  0  0  0  0  0  0  0  0
    1.4884    0.9419    1.8209 C   0  0  0  0  0  0  0  0  0  0  0  0
    2.9190    1.3755    2.1520 C   0  0  0  0  0  0  0  0  0  0  0  0
    3.0759    1.6697    3.6429 C   0  0  0  0  0  0  0  0  0  0  0  0
    4.4495    2.0577    3.9406 N   0  0  0  0  0  0  0  0  0  0  0  0
   -1.2794   -1.1113    1.0935 H   0  0  0  0  0  0  0  0  0  0  0  0
   -0.8063    0.9577    0.2853 H   0  0  0  0  0  0  0  0  0  0  0  0
    1.6246    1.5081   -0.2523 H   0  0  0  0  0  0  0  0  0  0  0  0
    2.0481   -0.1656    0.0490 H   0  0  0  0  0  0  0  0  0  0  0  0
    1.2328    0.0629    2.4234 H   0  0  0  0  0  0  0  0  0  0  0  0
    0.7904    1.7412    2.0975 H   0  0  0  0  0  0  0  0  0  0  0  0
    3.6180    0.5842    1.8528 H   0  0  0  0  0  0  0  0  0  0  0  0
    3.1745    2.2694    1.5690 H   0  0  0  0  0  0  0  0  0  0  0  0
    2.8125    0.7855    4.2336 H   0  0  0  0  0  0  0  0  0  0  0  0
    2.4035    2.4817    3.9395 H   0  0  0  0  0  0  0  0  0  0  0  0
    4.9752    2.0186    3.0988 H   0  0  0  0  0  0  0  0  0  0  0  0
    4.4412    2.9818    4.3044 H   0  0  0  0  0  0  0  0  0  0  0  0
    0.7190    0.9233   -2.2259 N   0  0  0  0  0  0  0  0  0  0  0  0
    0.8486    0.9897   -3.6638 C   0  0  2  0  0  0  0  0  0  0  0  0
    2.3045    1.2939   -3.9913 C   0  0  0  0  0  0  0  0  0  0  0  0
    3.0155    2.0077   -3.2869 O   0  0  0  0  0  0  0  0  0  0  0  0
   -0.0734    2.0451   -4.2544 C   0  0  0  0  0  0  0  0  0  0  0  0
    1.3187    1.5294   -1.6740 H   0  0  0  0  0  0  0  0  0  0  0  0
    0.5858   -0.0008   -4.0511 H   0  0  0  0  0  0  0  0  0  0  0  0
    0.1747    3.0443   -3.8779 H   0  0  0  0  0  0  0  0  0  0  0  0
    0.0050    2.0745   -5.3461 H   0  0  0  0  0  0  0  0  0  0  0  0
   -1.1173    1.8412   -3.9928 H   0  0  0  0  0  0  0  0  0  0  0  0
    2.7039    0.7098   -5.1852 N   0  0  0  0  0  0  0  0  0  0  0  0
    4.0280    0.8857   -5.7345 C   0  0  0  0  0  0  0  0  0  0  0  0
    2.0612    0.1011   -5.6833 H   0  0  0  0  0  0  0  0  0  0  0  0
    4.0275    1.7396   -6.4280 H   0  0  0  0  0  0  0  0  0  0  0  0
    4.7409    1.0765   -4.9188 H   0  0  0  0  0  0  0  0  0  0  0  0
    4.3246   -0.0253   -6.2751 H   0  0  0  0  0  0  0  0  0  0  0  0
  1  3  1  0  0  0  0
  1  7  1  0  0  0  0
  1  2  2  0  0  0  0
 39 40  1  0  0  0  0
 40 48  1  0  0  0  0
 40 41  2  0  0  0  0
  8  9  1  0  0  0  0
  9 17  1  0  0  0  0
  9 10  2  0  0  0  0
 18 19  1  0  0  0  0
 19 38  1  0  0  0  0
 19 20  2  0  0  0  0
 39 42  1  0  0  0  0
  8 11  1  0  0  0  0
 48 49  1  0  0  0  0
 22 23  1  0  0  0  0
 21 22  1  0  0  0  0
 23 24  1  0  0  0  0
 18 21  1  0  0  0  0
 24 25  1  0  0  0  0
 38 39  1  0  0  0  0
  7  8  1  0  0  0  0
 17 18  1  0  0  0  0
  3  4  1  0  0  0  0
  3  5  1  0  0  0  0
  3  6  1  0  0  0  0
 42 45  1  0  0  0  0
 42 46  1  0  0  0  0
 42 47  1  0  0  0  0
 11 14  1  0  0  0  0
 11 15  1  0  0  0  0
 11 16  1  0  0  0  0
 49 51  1  0  0  0  0
 49 52  1  0  0  0  0
 49 53  1  0  0  0  0
 22 30  1  0  0  0  0
 22 31  1  0  0  0  0
 23 32  1  0  0  0  0
 23 33  1  0  0  0  0
 21 28  1  0  0  0  0
 21 29  1  0  0  0  0
 24 34  1  0  0  0  0
 24 35  1  0  0  0  0
 39 44  1  0  0  0  0
  8 13  1  0  0  0  0
 18 27  1  0  0  0  0
 25 36  1  0  0  0  0
 25 37  1  0  0  0  0
 48 50  1  0  0  0  0
  7 12  1  0  0  0  0
 38 43  1  0  0  0  0
 17 26  1  0  0  0  0
M  END
$$$$

  -OEChem-05262214473D

 53 52  0     1  0  0  0  0  0999 V2000
   -1.0338   -5.6785    0.1476 C   0  0  0  0  0  0  0  0  0  0  0  0
   -2.0514   -5.7797    0.8227 O   0  0  0  0  0  0  0  0  0  0  0  0
   -0.6558   -6.7819   -0.7841 C   0  0  0  0  0  0  0  0  0  0  0  0
   -0.0111   -7.5354   -0.3038 H   0  0  0  0  0  0  0  0  0  0  0  0
   -1.5317   -7.3401   -1.1520 H   0  0  0  0  0  0  0  0  0  0  0  0
   -0.1109   -6.4687   -1.6890 H   0  0  0  0  0  0  0  0  0  0  0  0
   -0.1543   -4.6083    0.1480 N   0  0  0  0  0  0  0  0  0  0  0  0
   -0.3302   -3.4398    0.9696 C   0  0  2  0  0  0  0  0  0  0  0  0
    0.2328   -2.2439    0.2131 C   0  0  0  0  0  0  0  0  0  0  0  0
    1.2097   -2.3192   -0.5294 O   0  0  0  0  0  0  0  0  0  0  0  0
    0.3557   -3.6024    2.3171 C   0  0  0  0  0  0  0  0  0  0  0  0
    0.6584   -4.6506   -0.4643 H   0  0  0  0  0  0  0  0  0  0  0  0
   -1.4091   -3.3101    1.1082 H   0  0  0  0  0  0  0  0  0  0  0  0
    1.4375   -3.7336    2.1985 H   0  0  0  0  0  0  0  0  0  0  0  0
    0.1969   -2.7243    2.9517 H   0  0  0  0  0  0  0  0  0  0  0  0
   -0.0294   -4.4803    2.8470 H   0  0  0  0  0  0  0  0  0  0  0  0
   -0.4616   -1.0893    0.5050 N   0  0  0  0  0  0  0  0  0  0  0  0
   -0.0884    0.2050   -0.0621 C   0  0  2  0  0  0  0  0  0  0  0  0
   -0.1834    0.0890   -1.5808 C   0  0  0  0  0  0  0  0  0  0  0  0
   -1.1228   -0.4598   -2.1533 O   0  0  0  0  0  0  0  0  0  0  0  0
    1.3368    0.6229    0.3300 C   0  0  0  0  0  0  0  0  0  0  0  0
    1.4884    0.9419    1.8209 C   0  0  0  0  0  0  0  0  0  0  0  0
    2.9190    1.3755    2.1520 C   0  0  0  0  0  0  0  0  0  0  0  0
    3.0759    1.6697    3.6429 C   0  0  0  0  0  0  0  0  0  0  0  0
    4.4495    2.0577    3.9406 N   0  0  0  0  0  0  0  0  0  0  0  0
   -1.2794   -1.1113    1.0935 H   0  0  0  0  0  0  0  0  0  0  0  0
   -0.8063    0.9577    0.2853 H   0  0  0  0  0  0  0  0  0  0  0  0
    1.6246    1.5081   -0.2523 H   0  0  0  0  0  0  0  0  0  0  0  0
    2.0481   -0.1656    0.0490 H   0  0  0  0  0  0  0  0  0  0  0  0
    1.2328    0.0629    2.4234 H   0  0  0  0  0  0  0  0  0  0  0  0
    0.7904    1.7412    2.0975 H   0  0  0  0  0  0  0  0  0  0  0  0
    3.6180    0.5842    1.8528 H   0  0  0  0  0  0  0  0  0  0  0  0
    3.1745    2.2694    1.5690 H   0  0  0  0  0  0  0  0  0  0  0  0
    2.8125    0.7855    4.2336 H   0  0  0  0  0  0  0  0  0  0  0  0
    2.4035    2.4817    3.9395 H   0  0  0  0  0  0  0  0  0  0  0  0
    4.9752    2.0186    3.0988 H   0  0  0  0  0  0  0  0  0  0  0  0
    4.4412    2.9818    4.3044 H   0  0  0  0  0  0  0  0  0  0  0  0
    0.9147    0.6507   -2.2173 N   0  0  0  0  0  0  0  0  0  0  0  0
    1.0823    0.6546   -3.6528 C   0  0  2  0  0  0  0  0  0  0  0  0
    2.5729    0.5676   -3.9526 C   0  0  0  0  0  0  0  0  0  0  0  0
    3.4314    1.0873   -3.2426 O   0  0  0  0  0  0  0  0  0  0  0  0
    0.4740    1.9005   -4.2776 C   0  0  0  0  0  0  0  0  0  0  0  0
    1.6406    1.0922   -1.6608 H   0  0  0  0  0  0  0  0  0  0  0  0
    0.5799   -0.2419   -4.0323 H   0  0  0  0  0  0  0  0  0  0  0  0
    0.9645    2.8090   -3.9094 H   0  0  0  0  0  0  0  0  0  0  0  0
    0.5765    1.8883   -5.3677 H   0  0  0  0  0  0  0  0  0  0  0  0
   -0.5917    1.9771   -4.0361 H   0  0  0  0  0  0  0  0  0  0  0  0
    2.8292   -0.1219   -5.1295 N   0  0  0  0  0  0  0  0  0  0  0  0
    4.1634   -0.3030   -5.6522 C   0  0  0  0  0  0  0  0  0  0  0  0
    2.0602   -0.5538   -5.6332 H   0  0  0  0  0  0  0  0  0  0  0  0
    4.3951    0.5091   -6.3570 H   0  0  0  0  0  0  0  0  0  0  0  0
    4.8869   -0.2870   -4.8238 H   0  0  0  0  0  0  0  0  0  0  0  0
    4.2246   -1.2696   -6.1738 H   0  0  0  0  0  0  0  0  0  0  0  0
  1  3  1  0  0  0  0
  1  7  1  0  0  0  0
  1  2  2  0  0  0  0
 39 40  1  0  0  0  0
 40 48  1  0  0  0  0
 40 41  2  0  0  0  0
  8  9  1  0  0  0  0
  9 17  1  0  0  0  0
  9 10  2  0  0  0  0
 18 19  1  0  0  0  0
 19 38  1  0  0  0  0
 19 20  2  0  0  0  0
 39 42  1  0  0  0  0
  8 11  1  0  0  0  0
 48 49  1  0  0  0  0
 22 23  1  0  0  0  0
 21 22  1  0  0  0  0
 23 24  1  0  0  0  0
 18 21  1  0  0  0  0
 24 25  1  0  0  0  0
 38 39  1  0  0  0  0
  7  8  1  0  0  0  0
 17 18  1  0  0  0  0
  3  4  1  0  0  0  0
  3  5  1  0  0  0  0
  3  6  1  0  0  0  0
 42 45  1  0  0  0  0
 42 46  1  0  0  0  0
 42 47  1  0  0  0  0
 11 14  1  0  0  0  0
 11 15  1  0  0  0  0
 11 16  1  0  0  0  0
 49 51  1  0  0  0  0
 49 52  1  0  0  0  0
 49 53  1  0  0  0  0
 22 30  1  0  0  0  0
 22 31  1  0  0  0  0
 23 32  1  0  0  0  0
 23 33  1  0  0  0  0
 21 28  1  0  0  0  0
 21 29  1  0  0  0  0
 24 34  1  0  0  0  0
 24 35  1  0  0  0  0
 39 44  1  0  0  0  0
  8 13  1  0  0  0  0
 18 27  1  0  0  0  0
 25 36  1  0  0  0  0
 25 37  1  0  0  0  0
 48 50  1  0  0  0  0
  7 12  1  0  0  0  0
 38 43  1  0  0  0  0
 17 26  1  0  0  0  0
M  END
$$$$

  -OEChem-05262214473D

 53 52  0     1  0  0  0  0  0999 V2000
   -1.0338   -5.6785    0.1476 C   0  0  0  0  0  0  0  0  0  0  0  0
   -2.0514   -5.7797    0.8227 O   0  0  0  0  0  0  0  0  0  0  0  0
   -0.6558   -6.7819   -0.7841 C   0  0  0  0  0  0  0  0  0  0  0  0
   -0.0111   -7.5354   -0.3038 H   0  0  0  0  0  0  0  0  0  0  0  0
   -1.5317   -7.3401   -1.1520 H   0  0  0  0  0  0  0  0  0  0  0  0
   -0.1109   -6.4687   -1.6890 H   0  0  0  0  0  0  0  0  0  0  0  0
   -0.1543   -4.6083    0.1480 N   0  0  0  0  0  0  0  0  0  0  0  0
   -0.3302   -3.4398    0.9696 C   0  0  2  0  0  0  0  0  0  0  0  0
    0.2328   -2.2439    0.2131 C   0  0  0  0  0  0  0  0  0  0  0  0
    1.2097   -2.3192   -0.5294 O   0  0  0  0  0  0  0  0  0  0  0  0
    0.3557   -3.6024    2.3171 C   0  0  0  0  0  0  0  0  0  0  0  0
    0.6584   -4.6506   -0.4643 H   0  0  0  0  0  0  0  0  0  0  0  0
   -1.4091   -3.3101    1.1082 H   0  0  0  0  0  0  0  0  0  0  0  0
    1.4375   -3.7336    2.1985 H   0  0  0  0  0  0  0  0  0  0  0  0
    0.1969   -2.7243    2.9517 H   0  0  0  0  0  0  0  0  0  0  0  0
   -0.0294   -4.4803    2.8470 H   0  0  0  0  0  0  0  0  0  0  0  0
   -0.4616   -1.0893    0.5050 N   0  0  0  0  0  0  0  0  0  0  0  0
   -0.0884    0.2050   -0.0621 C   0  0  2  0  0  0  0  0  0  0  0  0
   -0.1834    0.0890   -1.5808 C   0  0  0  0  0  0  0  0  0  0  0  0
   -1.2223   -0.2101   -2.1662 O   0  0  0  0  0  0  0  0  0  0  0  0
    1.3368    0.6229    0.3300 C   0  0  0  0  0  0  0  0  0  0  0  0
    1.4884    0.9419    1.8209 C   0  0  0  0  0  0  0  0  0  0  0  0
    2.9190    1.3755    2.1520 C   0  0  0  0  0  0  0  0  0  0  0  0
    3.0759    1.6697    3.6429 C   0  0  0  0  0  0  0  0  0  0  0  0
    4.4495    2.0577    3.9406 N   0  0  0  0  0  0  0  0  0  0  0  0
   -1.2794   -1.1113    1.0935 H   0  0  0  0  0  0  0  0  0  0  0  0
   -0.8063    0.9577    0.2853 H   0  0  0  0  0  0  0  0  0  0  0  0
    1.6246    1.5081   -0.2523 H   0  0  0  0  0  0  0  0  0  0  0  0
    2.0481   -0.1656    0.0490 H   0  0  0  0  0  0  0  0  0  0  0  0
    1.2328    0.0629    2.4234 H   0  0  0  0  0  0  0  0  0  0  0  0
    0.7904    1.7412    2.0975 H   0  0  0  0  0  0  0  0  0  0  0  0
    3.6180    0.5842    1.8528 H   0  0  0  0  0  0  0  0  0  0  0  0
    3.1745    2.2694    1.5690 H   0  0  0  0  0  0  0  0  0  0  0  0
    2.8125    0.7855    4.2336 H   0  0  0  0  0  0  0  0  0  0  0  0
    2.4035    2.4817    3.9395 H   0  0  0  0  0  0  0  0  0  0  0  0
    4.9752    2.0186    3.0988 H   0  0  0  0  0  0  0  0  0  0  0  0
    4.4412    2.9818    4.3044 H   0  0  0  0  0  0  0  0  0  0  0  0
    1.0334    0.3371   -2.2008 N   0  0  0  0  0  0  0  0  0  0  0  0
    1.2215    0.2709   -3.6322 C   0  0  2  0  0  0  0  0  0  0  0  0
    2.6444   -0.2024   -3.8983 C   0  0  0  0  0  0  0  0  0  0  0  0
    3.5951    0.0920   -3.1768 O   0  0  0  0  0  0  0  0  0  0  0  0
    0.9659    1.6195   -4.2869 C   0  0  0  0  0  0  0  0  0  0  0  0
    1.8387    0.5872   -1.6346 H   0  0  0  0  0  0  0  0  0  0  0  0
    0.5118   -0.4731   -4.0104 H   0  0  0  0  0  0  0  0  0  0  0  0
    1.6675    2.3778   -3.9204 H   0  0  0  0  0  0  0  0  0  0  0  0
    1.0809    1.5609   -5.3743 H   0  0  0  0  0  0  0  0  0  0  0  0
   -0.0481    1.9723   -4.0697 H   0  0  0  0  0  0  0  0  0  0  0  0
    2.7350   -0.9566   -5.0598 N   0  0  0  0  0  0  0  0  0  0  0  0
    3.9863   -1.4848   -5.5508 C   0  0  0  0  0  0  0  0  0  0  0  0
    1.8895   -1.1854   -5.5742 H   0  0  0  0  0  0  0  0  0  0  0  0
    4.4318   -0.7730   -6.2613 H   0  0  0  0  0  0  0  0  0  0  0  0
    4.6749   -1.6400   -4.7071 H   0  0  0  0  0  0  0  0  0  0  0  0
    3.8055   -2.4441   -6.0578 H   0  0  0  0  0  0  0  0  0  0  0  0
  1  3  1  0  0  0  0
  1  7  1  0  0  0  0
  1  2  2  0  0  0  0
 39 40  1  0  0  0  0
 40 48  1  0  0  0  0
 40 41  2  0  0  0  0
  8  9  1  0  0  0  0
  9 17  1  0  0  0  0
  9 10  2  0  0  0  0
 18 19  1  0  0  0  0
 19 38  1  0  0  0  0
 19 20  2  0  0  0  0
 39 42  1  0  0  0  0
  8 11  1  0  0  0  0
 48 49  1  0  0  0  0
 22 23  1  0  0  0  0
 21 22  1  0  0  0  0
 23 24  1  0  0  0  0
 18 21  1  0  0  0  0
 24 25  1  0  0  0  0
 38 39  1  0  0  0  0
  7  8  1  0  0  0  0
 17 18  1  0  0  0  0
  3  4  1  0  0  0  0
  3  5  1  0  0  0  0
  3  6  1  0  0  0  0
 42 45  1  0  0  0  0
 42 46  1  0  0  0  0
 42 47  1  0  0  0  0
 11 14  1  0  0  0  0
 11 15  1  0  0  0  0
 11 16  1  0  0  0  0
 49 51  1  0  0  0  0
 49 52  1  0  0  0  0
 49 53  1  0  0  0  0
 22 30  1  0  0  0  0
 22 31  1  0  0  0  0
 23 32  1  0  0  0  0
 23 33  1  0  0  0  0
 21 28  1  0  0  0  0
 21 29  1  0  0  0  0
 24 34  1  0  0  0  0
 24 35  1  0  0  0  0
 39 44  1  0  0  0  0
  8 13  1  0  0  0  0
 18 27  1  0  0  0  0
 25 36  1  0  0  0  0
 25 37  1  0  0  0  0
 48 50  1  0  0  0  0
  7 12  1  0  0  0  0
 38 43  1  0  0  0  0
 17 26  1  0  0  0  0
M  END
$$$$

  -OEChem-05262214473D

 53 52  0     1  0  0  0  0  0999 V2000
   -1.0338   -5.6785    0.1476 C   0  0  0  0  0  0  0  0  0  0  0  0
   -2.0514   -5.7797    0.8227 O   0  0  0  0  0  0  0  0  0  0  0  0
   -0.6558   -6.7819   -0.7841 C   0  0  0  0  0  0  0  0  0  0  0  0
   -0.0111   -7.5354   -0.3038 H   0  0  0  0  0  0  0  0  0  0  0  0
   -1.5317   -7.3401   -1.1520 H   0  0  0  0  0  0  0  0  0  0  0  0
   -0.1109   -6.4687   -1.6890 H   0  0  0  0  0  0  0  0  0  0  0  0
   -0.1543   -4.6083    0.1480 N   0  0  0  0  0  0  0  0  0  0  0  0
   -0.3302   -3.4398    0.9696 C   0  0  2  0  0  0  0  0  0  0  0  0
    0.2328   -2.2439    0.2131 C   0  0  0  0  0  0  0  0  0  0  0  0
    1.2097   -2.3192   -0.5294 O   0  0  0  0  0  0  0  0  0  0  0  0
    0.3557   -3.6024    2.3171 C   0  0  0  0  0  0  0  0  0  0  0  0
    0.6584   -4.6506   -0.4643 H   0  0  0  0  0  0  0  0  0  0  0  0
   -1.4091   -3.3101    1.1082 H   0  0  0  0  0  0  0  0  0  0  0  0
    1.4375   -3.7336    2.1985 H   0  0  0  0  0  0  0  0  0  0  0  0
    0.1969   -2.7243    2.9517 H   0  0  0  0  0  0  0  0  0  0  0  0
   -0.0294   -4.4803    2.8470 H   0  0  0  0  0  0  0  0  0  0  0  0
   -0.4616   -1.0893    0.5050 N   0  0  0  0  0  0  0  0  0  0  0  0
   -0.0884    0.2050   -0.0621 C   0  0  2  0  0  0  0  0  0  0  0  0
   -0.1834    0.0890   -1.5808 C   0  0  0  0  0  0  0  0  0  0  0  0
   -1.2539    0.0565   -2.1846 O   0  0  0  0  0  0  0  0  0  0  0  0
    1.3368    0.6229    0.3300 C   0  0  0  0  0  0  0  0  0  0  0  0
    1.4884    0.9419    1.8209 C   0  0  0  0  0  0  0  0  0  0  0  0
    2.9190    1.3755    2.1520 C   0  0  0  0  0  0  0  0  0  0  0  0
    3.0759    1.6697    3.6429 C   0  0  0  0  0  0  0  0  0  0  0  0
    4.4495    2.0577    3.9406 N   0  0  0  0  0  0  0  0  0  0  0  0
   -1.2794   -1.1113    1.0935 H   0  0  0  0  0  0  0  0  0  0  0  0
   -0.8063    0.9577    0.2853 H   0  0  0  0  0  0  0  0  0  0  0  0
    1.6246    1.5081   -0.2523 H   0  0  0  0  0  0  0  0  0  0  0  0
    2.0481   -0.1656    0.0490 H   0  0  0  0  0  0  0  0  0  0  0  0
    1.2328    0.0629    2.4234 H   0  0  0  0  0  0  0  0  0  0  0  0
    0.7904    1.7412    2.0975 H   0  0  0  0  0  0  0  0  0  0  0  0
    3.6180    0.5842    1.8528 H   0  0  0  0  0  0  0  0  0  0  0  0
    3.1745    2.2694    1.5690 H   0  0  0  0  0  0  0  0  0  0  0  0
    2.8125    0.7855    4.2336 H   0  0  0  0  0  0  0  0  0  0  0  0
    2.4035    2.4817    3.9395 H   0  0  0  0  0  0  0  0  0  0  0  0
    4.9752    2.0186    3.0988 H   0  0  0  0  0  0  0  0  0  0  0  0
    4.4412    2.9818    4.3044 H   0  0  0  0  0  0  0  0  0  0  0  0
    1.0670    0.0039   -2.1774 N   0  0  0  0  0  0  0  0  0  0  0  0
    1.2567   -0.1353   -3.6034 C   0  0  2  0  0  0  0  0  0  0  0  0
    2.5140   -0.9638   -3.8319 C   0  0  0  0  0  0  0  0  0  0  0  0
    3.4957   -0.9106   -3.0940 O   0  0  0  0  0  0  0  0  0  0  0  0
    1.3689    1.2212   -4.2817 C   0  0  0  0  0  0  0  0  0  0  0  0
    1.8994    0.0488   -1.5973 H   0  0  0  0  0  0  0  0  0  0  0  0
    0.3860   -0.6784   -3.9868 H   0  0  0  0  0  0  0  0  0  0  0  0
    2.2356    1.7801   -3.9103 H   0  0  0  0  0  0  0  0  0  0  0  0
    1.4840    1.1146   -5.3654 H   0  0  0  0  0  0  0  0  0  0  0  0
    0.4764    1.8271   -4.0915 H   0  0  0  0  0  0  0  0  0  0  0  0
    2.4276   -1.7374   -4.9809 N   0  0  0  0  0  0  0  0  0  0  0  0
    3.5089   -2.5790   -5.4373 C   0  0  0  0  0  0  0  0  0  0  0  0
    1.5609   -1.7505   -5.5105 H   0  0  0  0  0  0  0  0  0  0  0  0
    4.1353   -2.0193   -6.1475 H   0  0  0  0  0  0  0  0  0  0  0  0
    4.1193   -2.8905   -4.5768 H   0  0  0  0  0  0  0  0  0  0  0  0
    3.0959   -3.4688   -5.9351 H   0  0  0  0  0  0  0  0  0  0  0  0
  1  3  1  0  0  0  0
  1  7  1  0  0  0  0
  1  2  2  0  0  0  0
 39 40  1  0  0  0  0
 40 48  1  0  0  0  0
 40 41  2  0  0  0  0
  8  9  1  0  0  0  0
  9 17  1  0  0  0  0
  9 10  2  0  0  0  0
 18 19  1  0  0  0  0
 19 38  1  0  0  0  0
 19 20  2  0  0  0  0
 39 42  1  0  0  0  0
  8 11  1  0  0  0  0
 48 49  1  0  0  0  0
 22 23  1  0  0  0  0
 21 22  1  0  0  0  0
 23 24  1  0  0  0  0
 18 21  1  0  0  0  0
 24 25  1  0  0  0  0
 38 39  1  0  0  0  0
  7  8  1  0  0  0  0
 17 18  1  0  0  0  0
  3  4  1  0  0  0  0
  3  5  1  0  0  0  0
  3  6  1  0  0  0  0
 42 45  1  0  0  0  0
 42 46  1  0  0  0  0
 42 47  1  0  0  0  0
 11 14  1  0  0  0  0
 11 15  1  0  0  0  0
 11 16  1  0  0  0  0
 49 51  1  0  0  0  0
 49 52  1  0  0  0  0
 49 53  1  0  0  0  0
 22 30  1  0  0  0  0
 22 31  1  0  0  0  0
 23 32  1  0  0  0  0
 23 33  1  0  0  0  0
 21 28  1  0  0  0  0
 21 29  1  0  0  0  0
 24 34  1  0  0  0  0
 24 35  1  0  0  0  0
 39 44  1  0  0  0  0
  8 13  1  0  0  0  0
 18 27  1  0  0  0  0
 25 36  1  0  0  0  0
 25 37  1  0  0  0  0
 48 50  1  0  0  0  0
  7 12  1  0  0  0  0
 38 43  1  0  0  0  0
 17 26  1  0  0  0  0
M  END
$$$$

  -OEChem-05262214473D

 53 52  0     1  0  0  0  0  0999 V2000
   -1.0338   -5.6785    0.1476 C   0  0  0  0  0  0  0  0  0  0  0  0
   -2.0514   -5.7797    0.8227 O   0  0  0  0  0  0  0  0  0  0  0  0
   -0.6558   -6.7819   -0.7841 C   0  0  0  0  0  0  0  0  0  0  0  0
   -0.0111   -7.5354   -0.3038 H   0  0  0  0  0  0  0  0  0  0  0  0
   -1.5317   -7.3401   -1.1520 H   0  0  0  0  0  0  0  0  0  0  0  0
   -0.1109   -6.4687   -1.6890 H   0  0  0  0  0  0  0  0  0  0  0  0
   -0.1543   -4.6083    0.1480 N   0  0  0  0  0  0  0  0  0  0  0  0
   -0.3302   -3.4398    0.9696 C   0  0  2  0  0  0  0  0  0  0  0  0
    0.2328   -2.2439    0.2131 C   0  0  0  0  0  0  0  0  0  0  0  0
    1.2097   -2.3192   -0.5294 O   0  0  0  0  0  0  0  0  0  0  0  0
    0.3557   -3.6024    2.3171 C   0  0  0  0  0  0  0  0  0  0  0  0
    0.6584   -4.6506   -0.4643 H   0  0  0  0  0  0  0  0  0  0  0  0
   -1.4091   -3.3101    1.1082 H   0  0  0  0  0  0  0  0  0  0  0  0
    1.4375   -3.7336    2.1985 H   0  0  0  0  0  0  0  0  0  0  0  0
    0.1969   -2.7243    2.9517 H   0  0  0  0  0  0  0  0  0  0  0  0
   -0.0294   -4.4803    2.8470 H   0  0  0  0  0  0  0  0  0  0  0  0
   -0.4616   -1.0893    0.5050 N   0  0  0  0  0  0  0  0  0  0  0  0
   -0.0884    0.2050   -0.0621 C   0  0  2  0  0  0  0  0  0  0  0  0
   -0.1834    0.0890   -1.5808 C   0  0  0  0  0  0  0  0  0  0  0  0
   -1.2153    0.3219   -2.2073 O   0  0  0  0  0  0  0  0  0  0  0  0
    1.3368    0.6229    0.3300 C   0  0  0  0  0  0  0  0  0  0  0  0
    1.4884    0.9419    1.8209 C   0  0  0  0  0  0  0  0  0  0  0  0
    2.9190    1.3755    2.1520 C   0  0  0  0  0  0  0  0  0  0  0  0
    3.0759    1.6697    3.6429 C   0  0  0  0  0  0  0  0  0  0  0  0
    4.4495    2.0577    3.9406 N   0  0  0  0  0  0  0  0  0  0  0  0
   -1.2794   -1.1113    1.0935 H   0  0  0  0  0  0  0  0  0  0  0  0
   -0.8063    0.9577    0.2853 H   0  0  0  0  0  0  0  0  0  0  0  0
    1.6246    1.5081   -0.2523 H   0  0  0  0  0  0  0  0  0  0  0  0
    2.0481   -0.1656    0.0490 H   0  0  0  0  0  0  0  0  0  0  0  0
    1.2328    0.0629    2.4234 H   0  0  0  0  0  0  0  0  0  0  0  0
    0.7904    1.7412    2.0975 H   0  0  0  0  0  0  0  0  0  0  0  0
    3.6180    0.5842    1.8528 H   0  0  0  0  0  0  0  0  0  0  0  0
    3.1745    2.2694    1.5690 H   0  0  0  0  0  0  0  0  0  0  0  0
    2.8125    0.7855    4.2336 H   0  0  0  0  0  0  0  0  0  0  0  0
    2.4035    2.4817    3.9395 H   0  0  0  0  0  0  0  0  0  0  0  0
    4.9752    2.0186    3.0988 H   0  0  0  0  0  0  0  0  0  0  0  0
    4.4412    2.9818    4.3044 H   0  0  0  0  0  0  0  0  0  0  0  0
    1.0131   -0.3262   -2.1488 N   0  0  0  0  0  0  0  0  0  0  0  0
    1.1855   -0.5362   -3.5683 C   0  0  2  0  0  0  0  0  0  0  0  0
    2.1906   -1.6646   -3.7581 C   0  0  0  0  0  0  0  0  0  0  0  0
    3.1398   -1.8521   -2.9998 O   0  0  0  0  0  0  0  0  0  0  0  0
    1.6555    0.7328   -4.2623 C   0  0  0  0  0  0  0  0  0  0  0  0
    1.8186   -0.4862   -1.5513 H   0  0  0  0  0  0  0  0  0  0  0  0
    0.2112   -0.8440   -3.9632 H   0  0  0  0  0  0  0  0  0  0  0  0
    2.6303    1.0566   -3.8798 H   0  0  0  0  0  0  0  0  0  0  0  0
    1.7582    0.5799   -5.3417 H   0  0  0  0  0  0  0  0  0  0  0  0
    0.9461    1.5514   -4.0998 H   0  0  0  0  0  0  0  0  0  0  0  0
    1.9280   -2.4112   -4.8982 N   0  0  0  0  0  0  0  0  0  0  0  0
    2.7637   -3.5112   -5.3194 C   0  0  0  0  0  0  0  0  0  0  0  0
    1.0966   -2.2106   -5.4463 H   0  0  0  0  0  0  0  0  0  0  0  0
    3.5255   -3.1450   -6.0234 H   0  0  0  0  0  0  0  0  0  0  0  0
    3.2580   -3.9531   -4.4417 H   0  0  0  0  0  0  0  0  0  0  0  0
    2.1441   -4.2738   -5.8140 H   0  0  0  0  0  0  0  0  0  0  0  0
  1  3  1  0  0  0  0
  1  7  1  0  0  0  0
  1  2  2  0  0  0  0
 39 40  1  0  0  0  0
 40 48  1  0  0  0  0
 40 41  2  0  0  0  0
  8  9  1  0  0  0  0
  9 17  1  0  0  0  0
  9 10  2  0  0  0  0
 18 19  1  0  0  0  0
 19 38  1  0  0  0  0
 19 20  2  0  0  0  0
 39 42  1  0  0  0  0
  8 11  1  0  0  0  0
 48 49  1  0  0  0  0
 22 23  1  0  0  0  0
 21 22  1  0  0  0  0
 23 24  1  0  0  0  0
 18 21  1  0  0  0  0
 24 25  1  0  0  0  0
 38 39  1  0  0  0  0
  7  8  1  0  0  0  0
 17 18  1  0  0  0  0
  3  4  1  0  0  0  0
  3  5  1  0  0  0  0
  3  6  1  0  0  0  0
 42 45  1  0  0  0  0
 42 46  1  0  0  0  0
 42 47  1  0  0  0  0
 11 14  1  0  0  0  0
 11 15  1  0  0  0  0
 11 16  1  0  0  0  0
 49 51  1  0  0  0  0
 49 52  1  0  0  0  0
 49 53  1  0  0  0  0
 22 30  1  0  0  0  0
 22 31  1  0  0  0  0
 23 32  1  0  0  0  0
 23 33  1  0  0  0  0
 21 28  1  0  0  0  0
 21 29  1  0  0  0  0
 24 34  1  0  0  0  0
 24 35  1  0  0  0  0
 39 44  1  0  0  0  0
  8 13  1  0  0  0  0
 18 27  1  0  0  0  0
 25 36  1  0  0  0  0
 25 37  1  0  0  0  0
 48 50  1  0  0  0  0
  7 12  1  0  0  0  0
 38 43  1  0  0  0  0
 17 26  1  0  0  0  0
M  END
$$$$

  -OEChem-05262214473D

 53 52  0     1  0  0  0  0  0999 V2000
   -1.0338   -5.6785    0.1476 C   0  0  0  0  0  0  0  0  0  0  0  0
   -2.0514   -5.7797    0.8227 O   0  0  0  0  0  0  0  0  0  0  0  0
   -0.6558   -6.7819   -0.7841 C   0  0  0  0  0  0  0  0  0  0  0  0
   -0.0111   -7.5354   -0.3038 H   0  0  0  0  0  0  0  0  0  0  0  0
   -1.5317   -7.3401   -1.1520 H   0  0  0  0  0  0  0  0  0  0  0  0
   -0.1109   -6.4687   -1.6890 H   0  0  0  0  0  0  0  0  0  0  0  0
   -0.1543   -4.6083    0.1480 N   0  0  0  0  0  0  0  0  0  0  0  0
   -0.3302   -3.4398    0.9696 C   0  0  2  0  0  0  0  0  0  0  0  0
    0.2328   -2.2439    0.2131 C   0  0  0  0  0  0  0  0  0  0  0  0
    1.2097   -2.3192   -0.5294 O   0  0  0  0  0  0  0  0  0  0  0  0
    0.3557   -3.6024    2.3171 C   0  0  0  0  0  0  0  0  0  0  0  0
    0.6584   -4.6506   -0.4643 H   0  0  0  0  0  0  0  0  0  0  0  0
   -1.4091   -3.3101    1.1082 H   0  0  0  0  0  0  0  0  0  0  0  0
    1.4375   -3.7336    2.1985 H   0  0  0  0  0  0  0  0  0  0  0  0
    0.1969   -2.7243    2.9517 H   0  0  0  0  0  0  0  0  0  0  0  0
   -0.0294   -4.4803    2.8470 H   0  0  0  0  0  0  0  0  0  0  0  0
   -0.4616   -1.0893    0.5050 N   0  0  0  0  0  0  0  0  0  0  0  0
   -0.0884    0.2050   -0.0621 C   0  0  2  0  0  0  0  0  0  0  0  0
   -0.1834    0.0890   -1.5808 C   0  0  0  0  0  0  0  0  0  0  0  0
   -1.1093    0.5679   -2.2327 O   0  0  0  0  0  0  0  0  0  0  0  0
    1.3368    0.6229    0.3300 C   0  0  0  0  0  0  0  0  0  0  0  0
    1.4884    0.9419    1.8209 C   0  0  0  0  0  0  0  0  0  0  0  0
    2.9190    1.3755    2.1520 C   0  0  0  0  0  0  0  0  0  0  0  0
    3.0759    1.6697    3.6429 C   0  0  0  0  0  0  0  0  0  0  0  0
    4.4495    2.0577    3.9406 N   0  0  0  0  0  0  0  0  0  0  0  0
   -1.2794   -1.1113    1.0935 H   0  0  0  0  0  0  0  0  0  0  0  0
   -0.8063    0.9577    0.2853 H   0  0  0  0  0  0  0  0  0  0  0  0
    1.6246    1.5081   -0.2523 H   0  0  0  0  0  0  0  0  0  0  0  0
    2.0481   -0.1656    0.0490 H   0  0  0  0  0  0  0  0  0  0  0  0
    1.2328    0.0629    2.4234 H   0  0  0  0  0  0  0  0  0  0  0  0
    0.7904    1.7412    2.0975 H   0  0  0  0  0  0  0  0  0  0  0  0
    3.6180    0.5842    1.8528 H   0  0  0  0  0  0  0  0  0  0  0  0
    3.1745    2.2694    1.5690 H   0  0  0  0  0  0  0  0  0  0  0  0
    2.8125    0.7855    4.2336 H   0  0  0  0  0  0  0  0  0  0  0  0
    2.4035    2.4817    3.9395 H   0  0  0  0  0  0  0  0  0  0  0  0
    4.9752    2.0186    3.0988 H   0  0  0  0  0  0  0  0  0  0  0  0
    4.4412    2.9818    4.3044 H   0  0  0  0  0  0  0  0  0  0  0  0
    0.8754   -0.6308   -2.1170 N   0  0  0  0  0  0  0  0  0  0  0  0
    1.0128   -0.9046   -3.5294 C   0  0  2  0  0  0  0  0  0  0  0  0
    1.6964   -2.2570   -3.6819 C   0  0  0  0  0  0  0  0  0  0  0  0
    2.5516   -2.6683   -2.9006 O   0  0  0  0  0  0  0  0  0  0  0  0
    1.8061    0.1875   -4.2301 C   0  0  0  0  0  0  0  0  0  0  0  0
    1.6019   -0.9815   -1.4999 H   0  0  0  0  0  0  0  0  0  0  0  0
   -0.0008   -0.9585   -3.9412 H   0  0  0  0  0  0  0  0  0  0  0  0
    2.8245    0.2565   -3.8308 H   0  0  0  0  0  0  0  0  0  0  0  0
    1.8849   -0.0069   -5.3048 H   0  0  0  0  0  0  0  0  0  0  0  0
    1.3289    1.1640   -4.0942 H   0  0  0  0  0  0  0  0  0  0  0  0
    1.2702   -2.9320   -4.8172 N   0  0  0  0  0  0  0  0  0  0  0  0
    1.8015   -4.2178   -5.2052 C   0  0  0  0  0  0  0  0  0  0  0  0
    0.5284   -2.5345   -5.3859 H   0  0  0  0  0  0  0  0  0  0  0  0
    2.6442   -4.0732   -5.8973 H   0  0  0  0  0  0  0  0  0  0  0  0
    2.1497   -4.7555   -4.3110 H   0  0  0  0  0  0  0  0  0  0  0  0
    1.0151   -4.8043   -5.7028 H   0  0  0  0  0  0  0  0  0  0  0  0
  1  3  1  0  0  0  0
  1  7  1  0  0  0  0
  1  2  2  0  0  0  0
 39 40  1  0  0  0  0
 40 48  1  0  0  0  0
 40 41  2  0  0  0  0
  8  9  1  0  0  0  0
  9 17  1  0  0  0  0
  9 10  2  0  0  0  0
 18 19  1  0  0  0  0
 19 38  1  0  0  0  0
 19 20  2  0  0  0  0
 39 42  1  0  0  0  0
  8 11  1  0  0  0  0
 48 49  1  0  0  0  0
 22 23  1  0  0  0  0
 21 22  1  0  0  0  0
 23 24  1  0  0  0  0
 18 21  1  0  0  0  0
 24 25  1  0  0  0  0
 38 39  1  0  0  0  0
  7  8  1  0  0  0  0
 17 18  1  0  0  0  0
  3  4  1  0  0  0  0
  3  5  1  0  0  0  0
  3  6  1  0  0  0  0
 42 45  1  0  0  0  0
 42 46  1  0  0  0  0
 42 47  1  0  0  0  0
 11 14  1  0  0  0  0
 11 15  1  0  0  0  0
 11 16  1  0  0  0  0
 49 51  1  0  0  0  0
 49 52  1  0  0  0  0
 49 53  1  0  0  0  0
 22 30  1  0  0  0  0
 22 31  1  0  0  0  0
 23 32  1  0  0  0  0
 23 33  1  0  0  0  0
 21 28  1  0  0  0  0
 21 29  1  0  0  0  0
 24 34  1  0  0  0  0
 24 35  1  0  0  0  0
 39 44  1  0  0  0  0
  8 13  1  0  0  0  0
 18 27  1  0  0  0  0
 25 36  1  0  0  0  0
 25 37  1  0  0  0  0
 48 50  1  0  0  0  0
  7 12  1  0  0  0  0
 38 43  1  0  0  0  0
 17 26  1  0  0  0  0
M  END
$$$$

  -OEChem-05262214473D

 53 52  0     1  0  0  0  0  0999 V2000
   -1.0338   -5.6785    0.1476 C   0  0  0  0  0  0  0  0  0  0  0  0
   -2.0514   -5.7797    0.8227 O   0  0  0  0  0  0  0  0  0  0  0  0
   -0.6558   -6.7819   -0.7841 C   0  0  0  0  0  0  0  0  0  0  0  0
   -0.0111   -7.5354   -0.3038 H   0  0  0  0  0  0  0  0  0  0  0  0
   -1.5317   -7.3401   -1.1520 H   0  0  0  0  0  0  0  0  0  0  0  0
   -0.1109   -6.4687   -1.6890 H   0  0  0  0  0  0  0  0  0  0  0  0
   -0.1543   -4.6083    0.1480 N   0  0  0  0  0  0  0  0  0  0  0  0
   -0.3302   -3.4398    0.9696 C   0  0  2  0  0  0  0  0  0  0  0  0
    0.2328   -2.2439    0.2131 C   0  0  0  0  0  0  0  0  0  0  0  0
    1.2097   -2.3192   -0.5294 O   0  0  0  0  0  0  0  0  0  0  0  0
    0.3557   -3.6024    2.3171 C   0  0  0  0  0  0  0  0  0  0  0  0
    0.6584   -4.6506   -0.4643 H   0  0  0  0  0  0  0  0  0  0  0  0
   -1.4091   -3.3101    1.1082 H   0  0  0  0  0  0  0  0  0  0  0  0
    1.4375   -3.7336    2.1985 H   0  0  0  0  0  0  0  0  0  0  0  0
    0.1969   -2.7243    2.9517 H   0  0  0  0  0  0  0  0  0  0  0  0
   -0.0294   -4.4803    2.8470 H   0  0  0  0  0  0  0  0  0  0  0  0
   -0.4616   -1.0893    0.5050 N   0  0  0  0  0  0  0  0  0  0  0  0
   -0.0884    0.2050   -0.0621 C   0  0  2  0  0  0  0  0  0  0  0  0
   -0.1834    0.0890   -1.5808 C   0  0  0  0  0  0  0  0  0  0  0  0
   -0.9430    0.7778   -2.2591 O   0  0  0  0  0  0  0  0  0  0  0  0
    1.3368    0.6229    0.3300 C   0  0  0  0  0  0  0  0  0  0  0  0
    1.4884    0.9419    1.8209 C   0  0  0  0  0  0  0  0  0  0  0  0
    2.9190    1.3755    2.1520 C   0  0  0  0  0  0  0  0  0  0  0  0
    3.0759    1.6697    3.6429 C   0  0  0  0  0  0  0  0  0  0  0  0
    4.4495    2.0577    3.9406 N   0  0  0  0  0  0  0  0  0  0  0  0
   -1.2794   -1.1113    1.0935 H   0  0  0  0  0  0  0  0  0  0  0  0
   -0.8063    0.9577    0.2853 H   0  0  0  0  0  0  0  0  0  0  0  0
    1.6246    1.5081   -0.2523 H   0  0  0  0  0  0  0  0  0  0  0  0
    2.0481   -0.1656    0.0490 H   0  0  0  0  0  0  0  0  0  0  0  0
    1.2328    0.0629    2.4234 H   0  0  0  0  0  0  0  0  0  0  0  0
    0.7904    1.7412    2.0975 H   0  0  0  0  0  0  0  0  0  0  0  0
    3.6180    0.5842    1.8528 H   0  0  0  0  0  0  0  0  0  0  0  0
    3.1745    2.2694    1.5690 H   0  0  0  0  0  0  0  0  0  0  0  0
    2.8125    0.7855    4.2336 H   0  0  0  0  0  0  0  0  0  0  0  0
    2.4035    2.4817    3.9395 H   0  0  0  0  0  0  0  0  0  0  0  0
    4.9752    2.0186    3.0988 H   0  0  0  0  0  0  0  0  0  0  0  0
    4.4412    2.9818    4.3044 H   0  0  0  0  0  0  0  0  0  0  0  0
    0.6634   -0.8890   -2.0840 N   0  0  0  0  0  0  0  0  0  0  0  0
    0.7504   -1.2153   -3.4892 C   0  0  2  0  0  0  0  0  0  0  0  0
    1.0648   -2.7007   -3.6085 C   0  0  0  0  0  0  0  0  0  0  0  0
    1.7714   -3.3036   -2.8032 O   0  0  0  0  0  0  0  0  0  0  0  0
    1.8104   -0.3775   -4.1872 C   0  0  0  0  0  0  0  0  0  0  0  0
    1.2640   -1.4033   -1.4465 H   0  0  0  0  0  0  0  0  0  0  0  0
   -0.2355   -1.0142   -3.9222 H   0  0  0  0  0  0  0  0  0  0  0  0
    2.8051   -0.5655   -3.7668 H   0  0  0  0  0  0  0  0  0  0  0  0
    1.8554   -0.6056   -5.2572 H   0  0  0  0  0  0  0  0  0  0  0  0
    1.5988    0.6913   -4.0749 H   0  0  0  0  0  0  0  0  0  0  0  0
    0.4991   -3.2644   -4.7435 N   0  0  0  0  0  0  0  0  0  0  0  0
    0.6878   -4.6506   -5.1024 C   0  0  0  0  0  0  0  0  0  0  0  0
   -0.1051   -2.7000   -5.3336 H   0  0  0  0  0  0  0  0  0  0  0  0
    1.5513   -4.7408   -5.7779 H   0  0  0  0  0  0  0  0  0  0  0  0
    0.8699   -5.2430   -4.1936 H   0  0  0  0  0  0  0  0  0  0  0  0
   -0.2143   -5.0241   -5.6090 H   0  0  0  0  0  0  0  0  0  0  0  0
  1  3  1  0  0  0  0
  1  7  1  0  0  0  0
  1  2  2  0  0  0  0
 39 40  1  0  0  0  0
 40 48  1  0  0  0  0
 40 41  2  0  0  0  0
  8  9  1  0  0  0  0
  9 17  1  0  0  0  0
  9 10  2  0  0  0  0
 18 19  1  0  0  0  0
 19 38  1  0  0  0  0
 19 20  2  0  0  0  0
 39 42  1  0  0  0  0
  8 11  1  0  0  0  0
 48 49  1  0  0  0  0
 22 23  1  0  0  0  0
 21 22  1  0  0  0  0
 23 24  1  0  0  0  0
 18 21  1  0  0  0  0
 24 25  1  0  0  0  0
 38 39  1  0  0  0  0
  7  8  1  0  0  0  0
 17 18  1  0  0  0  0
  3  4  1  0  0  0  0
  3  5  1  0  0  0  0
  3  6  1  0  0  0  0
 42 45  1  0  0  0  0
 42 46  1  0  0  0  0
 42 47  1  0  0  0  0
 11 14  1  0  0  0  0
 11 15  1  0  0  0  0
 11 16  1  0  0  0  0
 49 51  1  0  0  0  0
 49 52  1  0  0  0  0
 49 53  1  0  0  0  0
 22 30  1  0  0  0  0
 22 31  1  0  0  0  0
 23 32  1  0  0  0  0
 23 33  1  0  0  0  0
 21 28  1  0  0  0  0
 21 29  1  0  0  0  0
 24 34  1  0  0  0  0
 24 35  1  0  0  0  0
 39 44  1  0  0  0  0
  8 13  1  0  0  0  0
 18 27  1  0  0  0  0
 25 36  1  0  0  0  0
 25 37  1  0  0  0  0
 48 50  1  0  0  0  0
  7 12  1  0  0  0  0
 38 43  1  0  0  0  0
 17 26  1  0  0  0  0
M  END
$$$$

  -OEChem-05262214473D

 53 52  0     1  0  0  0  0  0999 V2000
   -1.0338   -5.6785    0.1476 C   0  0  0  0  0  0  0  0  0  0  0  0
   -2.0514   -5.7797    0.8227 O   0  0  0  0  0  0  0  0  0  0  0  0
   -0.6558   -6.7819   -0.7841 C   0  0  0  0  0  0  0  0  0  0  0  0
   -0.0111   -7.5354   -0.3038 H   0  0  0  0  0  0  0  0  0  0  0  0
   -1.5317   -7.3401   -1.1520 H   0  0  0  0  0  0  0  0  0  0  0  0
   -0.1109   -6.4687   -1.6890 H   0  0  0  0  0  0  0  0  0  0  0  0
   -0.1543   -4.6083    0.1480 N   0  0  0  0  0  0  0  0  0  0  0  0
   -0.3302   -3.4398    0.9696 C   0  0  2  0  0  0  0  0  0  0  0  0
    0.2328   -2.2439    0.2131 C   0  0  0  0  0  0  0  0  0  0  0  0
    1.2097   -2.3192   -0.5294 O   0  0  0  0  0  0  0  0  0  0  0  0
    0.3557   -3.6024    2.3171 C   0  0  0  0  0  0  0  0  0  0  0  0
    0.6584   -4.6506   -0.4643 H   0  0  0  0  0  0  0  0  0  0  0  0
   -1.4091   -3.3101    1.1082 H   0  0  0  0  0  0  0  0  0  0  0  0
    1.4375   -3.7336    2.1985 H   0  0  0  0  0  0  0  0  0  0  0  0
    0.1969   -2.7243    2.9517 H   0  0  0  0  0  0  0  0  0  0  0  0
   -0.0294   -4.4803    2.8470 H   0  0  0  0  0  0  0  0  0  0  0  0
   -0.4616   -1.0893    0.5050 N   0  0  0  0  0  0  0  0  0  0  0  0
   -0.0884    0.2050   -0.0621 C   0  0  2  0  0  0  0  0  0  0  0  0
   -0.1834    0.0890   -1.5808 C   0  0  0  0  0  0  0  0  0  0  0  0
   -0.7278    0.9372   -2.2848 O   0  0  0  0  0  0  0  0  0  0  0  0
    1.3368    0.6229    0.3300 C   0  0  0  0  0  0  0  0  0  0  0  0
    1.4884    0.9419    1.8209 C   0  0  0  0  0  0  0  0  0  0  0  0
    2.9190    1.3755    2.1520 C   0  0  0  0  0  0  0  0  0  0  0  0
    3.0759    1.6697    3.6429 C   0  0  0  0  0  0  0  0  0  0  0  0
    4.4495    2.0577    3.9406 N   0  0  0  0  0  0  0  0  0  0  0  0
   -1.2794   -1.1113    1.0935 H   0  0  0  0  0  0  0  0  0  0  0  0
   -0.8063    0.9577    0.2853 H   0  0  0  0  0  0  0  0  0  0  0  0
    1.6246    1.5081   -0.2523 H   0  0  0  0  0  0  0  0  0  0  0  0
    2.0481   -0.1656    0.0490 H   0  0  0  0  0  0  0  0  0  0  0  0
    1.2328    0.0629    2.4234 H   0  0  0  0  0  0  0  0  0  0  0  0
    0.7904    1.7412    2.0975 H   0  0  0  0  0  0  0  0  0  0  0  0
    3.6180    0.5842    1.8528 H   0  0  0  0  0  0  0  0  0  0  0  0
    3.1745    2.2694    1.5690 H   0  0  0  0  0  0  0  0  0  0  0  0
    2.8125    0.7855    4.2336 H   0  0  0  0  0  0  0  0  0  0  0  0
    2.4035    2.4817    3.9395 H   0  0  0  0  0  0  0  0  0  0  0  0
    4.9752    2.0186    3.0988 H   0  0  0  0  0  0  0  0  0  0  0  0
    4.4412    2.9818    4.3044 H   0  0  0  0  0  0  0  0  0  0  0  0
    0.3914   -1.0832   -2.0521 N   0  0  0  0  0  0  0  0  0  0  0  0
    0.4161   -1.4472   -3.4506 C   0  0  2  0  0  0  0  0  0  0  0  0
    0.3391   -2.9654   -3.5428 C   0  0  0  0  0  0  0  0  0  0  0  0
    0.8521   -3.7147   -2.7143 O   0  0  0  0  0  0  0  0  0  0  0  0
    1.6683   -0.9237   -4.1365 C   0  0  0  0  0  0  0  0  0  0  0  0
    0.8279   -1.7228   -1.3948 H   0  0  0  0  0  0  0  0  0  0  0  0
   -0.4770   -1.0072   -3.9077 H   0  0  0  0  0  0  0  0  0  0  0  0
    2.5734   -1.3535   -3.6921 H   0  0  0  0  0  0  0  0  0  0  0  0
    1.6717   -1.1757   -5.2022 H   0  0  0  0  0  0  0  0  0  0  0  0
    1.7373    0.1655   -4.0434 H   0  0  0  0  0  0  0  0  0  0  0  0
   -0.3328   -3.3856   -4.6822 N   0  0  0  0  0  0  0  0  0  0  0  0
   -0.5014   -4.7802   -5.0181 C   0  0  0  0  0  0  0  0  0  0  0  0
   -0.7606   -2.6959   -5.2929 H   0  0  0  0  0  0  0  0  0  0  0  0
    0.3214   -5.1022   -5.6732 H   0  0  0  0  0  0  0  0  0  0  0  0
   -0.4942   -5.3824   -4.0976 H   0  0  0  0  0  0  0  0  0  0  0  0
   -1.4603   -4.9183   -5.5391 H   0  0  0  0  0  0  0  0  0  0  0  0
  1  3  1  0  0  0  0
  1  7  1  0  0  0  0
  1  2  2  0  0  0  0
 39 40  1  0  0  0  0
 40 48  1  0  0  0  0
 40 41  2  0  0  0  0
  8  9  1  0  0  0  0
  9 17  1  0  0  0  0
  9 10  2  0  0  0  0
 18 19  1  0  0  0  0
 19 38  1  0  0  0  0
 19 20  2  0  0  0  0
 39 42  1  0  0  0  0
  8 11  1  0  0  0  0
 48 49  1  0  0  0  0
 22 23  1  0  0  0  0
 21 22  1  0  0  0  0
 23 24  1  0  0  0  0
 18 21  1  0  0  0  0
 24 25  1  0  0  0  0
 38 39  1  0  0  0  0
  7  8  1  0  0  0  0
 17 18  1  0  0  0  0
  3  4  1  0  0  0  0
  3  5  1  0  0  0  0
  3  6  1  0  0  0  0
 42 45  1  0  0  0  0
 42 46  1  0  0  0  0
 42 47  1  0  0  0  0
 11 14  1  0  0  0  0
 11 15  1  0  0  0  0
 11 16  1  0  0  0  0
 49 51  1  0  0  0  0
 49 52  1  0  0  0  0
 49 53  1  0  0  0  0
 22 30  1  0  0  0  0
 22 31  1  0  0  0  0
 23 32  1  0  0  0  0
 23 33  1  0  0  0  0
 21 28  1  0  0  0  0
 21 29  1  0  0  0  0
 24 34  1  0  0  0  0
 24 35  1  0  0  0  0
 39 44  1  0  0  0  0
  8 13  1  0  0  0  0
 18 27  1  0  0  0  0
 25 36  1  0  0  0  0
 25 37  1  0  0  0  0
 48 50  1  0  0  0  0
  7 12  1  0  0  0  0
 38 43  1  0  0  0  0
 17 26  1  0  0  0  0
M  END
$$$$

  -OEChem-05262214473D

 53 52  0     1  0  0  0  0  0999 V2000
   -1.0338   -5.6785    0.1476 C   0  0  0  0  0  0  0  0  0  0  0  0
   -2.0514   -5.7797    0.8227 O   0  0  0  0  0  0  0  0  0  0  0  0
   -0.6558   -6.7819   -0.7841 C   0  0  0  0  0  0  0  0  0  0  0  0
   -0.0111   -7.5354   -0.3038 H   0  0  0  0  0  0  0  0  0  0  0  0
   -1.5317   -7.3401   -1.1520 H   0  0  0  0  0  0  0  0  0  0  0  0
   -0.1109   -6.4687   -1.6890 H   0  0  0  0  0  0  0  0  0  0  0  0
   -0.1543   -4.6083    0.1480 N   0  0  0  0  0  0  0  0  0  0  0  0
   -0.3302   -3.4398    0.9696 C   0  0  2  0  0  0  0  0  0  0  0  0
    0.2328   -2.2439    0.2131 C   0  0  0  0  0  0  0  0  0  0  0  0
    1.2097   -2.3192   -0.5294 O   0  0  0  0  0  0  0  0  0  0  0  0
    0.3557   -3.6024    2.3171 C   0  0  0  0  0  0  0  0  0  0  0  0
    0.6584   -4.6506   -0.4643 H   0  0  0  0  0  0  0  0  0  0  0  0
   -1.4091   -3.3101    1.1082 H   0  0  0  0  0  0  0  0  0  0  0  0
    1.4375   -3.7336    2.1985 H   0  0  0  0  0  0  0  0  0  0  0  0
    0.1969   -2.7243    2.9517 H   0  0  0  0  0  0  0  0  0  0  0  0
   -0.0294   -4.4803    2.8470 H   0  0  0  0  0  0  0  0  0  0  0  0
   -0.4616   -1.0893    0.5050 N   0  0  0  0  0  0  0  0  0  0  0  0
   -0.0884    0.2050   -0.0621 C   0  0  2  0  0  0  0  0  0  0  0  0
   -0.1834    0.0890   -1.5808 C   0  0  0  0  0  0  0  0  0  0  0  0
   -0.4783    1.0355   -2.3079 O   0  0  0  0  0  0  0  0  0  0  0  0
    1.3368    0.6229    0.3300 C   0  0  0  0  0  0  0  0  0  0  0  0
    1.4884    0.9419    1.8209 C   0  0  0  0  0  0  0  0  0  0  0  0
    2.9190    1.3755    2.1520 C   0  0  0  0  0  0  0  0  0  0  0  0
    3.0759    1.6697    3.6429 C   0  0  0  0  0  0  0  0  0  0  0  0
    4.4495    2.0577    3.9406 N   0  0  0  0  0  0  0  0  0  0  0  0
   -1.2794   -1.1113    1.0935 H   0  0  0  0  0  0  0  0  0  0  0  0
   -0.8063    0.9577    0.2853 H   0  0  0  0  0  0  0  0  0  0  0  0
    1.6246    1.5081   -0.2523 H   0  0  0  0  0  0  0  0  0  0  0  0
    2.0481   -0.1656    0.0490 H   0  0  0  0  0  0  0  0  0  0  0  0
    1.2328    0.0629    2.4234 H   0  0  0  0  0  0  0  0  0  0  0  0
    0.7904    1.7412    2.0975 H   0  0  0  0  0  0  0  0  0  0  0  0
    3.6180    0.5842    1.8528 H   0  0  0  0  0  0  0  0  0  0  0  0
    3.1745    2.2694    1.5690 H   0  0  0  0  0  0  0  0  0  0  0  0
    2.8125    0.7855    4.2336 H   0  0  0  0  0  0  0  0  0  0  0  0
    2.4035    2.4817    3.9395 H   0  0  0  0  0  0  0  0  0  0  0  0
    4.9752    2.0186    3.0988 H   0  0  0  0  0  0  0  0  0  0  0  0
    4.4412    2.9818    4.3044 H   0  0  0  0  0  0  0  0  0  0  0  0
    0.0781   -1.2003   -2.0235 N   0  0  0  0  0  0  0  0  0  0  0  0
    0.0327   -1.5844   -3.4161 C   0  0  2  0  0  0  0  0  0  0  0  0
   -0.4314   -3.0331   -3.4894 C   0  0  0  0  0  0  0  0  0  0  0  0
   -0.1434   -3.8736   -2.6398 O   0  0  0  0  0  0  0  0  0  0  0  0
    1.3894   -1.4139   -4.0816 C   0  0  0  0  0  0  0  0  0  0  0  0
    0.3233   -1.9183   -1.3483 H   0  0  0  0  0  0  0  0  0  0  0  0
   -0.7086   -0.9380   -3.8984 H   0  0  0  0  0  0  0  0  0  0  0  0
    2.1452   -2.0537   -3.6118 H   0  0  0  0  0  0  0  0  0  0  0  0
    1.3464   -1.6781   -5.1434 H   0  0  0  0  0  0  0  0  0  0  0  0
    1.7351   -0.3776   -4.0018 H   0  0  0  0  0  0  0  0  0  0  0  0
   -1.1687   -3.2875   -4.6374 N   0  0  0  0  0  0  0  0  0  0  0  0
   -1.6852   -4.5976   -4.9579 C   0  0  0  0  0  0  0  0  0  0  0  0
   -1.3936   -2.5224   -5.2666 H   0  0  0  0  0  0  0  0  0  0  0  0
   -0.9617   -5.1328   -5.5906 H   0  0  0  0  0  0  0  0  0  0  0  0
   -1.8495   -5.1641   -4.0294 H   0  0  0  0  0  0  0  0  0  0  0  0
   -2.6380   -4.4940   -5.4978 H   0  0  0  0  0  0  0  0  0  0  0  0
  1  3  1  0  0  0  0
  1  7  1  0  0  0  0
  1  2  2  0  0  0  0
 39 40  1  0  0  0  0
 40 48  1  0  0  0  0
 40 41  2  0  0  0  0
  8  9  1  0  0  0  0
  9 17  1  0  0  0  0
  9 10  2  0  0  0  0
 18 19  1  0  0  0  0
 19 38  1  0  0  0  0
 19 20  2  0  0  0  0
 39 42  1  0  0  0  0
  8 11  1  0  0  0  0
 48 49  1  0  0  0  0
 22 23  1  0  0  0  0
 21 22  1  0  0  0  0
 23 24  1  0  0  0  0
 18 21  1  0  0  0  0
 24 25  1  0  0  0  0
 38 39  1  0  0  0  0
  7  8  1  0  0  0  0
 17 18  1  0  0  0  0
  3  4  1  0  0  0  0
  3  5  1  0  0  0  0
  3  6  1  0  0  0  0
 42 45  1  0  0  0  0
 42 46  1  0  0  0  0
 42 47  1  0  0  0  0
 11 14  1  0  0  0  0
 11 15  1  0  0  0  0
 11 16  1  0  0  0  0
 49 51  1  0  0  0  0
 49 52  1  0  0  0  0
 49 53  1  0  0  0  0
 22 30  1  0  0  0  0
 22 31  1  0  0  0  0
 23 32  1  0  0  0  0
 23 33  1  0  0  0  0
 21 28  1  0  0  0  0
 21 29  1  0  0  0  0
 24 34  1  0  0  0  0
 24 35  1  0  0  0  0
 39 44  1  0  0  0  0
  8 13  1  0  0  0  0
 18 27  1  0  0  0  0
 25 36  1  0  0  0  0
 25 37  1  0  0  0  0
 48 50  1  0  0  0  0
  7 12  1  0  0  0  0
 38 43  1  0  0  0  0
 17 26  1  0  0  0  0
M  END
$$$$

  -OEChem-05262214473D

 53 52  0     1  0  0  0  0  0999 V2000
   -1.0338   -5.6785    0.1476 C   0  0  0  0  0  0  0  0  0  0  0  0
   -2.0514   -5.7797    0.8227 O   0  0  0  0  0  0  0  0  0  0  0  0
   -0.6558   -6.7819   -0.7841 C   0  0  0  0  0  0  0  0  0  0  0  0
   -0.0111   -7.5354   -0.3038 H   0  0  0  0  0  0  0  0  0  0  0  0
   -1.5317   -7.3401   -1.1520 H   0  0  0  0  0  0  0  0  0  0  0  0
   -0.1109   -6.4687   -1.6890 H   0  0  0  0  0  0  0  0  0  0  0  0
   -0.1543   -4.6083    0.1480 N   0  0  0  0  0  0  0  0  0  0  0  0
   -0.3302   -3.4398    0.9696 C   0  0  2  0  0  0  0  0  0  0  0  0
    0.2328   -2.2439    0.2131 C   0  0  0  0  0  0  0  0  0  0  0  0
    1.2097   -2.3192   -0.5294 O   0  0  0  0  0  0  0  0  0  0  0  0
    0.3557   -3.6024    2.3171 C   0  0  0  0  0  0  0  0  0  0  0  0
    0.6584   -4.6506   -0.4643 H   0  0  0  0  0  0  0  0  0  0  0  0
   -1.4091   -3.3101    1.1082 H   0  0  0  0  0  0  0  0  0  0  0  0
    1.4375   -3.7336    2.1985 H   0  0  0  0  0  0  0  0  0  0  0  0
    0.1969   -2.7243    2.9517 H   0  0  0  0  0  0  0  0  0  0  0  0
   -0.0294   -4.4803    2.8470 H   0  0  0  0  0  0  0  0  0  0  0  0
   -0.4616   -1.0893    0.5050 N   0  0  0  0  0  0  0  0  0  0  0  0
   -0.0884    0.2050   -0.0621 C   0  0  2  0  0  0  0  0  0  0  0  0
   -0.1834    0.0890   -1.5808 C   0  0  0  0  0  0  0  0  0  0  0  0
   -0.2116    1.0657   -2.3269 O   0  0  0  0  0  0  0  0  0  0  0  0
    1.3368    0.6229    0.3300 C   0  0  0  0  0  0  0  0  0  0  0  0
    1.4884    0.9419    1.8209 C   0  0  0  0  0  0  0  0  0  0  0  0
    2.9190    1.3755    2.1520 C   0  0  0  0  0  0  0  0  0  0  0  0
    3.0759    1.6697    3.6429 C   0  0  0  0  0  0  0  0  0  0  0  0
    4.4495    2.0577    3.9406 N   0  0  0  0  0  0  0  0  0  0  0  0
   -1.2794   -1.1113    1.0935 H   0  0  0  0  0  0  0  0  0  0  0  0
   -0.8063    0.9577    0.2853 H   0  0  0  0  0  0  0  0  0  0  0  0
    1.6246    1.5081   -0.2523 H   0  0  0  0  0  0  0  0  0  0  0  0
    2.0481   -0.1656    0.0490 H   0  0  0  0  0  0  0  0  0  0  0  0
    1.2328    0.0629    2.4234 H   0  0  0  0  0  0  0  0  0  0  0  0
    0.7904    1.7412    2.0975 H   0  0  0  0  0  0  0  0  0  0  0  0
    3.6180    0.5842    1.8528 H   0  0  0  0  0  0  0  0  0  0  0  0
    3.1745    2.2694    1.5690 H   0  0  0  0  0  0  0  0  0  0  0  0
    2.8125    0.7855    4.2336 H   0  0  0  0  0  0  0  0  0  0  0  0
    2.4035    2.4817    3.9395 H   0  0  0  0  0  0  0  0  0  0  0  0
    4.9752    2.0186    3.0988 H   0  0  0  0  0  0  0  0  0  0  0  0
    4.4412    2.9818    4.3044 H   0  0  0  0  0  0  0  0  0  0  0  0
   -0.2553   -1.2322   -2.0002 N   0  0  0  0  0  0  0  0  0  0  0  0
   -0.3737   -1.6177   -3.3881 C   0  0  2  0  0  0  0  0  0  0  0  0
   -1.1941   -2.8993   -3.4519 C   0  0  0  0  0  0  0  0  0  0  0  0
   -1.1474   -3.7694   -2.5849 O   0  0  0  0  0  0  0  0  0  0  0  0
    0.9926   -1.8146   -4.0262 C   0  0  0  0  0  0  0  0  0  0  0  0
   -0.2153   -1.9764   -1.3101 H   0  0  0  0  0  0  0  0  0  0  0  0
   -0.9148   -0.8114   -3.8952 H   0  0  0  0  0  0  0  0  0  0  0  0
    1.5496   -2.6185   -3.5313 H   0  0  0  0  0  0  0  0  0  0  0  0
    0.9017   -2.0787   -5.0850 H   0  0  0  0  0  0  0  0  0  0  0  0
    1.5923   -0.9009   -3.9529 H   0  0  0  0  0  0  0  0  0  0  0  0
   -1.9518   -2.9766   -4.6121 N   0  0  0  0  0  0  0  0  0  0  0  0
   -2.7827   -4.1155   -4.9261 C   0  0  0  0  0  0  0  0  0  0  0  0
   -1.9608   -2.1914   -5.2563 H   0  0  0  0  0  0  0  0  0  0  0  0
   -2.2107   -4.8306   -5.5355 H   0  0  0  0  0  0  0  0  0  0  0  0
   -3.1038   -4.6031   -3.9938 H   0  0  0  0  0  0  0  0  0  0  0  0
   -3.6670   -3.7802   -5.4879 H   0  0  0  0  0  0  0  0  0  0  0  0
  1  3  1  0  0  0  0
  1  7  1  0  0  0  0
  1  2  2  0  0  0  0
 39 40  1  0  0  0  0
 40 48  1  0  0  0  0
 40 41  2  0  0  0  0
  8  9  1  0  0  0  0
  9 17  1  0  0  0  0
  9 10  2  0  0  0  0
 18 19  1  0  0  0  0
 19 38  1  0  0  0  0
 19 20  2  0  0  0  0
 39 42  1  0  0  0  0
  8 11  1  0  0  0  0
 48 49  1  0  0  0  0
 22 23  1  0  0  0  0
 21 22  1  0  0  0  0
 23 24  1  0  0  0  0
 18 21  1  0  0  0  0
 24 25  1  0  0  0  0
 38 39  1  0  0  0  0
  7  8  1  0  0  0  0
 17 18  1  0  0  0  0
  3  4  1  0  0  0  0
  3  5  1  0  0  0  0
  3  6  1  0  0  0  0
 42 45  1  0  0  0  0
 42 46  1  0  0  0  0
 42 47  1  0  0  0  0
 11 14  1  0  0  0  0
 11 15  1  0  0  0  0
 11 16  1  0  0  0  0
 49 51  1  0  0  0  0
 49 52  1  0  0  0  0
 49 53  1  0  0  0  0
 22 30  1  0  0  0  0
 22 31  1  0  0  0  0
 23 32  1  0  0  0  0
 23 33  1  0  0  0  0
 21 28  1  0  0  0  0
 21 29  1  0  0  0  0
 24 34  1  0  0  0  0
 24 35  1  0  0  0  0
 39 44  1  0  0  0  0
  8 13  1  0  0  0  0
 18 27  1  0  0  0  0
 25 36  1  0  0  0  0
 25 37  1  0  0  0  0
 48 50  1  0  0  0  0
  7 12  1  0  0  0  0
 38 43  1  0  0  0  0
 17 26  1  0  0  0  0
M  END
$$$$

  -OEChem-05262214473D

 53 52  0     1  0  0  0  0  0999 V2000
   -1.0338   -5.6785    0.1476 C   0  0  0  0  0  0  0  0  0  0  0  0
   -2.0514   -5.7797    0.8227 O   0  0  0  0  0  0  0  0  0  0  0  0
   -0.6558   -6.7819   -0.7841 C   0  0  0  0  0  0  0  0  0  0  0  0
   -0.0111   -7.5354   -0.3038 H   0  0  0  0  0  0  0  0  0  0  0  0
   -1.5317   -7.3401   -1.1520 H   0  0  0  0  0  0  0  0  0  0  0  0
   -0.1109   -6.4687   -1.6890 H   0  0  0  0  0  0  0  0  0  0  0  0
   -0.1543   -4.6083    0.1480 N   0  0  0  0  0  0  0  0  0  0  0  0
   -0.3302   -3.4398    0.9696 C   0  0  2  0  0  0  0  0  0  0  0  0
    0.2328   -2.2439    0.2131 C   0  0  0  0  0  0  0  0  0  0  0  0
    1.2097   -2.3192   -0.5294 O   0  0  0  0  0  0  0  0  0  0  0  0
    0.3557   -3.6024    2.3171 C   0  0  0  0  0  0  0  0  0  0  0  0
    0.6584   -4.6506   -0.4643 H   0  0  0  0  0  0  0  0  0  0  0  0
   -1.4091   -3.3101    1.1082 H   0  0  0  0  0  0  0  0  0  0  0  0
    1.4375   -3.7336    2.1985 H   0  0  0  0  0  0  0  0  0  0  0  0
    0.1969   -2.7243    2.9517 H   0  0  0  0  0  0  0  0  0  0  0  0
   -0.0294   -4.4803    2.8470 H   0  0  0  0  0  0  0  0  0  0  0  0
   -0.4616   -1.0893    0.5050 N   0  0  0  0  0  0  0  0  0  0  0  0
   -0.0884    0.2050   -0.0621 C   0  0  2  0  0  0  0  0  0  0  0  0
   -0.1834    0.0890   -1.5808 C   0  0  0  0  0  0  0  0  0  0  0  0
    0.0542    1.0259   -2.3405 O   0  0  0  0  0  0  0  0  0  0  0  0
    1.3368    0.6229    0.3300 C   0  0  0  0  0  0  0  0  0  0  0  0
    1.4884    0.9419    1.8209 C   0  0  0  0  0  0  0  0  0  0  0  0
    2.9190    1.3755    2.1520 C   0  0  0  0  0  0  0  0  0  0  0  0
    3.0759    1.6697    3.6429 C   0  0  0  0  0  0  0  0  0  0  0  0
    4.4495    2.0577    3.9406 N   0  0  0  0  0  0  0  0  0  0  0  0
   -1.2794   -1.1113    1.0935 H   0  0  0  0  0  0  0  0  0  0  0  0
   -0.8063    0.9577    0.2853 H   0  0  0  0  0  0  0  0  0  0  0  0
    1.6246    1.5081   -0.2523 H   0  0  0  0  0  0  0  0  0  0  0  0
    2.0481   -0.1656    0.0490 H   0  0  0  0  0  0  0  0  0  0  0  0
    1.2328    0.0629    2.4234 H   0  0  0  0  0  0  0  0  0  0  0  0
    0.7904    1.7412    2.0975 H   0  0  0  0  0  0  0  0  0  0  0  0
    3.6180    0.5842    1.8528 H   0  0  0  0  0  0  0  0  0  0  0  0
    3.1745    2.2694    1.5690 H   0  0  0  0  0  0  0  0  0  0  0  0
    2.8125    0.7855    4.2336 H   0  0  0  0  0  0  0  0  0  0  0  0
    2.4035    2.4817    3.9395 H   0  0  0  0  0  0  0  0  0  0  0  0
    4.9752    2.0186    3.0988 H   0  0  0  0  0  0  0  0  0  0  0  0
    4.4412    2.9818    4.3044 H   0  0  0  0  0  0  0  0  0  0  0  0
   -0.5860   -1.1768   -1.9838 N   0  0  0  0  0  0  0  0  0  0  0  0
   -0.7754   -1.5447   -3.3685 C   0  0  2  0  0  0  0  0  0  0  0  0
   -1.8971   -2.5729   -3.4328 C   0  0  0  0  0  0  0  0  0  0  0  0
   -2.0915   -3.4094   -2.5533 O   0  0  0  0  0  0  0  0  0  0  0  0
    0.5050   -2.0985   -3.9740 C   0  0  0  0  0  0  0  0  0  0  0  0
   -0.7513   -1.8931   -1.2829 H   0  0  0  0  0  0  0  0  0  0  0  0
   -1.0814   -0.6359   -3.8982 H   0  0  0  0  0  0  0  0  0  0  0  0
    0.8272   -3.0093   -3.4562 H   0  0  0  0  0  0  0  0  0  0  0  0
    0.3677   -2.3501   -5.0308 H   0  0  0  0  0  0  0  0  0  0  0  0
    1.3185   -1.3688   -3.9000 H   0  0  0  0  0  0  0  0  0  0  0  0
   -2.6286   -2.4743   -4.6081 N   0  0  0  0  0  0  0  0  0  0  0  0
   -3.7194   -3.3665   -4.9246 C   0  0  0  0  0  0  0  0  0  0  0  0
   -2.4236   -1.7254   -5.2630 H   0  0  0  0  0  0  0  0  0  0  0  0
   -3.3403   -4.2160   -5.5117 H   0  0  0  0  0  0  0  0  0  0  0  0
   -4.1716   -3.7375   -3.9931 H   0  0  0  0  0  0  0  0  0  0  0  0
   -4.4773   -2.8255   -5.5101 H   0  0  0  0  0  0  0  0  0  0  0  0
  1  3  1  0  0  0  0
  1  7  1  0  0  0  0
  1  2  2  0  0  0  0
 39 40  1  0  0  0  0
 40 48  1  0  0  0  0
 40 41  2  0  0  0  0
  8  9  1  0  0  0  0
  9 17  1  0  0  0  0
  9 10  2  0  0  0  0
 18 19  1  0  0  0  0
 19 38  1  0  0  0  0
 19 20  2  0  0  0  0
 39 42  1  0  0  0  0
  8 11  1  0  0  0  0
 48 49  1  0  0  0  0
 22 23  1  0  0  0  0
 21 22  1  0  0  0  0
 23 24  1  0  0  0  0
 18 21  1  0  0  0  0
 24 25  1  0  0  0  0
 38 39  1  0  0  0  0
  7  8  1  0  0  0  0
 17 18  1  0  0  0  0
  3  4  1  0  0  0  0
  3  5  1  0  0  0  0
  3  6  1  0  0  0  0
 42 45  1  0  0  0  0
 42 46  1  0  0  0  0
 42 47  1  0  0  0  0
 11 14  1  0  0  0  0
 11 15  1  0  0  0  0
 11 16  1  0  0  0  0
 49 51  1  0  0  0  0
 49 52  1  0  0  0  0
 49 53  1  0  0  0  0
 22 30  1  0  0  0  0
 22 31  1  0  0  0  0
 23 32  1  0  0  0  0
 23 33  1  0  0  0  0
 21 28  1  0  0  0  0
 21 29  1  0  0  0  0
 24 34  1  0  0  0  0
 24 35  1  0  0  0  0
 39 44  1  0  0  0  0
  8 13  1  0  0  0  0
 18 27  1  0  0  0  0
 25 36  1  0  0  0  0
 25 37  1  0  0  0  0
 48 50  1  0  0  0  0
  7 12  1  0  0  0  0
 38 43  1  0  0  0  0
 17 26  1  0  0  0  0
M  END
$$$$

  -OEChem-05262214473D

 53 52  0     1  0  0  0  0  0999 V2000
   -1.0338   -5.6785    0.1476 C   0  0  0  0  0  0  0  0  0  0  0  0
   -2.0514   -5.7797    0.8227 O   0  0  0  0  0  0  0  0  0  0  0  0
   -0.6558   -6.7819   -0.7841 C   0  0  0  0  0  0  0  0  0  0  0  0
   -0.0111   -7.5354   -0.3038 H   0  0  0  0  0  0  0  0  0  0  0  0
   -1.5317   -7.3401   -1.1520 H   0  0  0  0  0  0  0  0  0  0  0  0
   -0.1109   -6.4687   -1.6890 H   0  0  0  0  0  0  0  0  0  0  0  0
   -0.1543   -4.6083    0.1480 N   0  0  0  0  0  0  0  0  0  0  0  0
   -0.3302   -3.4398    0.9696 C   0  0  2  0  0  0  0  0  0  0  0  0
    0.2328   -2.2439    0.2131 C   0  0  0  0  0  0  0  0  0  0  0  0
    1.2097   -2.3192   -0.5294 O   0  0  0  0  0  0  0  0  0  0  0  0
    0.3557   -3.6024    2.3171 C   0  0  0  0  0  0  0  0  0  0  0  0
    0.6584   -4.6506   -0.4643 H   0  0  0  0  0  0  0  0  0  0  0  0
   -1.4091   -3.3101    1.1082 H   0  0  0  0  0  0  0  0  0  0  0  0
    1.4375   -3.7336    2.1985 H   0  0  0  0  0  0  0  0  0  0  0  0
    0.1969   -2.7243    2.9517 H   0  0  0  0  0  0  0  0  0  0  0  0
   -0.0294   -4.4803    2.8470 H   0  0  0  0  0  0  0  0  0  0  0  0
   -0.4616   -1.0893    0.5050 N   0  0  0  0  0  0  0  0  0  0  0  0
   -0.0884    0.2050   -0.0621 C   0  0  2  0  0  0  0  0  0  0  0  0
   -0.1834    0.0890   -1.5808 C   0  0  0  0  0  0  0  0  0  0  0  0
    0.3009    0.9188   -2.3478 O   0  0  0  0  0  0  0  0  0  0  0  0
    1.3368    0.6229    0.3300 C   0  0  0  0  0  0  0  0  0  0  0  0
    1.4884    0.9419    1.8209 C   0  0  0  0  0  0  0  0  0  0  0  0
    2.9190    1.3755    2.1520 C   0  0  0  0  0  0  0  0  0  0  0  0
    3.0759    1.6697    3.6429 C   0  0  0  0  0  0  0  0  0  0  0  0
    4.4495    2.0577    3.9406 N   0  0  0  0  0  0  0  0  0  0  0  0
   -1.2794   -1.1113    1.0935 H   0  0  0  0  0  0  0  0  0  0  0  0
   -0.8063    0.9577    0.2853 H   0  0  0  0  0  0  0  0  0  0  0  0
    1.6246    1.5081   -0.2523 H   0  0  0  0  0  0  0  0  0  0  0  0
    2.0481   -0.1656    0.0490 H   0  0  0  0  0  0  0  0  0  0  0  0
    1.2328    0.0629    2.4234 H   0  0  0  0  0  0  0  0  0  0  0  0
    0.7904    1.7412    2.0975 H   0  0  0  0  0  0  0  0  0  0  0  0
    3.6180    0.5842    1.8528 H   0  0  0  0  0  0  0  0  0  0  0  0
    3.1745    2.2694    1.5690 H   0  0  0  0  0  0  0  0  0  0  0  0
    2.8125    0.7855    4.2336 H   0  0  0  0  0  0  0  0  0  0  0  0
    2.4035    2.4817    3.9395 H   0  0  0  0  0  0  0  0  0  0  0  0
    4.9752    2.0186    3.0988 H   0  0  0  0  0  0  0  0  0  0  0  0
    4.4412    2.9818    4.3044 H   0  0  0  0  0  0  0  0  0  0  0  0
   -0.8915   -1.0378   -1.9753 N   0  0  0  0  0  0  0  0  0  0  0  0
   -1.1449   -1.3704   -3.3587 C   0  0  2  0  0  0  0  0  0  0  0  0
   -2.4924   -2.0762   -3.4335 C   0  0  0  0  0  0  0  0  0  0  0  0
   -2.9113   -2.8179   -2.5472 O   0  0  0  0  0  0  0  0  0  0  0  0
   -0.0401   -2.2464   -3.9285 C   0  0  0  0  0  0  0  0  0  0  0  0
   -1.2481   -1.6742   -1.2686 H   0  0  0  0  0  0  0  0  0  0  0  0
   -1.1970   -0.4236   -3.9072 H   0  0  0  0  0  0  0  0  0  0  0  0
    0.0273   -3.1996   -3.3916 H   0  0  0  0  0  0  0  0  0  0  0  0
   -0.2190   -2.4738   -4.9846 H   0  0  0  0  0  0  0  0  0  0  0  0
    0.9326   -1.7494   -3.8468 H   0  0  0  0  0  0  0  0  0  0  0  0
   -3.1531   -1.8147   -4.6257 N   0  0  0  0  0  0  0  0  0  0  0  0
   -4.4312   -2.4019   -4.9538 C   0  0  0  0  0  0  0  0  0  0  0  0
   -2.7505   -1.1562   -5.2860 H   0  0  0  0  0  0  0  0  0  0  0  0
   -4.2736   -3.3311   -5.5209 H   0  0  0  0  0  0  0  0  0  0  0  0
   -4.9801   -2.6264   -4.0273 H   0  0  0  0  0  0  0  0  0  0  0  0
   -5.0137   -1.6950   -5.5629 H   0  0  0  0  0  0  0  0  0  0  0  0
  1  3  1  0  0  0  0
  1  7  1  0  0  0  0
  1  2  2  0  0  0  0
 39 40  1  0  0  0  0
 40 48  1  0  0  0  0
 40 41  2  0  0  0  0
  8  9  1  0  0  0  0
  9 17  1  0  0  0  0
  9 10  2  0  0  0  0
 18 19  1  0  0  0  0
 19 38  1  0  0  0  0
 19 20  2  0  0  0  0
 39 42  1  0  0  0  0
  8 11  1  0  0  0  0
 48 49  1  0  0  0  0
 22 23  1  0  0  0  0
 21 22  1  0  0  0  0
 23 24  1  0  0  0  0
 18 21  1  0  0  0  0
 24 25  1  0  0  0  0
 38 39  1  0  0  0  0
  7  8  1  0  0  0  0
 17 18  1  0  0  0  0
  3  4  1  0  0  0  0
  3  5  1  0  0  0  0
  3  6  1  0  0  0  0
 42 45  1  0  0  0  0
 42 46  1  0  0  0  0
 42 47  1  0  0  0  0
 11 14  1  0  0  0  0
 11 15  1  0  0  0  0
 11 16  1  0  0  0  0
 49 51  1  0  0  0  0
 49 52  1  0  0  0  0
 49 53  1  0  0  0  0
 22 30  1  0  0  0  0
 22 31  1  0  0  0  0
 23 32  1  0  0  0  0
 23 33  1  0  0  0  0
 21 28  1  0  0  0  0
 21 29  1  0  0  0  0
 24 34  1  0  0  0  0
 24 35  1  0  0  0  0
 39 44  1  0  0  0  0
  8 13  1  0  0  0  0
 18 27  1  0  0  0  0
 25 36  1  0  0  0  0
 25 37  1  0  0  0  0
 48 50  1  0  0  0  0
  7 12  1  0  0  0  0
 38 43  1  0  0  0  0
 17 26  1  0  0  0  0
M  END
$$$$

  -OEChem-05262214473D

 53 52  0     1  0  0  0  0  0999 V2000
   -1.0338   -5.6785    0.1476 C   0  0  0  0  0  0  0  0  0  0  0  0
   -2.0514   -5.7797    0.8227 O   0  0  0  0  0  0  0  0  0  0  0  0
   -0.6558   -6.7819   -0.7841 C   0  0  0  0  0  0  0  0  0  0  0  0
   -0.0111   -7.5354   -0.3038 H   0  0  0  0  0  0  0  0  0  0  0  0
   -1.5317   -7.3401   -1.1520 H   0  0  0  0  0  0  0  0  0  0  0  0
   -0.1109   -6.4687   -1.6890 H   0  0  0  0  0  0  0  0  0  0  0  0
   -0.1543   -4.6083    0.1480 N   0  0  0  0  0  0  0  0  0  0  0  0
   -0.3302   -3.4398    0.9696 C   0  0  2  0  0  0  0  0  0  0  0  0
    0.2328   -2.2439    0.2131 C   0  0  0  0  0  0  0  0  0  0  0  0
    1.2097   -2.3192   -0.5294 O   0  0  0  0  0  0  0  0  0  0  0  0
    0.3557   -3.6024    2.3171 C   0  0  0  0  0  0  0  0  0  0  0  0
    0.6584   -4.6506   -0.4643 H   0  0  0  0  0  0  0  0  0  0  0  0
   -1.4091   -3.3101    1.1082 H   0  0  0  0  0  0  0  0  0  0  0  0
    1.4375   -3.7336    2.1985 H   0  0  0  0  0  0  0  0  0  0  0  0
    0.1969   -2.7243    2.9517 H   0  0  0  0  0  0  0  0  0  0  0  0
   -0.0294   -4.4803    2.8470 H   0  0  0  0  0  0  0  0  0  0  0  0
   -0.4616   -1.0893    0.5050 N   0  0  0  0  0  0  0  0  0  0  0  0
   -0.0884    0.2050   -0.0621 C   0  0  2  0  0  0  0  0  0  0  0  0
   -0.1834    0.0890   -1.5808 C   0  0  0  0  0  0  0  0  0  0  0  0
    0.5118    0.7517   -2.3482 O   0  0  0  0  0  0  0  0  0  0  0  0
    1.3368    0.6229    0.3300 C   0  0  0  0  0  0  0  0  0  0  0  0
    1.4884    0.9419    1.8209 C   0  0  0  0  0  0  0  0  0  0  0  0
    2.9190    1.3755    2.1520 C   0  0  0  0  0  0  0  0  0  0  0  0
    3.0759    1.6697    3.6429 C   0  0  0  0  0  0  0  0  0  0  0  0
    4.4495    2.0577    3.9406 N   0  0  0  0  0  0  0  0  0  0  0  0
   -1.2794   -1.1113    1.0935 H   0  0  0  0  0  0  0  0  0  0  0  0
   -0.8063    0.9577    0.2853 H   0  0  0  0  0  0  0  0  0  0  0  0
    1.6246    1.5081   -0.2523 H   0  0  0  0  0  0  0  0  0  0  0  0
    2.0481   -0.1656    0.0490 H   0  0  0  0  0  0  0  0  0  0  0  0
    1.2328    0.0629    2.4234 H   0  0  0  0  0  0  0  0  0  0  0  0
    0.7904    1.7412    2.0975 H   0  0  0  0  0  0  0  0  0  0  0  0
    3.6180    0.5842    1.8528 H   0  0  0  0  0  0  0  0  0  0  0  0
    3.1745    2.2694    1.5690 H   0  0  0  0  0  0  0  0  0  0  0  0
    2.8125    0.7855    4.2336 H   0  0  0  0  0  0  0  0  0  0  0  0
    2.4035    2.4817    3.9395 H   0  0  0  0  0  0  0  0  0  0  0  0
    4.9752    2.0186    3.0988 H   0  0  0  0  0  0  0  0  0  0  0  0
    4.4412    2.9818    4.3044 H   0  0  0  0  0  0  0  0  0  0  0  0
   -1.1510   -0.8248   -1.9753 N   0  0  0  0  0  0  0  0  0  0  0  0
   -1.4572   -1.1067   -3.3593 C   0  0  2  0  0  0  0  0  0  0  0  0
   -2.9395   -1.4432   -3.4539 C   0  0  0  0  0  0  0  0  0  0  0  0
   -3.5509   -2.0353   -2.5669 O   0  0  0  0  0  0  0  0  0  0  0  0
   -0.6056   -2.2481   -3.8930 C   0  0  0  0  0  0  0  0  0  0  0  0
   -1.6719   -1.3346   -1.2680 H   0  0  0  0  0  0  0  0  0  0  0  0
   -1.2539   -0.1888   -3.9215 H   0  0  0  0  0  0  0  0  0  0  0  0
   -0.7956   -3.1763   -3.3419 H   0  0  0  0  0  0  0  0  0  0  0  0
   -0.8185   -2.4415   -4.9495 H   0  0  0  0  0  0  0  0  0  0  0  0
    0.4607   -2.0167   -3.7968 H   0  0  0  0  0  0  0  0  0  0  0  0
   -3.4894   -1.0427   -4.6636 N   0  0  0  0  0  0  0  0  0  0  0  0
   -4.8697   -1.2872   -5.0115 C   0  0  0  0  0  0  0  0  0  0  0  0
   -2.9192   -0.5225   -5.3239 H   0  0  0  0  0  0  0  0  0  0  0  0
   -4.9470   -2.2361   -5.5624 H   0  0  0  0  0  0  0  0  0  0  0  0
   -5.4741   -1.3455   -4.0943 H   0  0  0  0  0  0  0  0  0  0  0  0
   -5.2396   -0.4657   -5.6427 H   0  0  0  0  0  0  0  0  0  0  0  0
  1  3  1  0  0  0  0
  1  7  1  0  0  0  0
  1  2  2  0  0  0  0
 39 40  1  0  0  0  0
 40 48  1  0  0  0  0
 40 41  2  0  0  0  0
  8  9  1  0  0  0  0
  9 17  1  0  0  0  0
  9 10  2  0  0  0  0
 18 19  1  0  0  0  0
 19 38  1  0  0  0  0
 19 20  2  0  0  0  0
 39 42  1  0  0  0  0
  8 11  1  0  0  0  0
 48 49  1  0  0  0  0
 22 23  1  0  0  0  0
 21 22  1  0  0  0  0
 23 24  1  0  0  0  0
 18 21  1  0  0  0  0
 24 25  1  0  0  0  0
 38 39  1  0  0  0  0
  7  8  1  0  0  0  0
 17 18  1  0  0  0  0
  3  4  1  0  0  0  0
  3  5  1  0  0  0  0
  3  6  1  0  0  0  0
 42 45  1  0  0  0  0
 42 46  1  0  0  0  0
 42 47  1  0  0  0  0
 11 14  1  0  0  0  0
 11 15  1  0  0  0  0
 11 16  1  0  0  0  0
 49 51  1  0  0  0  0
 49 52  1  0  0  0  0
 49 53  1  0  0  0  0
 22 30  1  0  0  0  0
 22 31  1  0  0  0  0
 23 32  1  0  0  0  0
 23 33  1  0  0  0  0
 21 28  1  0  0  0  0
 21 29  1  0  0  0  0
 24 34  1  0  0  0  0
 24 35  1  0  0  0  0
 39 44  1  0  0  0  0
  8 13  1  0  0  0  0
 18 27  1  0  0  0  0
 25 36  1  0  0  0  0
 25 37  1  0  0  0  0
 48 50  1  0  0  0  0
  7 12  1  0  0  0  0
 38 43  1  0  0  0  0
 17 26  1  0  0  0  0
M  END
$$$$

  -OEChem-05262214473D

 53 52  0     1  0  0  0  0  0999 V2000
   -1.0338   -5.6785    0.1476 C   0  0  0  0  0  0  0  0  0  0  0  0
   -2.0514   -5.7797    0.8227 O   0  0  0  0  0  0  0  0  0  0  0  0
   -0.6558   -6.7819   -0.7841 C   0  0  0  0  0  0  0  0  0  0  0  0
   -0.0111   -7.5354   -0.3038 H   0  0  0  0  0  0  0  0  0  0  0  0
   -1.5317   -7.3401   -1.1520 H   0  0  0  0  0  0  0  0  0  0  0  0
   -0.1109   -6.4687   -1.6890 H   0  0  0  0  0  0  0  0  0  0  0  0
   -0.1543   -4.6083    0.1480 N   0  0  0  0  0  0  0  0  0  0  0  0
   -0.3302   -3.4398    0.9696 C   0  0  2  0  0  0  0  0  0  0  0  0
    0.2328   -2.2439    0.2131 C   0  0  0  0  0  0  0  0  0  0  0  0
    1.2097   -2.3192   -0.5294 O   0  0  0  0  0  0  0  0  0  0  0  0
    0.3557   -3.6024    2.3171 C   0  0  0  0  0  0  0  0  0  0  0  0
    0.6584   -4.6506   -0.4643 H   0  0  0  0  0  0  0  0  0  0  0  0
   -1.4091   -3.3101    1.1082 H   0  0  0  0  0  0  0  0  0  0  0  0
    1.4375   -3.7336    2.1985 H   0  0  0  0  0  0  0  0  0  0  0  0
    0.1969   -2.7243    2.9517 H   0  0  0  0  0  0  0  0  0  0  0  0
   -0.0294   -4.4803    2.8470 H   0  0  0  0  0  0  0  0  0  0  0  0
   -0.4616   -1.0893    0.5050 N   0  0  0  0  0  0  0  0  0  0  0  0
   -0.0884    0.2050   -0.0621 C   0  0  2  0  0  0  0  0  0  0  0  0
   -0.1834    0.0890   -1.5808 C   0  0  0  0  0  0  0  0  0  0  0  0
    0.6725    0.5359   -2.3418 O   0  0  0  0  0  0  0  0  0  0  0  0
    1.3368    0.6229    0.3300 C   0  0  0  0  0  0  0  0  0  0  0  0
    1.4884    0.9419    1.8209 C   0  0  0  0  0  0  0  0  0  0  0  0
    2.9190    1.3755    2.1520 C   0  0  0  0  0  0  0  0  0  0  0  0
    3.0759    1.6697    3.6429 C   0  0  0  0  0  0  0  0  0  0  0  0
    4.4495    2.0577    3.9406 N   0  0  0  0  0  0  0  0  0  0  0  0
   -1.2794   -1.1113    1.0935 H   0  0  0  0  0  0  0  0  0  0  0  0
   -0.8063    0.9577    0.2853 H   0  0  0  0  0  0  0  0  0  0  0  0
    1.6246    1.5081   -0.2523 H   0  0  0  0  0  0  0  0  0  0  0  0
    2.0481   -0.1656    0.0490 H   0  0  0  0  0  0  0  0  0  0  0  0
    1.2328    0.0629    2.4234 H   0  0  0  0  0  0  0  0  0  0  0  0
    0.7904    1.7412    2.0975 H   0  0  0  0  0  0  0  0  0  0  0  0
    3.6180    0.5842    1.8528 H   0  0  0  0  0  0  0  0  0  0  0  0
    3.1745    2.2694    1.5690 H   0  0  0  0  0  0  0  0  0  0  0  0
    2.8125    0.7855    4.2336 H   0  0  0  0  0  0  0  0  0  0  0  0
    2.4035    2.4817    3.9395 H   0  0  0  0  0  0  0  0  0  0  0  0
    4.9752    2.0186    3.0988 H   0  0  0  0  0  0  0  0  0  0  0  0
    4.4412    2.9818    4.3044 H   0  0  0  0  0  0  0  0  0  0  0  0
   -1.3467   -0.5521   -1.9839 N   0  0  0  0  0  0  0  0  0  0  0  0
   -1.6909   -0.7716   -3.3703 C   0  0  2  0  0  0  0  0  0  0  0  0
   -3.2080   -0.7169   -3.4926 C   0  0  0  0  0  0  0  0  0  0  0  0
   -3.9668   -1.1150   -2.6112 O   0  0  0  0  0  0  0  0  0  0  0  0
   -1.1530   -2.1035   -3.8698 C   0  0  0  0  0  0  0  0  0  0  0  0
   -1.9937   -0.8974   -1.2812 H   0  0  0  0  0  0  0  0  0  0  0  0
   -1.2480    0.0524   -3.9403 H   0  0  0  0  0  0  0  0  0  0  0  0
   -1.5854   -2.9411   -3.3104 H   0  0  0  0  0  0  0  0  0  0  0  0
   -1.3900   -2.2553   -4.9280 H   0  0  0  0  0  0  0  0  0  0  0  0
   -0.0649   -2.1527   -3.7535 H   0  0  0  0  0  0  0  0  0  0  0  0
   -3.6148   -0.2111   -4.7193 N   0  0  0  0  0  0  0  0  0  0  0  0
   -5.0051   -0.0984   -5.0939 C   0  0  0  0  0  0  0  0  0  0  0  0
   -2.9182    0.1324   -5.3740 H   0  0  0  0  0  0  0  0  0  0  0  0
   -5.3147   -1.0057   -5.6334 H   0  0  0  0  0  0  0  0  0  0  0  0
   -5.6201    0.0179   -4.1893 H   0  0  0  0  0  0  0  0  0  0  0  0
   -5.1396    0.7786   -5.7440 H   0  0  0  0  0  0  0  0  0  0  0  0
  1  3  1  0  0  0  0
  1  7  1  0  0  0  0
  1  2  2  0  0  0  0
 39 40  1  0  0  0  0
 40 48  1  0  0  0  0
 40 41  2  0  0  0  0
  8  9  1  0  0  0  0
  9 17  1  0  0  0  0
  9 10  2  0  0  0  0
 18 19  1  0  0  0  0
 19 38  1  0  0  0  0
 19 20  2  0  0  0  0
 39 42  1  0  0  0  0
  8 11  1  0  0  0  0
 48 49  1  0  0  0  0
 22 23  1  0  0  0  0
 21 22  1  0  0  0  0
 23 24  1  0  0  0  0
 18 21  1  0  0  0  0
 24 25  1  0  0  0  0
 38 39  1  0  0  0  0
  7  8  1  0  0  0  0
 17 18  1  0  0  0  0
  3  4  1  0  0  0  0
  3  5  1  0  0  0  0
  3  6  1  0  0  0  0
 42 45  1  0  0  0  0
 42 46  1  0  0  0  0
 42 47  1  0  0  0  0
 11 14  1  0  0  0  0
 11 15  1  0  0  0  0
 11 16  1  0  0  0  0
 49 51  1  0  0  0  0
 49 52  1  0  0  0  0
 49 53  1  0  0  0  0
 22 30  1  0  0  0  0
 22 31  1  0  0  0  0
 23 32  1  0  0  0  0
 23 33  1  0  0  0  0
 21 28  1  0  0  0  0
 21 29  1  0  0  0  0
 24 34  1  0  0  0  0
 24 35  1  0  0  0  0
 39 44  1  0  0  0  0
  8 13  1  0  0  0  0
 18 27  1  0  0  0  0
 25 36  1  0  0  0  0
 25 37  1  0  0  0  0
 48 50  1  0  0  0  0
  7 12  1  0  0  0  0
 38 43  1  0  0  0  0
 17 26  1  0  0  0  0
M  END
$$$$

  -OEChem-05262214473D

 53 52  0     1  0  0  0  0  0999 V2000
   -1.0338   -5.6785    0.1476 C   0  0  0  0  0  0  0  0  0  0  0  0
   -2.0514   -5.7797    0.8227 O   0  0  0  0  0  0  0  0  0  0  0  0
   -0.6558   -6.7819   -0.7841 C   0  0  0  0  0  0  0  0  0  0  0  0
   -0.0111   -7.5354   -0.3038 H   0  0  0  0  0  0  0  0  0  0  0  0
   -1.5317   -7.3401   -1.1520 H   0  0  0  0  0  0  0  0  0  0  0  0
   -0.1109   -6.4687   -1.6890 H   0  0  0  0  0  0  0  0  0  0  0  0
   -0.1543   -4.6083    0.1480 N   0  0  0  0  0  0  0  0  0  0  0  0
   -0.3302   -3.4398    0.9696 C   0  0  2  0  0  0  0  0  0  0  0  0
    0.2328   -2.2439    0.2131 C   0  0  0  0  0  0  0  0  0  0  0  0
    1.2097   -2.3192   -0.5294 O   0  0  0  0  0  0  0  0  0  0  0  0
    0.3557   -3.6024    2.3171 C   0  0  0  0  0  0  0  0  0  0  0  0
    0.6584   -4.6506   -0.4643 H   0  0  0  0  0  0  0  0  0  0  0  0
   -1.4091   -3.3101    1.1082 H   0  0  0  0  0  0  0  0  0  0  0  0
    1.4375   -3.7336    2.1985 H   0  0  0  0  0  0  0  0  0  0  0  0
    0.1969   -2.7243    2.9517 H   0  0  0  0  0  0  0  0  0  0  0  0
   -0.0294   -4.4803    2.8470 H   0  0  0  0  0  0  0  0  0  0  0  0
   -0.4616   -1.0893    0.5050 N   0  0  0  0  0  0  0  0  0  0  0  0
   -0.0884    0.2050   -0.0621 C   0  0  2  0  0  0  0  0  0  0  0  0
   -0.1834    0.0890   -1.5808 C   0  0  0  0  0  0  0  0  0  0  0  0
    0.7720    0.2862   -2.3289 O   0  0  0  0  0  0  0  0  0  0  0  0
    1.3368    0.6229    0.3300 C   0  0  0  0  0  0  0  0  0  0  0  0
    1.4884    0.9419    1.8209 C   0  0  0  0  0  0  0  0  0  0  0  0
    2.9190    1.3755    2.1520 C   0  0  0  0  0  0  0  0  0  0  0  0
    3.0759    1.6697    3.6429 C   0  0  0  0  0  0  0  0  0  0  0  0
    4.4495    2.0577    3.9406 N   0  0  0  0  0  0  0  0  0  0  0  0
   -1.2794   -1.1113    1.0935 H   0  0  0  0  0  0  0  0  0  0  0  0
   -0.8063    0.9577    0.2853 H   0  0  0  0  0  0  0  0  0  0  0  0
    1.6246    1.5081   -0.2523 H   0  0  0  0  0  0  0  0  0  0  0  0
    2.0481   -0.1656    0.0490 H   0  0  0  0  0  0  0  0  0  0  0  0
    1.2328    0.0629    2.4234 H   0  0  0  0  0  0  0  0  0  0  0  0
    0.7904    1.7412    2.0975 H   0  0  0  0  0  0  0  0  0  0  0  0
    3.6180    0.5842    1.8528 H   0  0  0  0  0  0  0  0  0  0  0  0
    3.1745    2.2694    1.5690 H   0  0  0  0  0  0  0  0  0  0  0  0
    2.8125    0.7855    4.2336 H   0  0  0  0  0  0  0  0  0  0  0  0
    2.4035    2.4817    3.9395 H   0  0  0  0  0  0  0  0  0  0  0  0
    4.9752    2.0186    3.0988 H   0  0  0  0  0  0  0  0  0  0  0  0
    4.4412    2.9818    4.3044 H   0  0  0  0  0  0  0  0  0  0  0  0
   -1.4654   -0.2385   -2.0004 N   0  0  0  0  0  0  0  0  0  0  0  0
   -1.8301   -0.3879   -3.3909 C   0  0  2  0  0  0  0  0  0  0  0  0
   -3.2794    0.0532   -3.5469 C   0  0  0  0  0  0  0  0  0  0  0  0
   -4.1306   -0.1197   -2.6770 O   0  0  0  0  0  0  0  0  0  0  0  0
   -1.6449   -1.8224   -3.8605 C   0  0  0  0  0  0  0  0  0  0  0  0
   -2.1918   -0.3924   -1.3074 H   0  0  0  0  0  0  0  0  0  0  0  0
   -1.1799    0.2835   -3.9623 H   0  0  0  0  0  0  0  0  0  0  0  0
   -2.2884   -2.5099   -3.2993 H   0  0  0  0  0  0  0  0  0  0  0  0
   -1.8944   -1.9280   -4.9214 H   0  0  0  0  0  0  0  0  0  0  0  0
   -0.6085   -2.1479   -3.7198 H   0  0  0  0  0  0  0  0  0  0  0  0
   -3.5205    0.6236   -4.7890 N   0  0  0  0  0  0  0  0  0  0  0  0
   -4.8280    1.0833   -5.1952 C   0  0  0  0  0  0  0  0  0  0  0  0
   -2.7476    0.7639   -5.4329 H   0  0  0  0  0  0  0  0  0  0  0  0
   -5.3514    0.2764   -5.7291 H   0  0  0  0  0  0  0  0  0  0  0  0
   -5.4081    1.3709   -4.3060 H   0  0  0  0  0  0  0  0  0  0  0  0
   -4.7205    1.9531   -5.8600 H   0  0  0  0  0  0  0  0  0  0  0  0
  1  3  1  0  0  0  0
  1  7  1  0  0  0  0
  1  2  2  0  0  0  0
 39 40  1  0  0  0  0
 40 48  1  0  0  0  0
 40 41  2  0  0  0  0
  8  9  1  0  0  0  0
  9 17  1  0  0  0  0
  9 10  2  0  0  0  0
 18 19  1  0  0  0  0
 19 38  1  0  0  0  0
 19 20  2  0  0  0  0
 39 42  1  0  0  0  0
  8 11  1  0  0  0  0
 48 49  1  0  0  0  0
 22 23  1  0  0  0  0
 21 22  1  0  0  0  0
 23 24  1  0  0  0  0
 18 21  1  0  0  0  0
 24 25  1  0  0  0  0
 38 39  1  0  0  0  0
  7  8  1  0  0  0  0
 17 18  1  0  0  0  0
  3  4  1  0  0  0  0
  3  5  1  0  0  0  0
  3  6  1  0  0  0  0
 42 45  1  0  0  0  0
 42 46  1  0  0  0  0
 42 47  1  0  0  0  0
 11 14  1  0  0  0  0
 11 15  1  0  0  0  0
 11 16  1  0  0  0  0
 49 51  1  0  0  0  0
 49 52  1  0  0  0  0
 49 53  1  0  0  0  0
 22 30  1  0  0  0  0
 22 31  1  0  0  0  0
 23 32  1  0  0  0  0
 23 33  1  0  0  0  0
 21 28  1  0  0  0  0
 21 29  1  0  0  0  0
 24 34  1  0  0  0  0
 24 35  1  0  0  0  0
 39 44  1  0  0  0  0
  8 13  1  0  0  0  0
 18 27  1  0  0  0  0
 25 36  1  0  0  0  0
 25 37  1  0  0  0  0
 48 50  1  0  0  0  0
  7 12  1  0  0  0  0
 38 43  1  0  0  0  0
 17 26  1  0  0  0  0
M  END
$$$$

  -OEChem-05262214473D

 53 52  0     1  0  0  0  0  0999 V2000
   -1.0338   -5.6785    0.1476 C   0  0  0  0  0  0  0  0  0  0  0  0
   -2.0514   -5.7797    0.8227 O   0  0  0  0  0  0  0  0  0  0  0  0
   -0.6558   -6.7819   -0.7841 C   0  0  0  0  0  0  0  0  0  0  0  0
   -0.0111   -7.5354   -0.3038 H   0  0  0  0  0  0  0  0  0  0  0  0
   -1.5317   -7.3401   -1.1520 H   0  0  0  0  0  0  0  0  0  0  0  0
   -0.1109   -6.4687   -1.6890 H   0  0  0  0  0  0  0  0  0  0  0  0
   -0.1543   -4.6083    0.1480 N   0  0  0  0  0  0  0  0  0  0  0  0
   -0.3302   -3.4398    0.9696 C   0  0  2  0  0  0  0  0  0  0  0  0
    0.2328   -2.2439    0.2131 C   0  0  0  0  0  0  0  0  0  0  0  0
    1.2097   -2.3192   -0.5294 O   0  0  0  0  0  0  0  0  0  0  0  0
    0.3557   -3.6024    2.3171 C   0  0  0  0  0  0  0  0  0  0  0  0
    0.6584   -4.6506   -0.4643 H   0  0  0  0  0  0  0  0  0  0  0  0
   -1.4091   -3.3101    1.1082 H   0  0  0  0  0  0  0  0  0  0  0  0
    1.4375   -3.7336    2.1985 H   0  0  0  0  0  0  0  0  0  0  0  0
    0.1969   -2.7243    2.9517 H   0  0  0  0  0  0  0  0  0  0  0  0
   -0.0294   -4.4803    2.8470 H   0  0  0  0  0  0  0  0  0  0  0  0
   -0.4616   -1.0893    0.5050 N   0  0  0  0  0  0  0  0  0  0  0  0
   -0.0884    0.2050   -0.0621 C   0  0  2  0  0  0  0  0  0  0  0  0
   -0.1834    0.0890   -1.5808 C   0  0  0  0  0  0  0  0  0  0  0  0
    0.8035    0.0196   -2.3105 O   0  0  0  0  0  0  0  0  0  0  0  0
    1.3368    0.6229    0.3300 C   0  0  0  0  0  0  0  0  0  0  0  0
    1.4884    0.9419    1.8209 C   0  0  0  0  0  0  0  0  0  0  0  0
    2.9190    1.3755    2.1520 C   0  0  0  0  0  0  0  0  0  0  0  0
    3.0759    1.6697    3.6429 C   0  0  0  0  0  0  0  0  0  0  0  0
    4.4495    2.0577    3.9406 N   0  0  0  0  0  0  0  0  0  0  0  0
   -1.2794   -1.1113    1.0935 H   0  0  0  0  0  0  0  0  0  0  0  0
   -0.8063    0.9577    0.2853 H   0  0  0  0  0  0  0  0  0  0  0  0
    1.6246    1.5081   -0.2523 H   0  0  0  0  0  0  0  0  0  0  0  0
    2.0481   -0.1656    0.0490 H   0  0  0  0  0  0  0  0  0  0  0  0
    1.2328    0.0629    2.4234 H   0  0  0  0  0  0  0  0  0  0  0  0
    0.7904    1.7412    2.0975 H   0  0  0  0  0  0  0  0  0  0  0  0
    3.6180    0.5842    1.8528 H   0  0  0  0  0  0  0  0  0  0  0  0
    3.1745    2.2694    1.5690 H   0  0  0  0  0  0  0  0  0  0  0  0
    2.8125    0.7855    4.2336 H   0  0  0  0  0  0  0  0  0  0  0  0
    2.4035    2.4817    3.9395 H   0  0  0  0  0  0  0  0  0  0  0  0
    4.9752    2.0186    3.0988 H   0  0  0  0  0  0  0  0  0  0  0  0
    4.4412    2.9818    4.3044 H   0  0  0  0  0  0  0  0  0  0  0  0
   -1.4989    0.0947   -2.0238 N   0  0  0  0  0  0  0  0  0  0  0  0
   -1.8653    0.0183   -3.4197 C   0  0  2  0  0  0  0  0  0  0  0  0
   -3.1490    0.8145   -3.6133 C   0  0  0  0  0  0  0  0  0  0  0  0
   -4.0311    0.8829   -2.7598 O   0  0  0  0  0  0  0  0  0  0  0  0
   -2.0479   -1.4241   -3.8657 C   0  0  0  0  0  0  0  0  0  0  0  0
   -2.2525    0.1460   -1.3448 H   0  0  0  0  0  0  0  0  0  0  0  0
   -1.0541    0.4888   -3.9858 H   0  0  0  0  0  0  0  0  0  0  0  0
   -2.8566   -1.9121   -3.3095 H   0  0  0  0  0  0  0  0  0  0  0  0
   -2.2975   -1.4817   -4.9303 H   0  0  0  0  0  0  0  0  0  0  0  0
   -1.1330   -2.0027   -3.6981 H   0  0  0  0  0  0  0  0  0  0  0  0
   -3.2131    1.4045   -4.8679 N   0  0  0  0  0  0  0  0  0  0  0  0
   -4.3506    2.1776   -5.3087 C   0  0  0  0  0  0  0  0  0  0  0  0
   -2.4189    1.3290   -5.4966 H   0  0  0  0  0  0  0  0  0  0  0  0
   -5.0548    1.5228   -5.8429 H   0  0  0  0  0  0  0  0  0  0  0  0
   -4.8525    2.6214   -4.4363 H   0  0  0  0  0  0  0  0  0  0  0  0
   -4.0109    2.9778   -5.9827 H   0  0  0  0  0  0  0  0  0  0  0  0
  1  3  1  0  0  0  0
  1  7  1  0  0  0  0
  1  2  2  0  0  0  0
 39 40  1  0  0  0  0
 40 48  1  0  0  0  0
 40 41  2  0  0  0  0
  8  9  1  0  0  0  0
  9 17  1  0  0  0  0
  9 10  2  0  0  0  0
 18 19  1  0  0  0  0
 19 38  1  0  0  0  0
 19 20  2  0  0  0  0
 39 42  1  0  0  0  0
  8 11  1  0  0  0  0
 48 49  1  0  0  0  0
 22 23  1  0  0  0  0
 21 22  1  0  0  0  0
 23 24  1  0  0  0  0
 18 21  1  0  0  0  0
 24 25  1  0  0  0  0
 38 39  1  0  0  0  0
  7  8  1  0  0  0  0
 17 18  1  0  0  0  0
  3  4  1  0  0  0  0
  3  5  1  0  0  0  0
  3  6  1  0  0  0  0
 42 45  1  0  0  0  0
 42 46  1  0  0  0  0
 42 47  1  0  0  0  0
 11 14  1  0  0  0  0
 11 15  1  0  0  0  0
 11 16  1  0  0  0  0
 49 51  1  0  0  0  0
 49 52  1  0  0  0  0
 49 53  1  0  0  0  0
 22 30  1  0  0  0  0
 22 31  1  0  0  0  0
 23 32  1  0  0  0  0
 23 33  1  0  0  0  0
 21 28  1  0  0  0  0
 21 29  1  0  0  0  0
 24 34  1  0  0  0  0
 24 35  1  0  0  0  0
 39 44  1  0  0  0  0
  8 13  1  0  0  0  0
 18 27  1  0  0  0  0
 25 36  1  0  0  0  0
 25 37  1  0  0  0  0
 48 50  1  0  0  0  0
  7 12  1  0  0  0  0
 38 43  1  0  0  0  0
 17 26  1  0  0  0  0
M  END
$$$$

  -OEChem-05262214473D

 53 52  0     1  0  0  0  0  0999 V2000
   -1.0338   -5.6785    0.1476 C   0  0  0  0  0  0  0  0  0  0  0  0
   -2.0514   -5.7797    0.8227 O   0  0  0  0  0  0  0  0  0  0  0  0
   -0.6558   -6.7819   -0.7841 C   0  0  0  0  0  0  0  0  0  0  0  0
   -0.0111   -7.5354   -0.3038 H   0  0  0  0  0  0  0  0  0  0  0  0
   -1.5317   -7.3401   -1.1520 H   0  0  0  0  0  0  0  0  0  0  0  0
   -0.1109   -6.4687   -1.6890 H   0  0  0  0  0  0  0  0  0  0  0  0
   -0.1543   -4.6083    0.1480 N   0  0  0  0  0  0  0  0  0  0  0  0
   -0.3302   -3.4398    0.9696 C   0  0  2  0  0  0  0  0  0  0  0  0
    0.2328   -2.2439    0.2131 C   0  0  0  0  0  0  0  0  0  0  0  0
    1.2097   -2.3192   -0.5294 O   0  0  0  0  0  0  0  0  0  0  0  0
    0.3557   -3.6024    2.3171 C   0  0  0  0  0  0  0  0  0  0  0  0
    0.6584   -4.6506   -0.4643 H   0  0  0  0  0  0  0  0  0  0  0  0
   -1.4091   -3.3101    1.1082 H   0  0  0  0  0  0  0  0  0  0  0  0
    1.4375   -3.7336    2.1985 H   0  0  0  0  0  0  0  0  0  0  0  0
    0.1969   -2.7243    2.9517 H   0  0  0  0  0  0  0  0  0  0  0  0
   -0.0294   -4.4803    2.8470 H   0  0  0  0  0  0  0  0  0  0  0  0
   -0.4616   -1.0893    0.5050 N   0  0  0  0  0  0  0  0  0  0  0  0
   -0.0884    0.2050   -0.0621 C   0  0  2  0  0  0  0  0  0  0  0  0
   -0.1834    0.0890   -1.5808 C   0  0  0  0  0  0  0  0  0  0  0  0
    0.7649   -0.2457   -2.2879 O   0  0  0  0  0  0  0  0  0  0  0  0
    1.3368    0.6229    0.3300 C   0  0  0  0  0  0  0  0  0  0  0  0
    1.4884    0.9419    1.8209 C   0  0  0  0  0  0  0  0  0  0  0  0
    2.9190    1.3755    2.1520 C   0  0  0  0  0  0  0  0  0  0  0  0
    3.0759    1.6697    3.6429 C   0  0  0  0  0  0  0  0  0  0  0  0
    4.4495    2.0577    3.9406 N   0  0  0  0  0  0  0  0  0  0  0  0
   -1.2794   -1.1113    1.0935 H   0  0  0  0  0  0  0  0  0  0  0  0
   -0.8063    0.9577    0.2853 H   0  0  0  0  0  0  0  0  0  0  0  0
    1.6246    1.5081   -0.2523 H   0  0  0  0  0  0  0  0  0  0  0  0
    2.0481   -0.1656    0.0490 H   0  0  0  0  0  0  0  0  0  0  0  0
    1.2328    0.0629    2.4234 H   0  0  0  0  0  0  0  0  0  0  0  0
    0.7904    1.7412    2.0975 H   0  0  0  0  0  0  0  0  0  0  0  0
    3.6180    0.5842    1.8528 H   0  0  0  0  0  0  0  0  0  0  0  0
    3.1745    2.2694    1.5690 H   0  0  0  0  0  0  0  0  0  0  0  0
    2.8125    0.7855    4.2336 H   0  0  0  0  0  0  0  0  0  0  0  0
    2.4035    2.4817    3.9395 H   0  0  0  0  0  0  0  0  0  0  0  0
    4.9752    2.0186    3.0988 H   0  0  0  0  0  0  0  0  0  0  0  0
    4.4412    2.9818    4.3044 H   0  0  0  0  0  0  0  0  0  0  0  0
   -1.4450    0.4248   -2.0524 N   0  0  0  0  0  0  0  0  0  0  0  0
   -1.7942    0.4192   -3.4548 C   0  0  2  0  0  0  0  0  0  0  0  0
   -2.8257    1.5153   -3.6871 C   0  0  0  0  0  0  0  0  0  0  0  0
   -3.6752    1.8244   -2.8541 O   0  0  0  0  0  0  0  0  0  0  0  0
   -2.3345   -0.9357   -3.8851 C   0  0  0  0  0  0  0  0  0  0  0  0
   -2.1717    0.6810   -1.3907 H   0  0  0  0  0  0  0  0  0  0  0  0
   -0.8792    0.6544   -4.0094 H   0  0  0  0  0  0  0  0  0  0  0  0
   -3.2512   -1.1886   -3.3400 H   0  0  0  0  0  0  0  0  0  0  0  0
   -2.5717   -0.9470   -4.9540 H   0  0  0  0  0  0  0  0  0  0  0  0
   -1.6027   -1.7270   -3.6898 H   0  0  0  0  0  0  0  0  0  0  0  0
   -2.7135    2.0783   -4.9506 N   0  0  0  0  0  0  0  0  0  0  0  0
   -3.6054    3.1097   -5.4266 C   0  0  0  0  0  0  0  0  0  0  0  0
   -1.9547    1.7892   -5.5609 H   0  0  0  0  0  0  0  0  0  0  0  0
   -4.4451    2.6484   -5.9670 H   0  0  0  0  0  0  0  0  0  0  0  0
   -3.9912    3.6840   -4.5714 H   0  0  0  0  0  0  0  0  0  0  0  0
   -3.0592    3.7828   -6.1038 H   0  0  0  0  0  0  0  0  0  0  0  0
  1  3  1  0  0  0  0
  1  7  1  0  0  0  0
  1  2  2  0  0  0  0
 39 40  1  0  0  0  0
 40 48  1  0  0  0  0
 40 41  2  0  0  0  0
  8  9  1  0  0  0  0
  9 17  1  0  0  0  0
  9 10  2  0  0  0  0
 18 19  1  0  0  0  0
 19 38  1  0  0  0  0
 19 20  2  0  0  0  0
 39 42  1  0  0  0  0
  8 11  1  0  0  0  0
 48 49  1  0  0  0  0
 22 23  1  0  0  0  0
 21 22  1  0  0  0  0
 23 24  1  0  0  0  0
 18 21  1  0  0  0  0
 24 25  1  0  0  0  0
 38 39  1  0  0  0  0
  7  8  1  0  0  0  0
 17 18  1  0  0  0  0
  3  4  1  0  0  0  0
  3  5  1  0  0  0  0
  3  6  1  0  0  0  0
 42 45  1  0  0  0  0
 42 46  1  0  0  0  0
 42 47  1  0  0  0  0
 11 14  1  0  0  0  0
 11 15  1  0  0  0  0
 11 16  1  0  0  0  0
 49 51  1  0  0  0  0
 49 52  1  0  0  0  0
 49 53  1  0  0  0  0
 22 30  1  0  0  0  0
 22 31  1  0  0  0  0
 23 32  1  0  0  0  0
 23 33  1  0  0  0  0
 21 28  1  0  0  0  0
 21 29  1  0  0  0  0
 24 34  1  0  0  0  0
 24 35  1  0  0  0  0
 39 44  1  0  0  0  0
  8 13  1  0  0  0  0
 18 27  1  0  0  0  0
 25 36  1  0  0  0  0
 25 37  1  0  0  0  0
 48 50  1  0  0  0  0
  7 12  1  0  0  0  0
 38 43  1  0  0  0  0
 17 26  1  0  0  0  0
M  END
$$$$

  -OEChem-05262214473D

 53 52  0     1  0  0  0  0  0999 V2000
   -1.0338   -5.6785    0.1476 C   0  0  0  0  0  0  0  0  0  0  0  0
   -2.0514   -5.7797    0.8227 O   0  0  0  0  0  0  0  0  0  0  0  0
   -0.6558   -6.7819   -0.7841 C   0  0  0  0  0  0  0  0  0  0  0  0
   -0.0111   -7.5354   -0.3038 H   0  0  0  0  0  0  0  0  0  0  0  0
   -1.5317   -7.3401   -1.1520 H   0  0  0  0  0  0  0  0  0  0  0  0
   -0.1109   -6.4687   -1.6890 H   0  0  0  0  0  0  0  0  0  0  0  0
   -0.1543   -4.6083    0.1480 N   0  0  0  0  0  0  0  0  0  0  0  0
   -0.3302   -3.4398    0.9696 C   0  0  2  0  0  0  0  0  0  0  0  0
    0.2328   -2.2439    0.2131 C   0  0  0  0  0  0  0  0  0  0  0  0
    1.2097   -2.3192   -0.5294 O   0  0  0  0  0  0  0  0  0  0  0  0
    0.3557   -3.6024    2.3171 C   0  0  0  0  0  0  0  0  0  0  0  0
    0.6584   -4.6506   -0.4643 H   0  0  0  0  0  0  0  0  0  0  0  0
   -1.4091   -3.3101    1.1082 H   0  0  0  0  0  0  0  0  0  0  0  0
    1.4375   -3.7336    2.1985 H   0  0  0  0  0  0  0  0  0  0  0  0
    0.1969   -2.7243    2.9517 H   0  0  0  0  0  0  0  0  0  0  0  0
   -0.0294   -4.4803    2.8470 H   0  0  0  0  0  0  0  0  0  0  0  0
   -0.4616   -1.0893    0.5050 N   0  0  0  0  0  0  0  0  0  0  0  0
   -0.0884    0.2050   -0.0621 C   0  0  2  0  0  0  0  0  0  0  0  0
   -0.1834    0.0890   -1.5808 C   0  0  0  0  0  0  0  0  0  0  0  0
    0.6589   -0.4917   -2.2624 O   0  0  0  0  0  0  0  0  0  0  0  0
    1.3368    0.6229    0.3300 C   0  0  0  0  0  0  0  0  0  0  0  0
    1.4884    0.9419    1.8209 C   0  0  0  0  0  0  0  0  0  0  0  0
    2.9190    1.3755    2.1520 C   0  0  0  0  0  0  0  0  0  0  0  0
    3.0759    1.6697    3.6429 C   0  0  0  0  0  0  0  0  0  0  0  0
    4.4495    2.0577    3.9406 N   0  0  0  0  0  0  0  0  0  0  0  0
   -1.2794   -1.1113    1.0935 H   0  0  0  0  0  0  0  0  0  0  0  0
   -0.8063    0.9577    0.2853 H   0  0  0  0  0  0  0  0  0  0  0  0
    1.6246    1.5081   -0.2523 H   0  0  0  0  0  0  0  0  0  0  0  0
    2.0481   -0.1656    0.0490 H   0  0  0  0  0  0  0  0  0  0  0  0
    1.2328    0.0629    2.4234 H   0  0  0  0  0  0  0  0  0  0  0  0
    0.7904    1.7412    2.0975 H   0  0  0  0  0  0  0  0  0  0  0  0
    3.6180    0.5842    1.8528 H   0  0  0  0  0  0  0  0  0  0  0  0
    3.1745    2.2694    1.5690 H   0  0  0  0  0  0  0  0  0  0  0  0
    2.8125    0.7855    4.2336 H   0  0  0  0  0  0  0  0  0  0  0  0
    2.4035    2.4817    3.9395 H   0  0  0  0  0  0  0  0  0  0  0  0
    4.9752    2.0186    3.0988 H   0  0  0  0  0  0  0  0  0  0  0  0
    4.4412    2.9818    4.3044 H   0  0  0  0  0  0  0  0  0  0  0  0
   -1.3074    0.7294   -2.0842 N   0  0  0  0  0  0  0  0  0  0  0  0
   -1.6215    0.7876   -3.4938 C   0  0  2  0  0  0  0  0  0  0  0  0
   -2.3314    2.1077   -3.7633 C   0  0  0  0  0  0  0  0  0  0  0  0
   -3.0871    2.6406   -2.9532 O   0  0  0  0  0  0  0  0  0  0  0  0
   -2.4851   -0.3904   -3.9173 C   0  0  0  0  0  0  0  0  0  0  0  0
   -1.9550    1.1763   -1.4421 H   0  0  0  0  0  0  0  0  0  0  0  0
   -0.6672    0.7690   -4.0315 H   0  0  0  0  0  0  0  0  0  0  0  0
   -3.4455   -0.3886   -3.3890 H   0  0  0  0  0  0  0  0  0  0  0  0
   -2.6984   -0.3602   -4.9909 H   0  0  0  0  0  0  0  0  0  0  0  0
   -1.9855   -1.3396   -3.6954 H   0  0  0  0  0  0  0  0  0  0  0  0
   -2.0557    2.5991   -5.0316 N   0  0  0  0  0  0  0  0  0  0  0  0
   -2.6432    3.8163   -5.5408 C   0  0  0  0  0  0  0  0  0  0  0  0
   -1.3864    2.1131   -5.6212 H   0  0  0  0  0  0  0  0  0  0  0  0
   -3.5638    3.5766   -6.0931 H   0  0  0  0  0  0  0  0  0  0  0  0
   -2.8829    4.4864   -4.7021 H   0  0  0  0  0  0  0  0  0  0  0  0
   -1.9301    4.3133   -6.2150 H   0  0  0  0  0  0  0  0  0  0  0  0
  1  3  1  0  0  0  0
  1  7  1  0  0  0  0
  1  2  2  0  0  0  0
 39 40  1  0  0  0  0
 40 48  1  0  0  0  0
 40 41  2  0  0  0  0
  8  9  1  0  0  0  0
  9 17  1  0  0  0  0
  9 10  2  0  0  0  0
 18 19  1  0  0  0  0
 19 38  1  0  0  0  0
 19 20  2  0  0  0  0
 39 42  1  0  0  0  0
  8 11  1  0  0  0  0
 48 49  1  0  0  0  0
 22 23  1  0  0  0  0
 21 22  1  0  0  0  0
 23 24  1  0  0  0  0
 18 21  1  0  0  0  0
 24 25  1  0  0  0  0
 38 39  1  0  0  0  0
  7  8  1  0  0  0  0
 17 18  1  0  0  0  0
  3  4  1  0  0  0  0
  3  5  1  0  0  0  0
  3  6  1  0  0  0  0
 42 45  1  0  0  0  0
 42 46  1  0  0  0  0
 42 47  1  0  0  0  0
 11 14  1  0  0  0  0
 11 15  1  0  0  0  0
 11 16  1  0  0  0  0
 49 51  1  0  0  0  0
 49 52  1  0  0  0  0
 49 53  1  0  0  0  0
 22 30  1  0  0  0  0
 22 31  1  0  0  0  0
 23 32  1  0  0  0  0
 23 33  1  0  0  0  0
 21 28  1  0  0  0  0
 21 29  1  0  0  0  0
 24 34  1  0  0  0  0
 24 35  1  0  0  0  0
 39 44  1  0  0  0  0
  8 13  1  0  0  0  0
 18 27  1  0  0  0  0
 25 36  1  0  0  0  0
 25 37  1  0  0  0  0
 48 50  1  0  0  0  0
  7 12  1  0  0  0  0
 38 43  1  0  0  0  0
 17 26  1  0  0  0  0
M  END
$$$$

  -OEChem-05262214473D

 53 52  0     1  0  0  0  0  0999 V2000
   -1.0338   -5.6785    0.1476 C   0  0  0  0  0  0  0  0  0  0  0  0
   -2.0514   -5.7797    0.8227 O   0  0  0  0  0  0  0  0  0  0  0  0
   -0.6558   -6.7819   -0.7841 C   0  0  0  0  0  0  0  0  0  0  0  0
   -0.0111   -7.5354   -0.3038 H   0  0  0  0  0  0  0  0  0  0  0  0
   -1.5317   -7.3401   -1.1520 H   0  0  0  0  0  0  0  0  0  0  0  0
   -0.1109   -6.4687   -1.6890 H   0  0  0  0  0  0  0  0  0  0  0  0
   -0.1543   -4.6083    0.1480 N   0  0  0  0  0  0  0  0  0  0  0  0
   -0.3302   -3.4398    0.9696 C   0  0  2  0  0  0  0  0  0  0  0  0
    0.2328   -2.2439    0.2131 C   0  0  0  0  0  0  0  0  0  0  0  0
    1.2097   -2.3192   -0.5294 O   0  0  0  0  0  0  0  0  0  0  0  0
    0.3557   -3.6024    2.3171 C   0  0  0  0  0  0  0  0  0  0  0  0
    0.6584   -4.6506   -0.4643 H   0  0  0  0  0  0  0  0  0  0  0  0
   -1.4091   -3.3101    1.1082 H   0  0  0  0  0  0  0  0  0  0  0  0
    1.4375   -3.7336    2.1985 H   0  0  0  0  0  0  0  0  0  0  0  0
    0.1969   -2.7243    2.9517 H   0  0  0  0  0  0  0  0  0  0  0  0
   -0.0294   -4.4803    2.8470 H   0  0  0  0  0  0  0  0  0  0  0  0
   -0.4616   -1.0893    0.5050 N   0  0  0  0  0  0  0  0  0  0  0  0
   -0.0884    0.2050   -0.0621 C   0  0  2  0  0  0  0  0  0  0  0  0
   -0.1834    0.0890   -1.5808 C   0  0  0  0  0  0  0  0  0  0  0  0
    0.4926   -0.7016   -2.2360 O   0  0  0  0  0  0  0  0  0  0  0  0
    1.3368    0.6229    0.3300 C   0  0  0  0  0  0  0  0  0  0  0  0
    1.4884    0.9419    1.8209 C   0  0  0  0  0  0  0  0  0  0  0  0
    2.9190    1.3755    2.1520 C   0  0  0  0  0  0  0  0  0  0  0  0
    3.0759    1.6697    3.6429 C   0  0  0  0  0  0  0  0  0  0  0  0
    4.4495    2.0577    3.9406 N   0  0  0  0  0  0  0  0  0  0  0  0
   -1.2794   -1.1113    1.0935 H   0  0  0  0  0  0  0  0  0  0  0  0
   -0.8063    0.9577    0.2853 H   0  0  0  0  0  0  0  0  0  0  0  0
    1.6246    1.5081   -0.2523 H   0  0  0  0  0  0  0  0  0  0  0  0
    2.0481   -0.1656    0.0490 H   0  0  0  0  0  0  0  0  0  0  0  0
    1.2328    0.0629    2.4234 H   0  0  0  0  0  0  0  0  0  0  0  0
    0.7904    1.7412    2.0975 H   0  0  0  0  0  0  0  0  0  0  0  0
    3.6180    0.5842    1.8528 H   0  0  0  0  0  0  0  0  0  0  0  0
    3.1745    2.2694    1.5690 H   0  0  0  0  0  0  0  0  0  0  0  0
    2.8125    0.7855    4.2336 H   0  0  0  0  0  0  0  0  0  0  0  0
    2.4035    2.4817    3.9395 H   0  0  0  0  0  0  0  0  0  0  0  0
    4.9752    2.0186    3.0988 H   0  0  0  0  0  0  0  0  0  0  0  0
    4.4412    2.9818    4.3044 H   0  0  0  0  0  0  0  0  0  0  0  0
   -1.0953    0.9876   -2.1172 N   0  0  0  0  0  0  0  0  0  0  0  0
   -1.3590    1.0983   -3.5339 C   0  0  2  0  0  0  0  0  0  0  0  0
   -1.6999    2.5514   -3.8367 C   0  0  0  0  0  0  0  0  0  0  0  0
   -2.3068    3.2759   -3.0506 O   0  0  0  0  0  0  0  0  0  0  0  0
   -2.4894    0.1746   -3.9602 C   0  0  0  0  0  0  0  0  0  0  0  0
   -1.6171    1.5981   -1.4955 H   0  0  0  0  0  0  0  0  0  0  0  0
   -0.4325    0.8246   -4.0504 H   0  0  0  0  0  0  0  0  0  0  0  0
   -3.4261    0.4334   -3.4530 H   0  0  0  0  0  0  0  0  0  0  0  0
   -2.6689    0.2386   -5.0385 H   0  0  0  0  0  0  0  0  0  0  0  0
   -2.2554   -0.8669   -3.7146 H   0  0  0  0  0  0  0  0  0  0  0  0
   -1.2846    2.9315   -5.1053 N   0  0  0  0  0  0  0  0  0  0  0  0
   -1.5295    4.2491   -5.6436 C   0  0  0  0  0  0  0  0  0  0  0  0
   -0.7530    2.2786   -5.6735 H   0  0  0  0  0  0  0  0  0  0  0  0
   -2.4709    4.2442   -6.2126 H   0  0  0  0  0  0  0  0  0  0  0  0
   -1.6031    4.9739   -4.8195 H   0  0  0  0  0  0  0  0  0  0  0  0
   -0.7007    4.5331   -6.3088 H   0  0  0  0  0  0  0  0  0  0  0  0
  1  3  1  0  0  0  0
  1  7  1  0  0  0  0
  1  2  2  0  0  0  0
 39 40  1  0  0  0  0
 40 48  1  0  0  0  0
 40 41  2  0  0  0  0
  8  9  1  0  0  0  0
  9 17  1  0  0  0  0
  9 10  2  0  0  0  0
 18 19  1  0  0  0  0
 19 38  1  0  0  0  0
 19 20  2  0  0  0  0
 39 42  1  0  0  0  0
  8 11  1  0  0  0  0
 48 49  1  0  0  0  0
 22 23  1  0  0  0  0
 21 22  1  0  0  0  0
 23 24  1  0  0  0  0
 18 21  1  0  0  0  0
 24 25  1  0  0  0  0
 38 39  1  0  0  0  0
  7  8  1  0  0  0  0
 17 18  1  0  0  0  0
  3  4  1  0  0  0  0
  3  5  1  0  0  0  0
  3  6  1  0  0  0  0
 42 45  1  0  0  0  0
 42 46  1  0  0  0  0
 42 47  1  0  0  0  0
 11 14  1  0  0  0  0
 11 15  1  0  0  0  0
 11 16  1  0  0  0  0
 49 51  1  0  0  0  0
 49 52  1  0  0  0  0
 49 53  1  0  0  0  0
 22 30  1  0  0  0  0
 22 31  1  0  0  0  0
 23 32  1  0  0  0  0
 23 33  1  0  0  0  0
 21 28  1  0  0  0  0
 21 29  1  0  0  0  0
 24 34  1  0  0  0  0
 24 35  1  0  0  0  0
 39 44  1  0  0  0  0
  8 13  1  0  0  0  0
 18 27  1  0  0  0  0
 25 36  1  0  0  0  0
 25 37  1  0  0  0  0
 48 50  1  0  0  0  0
  7 12  1  0  0  0  0
 38 43  1  0  0  0  0
 17 26  1  0  0  0  0
M  END
$$$$

  -OEChem-05262214473D

 53 52  0     1  0  0  0  0  0999 V2000
   -1.0338   -5.6785    0.1476 C   0  0  0  0  0  0  0  0  0  0  0  0
   -2.0514   -5.7797    0.8227 O   0  0  0  0  0  0  0  0  0  0  0  0
   -0.6558   -6.7819   -0.7841 C   0  0  0  0  0  0  0  0  0  0  0  0
   -0.0111   -7.5354   -0.3038 H   0  0  0  0  0  0  0  0  0  0  0  0
   -1.5317   -7.3401   -1.1520 H   0  0  0  0  0  0  0  0  0  0  0  0
   -0.1109   -6.4687   -1.6890 H   0  0  0  0  0  0  0  0  0  0  0  0
   -0.1543   -4.6083    0.1480 N   0  0  0  0  0  0  0  0  0  0  0  0
   -0.3302   -3.4398    0.9696 C   0  0  2  0  0  0  0  0  0  0  0  0
    0.2328   -2.2439    0.2131 C   0  0  0  0  0  0  0  0  0  0  0  0
    1.2097   -2.3192   -0.5294 O   0  0  0  0  0  0  0  0  0  0  0  0
    0.3557   -3.6024    2.3171 C   0  0  0  0  0  0  0  0  0  0  0  0
    0.6584   -4.6506   -0.4643 H   0  0  0  0  0  0  0  0  0  0  0  0
   -1.4091   -3.3101    1.1082 H   0  0  0  0  0  0  0  0  0  0  0  0
    1.4375   -3.7336    2.1985 H   0  0  0  0  0  0  0  0  0  0  0  0
    0.1969   -2.7243    2.9517 H   0  0  0  0  0  0  0  0  0  0  0  0
   -0.0294   -4.4803    2.8470 H   0  0  0  0  0  0  0  0  0  0  0  0
   -0.4616   -1.0893    0.5050 N   0  0  0  0  0  0  0  0  0  0  0  0
   -0.0884    0.2050   -0.0621 C   0  0  2  0  0  0  0  0  0  0  0  0
   -0.1834    0.0890   -1.5808 C   0  0  0  0  0  0  0  0  0  0  0  0
    0.2774   -0.8611   -2.2103 O   0  0  0  0  0  0  0  0  0  0  0  0
    1.3368    0.6229    0.3300 C   0  0  0  0  0  0  0  0  0  0  0  0
    1.4884    0.9419    1.8209 C   0  0  0  0  0  0  0  0  0  0  0  0
    2.9190    1.3755    2.1520 C   0  0  0  0  0  0  0  0  0  0  0  0
    3.0759    1.6697    3.6429 C   0  0  0  0  0  0  0  0  0  0  0  0
    4.4495    2.0577    3.9406 N   0  0  0  0  0  0  0  0  0  0  0  0
   -1.2794   -1.1113    1.0935 H   0  0  0  0  0  0  0  0  0  0  0  0
   -0.8063    0.9577    0.2853 H   0  0  0  0  0  0  0  0  0  0  0  0
    1.6246    1.5081   -0.2523 H   0  0  0  0  0  0  0  0  0  0  0  0
    2.0481   -0.1656    0.0490 H   0  0  0  0  0  0  0  0  0  0  0  0
    1.2328    0.0629    2.4234 H   0  0  0  0  0  0  0  0  0  0  0  0
    0.7904    1.7412    2.0975 H   0  0  0  0  0  0  0  0  0  0  0  0
    3.6180    0.5842    1.8528 H   0  0  0  0  0  0  0  0  0  0  0  0
    3.1745    2.2694    1.5690 H   0  0  0  0  0  0  0  0  0  0  0  0
    2.8125    0.7855    4.2336 H   0  0  0  0  0  0  0  0  0  0  0  0
    2.4035    2.4817    3.9395 H   0  0  0  0  0  0  0  0  0  0  0  0
    4.9752    2.0186    3.0988 H   0  0  0  0  0  0  0  0  0  0  0  0
    4.4412    2.9818    4.3044 H   0  0  0  0  0  0  0  0  0  0  0  0
   -0.8234    1.1818   -2.1491 N   0  0  0  0  0  0  0  0  0  0  0  0
   -1.0247    1.3302   -3.5726 C   0  0  2  0  0  0  0  0  0  0  0  0
   -0.9742    2.8161   -3.9024 C   0  0  0  0  0  0  0  0  0  0  0  0
   -1.3876    3.6870   -3.1396 O   0  0  0  0  0  0  0  0  0  0  0  0
   -2.3473    0.7208   -4.0108 C   0  0  0  0  0  0  0  0  0  0  0  0
   -1.1810    1.9176   -1.5472 H   0  0  0  0  0  0  0  0  0  0  0  0
   -0.1911    0.8176   -4.0650 H   0  0  0  0  0  0  0  0  0  0  0  0
   -3.1943    1.2214   -3.5277 H   0  0  0  0  0  0  0  0  0  0  0  0
   -2.4852    0.8086   -5.0935 H   0  0  0  0  0  0  0  0  0  0  0  0
   -2.3939   -0.3411   -3.7461 H   0  0  0  0  0  0  0  0  0  0  0  0
   -0.4527    3.0527   -5.1666 N   0  0  0  0  0  0  0  0  0  0  0  0
   -0.3403    4.3787   -5.7280 C   0  0  0  0  0  0  0  0  0  0  0  0
   -0.0974    2.2745   -5.7142 H   0  0  0  0  0  0  0  0  0  0  0  0
   -1.2410    4.6056   -6.3172 H   0  0  0  0  0  0  0  0  0  0  0  0
   -0.2390    5.1133   -4.9155 H   0  0  0  0  0  0  0  0  0  0  0  0
    0.5453    4.4273   -6.3787 H   0  0  0  0  0  0  0  0  0  0  0  0
  1  3  1  0  0  0  0
  1  7  1  0  0  0  0
  1  2  2  0  0  0  0
 39 40  1  0  0  0  0
 40 48  1  0  0  0  0
 40 41  2  0  0  0  0
  8  9  1  0  0  0  0
  9 17  1  0  0  0  0
  9 10  2  0  0  0  0
 18 19  1  0  0  0  0
 19 38  1  0  0  0  0
 19 20  2  0  0  0  0
 39 42  1  0  0  0  0
  8 11  1  0  0  0  0
 48 49  1  0  0  0  0
 22 23  1  0  0  0  0
 21 22  1  0  0  0  0
 23 24  1  0  0  0  0
 18 21  1  0  0  0  0
 24 25  1  0  0  0  0
 38 39  1  0  0  0  0
  7  8  1  0  0  0  0
 17 18  1  0  0  0  0
  3  4  1  0  0  0  0
  3  5  1  0  0  0  0
  3  6  1  0  0  0  0
 42 45  1  0  0  0  0
 42 46  1  0  0  0  0
 42 47  1  0  0  0  0
 11 14  1  0  0  0  0
 11 15  1  0  0  0  0
 11 16  1  0  0  0  0
 49 51  1  0  0  0  0
 49 52  1  0  0  0  0
 49 53  1  0  0  0  0
 22 30  1  0  0  0  0
 22 31  1  0  0  0  0
 23 32  1  0  0  0  0
 23 33  1  0  0  0  0
 21 28  1  0  0  0  0
 21 29  1  0  0  0  0
 24 34  1  0  0  0  0
 24 35  1  0  0  0  0
 39 44  1  0  0  0  0
  8 13  1  0  0  0  0
 18 27  1  0  0  0  0
 25 36  1  0  0  0  0
 25 37  1  0  0  0  0
 48 50  1  0  0  0  0
  7 12  1  0  0  0  0
 38 43  1  0  0  0  0
 17 26  1  0  0  0  0
M  END
$$$$

  -OEChem-05262214473D

 53 52  0     1  0  0  0  0  0999 V2000
   -1.0338   -5.6785    0.1476 C   0  0  0  0  0  0  0  0  0  0  0  0
   -2.0514   -5.7797    0.8227 O   0  0  0  0  0  0  0  0  0  0  0  0
   -0.6558   -6.7819   -0.7841 C   0  0  0  0  0  0  0  0  0  0  0  0
   -0.0111   -7.5354   -0.3038 H   0  0  0  0  0  0  0  0  0  0  0  0
   -1.5317   -7.3401   -1.1520 H   0  0  0  0  0  0  0  0  0  0  0  0
   -0.1109   -6.4687   -1.6890 H   0  0  0  0  0  0  0  0  0  0  0  0
   -0.1543   -4.6083    0.1480 N   0  0  0  0  0  0  0  0  0  0  0  0
   -0.3302   -3.4398    0.9696 C   0  0  2  0  0  0  0  0  0  0  0  0
    0.2328   -2.2439    0.2131 C   0  0  0  0  0  0  0  0  0  0  0  0
    1.2097   -2.3192   -0.5294 O   0  0  0  0  0  0  0  0  0  0  0  0
    0.3557   -3.6024    2.3171 C   0  0  0  0  0  0  0  0  0  0  0  0
    0.6584   -4.6506   -0.4643 H   0  0  0  0  0  0  0  0  0  0  0  0
   -1.4091   -3.3101    1.1082 H   0  0  0  0  0  0  0  0  0  0  0  0
    1.4375   -3.7336    2.1985 H   0  0  0  0  0  0  0  0  0  0  0  0
    0.1969   -2.7243    2.9517 H   0  0  0  0  0  0  0  0  0  0  0  0
   -0.0294   -4.4803    2.8470 H   0  0  0  0  0  0  0  0  0  0  0  0
   -0.4616   -1.0893    0.5050 N   0  0  0  0  0  0  0  0  0  0  0  0
   -0.0884    0.2050   -0.0621 C   0  0  2  0  0  0  0  0  0  0  0  0
   -0.1834    0.0890   -1.5808 C   0  0  0  0  0  0  0  0  0  0  0  0
    0.0280   -0.9593   -2.1872 O   0  0  0  0  0  0  0  0  0  0  0  0
    1.3368    0.6229    0.3300 C   0  0  0  0  0  0  0  0  0  0  0  0
    1.4884    0.9419    1.8209 C   0  0  0  0  0  0  0  0  0  0  0  0
    2.9190    1.3755    2.1520 C   0  0  0  0  0  0  0  0  0  0  0  0
    3.0759    1.6697    3.6429 C   0  0  0  0  0  0  0  0  0  0  0  0
    4.4495    2.0577    3.9406 N   0  0  0  0  0  0  0  0  0  0  0  0
   -1.2794   -1.1113    1.0935 H   0  0  0  0  0  0  0  0  0  0  0  0
   -0.8063    0.9577    0.2853 H   0  0  0  0  0  0  0  0  0  0  0  0
    1.6246    1.5081   -0.2523 H   0  0  0  0  0  0  0  0  0  0  0  0
    2.0481   -0.1656    0.0490 H   0  0  0  0  0  0  0  0  0  0  0  0
    1.2328    0.0629    2.4234 H   0  0  0  0  0  0  0  0  0  0  0  0
    0.7904    1.7412    2.0975 H   0  0  0  0  0  0  0  0  0  0  0  0
    3.6180    0.5842    1.8528 H   0  0  0  0  0  0  0  0  0  0  0  0
    3.1745    2.2694    1.5690 H   0  0  0  0  0  0  0  0  0  0  0  0
    2.8125    0.7855    4.2336 H   0  0  0  0  0  0  0  0  0  0  0  0
    2.4035    2.4817    3.9395 H   0  0  0  0  0  0  0  0  0  0  0  0
    4.9752    2.0186    3.0988 H   0  0  0  0  0  0  0  0  0  0  0  0
    4.4412    2.9818    4.3044 H   0  0  0  0  0  0  0  0  0  0  0  0
   -0.5100    1.2989   -2.1777 N   0  0  0  0  0  0  0  0  0  0  0  0
   -0.6413    1.4674   -3.6071 C   0  0  2  0  0  0  0  0  0  0  0  0
   -0.2037    2.8839   -3.9558 C   0  0  0  0  0  0  0  0  0  0  0  0
   -0.3920    3.8459   -3.2141 O   0  0  0  0  0  0  0  0  0  0  0  0
   -2.0684    1.2109   -4.0657 C   0  0  0  0  0  0  0  0  0  0  0  0
   -0.6764    2.1131   -1.5937 H   0  0  0  0  0  0  0  0  0  0  0  0
    0.0406    0.7485   -4.0742 H   0  0  0  0  0  0  0  0  0  0  0  0
   -2.7661    1.9217   -3.6080 H   0  0  0  0  0  0  0  0  0  0  0  0
   -2.1599    1.3110   -5.1523 H   0  0  0  0  0  0  0  0  0  0  0  0
   -2.3917    0.2020   -3.7877 H   0  0  0  0  0  0  0  0  0  0  0  0
    0.3832    2.9546   -5.2114 N   0  0  0  0  0  0  0  0  0  0  0  0
    0.8435    4.1962   -5.7881 C   0  0  0  0  0  0  0  0  0  0  0  0
    0.5355    2.1010   -5.7406 H   0  0  0  0  0  0  0  0  0  0  0  0
    0.0421    4.6362   -6.3998 H   0  0  0  0  0  0  0  0  0  0  0  0
    1.1163    4.8950   -4.9837 H   0  0  0  0  0  0  0  0  0  0  0  0
    1.7229    4.0030   -6.4200 H   0  0  0  0  0  0  0  0  0  0  0  0
  1  3  1  0  0  0  0
  1  7  1  0  0  0  0
  1  2  2  0  0  0  0
 39 40  1  0  0  0  0
 40 48  1  0  0  0  0
 40 41  2  0  0  0  0
  8  9  1  0  0  0  0
  9 17  1  0  0  0  0
  9 10  2  0  0  0  0
 18 19  1  0  0  0  0
 19 38  1  0  0  0  0
 19 20  2  0  0  0  0
 39 42  1  0  0  0  0
  8 11  1  0  0  0  0
 48 49  1  0  0  0  0
 22 23  1  0  0  0  0
 21 22  1  0  0  0  0
 23 24  1  0  0  0  0
 18 21  1  0  0  0  0
 24 25  1  0  0  0  0
 38 39  1  0  0  0  0
  7  8  1  0  0  0  0
 17 18  1  0  0  0  0
  3  4  1  0  0  0  0
  3  5  1  0  0  0  0
  3  6  1  0  0  0  0
 42 45  1  0  0  0  0
 42 46  1  0  0  0  0
 42 47  1  0  0  0  0
 11 14  1  0  0  0  0
 11 15  1  0  0  0  0
 11 16  1  0  0  0  0
 49 51  1  0  0  0  0
 49 52  1  0  0  0  0
 49 53  1  0  0  0  0
 22 30  1  0  0  0  0
 22 31  1  0  0  0  0
 23 32  1  0  0  0  0
 23 33  1  0  0  0  0
 21 28  1  0  0  0  0
 21 29  1  0  0  0  0
 24 34  1  0  0  0  0
 24 35  1  0  0  0  0
 39 44  1  0  0  0  0
  8 13  1  0  0  0  0
 18 27  1  0  0  0  0
 25 36  1  0  0  0  0
 25 37  1  0  0  0  0
 48 50  1  0  0  0  0
  7 12  1  0  0  0  0
 38 43  1  0  0  0  0
 17 26  1  0  0  0  0
M  END
$$$$

  -OEChem-05262214473D

 53 52  0     1  0  0  0  0  0999 V2000
   -1.0338   -5.6785    0.1476 C   0  0  0  0  0  0  0  0  0  0  0  0
   -2.0514   -5.7797    0.8227 O   0  0  0  0  0  0  0  0  0  0  0  0
   -0.6558   -6.7819   -0.7841 C   0  0  0  0  0  0  0  0  0  0  0  0
   -0.0111   -7.5354   -0.3038 H   0  0  0  0  0  0  0  0  0  0  0  0
   -1.5317   -7.3401   -1.1520 H   0  0  0  0  0  0  0  0  0  0  0  0
   -0.1109   -6.4687   -1.6890 H   0  0  0  0  0  0  0  0  0  0  0  0
   -0.1543   -4.6083    0.1480 N   0  0  0  0  0  0  0  0  0  0  0  0
   -0.3302   -3.4398    0.9696 C   0  0  2  0  0  0  0  0  0  0  0  0
    0.2328   -2.2439    0.2131 C   0  0  0  0  0  0  0  0  0  0  0  0
    1.2097   -2.3192   -0.5294 O   0  0  0  0  0  0  0  0  0  0  0  0
    0.3557   -3.6024    2.3171 C   0  0  0  0  0  0  0  0  0  0  0  0
    0.6584   -4.6506   -0.4643 H   0  0  0  0  0  0  0  0  0  0  0  0
   -1.4091   -3.3101    1.1082 H   0  0  0  0  0  0  0  0  0  0  0  0
    1.4375   -3.7336    2.1985 H   0  0  0  0  0  0  0  0  0  0  0  0
    0.1969   -2.7243    2.9517 H   0  0  0  0  0  0  0  0  0  0  0  0
   -0.0294   -4.4803    2.8470 H   0  0  0  0  0  0  0  0  0  0  0  0
   -0.4616   -1.0893    0.5050 N   0  0  0  0  0  0  0  0  0  0  0  0
   -0.0884    0.2050   -0.0621 C   0  0  2  0  0  0  0  0  0  0  0  0
   -0.1834    0.0890   -1.5808 C   0  0  0  0  0  0  0  0  0  0  0  0
   -0.2387   -0.9896   -2.1682 O   0  0  0  0  0  0  0  0  0  0  0  0
    1.3368    0.6229    0.3300 C   0  0  0  0  0  0  0  0  0  0  0  0
    1.4884    0.9419    1.8209 C   0  0  0  0  0  0  0  0  0  0  0  0
    2.9190    1.3755    2.1520 C   0  0  0  0  0  0  0  0  0  0  0  0
    3.0759    1.6697    3.6429 C   0  0  0  0  0  0  0  0  0  0  0  0
    4.4495    2.0577    3.9406 N   0  0  0  0  0  0  0  0  0  0  0  0
   -1.2794   -1.1113    1.0935 H   0  0  0  0  0  0  0  0  0  0  0  0
   -0.8063    0.9577    0.2853 H   0  0  0  0  0  0  0  0  0  0  0  0
    1.6246    1.5081   -0.2523 H   0  0  0  0  0  0  0  0  0  0  0  0
    2.0481   -0.1656    0.0490 H   0  0  0  0  0  0  0  0  0  0  0  0
    1.2328    0.0629    2.4234 H   0  0  0  0  0  0  0  0  0  0  0  0
    0.7904    1.7412    2.0975 H   0  0  0  0  0  0  0  0  0  0  0  0
    3.6180    0.5842    1.8528 H   0  0  0  0  0  0  0  0  0  0  0  0
    3.1745    2.2694    1.5690 H   0  0  0  0  0  0  0  0  0  0  0  0
    2.8125    0.7855    4.2336 H   0  0  0  0  0  0  0  0  0  0  0  0
    2.4035    2.4817    3.9395 H   0  0  0  0  0  0  0  0  0  0  0  0
    4.9752    2.0186    3.0988 H   0  0  0  0  0  0  0  0  0  0  0  0
    4.4412    2.9818    4.3044 H   0  0  0  0  0  0  0  0  0  0  0  0
   -0.1766    1.3308   -2.2010 N   0  0  0  0  0  0  0  0  0  0  0  0
   -0.2349    1.5007   -3.6350 C   0  0  2  0  0  0  0  0  0  0  0  0
    0.5590    2.7500   -3.9933 C   0  0  0  0  0  0  0  0  0  0  0  0
    0.6120    3.7418   -3.2689 O   0  0  0  0  0  0  0  0  0  0  0  0
   -1.6716    1.6116   -4.1212 C   0  0  0  0  0  0  0  0  0  0  0  0
   -0.1378    2.1711   -1.6319 H   0  0  0  0  0  0  0  0  0  0  0  0
    0.2467    0.6218   -4.0774 H   0  0  0  0  0  0  0  0  0  0  0  0
   -2.1705    2.4865   -3.6885 H   0  0  0  0  0  0  0  0  0  0  0  0
   -1.7152    1.7116   -5.2107 H   0  0  0  0  0  0  0  0  0  0  0  0
   -2.2489    0.7253   -3.8367 H   0  0  0  0  0  0  0  0  0  0  0  0
    1.1663    2.6437   -5.2367 N   0  0  0  0  0  0  0  0  0  0  0  0
    1.9411    3.7140   -5.8200 C   0  0  0  0  0  0  0  0  0  0  0  0
    1.1028    1.7700   -5.7508 H   0  0  0  0  0  0  0  0  0  0  0  0
    1.2911    4.3340   -6.4549 H   0  0  0  0  0  0  0  0  0  0  0  0
    2.3706    4.3340   -5.0193 H   0  0  0  0  0  0  0  0  0  0  0  0
    2.7520    3.2892   -6.4299 H   0  0  0  0  0  0  0  0  0  0  0  0
  1  3  1  0  0  0  0
  1  7  1  0  0  0  0
  1  2  2  0  0  0  0
 39 40  1  0  0  0  0
 40 48  1  0  0  0  0
 40 41  2  0  0  0  0
  8  9  1  0  0  0  0
  9 17  1  0  0  0  0
  9 10  2  0  0  0  0
 18 19  1  0  0  0  0
 19 38  1  0  0  0  0
 19 20  2  0  0  0  0
 39 42  1  0  0  0  0
  8 11  1  0  0  0  0
 48 49  1  0  0  0  0
 22 23  1  0  0  0  0
 21 22  1  0  0  0  0
 23 24  1  0  0  0  0
 18 21  1  0  0  0  0
 24 25  1  0  0  0  0
 38 39  1  0  0  0  0
  7  8  1  0  0  0  0
 17 18  1  0  0  0  0
  3  4  1  0  0  0  0
  3  5  1  0  0  0  0
  3  6  1  0  0  0  0
 42 45  1  0  0  0  0
 42 46  1  0  0  0  0
 42 47  1  0  0  0  0
 11 14  1  0  0  0  0
 11 15  1  0  0  0  0
 11 16  1  0  0  0  0
 49 51  1  0  0  0  0
 49 52  1  0  0  0  0
 49 53  1  0  0  0  0
 22 30  1  0  0  0  0
 22 31  1  0  0  0  0
 23 32  1  0  0  0  0
 23 33  1  0  0  0  0
 21 28  1  0  0  0  0
 21 29  1  0  0  0  0
 24 34  1  0  0  0  0
 24 35  1  0  0  0  0
 39 44  1  0  0  0  0
  8 13  1  0  0  0  0
 18 27  1  0  0  0  0
 25 36  1  0  0  0  0
 25 37  1  0  0  0  0
 48 50  1  0  0  0  0
  7 12  1  0  0  0  0
 38 43  1  0  0  0  0
 17 26  1  0  0  0  0
M  END
$$$$

  -OEChem-05262214473D

 53 52  0     1  0  0  0  0  0999 V2000
   -1.0338   -5.6785    0.1476 C   0  0  0  0  0  0  0  0  0  0  0  0
   -2.0514   -5.7797    0.8227 O   0  0  0  0  0  0  0  0  0  0  0  0
   -0.6558   -6.7819   -0.7841 C   0  0  0  0  0  0  0  0  0  0  0  0
   -0.0111   -7.5354   -0.3038 H   0  0  0  0  0  0  0  0  0  0  0  0
   -1.5317   -7.3401   -1.1520 H   0  0  0  0  0  0  0  0  0  0  0  0
   -0.1109   -6.4687   -1.6890 H   0  0  0  0  0  0  0  0  0  0  0  0
   -0.1543   -4.6083    0.1480 N   0  0  0  0  0  0  0  0  0  0  0  0
   -0.3302   -3.4398    0.9696 C   0  0  2  0  0  0  0  0  0  0  0  0
    0.2328   -2.2439    0.2131 C   0  0  0  0  0  0  0  0  0  0  0  0
    1.2097   -2.3192   -0.5294 O   0  0  0  0  0  0  0  0  0  0  0  0
    0.3557   -3.6024    2.3171 C   0  0  0  0  0  0  0  0  0  0  0  0
    0.6584   -4.6506   -0.4643 H   0  0  0  0  0  0  0  0  0  0  0  0
   -1.4091   -3.3101    1.1082 H   0  0  0  0  0  0  0  0  0  0  0  0
    1.4375   -3.7336    2.1985 H   0  0  0  0  0  0  0  0  0  0  0  0
    0.1969   -2.7243    2.9517 H   0  0  0  0  0  0  0  0  0  0  0  0
   -0.0294   -4.4803    2.8470 H   0  0  0  0  0  0  0  0  0  0  0  0
   -0.4616   -1.0893    0.5050 N   0  0  0  0  0  0  0  0  0  0  0  0
   -0.0884    0.2050   -0.0621 C   0  0  2  0  0  0  0  0  0  0  0  0
   -0.5359    0.2168   -1.5210 C   0  0  0  0  0  0  0  0  0  0  0  0
   -1.0887   -0.7399   -2.0600 O   0  0  0  0  0  0  0  0  0  0  0  0
    1.4251    0.4572    0.0099 C   0  0  0  0  0  0  0  0  0  0  0  0
    1.9431    0.6437    1.4398 C   0  0  0  0  0  0  0  0  0  0  0  0
    3.4498    0.9158    1.4521 C   0  0  0  0  0  0  0  0  0  0  0  0
    3.9702    1.0773    2.8794 C   0  0  0  0  0  0  0  0  0  0  0  0
    5.4092    1.3119    2.8701 N   0  0  0  0  0  0  0  0  0  0  0  0
   -1.2794   -1.1113    1.0935 H   0  0  0  0  0  0  0  0  0  0  0  0
   -0.6236    0.9917    0.4832 H   0  0  0  0  0  0  0  0  0  0  0  0
    1.6680    1.3545   -0.5743 H   0  0  0  0  0  0  0  0  0  0  0  0
    1.9651   -0.3696   -0.4713 H   0  0  0  0  0  0  0  0  0  0  0  0
    1.7367   -0.2519    2.0364 H   0  0  0  0  0  0  0  0  0  0  0  0
    1.4162    1.4804    1.9141 H   0  0  0  0  0  0  0  0  0  0  0  0
    3.9734    0.0888    0.9560 H   0  0  0  0  0  0  0  0  0  0  0  0
    3.6621    1.8249    0.8752 H   0  0  0  0  0  0  0  0  0  0  0  0
    3.7529    0.1781    3.4661 H   0  0  0  0  0  0  0  0  0  0  0  0
    3.4740    1.9226    3.3680 H   0  0  0  0  0  0  0  0  0  0  0  0
    5.7238    1.2899    1.9282 H   0  0  0  0  0  0  0  0  0  0  0  0
    5.5833    2.2018    3.2755 H   0  0  0  0  0  0  0  0  0  0  0  0
   -0.2247    1.4127   -2.1532 N   0  0  0  0  0  0  0  0  0  0  0  0
   -0.5205    1.6745   -3.5435 C   0  0  2  0  0  0  0  0  0  0  0  0
    0.5668    2.5894   -4.0914 C   0  0  0  0  0  0  0  0  0  0  0  0
    1.1158    3.4578   -3.4165 O   0  0  0  0  0  0  0  0  0  0  0  0
   -1.8948    2.3046   -3.7076 C   0  0  0  0  0  0  0  0  0  0  0  0
    0.2256    2.1532   -1.6236 H   0  0  0  0  0  0  0  0  0  0  0  0
   -0.4827    0.7102   -4.0619 H   0  0  0  0  0  0  0  0  0  0  0  0
   -1.9518    3.2717   -3.1948 H   0  0  0  0  0  0  0  0  0  0  0  0
   -2.1291    2.4760   -4.7634 H   0  0  0  0  0  0  0  0  0  0  0  0
   -2.6725    1.6586   -3.2862 H   0  0  0  0  0  0  0  0  0  0  0  0
    0.8215    2.3510   -5.4347 N   0  0  0  0  0  0  0  0  0  0  0  0
    1.7810    3.1179   -6.1944 C   0  0  0  0  0  0  0  0  0  0  0  0
    0.3486    1.5846   -5.9046 H   0  0  0  0  0  0  0  0  0  0  0  0
    1.2717    3.9602   -6.6854 H   0  0  0  0  0  0  0  0  0  0  0  0
    2.5593    3.5032   -5.5193 H   0  0  0  0  0  0  0  0  0  0  0  0
    2.2433    2.4741   -6.9573 H   0  0  0  0  0  0  0  0  0  0  0  0
  1  3  1  0  0  0  0
  1  7  1  0  0  0  0
  1  2  2  0  0  0  0
 39 40  1  0  0  0  0
 40 48  1  0  0  0  0
 40 41  2  0  0  0  0
  8  9  1  0  0  0  0
  9 17  1  0  0  0  0
  9 10  2  0  0  0  0
 18 19  1  0  0  0  0
 19 38  1  0  0  0  0
 19 20  2  0  0  0  0
 39 42  1  0  0  0  0
  8 11  1  0  0  0  0
 48 49  1  0  0  0  0
 22 23  1  0  0  0  0
 21 22  1  0  0  0  0
 23 24  1  0  0  0  0
 18 21  1  0  0  0  0
 24 25  1  0  0  0  0
 38 39  1  0  0  0  0
  7  8  1  0  0  0  0
 17 18  1  0  0  0  0
  3  4  1  0  0  0  0
  3  5  1  0  0  0  0
  3  6  1  0  0  0  0
 42 45  1  0  0  0  0
 42 46  1  0  0  0  0
 42 47  1  0  0  0  0
 11 14  1  0  0  0  0
 11 15  1  0  0  0  0
 11 16  1  0  0  0  0
 49 51  1  0  0  0  0
 49 52  1  0  0  0  0
 49 53  1  0  0  0  0
 22 30  1  0  0  0  0
 22 31  1  0  0  0  0
 23 32  1  0  0  0  0
 23 33  1  0  0  0  0
 21 28  1  0  0  0  0
 21 29  1  0  0  0  0
 24 34  1  0  0  0  0
 24 35  1  0  0  0  0
 39 44  1  0  0  0  0
  8 13  1  0  0  0  0
 18 27  1  0  0  0  0
 25 36  1  0  0  0  0
 25 37  1  0  0  0  0
 48 50  1  0  0  0  0
  7 12  1  0  0  0  0
 38 43  1  0  0  0  0
 17 26  1  0  0  0  0
M  END
$$$$

  -OEChem-05262214473D

 53 52  0     1  0  0  0  0  0999 V2000
   -1.0338   -5.6785    0.1476 C   0  0  0  0  0  0  0  0  0  0  0  0
   -2.0514   -5.7797    0.8227 O   0  0  0  0  0  0  0  0  0  0  0  0
   -0.6558   -6.7819   -0.7841 C   0  0  0  0  0  0  0  0  0  0  0  0
   -0.0111   -7.5354   -0.3038 H   0  0  0  0  0  0  0  0  0  0  0  0
   -1.5317   -7.3401   -1.1520 H   0  0  0  0  0  0  0  0  0  0  0  0
   -0.1109   -6.4687   -1.6890 H   0  0  0  0  0  0  0  0  0  0  0  0
   -0.1543   -4.6083    0.1480 N   0  0  0  0  0  0  0  0  0  0  0  0
   -0.3302   -3.4398    0.9696 C   0  0  2  0  0  0  0  0  0  0  0  0
    0.2328   -2.2439    0.2131 C   0  0  0  0  0  0  0  0  0  0  0  0
    1.2097   -2.3192   -0.5294 O   0  0  0  0  0  0  0  0  0  0  0  0
    0.3557   -3.6024    2.3171 C   0  0  0  0  0  0  0  0  0  0  0  0
    0.6584   -4.6506   -0.4643 H   0  0  0  0  0  0  0  0  0  0  0  0
   -1.4091   -3.3101    1.1082 H   0  0  0  0  0  0  0  0  0  0  0  0
    1.4375   -3.7336    2.1985 H   0  0  0  0  0  0  0  0  0  0  0  0
    0.1969   -2.7243    2.9517 H   0  0  0  0  0  0  0  0  0  0  0  0
   -0.0294   -4.4803    2.8470 H   0  0  0  0  0  0  0  0  0  0  0  0
   -0.4616   -1.0893    0.5050 N   0  0  0  0  0  0  0  0  0  0  0  0
   -0.0884    0.2050   -0.0621 C   0  0  2  0  0  0  0  0  0  0  0  0
   -0.5359    0.2168   -1.5210 C   0  0  0  0  0  0  0  0  0  0  0  0
   -1.3144   -0.6113   -1.9898 O   0  0  0  0  0  0  0  0  0  0  0  0
    1.4251    0.4572    0.0099 C   0  0  0  0  0  0  0  0  0  0  0  0
    1.9431    0.6437    1.4398 C   0  0  0  0  0  0  0  0  0  0  0  0
    3.4498    0.9158    1.4521 C   0  0  0  0  0  0  0  0  0  0  0  0
    3.9702    1.0773    2.8794 C   0  0  0  0  0  0  0  0  0  0  0  0
    5.4092    1.3119    2.8701 N   0  0  0  0  0  0  0  0  0  0  0  0
   -1.2794   -1.1113    1.0935 H   0  0  0  0  0  0  0  0  0  0  0  0
   -0.6236    0.9917    0.4832 H   0  0  0  0  0  0  0  0  0  0  0  0
    1.6680    1.3545   -0.5743 H   0  0  0  0  0  0  0  0  0  0  0  0
    1.9651   -0.3696   -0.4713 H   0  0  0  0  0  0  0  0  0  0  0  0
    1.7367   -0.2519    2.0364 H   0  0  0  0  0  0  0  0  0  0  0  0
    1.4162    1.4804    1.9141 H   0  0  0  0  0  0  0  0  0  0  0  0
    3.9734    0.0888    0.9560 H   0  0  0  0  0  0  0  0  0  0  0  0
    3.6621    1.8249    0.8752 H   0  0  0  0  0  0  0  0  0  0  0  0
    3.7529    0.1781    3.4661 H   0  0  0  0  0  0  0  0  0  0  0  0
    3.4740    1.9226    3.3680 H   0  0  0  0  0  0  0  0  0  0  0  0
    5.7238    1.2899    1.9282 H   0  0  0  0  0  0  0  0  0  0  0  0
    5.5833    2.2018    3.2755 H   0  0  0  0  0  0  0  0  0  0  0  0
    0.0542    1.2471   -2.2401 N   0  0  0  0  0  0  0  0  0  0  0  0
   -0.1837    1.4680   -3.6484 C   0  0  2  0  0  0  0  0  0  0  0  0
    1.0896    2.0412   -4.2563 C   0  0  0  0  0  0  0  0  0  0  0  0
    1.8442    2.7952   -3.6453 O   0  0  0  0  0  0  0  0  0  0  0  0
   -1.3613    2.4044   -3.8705 C   0  0  0  0  0  0  0  0  0  0  0  0
    0.6797    1.8910   -1.7650 H   0  0  0  0  0  0  0  0  0  0  0  0
   -0.3916    0.4880   -4.0916 H   0  0  0  0  0  0  0  0  0  0  0  0
   -1.1714    3.3914   -3.4333 H   0  0  0  0  0  0  0  0  0  0  0  0
   -1.5581    2.5481   -4.9380 H   0  0  0  0  0  0  0  0  0  0  0  0
   -2.2698    2.0048   -3.4070 H   0  0  0  0  0  0  0  0  0  0  0  0
    1.2619    1.6462   -5.5755 N   0  0  0  0  0  0  0  0  0  0  0  0
    2.3724    2.0920   -6.3842 C   0  0  0  0  0  0  0  0  0  0  0  0
    0.6087    0.9875   -5.9892 H   0  0  0  0  0  0  0  0  0  0  0  0
    2.0817    2.9946   -6.9417 H   0  0  0  0  0  0  0  0  0  0  0  0
    3.2296    2.3227   -5.7345 H   0  0  0  0  0  0  0  0  0  0  0  0
    2.6523    1.2981   -7.0922 H   0  0  0  0  0  0  0  0  0  0  0  0
  1  3  1  0  0  0  0
  1  7  1  0  0  0  0
  1  2  2  0  0  0  0
 39 40  1  0  0  0  0
 40 48  1  0  0  0  0
 40 41  2  0  0  0  0
  8  9  1  0  0  0  0
  9 17  1  0  0  0  0
  9 10  2  0  0  0  0
 18 19  1  0  0  0  0
 19 38  1  0  0  0  0
 19 20  2  0  0  0  0
 39 42  1  0  0  0  0
  8 11  1  0  0  0  0
 48 49  1  0  0  0  0
 22 23  1  0  0  0  0
 21 22  1  0  0  0  0
 23 24  1  0  0  0  0
 18 21  1  0  0  0  0
 24 25  1  0  0  0  0
 38 39  1  0  0  0  0
  7  8  1  0  0  0  0
 17 18  1  0  0  0  0
  3  4  1  0  0  0  0
  3  5  1  0  0  0  0
  3  6  1  0  0  0  0
 42 45  1  0  0  0  0
 42 46  1  0  0  0  0
 42 47  1  0  0  0  0
 11 14  1  0  0  0  0
 11 15  1  0  0  0  0
 11 16  1  0  0  0  0
 49 51  1  0  0  0  0
 49 52  1  0  0  0  0
 49 53  1  0  0  0  0
 22 30  1  0  0  0  0
 22 31  1  0  0  0  0
 23 32  1  0  0  0  0
 23 33  1  0  0  0  0
 21 28  1  0  0  0  0
 21 29  1  0  0  0  0
 24 34  1  0  0  0  0
 24 35  1  0  0  0  0
 39 44  1  0  0  0  0
  8 13  1  0  0  0  0
 18 27  1  0  0  0  0
 25 36  1  0  0  0  0
 25 37  1  0  0  0  0
 48 50  1  0  0  0  0
  7 12  1  0  0  0  0
 38 43  1  0  0  0  0
 17 26  1  0  0  0  0
M  END
$$$$

  -OEChem-05262214473D

 53 52  0     1  0  0  0  0  0999 V2000
   -1.0338   -5.6785    0.1476 C   0  0  0  0  0  0  0  0  0  0  0  0
   -2.0514   -5.7797    0.8227 O   0  0  0  0  0  0  0  0  0  0  0  0
   -0.6558   -6.7819   -0.7841 C   0  0  0  0  0  0  0  0  0  0  0  0
   -0.0111   -7.5354   -0.3038 H   0  0  0  0  0  0  0  0  0  0  0  0
   -1.5317   -7.3401   -1.1520 H   0  0  0  0  0  0  0  0  0  0  0  0
   -0.1109   -6.4687   -1.6890 H   0  0  0  0  0  0  0  0  0  0  0  0
   -0.1543   -4.6083    0.1480 N   0  0  0  0  0  0  0  0  0  0  0  0
   -0.3302   -3.4398    0.9696 C   0  0  2  0  0  0  0  0  0  0  0  0
    0.2328   -2.2439    0.2131 C   0  0  0  0  0  0  0  0  0  0  0  0
    1.2097   -2.3192   -0.5294 O   0  0  0  0  0  0  0  0  0  0  0  0
    0.3557   -3.6024    2.3171 C   0  0  0  0  0  0  0  0  0  0  0  0
    0.6584   -4.6506   -0.4643 H   0  0  0  0  0  0  0  0  0  0  0  0
   -1.4091   -3.3101    1.1082 H   0  0  0  0  0  0  0  0  0  0  0  0
    1.4375   -3.7336    2.1985 H   0  0  0  0  0  0  0  0  0  0  0  0
    0.1969   -2.7243    2.9517 H   0  0  0  0  0  0  0  0  0  0  0  0
   -0.0294   -4.4803    2.8470 H   0  0  0  0  0  0  0  0  0  0  0  0
   -0.4616   -1.0893    0.5050 N   0  0  0  0  0  0  0  0  0  0  0  0
   -0.0884    0.2050   -0.0621 C   0  0  2  0  0  0  0  0  0  0  0  0
   -0.5359    0.2168   -1.5210 C   0  0  0  0  0  0  0  0  0  0  0  0
   -1.5004   -0.4258   -1.9312 O   0  0  0  0  0  0  0  0  0  0  0  0
    1.4251    0.4572    0.0099 C   0  0  0  0  0  0  0  0  0  0  0  0
    1.9431    0.6437    1.4398 C   0  0  0  0  0  0  0  0  0  0  0  0
    3.4498    0.9158    1.4521 C   0  0  0  0  0  0  0  0  0  0  0  0
    3.9702    1.0773    2.8794 C   0  0  0  0  0  0  0  0  0  0  0  0
    5.4092    1.3119    2.8701 N   0  0  0  0  0  0  0  0  0  0  0  0
   -1.2794   -1.1113    1.0935 H   0  0  0  0  0  0  0  0  0  0  0  0
   -0.6236    0.9917    0.4832 H   0  0  0  0  0  0  0  0  0  0  0  0
    1.6680    1.3545   -0.5743 H   0  0  0  0  0  0  0  0  0  0  0  0
    1.9651   -0.3696   -0.4713 H   0  0  0  0  0  0  0  0  0  0  0  0
    1.7367   -0.2519    2.0364 H   0  0  0  0  0  0  0  0  0  0  0  0
    1.4162    1.4804    1.9141 H   0  0  0  0  0  0  0  0  0  0  0  0
    3.9734    0.0888    0.9560 H   0  0  0  0  0  0  0  0  0  0  0  0
    3.6621    1.8249    0.8752 H   0  0  0  0  0  0  0  0  0  0  0  0
    3.7529    0.1781    3.4661 H   0  0  0  0  0  0  0  0  0  0  0  0
    3.4740    1.9226    3.3680 H   0  0  0  0  0  0  0  0  0  0  0  0
    5.7238    1.2899    1.9282 H   0  0  0  0  0  0  0  0  0  0  0  0
    5.5833    2.2018    3.2755 H   0  0  0  0  0  0  0  0  0  0  0  0
    0.2823    1.0116   -2.3120 N   0  0  0  0  0  0  0  0  0  0  0  0
    0.0902    1.1773   -3.7348 C   0  0  2  0  0  0  0  0  0  0  0  0
    1.4587    1.3698   -4.3749 C   0  0  0  0  0  0  0  0  0  0  0  0
    2.3833    1.9575   -3.8174 O   0  0  0  0  0  0  0  0  0  0  0  0
   -0.8216    2.3564   -4.0364 C   0  0  0  0  0  0  0  0  0  0  0  0
    1.0531    1.5146   -1.8826 H   0  0  0  0  0  0  0  0  0  0  0  0
   -0.3588    0.2486   -4.1036 H   0  0  0  0  0  0  0  0  0  0  0  0
   -0.3884    3.2959   -3.6742 H   0  0  0  0  0  0  0  0  0  0  0  0
   -0.9891    2.4632   -5.1133 H   0  0  0  0  0  0  0  0  0  0  0  0
   -1.7953    2.2303   -3.5507 H   0  0  0  0  0  0  0  0  0  0  0  0
    1.5126    0.8458   -5.6589 N   0  0  0  0  0  0  0  0  0  0  0  0
    2.6895    0.9404   -6.4907 C   0  0  0  0  0  0  0  0  0  0  0  0
    0.7120    0.3399   -6.0262 H   0  0  0  0  0  0  0  0  0  0  0  0
    2.6247    1.8420   -7.1175 H   0  0  0  0  0  0  0  0  0  0  0  0
    3.5845    1.0002   -5.8541 H   0  0  0  0  0  0  0  0  0  0  0  0
    2.7560    0.0506   -7.1342 H   0  0  0  0  0  0  0  0  0  0  0  0
  1  3  1  0  0  0  0
  1  7  1  0  0  0  0
  1  2  2  0  0  0  0
 39 40  1  0  0  0  0
 40 48  1  0  0  0  0
 40 41  2  0  0  0  0
  8  9  1  0  0  0  0
  9 17  1  0  0  0  0
  9 10  2  0  0  0  0
 18 19  1  0  0  0  0
 19 38  1  0  0  0  0
 19 20  2  0  0  0  0
 39 42  1  0  0  0  0
  8 11  1  0  0  0  0
 48 49  1  0  0  0  0
 22 23  1  0  0  0  0
 21 22  1  0  0  0  0
 23 24  1  0  0  0  0
 18 21  1  0  0  0  0
 24 25  1  0  0  0  0
 38 39  1  0  0  0  0
  7  8  1  0  0  0  0
 17 18  1  0  0  0  0
  3  4  1  0  0  0  0
  3  5  1  0  0  0  0
  3  6  1  0  0  0  0
 42 45  1  0  0  0  0
 42 46  1  0  0  0  0
 42 47  1  0  0  0  0
 11 14  1  0  0  0  0
 11 15  1  0  0  0  0
 11 16  1  0  0  0  0
 49 51  1  0  0  0  0
 49 52  1  0  0  0  0
 49 53  1  0  0  0  0
 22 30  1  0  0  0  0
 22 31  1  0  0  0  0
 23 32  1  0  0  0  0
 23 33  1  0  0  0  0
 21 28  1  0  0  0  0
 21 29  1  0  0  0  0
 24 34  1  0  0  0  0
 24 35  1  0  0  0  0
 39 44  1  0  0  0  0
  8 13  1  0  0  0  0
 18 27  1  0  0  0  0
 25 36  1  0  0  0  0
 25 37  1  0  0  0  0
 48 50  1  0  0  0  0
  7 12  1  0  0  0  0
 38 43  1  0  0  0  0
 17 26  1  0  0  0  0
M  END
$$$$

  -OEChem-05262214473D

 53 52  0     1  0  0  0  0  0999 V2000
   -1.0338   -5.6785    0.1476 C   0  0  0  0  0  0  0  0  0  0  0  0
   -2.0514   -5.7797    0.8227 O   0  0  0  0  0  0  0  0  0  0  0  0
   -0.6558   -6.7819   -0.7841 C   0  0  0  0  0  0  0  0  0  0  0  0
   -0.0111   -7.5354   -0.3038 H   0  0  0  0  0  0  0  0  0  0  0  0
   -1.5317   -7.3401   -1.1520 H   0  0  0  0  0  0  0  0  0  0  0  0
   -0.1109   -6.4687   -1.6890 H   0  0  0  0  0  0  0  0  0  0  0  0
   -0.1543   -4.6083    0.1480 N   0  0  0  0  0  0  0  0  0  0  0  0
   -0.3302   -3.4398    0.9696 C   0  0  2  0  0  0  0  0  0  0  0  0
    0.2328   -2.2439    0.2131 C   0  0  0  0  0  0  0  0  0  0  0  0
    1.2097   -2.3192   -0.5294 O   0  0  0  0  0  0  0  0  0  0  0  0
    0.3557   -3.6024    2.3171 C   0  0  0  0  0  0  0  0  0  0  0  0
    0.6584   -4.6506   -0.4643 H   0  0  0  0  0  0  0  0  0  0  0  0
   -1.4091   -3.3101    1.1082 H   0  0  0  0  0  0  0  0  0  0  0  0
    1.4375   -3.7336    2.1985 H   0  0  0  0  0  0  0  0  0  0  0  0
    0.1969   -2.7243    2.9517 H   0  0  0  0  0  0  0  0  0  0  0  0
   -0.0294   -4.4803    2.8470 H   0  0  0  0  0  0  0  0  0  0  0  0
   -0.4616   -1.0893    0.5050 N   0  0  0  0  0  0  0  0  0  0  0  0
   -0.0884    0.2050   -0.0621 C   0  0  2  0  0  0  0  0  0  0  0  0
   -0.5359    0.2168   -1.5210 C   0  0  0  0  0  0  0  0  0  0  0  0
   -1.6340   -0.1963   -1.8884 O   0  0  0  0  0  0  0  0  0  0  0  0
    1.4251    0.4572    0.0099 C   0  0  0  0  0  0  0  0  0  0  0  0
    1.9431    0.6437    1.4398 C   0  0  0  0  0  0  0  0  0  0  0  0
    3.4498    0.9158    1.4521 C   0  0  0  0  0  0  0  0  0  0  0  0
    3.9702    1.0773    2.8794 C   0  0  0  0  0  0  0  0  0  0  0  0
    5.4092    1.3119    2.8701 N   0  0  0  0  0  0  0  0  0  0  0  0
   -1.2794   -1.1113    1.0935 H   0  0  0  0  0  0  0  0  0  0  0  0
   -0.6236    0.9917    0.4832 H   0  0  0  0  0  0  0  0  0  0  0  0
    1.6680    1.3545   -0.5743 H   0  0  0  0  0  0  0  0  0  0  0  0
    1.9651   -0.3696   -0.4713 H   0  0  0  0  0  0  0  0  0  0  0  0
    1.7367   -0.2519    2.0364 H   0  0  0  0  0  0  0  0  0  0  0  0
    1.4162    1.4804    1.9141 H   0  0  0  0  0  0  0  0  0  0  0  0
    3.9734    0.0888    0.9560 H   0  0  0  0  0  0  0  0  0  0  0  0
    3.6621    1.8249    0.8752 H   0  0  0  0  0  0  0  0  0  0  0  0
    3.7529    0.1781    3.4661 H   0  0  0  0  0  0  0  0  0  0  0  0
    3.4740    1.9226    3.3680 H   0  0  0  0  0  0  0  0  0  0  0  0
    5.7238    1.2899    1.9282 H   0  0  0  0  0  0  0  0  0  0  0  0
    5.5833    2.2018    3.2755 H   0  0  0  0  0  0  0  0  0  0  0  0
    0.4443    0.7221   -2.3640 N   0  0  0  0  0  0  0  0  0  0  0  0
    0.2827    0.8221   -3.7967 C   0  0  2  0  0  0  0  0  0  0  0  0
    1.6488    0.6209   -4.4393 C   0  0  0  0  0  0  0  0  0  0  0  0
    2.6964    1.0020   -3.9212 O   0  0  0  0  0  0  0  0  0  0  0  0
   -0.3126    2.1639   -4.1941 C   0  0  0  0  0  0  0  0  0  0  0  0
    1.3204    1.0498   -1.9684 H   0  0  0  0  0  0  0  0  0  0  0  0
   -0.3863    0.0083   -4.0971 H   0  0  0  0  0  0  0  0  0  0  0  0
    0.3437    2.9916   -3.9013 H   0  0  0  0  0  0  0  0  0  0  0  0
   -0.4609    2.2270   -5.2772 H   0  0  0  0  0  0  0  0  0  0  0  0
   -1.2815    2.3199   -3.7076 H   0  0  0  0  0  0  0  0  0  0  0  0
    1.5566    0.0043   -5.6792 N   0  0  0  0  0  0  0  0  0  0  0  0
    2.7106   -0.2586   -6.5069 C   0  0  0  0  0  0  0  0  0  0  0  0
    0.6516   -0.3140   -6.0129 H   0  0  0  0  0  0  0  0  0  0  0  0
    2.8636    0.5809   -7.2010 H   0  0  0  0  0  0  0  0  0  0  0  0
    3.5999   -0.3742   -5.8699 H   0  0  0  0  0  0  0  0  0  0  0  0
    2.5476   -1.1831   -7.0802 H   0  0  0  0  0  0  0  0  0  0  0  0
  1  3  1  0  0  0  0
  1  7  1  0  0  0  0
  1  2  2  0  0  0  0
 39 40  1  0  0  0  0
 40 48  1  0  0  0  0
 40 41  2  0  0  0  0
  8  9  1  0  0  0  0
  9 17  1  0  0  0  0
  9 10  2  0  0  0  0
 18 19  1  0  0  0  0
 19 38  1  0  0  0  0
 19 20  2  0  0  0  0
 39 42  1  0  0  0  0
  8 11  1  0  0  0  0
 48 49  1  0  0  0  0
 22 23  1  0  0  0  0
 21 22  1  0  0  0  0
 23 24  1  0  0  0  0
 18 21  1  0  0  0  0
 24 25  1  0  0  0  0
 38 39  1  0  0  0  0
  7  8  1  0  0  0  0
 17 18  1  0  0  0  0
  3  4  1  0  0  0  0
  3  5  1  0  0  0  0
  3  6  1  0  0  0  0
 42 45  1  0  0  0  0
 42 46  1  0  0  0  0
 42 47  1  0  0  0  0
 11 14  1  0  0  0  0
 11 15  1  0  0  0  0
 11 16  1  0  0  0  0
 49 51  1  0  0  0  0
 49 52  1  0  0  0  0
 49 53  1  0  0  0  0
 22 30  1  0  0  0  0
 22 31  1  0  0  0  0
 23 32  1  0  0  0  0
 23 33  1  0  0  0  0
 21 28  1  0  0  0  0
 21 29  1  0  0  0  0
 24 34  1  0  0  0  0
 24 35  1  0  0  0  0
 39 44  1  0  0  0  0
  8 13  1  0  0  0  0
 18 27  1  0  0  0  0
 25 36  1  0  0  0  0
 25 37  1  0  0  0  0
 48 50  1  0  0  0  0
  7 12  1  0  0  0  0
 38 43  1  0  0  0  0
 17 26  1  0  0  0  0
M  END
$$$$

  -OEChem-05262214473D

 53 52  0     1  0  0  0  0  0999 V2000
   -1.0338   -5.6785    0.1476 C   0  0  0  0  0  0  0  0  0  0  0  0
   -2.0514   -5.7797    0.8227 O   0  0  0  0  0  0  0  0  0  0  0  0
   -0.6558   -6.7819   -0.7841 C   0  0  0  0  0  0  0  0  0  0  0  0
   -0.0111   -7.5354   -0.3038 H   0  0  0  0  0  0  0  0  0  0  0  0
   -1.5317   -7.3401   -1.1520 H   0  0  0  0  0  0  0  0  0  0  0  0
   -0.1109   -6.4687   -1.6890 H   0  0  0  0  0  0  0  0  0  0  0  0
   -0.1543   -4.6083    0.1480 N   0  0  0  0  0  0  0  0  0  0  0  0
   -0.3302   -3.4398    0.9696 C   0  0  2  0  0  0  0  0  0  0  0  0
    0.2328   -2.2439    0.2131 C   0  0  0  0  0  0  0  0  0  0  0  0
    1.2097   -2.3192   -0.5294 O   0  0  0  0  0  0  0  0  0  0  0  0
    0.3557   -3.6024    2.3171 C   0  0  0  0  0  0  0  0  0  0  0  0
    0.6584   -4.6506   -0.4643 H   0  0  0  0  0  0  0  0  0  0  0  0
   -1.4091   -3.3101    1.1082 H   0  0  0  0  0  0  0  0  0  0  0  0
    1.4375   -3.7336    2.1985 H   0  0  0  0  0  0  0  0  0  0  0  0
    0.1969   -2.7243    2.9517 H   0  0  0  0  0  0  0  0  0  0  0  0
   -0.0294   -4.4803    2.8470 H   0  0  0  0  0  0  0  0  0  0  0  0
   -0.4616   -1.0893    0.5050 N   0  0  0  0  0  0  0  0  0  0  0  0
   -0.0884    0.2050   -0.0621 C   0  0  2  0  0  0  0  0  0  0  0  0
   -0.5359    0.2168   -1.5210 C   0  0  0  0  0  0  0  0  0  0  0  0
   -1.7063    0.0618   -1.8641 O   0  0  0  0  0  0  0  0  0  0  0  0
    1.4251    0.4572    0.0099 C   0  0  0  0  0  0  0  0  0  0  0  0
    1.9431    0.6437    1.4398 C   0  0  0  0  0  0  0  0  0  0  0  0
    3.4498    0.9158    1.4521 C   0  0  0  0  0  0  0  0  0  0  0  0
    3.9702    1.0773    2.8794 C   0  0  0  0  0  0  0  0  0  0  0  0
    5.4092    1.3119    2.8701 N   0  0  0  0  0  0  0  0  0  0  0  0
   -1.2794   -1.1113    1.0935 H   0  0  0  0  0  0  0  0  0  0  0  0
   -0.6236    0.9917    0.4832 H   0  0  0  0  0  0  0  0  0  0  0  0
    1.6680    1.3545   -0.5743 H   0  0  0  0  0  0  0  0  0  0  0  0
    1.9651   -0.3696   -0.4713 H   0  0  0  0  0  0  0  0  0  0  0  0
    1.7367   -0.2519    2.0364 H   0  0  0  0  0  0  0  0  0  0  0  0
    1.4162    1.4804    1.9141 H   0  0  0  0  0  0  0  0  0  0  0  0
    3.9734    0.0888    0.9560 H   0  0  0  0  0  0  0  0  0  0  0  0
    3.6621    1.8249    0.8752 H   0  0  0  0  0  0  0  0  0  0  0  0
    3.7529    0.1781    3.4661 H   0  0  0  0  0  0  0  0  0  0  0  0
    3.4740    1.9226    3.3680 H   0  0  0  0  0  0  0  0  0  0  0  0
    5.7238    1.2899    1.9282 H   0  0  0  0  0  0  0  0  0  0  0  0
    5.5833    2.2018    3.2755 H   0  0  0  0  0  0  0  0  0  0  0  0
    0.5290    0.3985   -2.3926 N   0  0  0  0  0  0  0  0  0  0  0  0
    0.3806    0.4267   -3.8300 C   0  0  2  0  0  0  0  0  0  0  0  0
    1.6470   -0.1544   -4.4450 C   0  0  0  0  0  0  0  0  0  0  0  0
    2.7622   -0.0064   -3.9495 O   0  0  0  0  0  0  0  0  0  0  0  0
    0.1312    1.8401   -4.3329 C   0  0  0  0  0  0  0  0  0  0  0  0
    1.4635    0.5281   -2.0165 H   0  0  0  0  0  0  0  0  0  0  0  0
   -0.4723   -0.2165   -4.0726 H   0  0  0  0  0  0  0  0  0  0  0  0
    0.9751    2.4992   -4.0990 H   0  0  0  0  0  0  0  0  0  0  0  0
   -0.0094    1.8558   -5.4187 H   0  0  0  0  0  0  0  0  0  0  0  0
   -0.7633    2.2673   -3.8670 H   0  0  0  0  0  0  0  0  0  0  0  0
    1.3908   -0.8209   -5.6350 N   0  0  0  0  0  0  0  0  0  0  0  0
    2.4343   -1.4231   -6.4315 C   0  0  0  0  0  0  0  0  0  0  0  0
    0.4314   -0.9297   -5.9503 H   0  0  0  0  0  0  0  0  0  0  0  0
    2.7821   -0.7026   -7.1864 H   0  0  0  0  0  0  0  0  0  0  0  0
    3.2747   -1.7067   -5.7809 H   0  0  0  0  0  0  0  0  0  0  0  0
    2.0410   -2.3192   -6.9340 H   0  0  0  0  0  0  0  0  0  0  0  0
  1  3  1  0  0  0  0
  1  7  1  0  0  0  0
  1  2  2  0  0  0  0
 39 40  1  0  0  0  0
 40 48  1  0  0  0  0
 40 41  2  0  0  0  0
  8  9  1  0  0  0  0
  9 17  1  0  0  0  0
  9 10  2  0  0  0  0
 18 19  1  0  0  0  0
 19 38  1  0  0  0  0
 19 20  2  0  0  0  0
 39 42  1  0  0  0  0
  8 11  1  0  0  0  0
 48 49  1  0  0  0  0
 22 23  1  0  0  0  0
 21 22  1  0  0  0  0
 23 24  1  0  0  0  0
 18 21  1  0  0  0  0
 24 25  1  0  0  0  0
 38 39  1  0  0  0  0
  7  8  1  0  0  0  0
 17 18  1  0  0  0  0
  3  4  1  0  0  0  0
  3  5  1  0  0  0  0
  3  6  1  0  0  0  0
 42 45  1  0  0  0  0
 42 46  1  0  0  0  0
 42 47  1  0  0  0  0
 11 14  1  0  0  0  0
 11 15  1  0  0  0  0
 11 16  1  0  0  0  0
 49 51  1  0  0  0  0
 49 52  1  0  0  0  0
 49 53  1  0  0  0  0
 22 30  1  0  0  0  0
 22 31  1  0  0  0  0
 23 32  1  0  0  0  0
 23 33  1  0  0  0  0
 21 28  1  0  0  0  0
 21 29  1  0  0  0  0
 24 34  1  0  0  0  0
 24 35  1  0  0  0  0
 39 44  1  0  0  0  0
  8 13  1  0  0  0  0
 18 27  1  0  0  0  0
 25 36  1  0  0  0  0
 25 37  1  0  0  0  0
 48 50  1  0  0  0  0
  7 12  1  0  0  0  0
 38 43  1  0  0  0  0
 17 26  1  0  0  0  0
M  END
$$$$

  -OEChem-05262214473D

 53 52  0     1  0  0  0  0  0999 V2000
   -1.0338   -5.6785    0.1476 C   0  0  0  0  0  0  0  0  0  0  0  0
   -2.0514   -5.7797    0.8227 O   0  0  0  0  0  0  0  0  0  0  0  0
   -0.6558   -6.7819   -0.7841 C   0  0  0  0  0  0  0  0  0  0  0  0
   -0.0111   -7.5354   -0.3038 H   0  0  0  0  0  0  0  0  0  0  0  0
   -1.5317   -7.3401   -1.1520 H   0  0  0  0  0  0  0  0  0  0  0  0
   -0.1109   -6.4687   -1.6890 H   0  0  0  0  0  0  0  0  0  0  0  0
   -0.1543   -4.6083    0.1480 N   0  0  0  0  0  0  0  0  0  0  0  0
   -0.3302   -3.4398    0.9696 C   0  0  2  0  0  0  0  0  0  0  0  0
    0.2328   -2.2439    0.2131 C   0  0  0  0  0  0  0  0  0  0  0  0
    1.2097   -2.3192   -0.5294 O   0  0  0  0  0  0  0  0  0  0  0  0
    0.3557   -3.6024    2.3171 C   0  0  0  0  0  0  0  0  0  0  0  0
    0.6584   -4.6506   -0.4643 H   0  0  0  0  0  0  0  0  0  0  0  0
   -1.4091   -3.3101    1.1082 H   0  0  0  0  0  0  0  0  0  0  0  0
    1.4375   -3.7336    2.1985 H   0  0  0  0  0  0  0  0  0  0  0  0
    0.1969   -2.7243    2.9517 H   0  0  0  0  0  0  0  0  0  0  0  0
   -0.0294   -4.4803    2.8470 H   0  0  0  0  0  0  0  0  0  0  0  0
   -0.4616   -1.0893    0.5050 N   0  0  0  0  0  0  0  0  0  0  0  0
   -0.0884    0.2050   -0.0621 C   0  0  2  0  0  0  0  0  0  0  0  0
   -0.5359    0.2168   -1.5210 C   0  0  0  0  0  0  0  0  0  0  0  0
   -1.7121    0.3308   -1.8601 O   0  0  0  0  0  0  0  0  0  0  0  0
    1.4251    0.4572    0.0099 C   0  0  0  0  0  0  0  0  0  0  0  0
    1.9431    0.6437    1.4398 C   0  0  0  0  0  0  0  0  0  0  0  0
    3.4498    0.9158    1.4521 C   0  0  0  0  0  0  0  0  0  0  0  0
    3.9702    1.0773    2.8794 C   0  0  0  0  0  0  0  0  0  0  0  0
    5.4092    1.3119    2.8701 N   0  0  0  0  0  0  0  0  0  0  0  0
   -1.2794   -1.1113    1.0935 H   0  0  0  0  0  0  0  0  0  0  0  0
   -0.6236    0.9917    0.4832 H   0  0  0  0  0  0  0  0  0  0  0  0
    1.6680    1.3545   -0.5743 H   0  0  0  0  0  0  0  0  0  0  0  0
    1.9651   -0.3696   -0.4713 H   0  0  0  0  0  0  0  0  0  0  0  0
    1.7367   -0.2519    2.0364 H   0  0  0  0  0  0  0  0  0  0  0  0
    1.4162    1.4804    1.9141 H   0  0  0  0  0  0  0  0  0  0  0  0
    3.9734    0.0888    0.9560 H   0  0  0  0  0  0  0  0  0  0  0  0
    3.6621    1.8249    0.8752 H   0  0  0  0  0  0  0  0  0  0  0  0
    3.7529    0.1781    3.4661 H   0  0  0  0  0  0  0  0  0  0  0  0
    3.4740    1.9226    3.3680 H   0  0  0  0  0  0  0  0  0  0  0  0
    5.7238    1.2899    1.9282 H   0  0  0  0  0  0  0  0  0  0  0  0
    5.5833    2.2018    3.2755 H   0  0  0  0  0  0  0  0  0  0  0  0
    0.5307    0.0628   -2.3959 N   0  0  0  0  0  0  0  0  0  0  0  0
    0.3773    0.0180   -3.8323 C   0  0  2  0  0  0  0  0  0  0  0  0
    1.4534   -0.9032   -4.3916 C   0  0  0  0  0  0  0  0  0  0  0  0
    2.5762   -0.9988   -3.9005 O   0  0  0  0  0  0  0  0  0  0  0  0
    0.4795    1.4069   -4.4432 C   0  0  0  0  0  0  0  0  0  0  0  0
    1.4725   -0.0149   -2.0236 H   0  0  0  0  0  0  0  0  0  0  0  0
   -0.6109   -0.4106   -4.0316 H   0  0  0  0  0  0  0  0  0  0  0  0
    1.4629    1.8524   -4.2538 H   0  0  0  0  0  0  0  0  0  0  0  0
    0.3346    1.3748   -5.5281 H   0  0  0  0  0  0  0  0  0  0  0  0
   -0.2761    2.0763   -4.0180 H   0  0  0  0  0  0  0  0  0  0  0  0
    1.0266   -1.5737   -5.5294 N   0  0  0  0  0  0  0  0  0  0  0  0
    1.8794   -2.4739   -6.2698 C   0  0  0  0  0  0  0  0  0  0  0  0
    0.0665   -1.4651   -5.8427 H   0  0  0  0  0  0  0  0  0  0  0  0
    2.3859   -1.9211   -7.0747 H   0  0  0  0  0  0  0  0  0  0  0  0
    2.6310   -2.9066   -5.5931 H   0  0  0  0  0  0  0  0  0  0  0  0
    1.2710   -3.2801   -6.7055 H   0  0  0  0  0  0  0  0  0  0  0  0
  1  3  1  0  0  0  0
  1  7  1  0  0  0  0
  1  2  2  0  0  0  0
 39 40  1  0  0  0  0
 40 48  1  0  0  0  0
 40 41  2  0  0  0  0
  8  9  1  0  0  0  0
  9 17  1  0  0  0  0
  9 10  2  0  0  0  0
 18 19  1  0  0  0  0
 19 38  1  0  0  0  0
 19 20  2  0  0  0  0
 39 42  1  0  0  0  0
  8 11  1  0  0  0  0
 48 49  1  0  0  0  0
 22 23  1  0  0  0  0
 21 22  1  0  0  0  0
 23 24  1  0  0  0  0
 18 21  1  0  0  0  0
 24 25  1  0  0  0  0
 38 39  1  0  0  0  0
  7  8  1  0  0  0  0
 17 18  1  0  0  0  0
  3  4  1  0  0  0  0
  3  5  1  0  0  0  0
  3  6  1  0  0  0  0
 42 45  1  0  0  0  0
 42 46  1  0  0  0  0
 42 47  1  0  0  0  0
 11 14  1  0  0  0  0
 11 15  1  0  0  0  0
 11 16  1  0  0  0  0
 49 51  1  0  0  0  0
 49 52  1  0  0  0  0
 49 53  1  0  0  0  0
 22 30  1  0  0  0  0
 22 31  1  0  0  0  0
 23 32  1  0  0  0  0
 23 33  1  0  0  0  0
 21 28  1  0  0  0  0
 21 29  1  0  0  0  0
 24 34  1  0  0  0  0
 24 35  1  0  0  0  0
 39 44  1  0  0  0  0
  8 13  1  0  0  0  0
 18 27  1  0  0  0  0
 25 36  1  0  0  0  0
 25 37  1  0  0  0  0
 48 50  1  0  0  0  0
  7 12  1  0  0  0  0
 38 43  1  0  0  0  0
 17 26  1  0  0  0  0
M  END
$$$$

  -OEChem-05262214473D

 53 52  0     1  0  0  0  0  0999 V2000
   -1.0338   -5.6785    0.1476 C   0  0  0  0  0  0  0  0  0  0  0  0
   -2.0514   -5.7797    0.8227 O   0  0  0  0  0  0  0  0  0  0  0  0
   -0.6558   -6.7819   -0.7841 C   0  0  0  0  0  0  0  0  0  0  0  0
   -0.0111   -7.5354   -0.3038 H   0  0  0  0  0  0  0  0  0  0  0  0
   -1.5317   -7.3401   -1.1520 H   0  0  0  0  0  0  0  0  0  0  0  0
   -0.1109   -6.4687   -1.6890 H   0  0  0  0  0  0  0  0  0  0  0  0
   -0.1543   -4.6083    0.1480 N   0  0  0  0  0  0  0  0  0  0  0  0
   -0.3302   -3.4398    0.9696 C   0  0  2  0  0  0  0  0  0  0  0  0
    0.2328   -2.2439    0.2131 C   0  0  0  0  0  0  0  0  0  0  0  0
    1.2097   -2.3192   -0.5294 O   0  0  0  0  0  0  0  0  0  0  0  0
    0.3557   -3.6024    2.3171 C   0  0  0  0  0  0  0  0  0  0  0  0
    0.6584   -4.6506   -0.4643 H   0  0  0  0  0  0  0  0  0  0  0  0
   -1.4091   -3.3101    1.1082 H   0  0  0  0  0  0  0  0  0  0  0  0
    1.4375   -3.7336    2.1985 H   0  0  0  0  0  0  0  0  0  0  0  0
    0.1969   -2.7243    2.9517 H   0  0  0  0  0  0  0  0  0  0  0  0
   -0.0294   -4.4803    2.8470 H   0  0  0  0  0  0  0  0  0  0  0  0
   -0.4616   -1.0893    0.5050 N   0  0  0  0  0  0  0  0  0  0  0  0
   -0.0884    0.2050   -0.0621 C   0  0  2  0  0  0  0  0  0  0  0  0
   -0.5359    0.2168   -1.5210 C   0  0  0  0  0  0  0  0  0  0  0  0
   -1.6512    0.5924   -1.8767 O   0  0  0  0  0  0  0  0  0  0  0  0
    1.4251    0.4572    0.0099 C   0  0  0  0  0  0  0  0  0  0  0  0
    1.9431    0.6437    1.4398 C   0  0  0  0  0  0  0  0  0  0  0  0
    3.4498    0.9158    1.4521 C   0  0  0  0  0  0  0  0  0  0  0  0
    3.9702    1.0773    2.8794 C   0  0  0  0  0  0  0  0  0  0  0  0
    5.4092    1.3119    2.8701 N   0  0  0  0  0  0  0  0  0  0  0  0
   -1.2794   -1.1113    1.0935 H   0  0  0  0  0  0  0  0  0  0  0  0
   -0.6236    0.9917    0.4832 H   0  0  0  0  0  0  0  0  0  0  0  0
    1.6680    1.3545   -0.5743 H   0  0  0  0  0  0  0  0  0  0  0  0
    1.9651   -0.3696   -0.4713 H   0  0  0  0  0  0  0  0  0  0  0  0
    1.7367   -0.2519    2.0364 H   0  0  0  0  0  0  0  0  0  0  0  0
    1.4162    1.4804    1.9141 H   0  0  0  0  0  0  0  0  0  0  0  0
    3.9734    0.0888    0.9560 H   0  0  0  0  0  0  0  0  0  0  0  0
    3.6621    1.8249    0.8752 H   0  0  0  0  0  0  0  0  0  0  0  0
    3.7529    0.1781    3.4661 H   0  0  0  0  0  0  0  0  0  0  0  0
    3.4740    1.9226    3.3680 H   0  0  0  0  0  0  0  0  0  0  0  0
    5.7238    1.2899    1.9282 H   0  0  0  0  0  0  0  0  0  0  0  0
    5.5833    2.2018    3.2755 H   0  0  0  0  0  0  0  0  0  0  0  0
    0.4493   -0.2621   -2.3735 N   0  0  0  0  0  0  0  0  0  0  0  0
    0.2730   -0.3761   -3.8034 C   0  0  2  0  0  0  0  0  0  0  0  0
    1.0812   -1.5746   -4.2829 C   0  0  0  0  0  0  0  0  0  0  0  0
    2.1511   -1.9077   -3.7774 O   0  0  0  0  0  0  0  0  0  0  0  0
    0.7084    0.8940   -4.5176 C   0  0  0  0  0  0  0  0  0  0  0  0
    1.3468   -0.5421   -1.9893 H   0  0  0  0  0  0  0  0  0  0  0  0
   -0.7928   -0.5606   -3.9770 H   0  0  0  0  0  0  0  0  0  0  0  0
    1.7736    1.0953   -4.3553 H   0  0  0  0  0  0  0  0  0  0  0  0
    0.5476    0.8167   -5.5980 H   0  0  0  0  0  0  0  0  0  0  0  0
    0.1469    1.7597   -4.1503 H   0  0  0  0  0  0  0  0  0  0  0  0
    0.4887   -2.2027   -5.3694 N   0  0  0  0  0  0  0  0  0  0  0  0
    1.0838   -3.3393   -6.0327 C   0  0  0  0  0  0  0  0  0  0  0  0
   -0.4182   -1.8839   -5.6974 H   0  0  0  0  0  0  0  0  0  0  0  0
    1.7020   -2.9916   -6.8735 H   0  0  0  0  0  0  0  0  0  0  0  0
    1.7128   -3.8920   -5.3194 H   0  0  0  0  0  0  0  0  0  0  0  0
    0.2898   -4.0004   -6.4103 H   0  0  0  0  0  0  0  0  0  0  0  0
  1  3  1  0  0  0  0
  1  7  1  0  0  0  0
  1  2  2  0  0  0  0
 39 40  1  0  0  0  0
 40 48  1  0  0  0  0
 40 41  2  0  0  0  0
  8  9  1  0  0  0  0
  9 17  1  0  0  0  0
  9 10  2  0  0  0  0
 18 19  1  0  0  0  0
 19 38  1  0  0  0  0
 19 20  2  0  0  0  0
 39 42  1  0  0  0  0
  8 11  1  0  0  0  0
 48 49  1  0  0  0  0
 22 23  1  0  0  0  0
 21 22  1  0  0  0  0
 23 24  1  0  0  0  0
 18 21  1  0  0  0  0
 24 25  1  0  0  0  0
 38 39  1  0  0  0  0
  7  8  1  0  0  0  0
 17 18  1  0  0  0  0
  3  4  1  0  0  0  0
  3  5  1  0  0  0  0
  3  6  1  0  0  0  0
 42 45  1  0  0  0  0
 42 46  1  0  0  0  0
 42 47  1  0  0  0  0
 11 14  1  0  0  0  0
 11 15  1  0  0  0  0
 11 16  1  0  0  0  0
 49 51  1  0  0  0  0
 49 52  1  0  0  0  0
 49 53  1  0  0  0  0
 22 30  1  0  0  0  0
 22 31  1  0  0  0  0
 23 32  1  0  0  0  0
 23 33  1  0  0  0  0
 21 28  1  0  0  0  0
 21 29  1  0  0  0  0
 24 34  1  0  0  0  0
 24 35  1  0  0  0  0
 39 44  1  0  0  0  0
  8 13  1  0  0  0  0
 18 27  1  0  0  0  0
 25 36  1  0  0  0  0
 25 37  1  0  0  0  0
 48 50  1  0  0  0  0
  7 12  1  0  0  0  0
 38 43  1  0  0  0  0
 17 26  1  0  0  0  0
M  END
$$$$

  -OEChem-05262214473D

 53 52  0     1  0  0  0  0  0999 V2000
   -1.0338   -5.6785    0.1476 C   0  0  0  0  0  0  0  0  0  0  0  0
   -2.0514   -5.7797    0.8227 O   0  0  0  0  0  0  0  0  0  0  0  0
   -0.6558   -6.7819   -0.7841 C   0  0  0  0  0  0  0  0  0  0  0  0
   -0.0111   -7.5354   -0.3038 H   0  0  0  0  0  0  0  0  0  0  0  0
   -1.5317   -7.3401   -1.1520 H   0  0  0  0  0  0  0  0  0  0  0  0
   -0.1109   -6.4687   -1.6890 H   0  0  0  0  0  0  0  0  0  0  0  0
   -0.1543   -4.6083    0.1480 N   0  0  0  0  0  0  0  0  0  0  0  0
   -0.3302   -3.4398    0.9696 C   0  0  2  0  0  0  0  0  0  0  0  0
    0.2328   -2.2439    0.2131 C   0  0  0  0  0  0  0  0  0  0  0  0
    1.2097   -2.3192   -0.5294 O   0  0  0  0  0  0  0  0  0  0  0  0
    0.3557   -3.6024    2.3171 C   0  0  0  0  0  0  0  0  0  0  0  0
    0.6584   -4.6506   -0.4643 H   0  0  0  0  0  0  0  0  0  0  0  0
   -1.4091   -3.3101    1.1082 H   0  0  0  0  0  0  0  0  0  0  0  0
    1.4375   -3.7336    2.1985 H   0  0  0  0  0  0  0  0  0  0  0  0
    0.1969   -2.7243    2.9517 H   0  0  0  0  0  0  0  0  0  0  0  0
   -0.0294   -4.4803    2.8470 H   0  0  0  0  0  0  0  0  0  0  0  0
   -0.4616   -1.0893    0.5050 N   0  0  0  0  0  0  0  0  0  0  0  0
   -0.0884    0.2050   -0.0621 C   0  0  2  0  0  0  0  0  0  0  0  0
   -0.5359    0.2168   -1.5210 C   0  0  0  0  0  0  0  0  0  0  0  0
   -1.5277    0.8287   -1.9127 O   0  0  0  0  0  0  0  0  0  0  0  0
    1.4251    0.4572    0.0099 C   0  0  0  0  0  0  0  0  0  0  0  0
    1.9431    0.6437    1.4398 C   0  0  0  0  0  0  0  0  0  0  0  0
    3.4498    0.9158    1.4521 C   0  0  0  0  0  0  0  0  0  0  0  0
    3.9702    1.0773    2.8794 C   0  0  0  0  0  0  0  0  0  0  0  0
    5.4092    1.3119    2.8701 N   0  0  0  0  0  0  0  0  0  0  0  0
   -1.2794   -1.1113    1.0935 H   0  0  0  0  0  0  0  0  0  0  0  0
   -0.6236    0.9917    0.4832 H   0  0  0  0  0  0  0  0  0  0  0  0
    1.6680    1.3545   -0.5743 H   0  0  0  0  0  0  0  0  0  0  0  0
    1.9651   -0.3696   -0.4713 H   0  0  0  0  0  0  0  0  0  0  0  0
    1.7367   -0.2519    2.0364 H   0  0  0  0  0  0  0  0  0  0  0  0
    1.4162    1.4804    1.9141 H   0  0  0  0  0  0  0  0  0  0  0  0
    3.9734    0.0888    0.9560 H   0  0  0  0  0  0  0  0  0  0  0  0
    3.6621    1.8249    0.8752 H   0  0  0  0  0  0  0  0  0  0  0  0
    3.7529    0.1781    3.4661 H   0  0  0  0  0  0  0  0  0  0  0  0
    3.4740    1.9226    3.3680 H   0  0  0  0  0  0  0  0  0  0  0  0
    5.7238    1.2899    1.9282 H   0  0  0  0  0  0  0  0  0  0  0  0
    5.5833    2.2018    3.2755 H   0  0  0  0  0  0  0  0  0  0  0  0
    0.2903   -0.5541   -2.3271 N   0  0  0  0  0  0  0  0  0  0  0  0
    0.0748   -0.7288   -3.7455 C   0  0  2  0  0  0  0  0  0  0  0  0
    0.5558   -2.1227   -4.1261 C   0  0  0  0  0  0  0  0  0  0  0  0
    1.5159   -2.6711   -3.5887 O   0  0  0  0  0  0  0  0  0  0  0  0
    0.8026    0.3362   -4.5510 C   0  0  0  0  0  0  0  0  0  0  0  0
    1.0950   -1.0177   -1.9159 H   0  0  0  0  0  0  0  0  0  0  0  0
   -1.0054   -0.6563   -3.9125 H   0  0  0  0  0  0  0  0  0  0  0  0
    1.8862    0.2793   -4.3964 H   0  0  0  0  0  0  0  0  0  0  0  0
    0.6152    0.2196   -5.6235 H   0  0  0  0  0  0  0  0  0  0  0  0
    0.4769    1.3392   -4.2549 H   0  0  0  0  0  0  0  0  0  0  0  0
   -0.1861   -2.6650   -5.1662 N   0  0  0  0  0  0  0  0  0  0  0  0
    0.1016   -3.9604   -5.7364 C   0  0  0  0  0  0  0  0  0  0  0  0
   -0.9897   -2.1574   -5.5243 H   0  0  0  0  0  0  0  0  0  0  0  0
    0.7768   -3.8411   -6.5966 H   0  0  0  0  0  0  0  0  0  0  0  0
    0.5825   -4.5960   -4.9783 H   0  0  0  0  0  0  0  0  0  0  0  0
   -0.8355   -4.4310   -6.0686 H   0  0  0  0  0  0  0  0  0  0  0  0
  1  3  1  0  0  0  0
  1  7  1  0  0  0  0
  1  2  2  0  0  0  0
 39 40  1  0  0  0  0
 40 48  1  0  0  0  0
 40 41  2  0  0  0  0
  8  9  1  0  0  0  0
  9 17  1  0  0  0  0
  9 10  2  0  0  0  0
 18 19  1  0  0  0  0
 19 38  1  0  0  0  0
 19 20  2  0  0  0  0
 39 42  1  0  0  0  0
  8 11  1  0  0  0  0
 48 49  1  0  0  0  0
 22 23  1  0  0  0  0
 21 22  1  0  0  0  0
 23 24  1  0  0  0  0
 18 21  1  0  0  0  0
 24 25  1  0  0  0  0
 38 39  1  0  0  0  0
  7  8  1  0  0  0  0
 17 18  1  0  0  0  0
  3  4  1  0  0  0  0
  3  5  1  0  0  0  0
  3  6  1  0  0  0  0
 42 45  1  0  0  0  0
 42 46  1  0  0  0  0
 42 47  1  0  0  0  0
 11 14  1  0  0  0  0
 11 15  1  0  0  0  0
 11 16  1  0  0  0  0
 49 51  1  0  0  0  0
 49 52  1  0  0  0  0
 49 53  1  0  0  0  0
 22 30  1  0  0  0  0
 22 31  1  0  0  0  0
 23 32  1  0  0  0  0
 23 33  1  0  0  0  0
 21 28  1  0  0  0  0
 21 29  1  0  0  0  0
 24 34  1  0  0  0  0
 24 35  1  0  0  0  0
 39 44  1  0  0  0  0
  8 13  1  0  0  0  0
 18 27  1  0  0  0  0
 25 36  1  0  0  0  0
 25 37  1  0  0  0  0
 48 50  1  0  0  0  0
  7 12  1  0  0  0  0
 38 43  1  0  0  0  0
 17 26  1  0  0  0  0
M  END
$$$$

  -OEChem-05262214473D

 53 52  0     1  0  0  0  0  0999 V2000
   -1.0338   -5.6785    0.1476 C   0  0  0  0  0  0  0  0  0  0  0  0
   -2.0514   -5.7797    0.8227 O   0  0  0  0  0  0  0  0  0  0  0  0
   -0.6558   -6.7819   -0.7841 C   0  0  0  0  0  0  0  0  0  0  0  0
   -0.0111   -7.5354   -0.3038 H   0  0  0  0  0  0  0  0  0  0  0  0
   -1.5317   -7.3401   -1.1520 H   0  0  0  0  0  0  0  0  0  0  0  0
   -0.1109   -6.4687   -1.6890 H   0  0  0  0  0  0  0  0  0  0  0  0
   -0.1543   -4.6083    0.1480 N   0  0  0  0  0  0  0  0  0  0  0  0
   -0.3302   -3.4398    0.9696 C   0  0  2  0  0  0  0  0  0  0  0  0
    0.2328   -2.2439    0.2131 C   0  0  0  0  0  0  0  0  0  0  0  0
    1.2097   -2.3192   -0.5294 O   0  0  0  0  0  0  0  0  0  0  0  0
    0.3557   -3.6024    2.3171 C   0  0  0  0  0  0  0  0  0  0  0  0
    0.6584   -4.6506   -0.4643 H   0  0  0  0  0  0  0  0  0  0  0  0
   -1.4091   -3.3101    1.1082 H   0  0  0  0  0  0  0  0  0  0  0  0
    1.4375   -3.7336    2.1985 H   0  0  0  0  0  0  0  0  0  0  0  0
    0.1969   -2.7243    2.9517 H   0  0  0  0  0  0  0  0  0  0  0  0
   -0.0294   -4.4803    2.8470 H   0  0  0  0  0  0  0  0  0  0  0  0
   -0.4616   -1.0893    0.5050 N   0  0  0  0  0  0  0  0  0  0  0  0
   -0.0884    0.2050   -0.0621 C   0  0  2  0  0  0  0  0  0  0  0  0
   -0.5359    0.2168   -1.5210 C   0  0  0  0  0  0  0  0  0  0  0  0
   -1.3500    1.0237   -1.9656 O   0  0  0  0  0  0  0  0  0  0  0  0
    1.4251    0.4572    0.0099 C   0  0  0  0  0  0  0  0  0  0  0  0
    1.9431    0.6437    1.4398 C   0  0  0  0  0  0  0  0  0  0  0  0
    3.4498    0.9158    1.4521 C   0  0  0  0  0  0  0  0  0  0  0  0
    3.9702    1.0773    2.8794 C   0  0  0  0  0  0  0  0  0  0  0  0
    5.4092    1.3119    2.8701 N   0  0  0  0  0  0  0  0  0  0  0  0
   -1.2794   -1.1113    1.0935 H   0  0  0  0  0  0  0  0  0  0  0  0
   -0.6236    0.9917    0.4832 H   0  0  0  0  0  0  0  0  0  0  0  0
    1.6680    1.3545   -0.5743 H   0  0  0  0  0  0  0  0  0  0  0  0
    1.9651   -0.3696   -0.4713 H   0  0  0  0  0  0  0  0  0  0  0  0
    1.7367   -0.2519    2.0364 H   0  0  0  0  0  0  0  0  0  0  0  0
    1.4162    1.4804    1.9141 H   0  0  0  0  0  0  0  0  0  0  0  0
    3.9734    0.0888    0.9560 H   0  0  0  0  0  0  0  0  0  0  0  0
    3.6621    1.8249    0.8752 H   0  0  0  0  0  0  0  0  0  0  0  0
    3.7529    0.1781    3.4661 H   0  0  0  0  0  0  0  0  0  0  0  0
    3.4740    1.9226    3.3680 H   0  0  0  0  0  0  0  0  0  0  0  0
    5.7238    1.2899    1.9282 H   0  0  0  0  0  0  0  0  0  0  0  0
    5.5833    2.2018    3.2755 H   0  0  0  0  0  0  0  0  0  0  0  0
    0.0645   -0.7933   -2.2598 N   0  0  0  0  0  0  0  0  0  0  0  0
   -0.2038   -1.0160   -3.6623 C   0  0  2  0  0  0  0  0  0  0  0  0
   -0.0869   -2.5103   -3.9321 C   0  0  0  0  0  0  0  0  0  0  0  0
    0.7137   -3.2369   -3.3472 O   0  0  0  0  0  0  0  0  0  0  0  0
    0.7554   -0.2284   -4.5411 C   0  0  0  0  0  0  0  0  0  0  0  0
    0.7343   -1.4092   -1.8084 H   0  0  0  0  0  0  0  0  0  0  0  0
   -1.2344   -0.6913   -3.8426 H   0  0  0  0  0  0  0  0  0  0  0  0
    1.7930   -0.5399   -4.3744 H   0  0  0  0  0  0  0  0  0  0  0  0
    0.5326   -0.3757   -5.6030 H   0  0  0  0  0  0  0  0  0  0  0  0
    0.6914    0.8435   -4.3247 H   0  0  0  0  0  0  0  0  0  0  0  0
   -0.9519   -2.9291   -4.9334 N   0  0  0  0  0  0  0  0  0  0  0  0
   -1.0002   -4.2947   -5.4011 C   0  0  0  0  0  0  0  0  0  0  0  0
   -1.6091   -2.2670   -5.3352 H   0  0  0  0  0  0  0  0  0  0  0  0
   -0.3264   -4.4117   -6.2628 H   0  0  0  0  0  0  0  0  0  0  0  0
   -0.6827   -4.9704   -4.5932 H   0  0  0  0  0  0  0  0  0  0  0  0
   -2.0284   -4.5425   -5.7036 H   0  0  0  0  0  0  0  0  0  0  0  0
  1  3  1  0  0  0  0
  1  7  1  0  0  0  0
  1  2  2  0  0  0  0
 39 40  1  0  0  0  0
 40 48  1  0  0  0  0
 40 41  2  0  0  0  0
  8  9  1  0  0  0  0
  9 17  1  0  0  0  0
  9 10  2  0  0  0  0
 18 19  1  0  0  0  0
 19 38  1  0  0  0  0
 19 20  2  0  0  0  0
 39 42  1  0  0  0  0
  8 11  1  0  0  0  0
 48 49  1  0  0  0  0
 22 23  1  0  0  0  0
 21 22  1  0  0  0  0
 23 24  1  0  0  0  0
 18 21  1  0  0  0  0
 24 25  1  0  0  0  0
 38 39  1  0  0  0  0
  7  8  1  0  0  0  0
 17 18  1  0  0  0  0
  3  4  1  0  0  0  0
  3  5  1  0  0  0  0
  3  6  1  0  0  0  0
 42 45  1  0  0  0  0
 42 46  1  0  0  0  0
 42 47  1  0  0  0  0
 11 14  1  0  0  0  0
 11 15  1  0  0  0  0
 11 16  1  0  0  0  0
 49 51  1  0  0  0  0
 49 52  1  0  0  0  0
 49 53  1  0  0  0  0
 22 30  1  0  0  0  0
 22 31  1  0  0  0  0
 23 32  1  0  0  0  0
 23 33  1  0  0  0  0
 21 28  1  0  0  0  0
 21 29  1  0  0  0  0
 24 34  1  0  0  0  0
 24 35  1  0  0  0  0
 39 44  1  0  0  0  0
  8 13  1  0  0  0  0
 18 27  1  0  0  0  0
 25 36  1  0  0  0  0
 25 37  1  0  0  0  0
 48 50  1  0  0  0  0
  7 12  1  0  0  0  0
 38 43  1  0  0  0  0
 17 26  1  0  0  0  0
M  END
$$$$

  -OEChem-05262214473D

 53 52  0     1  0  0  0  0  0999 V2000
   -1.0338   -5.6785    0.1476 C   0  0  0  0  0  0  0  0  0  0  0  0
   -2.0514   -5.7797    0.8227 O   0  0  0  0  0  0  0  0  0  0  0  0
   -0.6558   -6.7819   -0.7841 C   0  0  0  0  0  0  0  0  0  0  0  0
   -0.0111   -7.5354   -0.3038 H   0  0  0  0  0  0  0  0  0  0  0  0
   -1.5317   -7.3401   -1.1520 H   0  0  0  0  0  0  0  0  0  0  0  0
   -0.1109   -6.4687   -1.6890 H   0  0  0  0  0  0  0  0  0  0  0  0
   -0.1543   -4.6083    0.1480 N   0  0  0  0  0  0  0  0  0  0  0  0
   -0.3302   -3.4398    0.9696 C   0  0  2  0  0  0  0  0  0  0  0  0
    0.2328   -2.2439    0.2131 C   0  0  0  0  0  0  0  0  0  0  0  0
    1.2097   -2.3192   -0.5294 O   0  0  0  0  0  0  0  0  0  0  0  0
    0.3557   -3.6024    2.3171 C   0  0  0  0  0  0  0  0  0  0  0  0
    0.6584   -4.6506   -0.4643 H   0  0  0  0  0  0  0  0  0  0  0  0
   -1.4091   -3.3101    1.1082 H   0  0  0  0  0  0  0  0  0  0  0  0
    1.4375   -3.7336    2.1985 H   0  0  0  0  0  0  0  0  0  0  0  0
    0.1969   -2.7243    2.9517 H   0  0  0  0  0  0  0  0  0  0  0  0
   -0.0294   -4.4803    2.8470 H   0  0  0  0  0  0  0  0  0  0  0  0
   -0.4616   -1.0893    0.5050 N   0  0  0  0  0  0  0  0  0  0  0  0
   -0.0884    0.2050   -0.0621 C   0  0  2  0  0  0  0  0  0  0  0  0
   -0.5359    0.2168   -1.5210 C   0  0  0  0  0  0  0  0  0  0  0  0
   -1.1302    1.1641   -2.0319 O   0  0  0  0  0  0  0  0  0  0  0  0
    1.4251    0.4572    0.0099 C   0  0  0  0  0  0  0  0  0  0  0  0
    1.9431    0.6437    1.4398 C   0  0  0  0  0  0  0  0  0  0  0  0
    3.4498    0.9158    1.4521 C   0  0  0  0  0  0  0  0  0  0  0  0
    3.9702    1.0773    2.8794 C   0  0  0  0  0  0  0  0  0  0  0  0
    5.4092    1.3119    2.8701 N   0  0  0  0  0  0  0  0  0  0  0  0
   -1.2794   -1.1113    1.0935 H   0  0  0  0  0  0  0  0  0  0  0  0
   -0.6236    0.9917    0.4832 H   0  0  0  0  0  0  0  0  0  0  0  0
    1.6680    1.3545   -0.5743 H   0  0  0  0  0  0  0  0  0  0  0  0
    1.9651   -0.3696   -0.4713 H   0  0  0  0  0  0  0  0  0  0  0  0
    1.7367   -0.2519    2.0364 H   0  0  0  0  0  0  0  0  0  0  0  0
    1.4162    1.4804    1.9141 H   0  0  0  0  0  0  0  0  0  0  0  0
    3.9734    0.0888    0.9560 H   0  0  0  0  0  0  0  0  0  0  0  0
    3.6621    1.8249    0.8752 H   0  0  0  0  0  0  0  0  0  0  0  0
    3.7529    0.1781    3.4661 H   0  0  0  0  0  0  0  0  0  0  0  0
    3.4740    1.9226    3.3680 H   0  0  0  0  0  0  0  0  0  0  0  0
    5.7238    1.2899    1.9282 H   0  0  0  0  0  0  0  0  0  0  0  0
    5.5833    2.2018    3.2755 H   0  0  0  0  0  0  0  0  0  0  0  0
   -0.2126   -0.9634   -2.1761 N   0  0  0  0  0  0  0  0  0  0  0  0
   -0.5439   -1.2182   -3.5597 C   0  0  2  0  0  0  0  0  0  0  0  0
   -0.8034   -2.7109   -3.7139 C   0  0  0  0  0  0  0  0  0  0  0  0
   -0.2006   -3.5667   -3.0694 O   0  0  0  0  0  0  0  0  0  0  0  0
    0.5702   -0.7613   -4.4886 C   0  0  0  0  0  0  0  0  0  0  0  0
    0.2893   -1.6899   -1.6742 H   0  0  0  0  0  0  0  0  0  0  0  0
   -1.4641   -0.6631   -3.7719 H   0  0  0  0  0  0  0  0  0  0  0  0
    1.5004   -1.3064   -4.2908 H   0  0  0  0  0  0  0  0  0  0  0  0
    0.3056   -0.9288   -5.5378 H   0  0  0  0  0  0  0  0  0  0  0  0
    0.7758    0.3063   -4.3550 H   0  0  0  0  0  0  0  0  0  0  0  0
   -1.7566   -2.9771   -4.6869 N   0  0  0  0  0  0  0  0  0  0  0  0
   -2.1465   -4.3196   -5.0497 C   0  0  0  0  0  0  0  0  0  0  0  0
   -2.2342   -2.2053   -5.1429 H   0  0  0  0  0  0  0  0  0  0  0  0
   -1.5326   -4.6646   -5.8948 H   0  0  0  0  0  0  0  0  0  0  0  0
   -1.9967   -4.9897   -4.1903 H   0  0  0  0  0  0  0  0  0  0  0  0
   -3.2074   -4.3273   -5.3401 H   0  0  0  0  0  0  0  0  0  0  0  0
  1  3  1  0  0  0  0
  1  7  1  0  0  0  0
  1  2  2  0  0  0  0
 39 40  1  0  0  0  0
 40 48  1  0  0  0  0
 40 41  2  0  0  0  0
  8  9  1  0  0  0  0
  9 17  1  0  0  0  0
  9 10  2  0  0  0  0
 18 19  1  0  0  0  0
 19 38  1  0  0  0  0
 19 20  2  0  0  0  0
 39 42  1  0  0  0  0
  8 11  1  0  0  0  0
 48 49  1  0  0  0  0
 22 23  1  0  0  0  0
 21 22  1  0  0  0  0
 23 24  1  0  0  0  0
 18 21  1  0  0  0  0
 24 25  1  0  0  0  0
 38 39  1  0  0  0  0
  7  8  1  0  0  0  0
 17 18  1  0  0  0  0
  3  4  1  0  0  0  0
  3  5  1  0  0  0  0
  3  6  1  0  0  0  0
 42 45  1  0  0  0  0
 42 46  1  0  0  0  0
 42 47  1  0  0  0  0
 11 14  1  0  0  0  0
 11 15  1  0  0  0  0
 11 16  1  0  0  0  0
 49 51  1  0  0  0  0
 49 52  1  0  0  0  0
 49 53  1  0  0  0  0
 22 30  1  0  0  0  0
 22 31  1  0  0  0  0
 23 32  1  0  0  0  0
 23 33  1  0  0  0  0
 21 28  1  0  0  0  0
 21 29  1  0  0  0  0
 24 34  1  0  0  0  0
 24 35  1  0  0  0  0
 39 44  1  0  0  0  0
  8 13  1  0  0  0  0
 18 27  1  0  0  0  0
 25 36  1  0  0  0  0
 25 37  1  0  0  0  0
 48 50  1  0  0  0  0
  7 12  1  0  0  0  0
 38 43  1  0  0  0  0
 17 26  1  0  0  0  0
M  END
$$$$

  -OEChem-05262214473D

 53 52  0     1  0  0  0  0  0999 V2000
   -1.0338   -5.6785    0.1476 C   0  0  0  0  0  0  0  0  0  0  0  0
   -2.0514   -5.7797    0.8227 O   0  0  0  0  0  0  0  0  0  0  0  0
   -0.6558   -6.7819   -0.7841 C   0  0  0  0  0  0  0  0  0  0  0  0
   -0.0111   -7.5354   -0.3038 H   0  0  0  0  0  0  0  0  0  0  0  0
   -1.5317   -7.3401   -1.1520 H   0  0  0  0  0  0  0  0  0  0  0  0
   -0.1109   -6.4687   -1.6890 H   0  0  0  0  0  0  0  0  0  0  0  0
   -0.1543   -4.6083    0.1480 N   0  0  0  0  0  0  0  0  0  0  0  0
   -0.3302   -3.4398    0.9696 C   0  0  2  0  0  0  0  0  0  0  0  0
    0.2328   -2.2439    0.2131 C   0  0  0  0  0  0  0  0  0  0  0  0
    1.2097   -2.3192   -0.5294 O   0  0  0  0  0  0  0  0  0  0  0  0
    0.3557   -3.6024    2.3171 C   0  0  0  0  0  0  0  0  0  0  0  0
    0.6584   -4.6506   -0.4643 H   0  0  0  0  0  0  0  0  0  0  0  0
   -1.4091   -3.3101    1.1082 H   0  0  0  0  0  0  0  0  0  0  0  0
    1.4375   -3.7336    2.1985 H   0  0  0  0  0  0  0  0  0  0  0  0
    0.1969   -2.7243    2.9517 H   0  0  0  0  0  0  0  0  0  0  0  0
   -0.0294   -4.4803    2.8470 H   0  0  0  0  0  0  0  0  0  0  0  0
   -0.4616   -1.0893    0.5050 N   0  0  0  0  0  0  0  0  0  0  0  0
   -0.0884    0.2050   -0.0621 C   0  0  2  0  0  0  0  0  0  0  0  0
   -0.5359    0.2168   -1.5210 C   0  0  0  0  0  0  0  0  0  0  0  0
   -0.8833    1.2402   -2.1071 O   0  0  0  0  0  0  0  0  0  0  0  0
    1.4251    0.4572    0.0099 C   0  0  0  0  0  0  0  0  0  0  0  0
    1.9431    0.6437    1.4398 C   0  0  0  0  0  0  0  0  0  0  0  0
    3.4498    0.9158    1.4521 C   0  0  0  0  0  0  0  0  0  0  0  0
    3.9702    1.0773    2.8794 C   0  0  0  0  0  0  0  0  0  0  0  0
    5.4092    1.3119    2.8701 N   0  0  0  0  0  0  0  0  0  0  0  0
   -1.2794   -1.1113    1.0935 H   0  0  0  0  0  0  0  0  0  0  0  0
   -0.6236    0.9917    0.4832 H   0  0  0  0  0  0  0  0  0  0  0  0
    1.6680    1.3545   -0.5743 H   0  0  0  0  0  0  0  0  0  0  0  0
    1.9651   -0.3696   -0.4713 H   0  0  0  0  0  0  0  0  0  0  0  0
    1.7367   -0.2519    2.0364 H   0  0  0  0  0  0  0  0  0  0  0  0
    1.4162    1.4804    1.9141 H   0  0  0  0  0  0  0  0  0  0  0  0
    3.9734    0.0888    0.9560 H   0  0  0  0  0  0  0  0  0  0  0  0
    3.6621    1.8249    0.8752 H   0  0  0  0  0  0  0  0  0  0  0  0
    3.7529    0.1781    3.4661 H   0  0  0  0  0  0  0  0  0  0  0  0
    3.4740    1.9226    3.3680 H   0  0  0  0  0  0  0  0  0  0  0  0
    5.7238    1.2899    1.9282 H   0  0  0  0  0  0  0  0  0  0  0  0
    5.5833    2.2018    3.2755 H   0  0  0  0  0  0  0  0  0  0  0  0
   -0.5221   -1.0528   -2.0819 N   0  0  0  0  0  0  0  0  0  0  0  0
   -0.9221   -1.3215   -3.4445 C   0  0  2  0  0  0  0  0  0  0  0  0
   -1.5446   -2.7109   -3.4866 C   0  0  0  0  0  0  0  0  0  0  0  0
   -1.1648   -3.6379   -2.7742 O   0  0  0  0  0  0  0  0  0  0  0  0
    0.2595   -1.2262   -4.3970 C   0  0  0  0  0  0  0  0  0  0  0  0
   -0.2098   -1.8408   -1.5223 H   0  0  0  0  0  0  0  0  0  0  0  0
   -1.6788   -0.5736   -3.7053 H   0  0  0  0  0  0  0  0  0  0  0  0
    1.0282   -1.9680   -4.1513 H   0  0  0  0  0  0  0  0  0  0  0  0
   -0.0504   -1.4019   -5.4325 H   0  0  0  0  0  0  0  0  0  0  0  0
    0.7243   -0.2358   -4.3436 H   0  0  0  0  0  0  0  0  0  0  0  0
   -2.5452   -2.8057   -4.4436 N   0  0  0  0  0  0  0  0  0  0  0  0
   -3.2592   -4.0334   -4.7060 C   0  0  0  0  0  0  0  0  0  0  0  0
   -2.8222   -1.9765   -4.9607 H   0  0  0  0  0  0  0  0  0  0  0  0
   -2.7596   -4.5825   -5.5177 H   0  0  0  0  0  0  0  0  0  0  0  0
   -3.2699   -4.6527   -3.7970 H   0  0  0  0  0  0  0  0  0  0  0  0
   -4.2924   -3.8002   -5.0030 H   0  0  0  0  0  0  0  0  0  0  0  0
  1  3  1  0  0  0  0
  1  7  1  0  0  0  0
  1  2  2  0  0  0  0
 39 40  1  0  0  0  0
 40 48  1  0  0  0  0
 40 41  2  0  0  0  0
  8  9  1  0  0  0  0
  9 17  1  0  0  0  0
  9 10  2  0  0  0  0
 18 19  1  0  0  0  0
 19 38  1  0  0  0  0
 19 20  2  0  0  0  0
 39 42  1  0  0  0  0
  8 11  1  0  0  0  0
 48 49  1  0  0  0  0
 22 23  1  0  0  0  0
 21 22  1  0  0  0  0
 23 24  1  0  0  0  0
 18 21  1  0  0  0  0
 24 25  1  0  0  0  0
 38 39  1  0  0  0  0
  7  8  1  0  0  0  0
 17 18  1  0  0  0  0
  3  4  1  0  0  0  0
  3  5  1  0  0  0  0
  3  6  1  0  0  0  0
 42 45  1  0  0  0  0
 42 46  1  0  0  0  0
 42 47  1  0  0  0  0
 11 14  1  0  0  0  0
 11 15  1  0  0  0  0
 11 16  1  0  0  0  0
 49 51  1  0  0  0  0
 49 52  1  0  0  0  0
 49 53  1  0  0  0  0
 22 30  1  0  0  0  0
 22 31  1  0  0  0  0
 23 32  1  0  0  0  0
 23 33  1  0  0  0  0
 21 28  1  0  0  0  0
 21 29  1  0  0  0  0
 24 34  1  0  0  0  0
 24 35  1  0  0  0  0
 39 44  1  0  0  0  0
  8 13  1  0  0  0  0
 18 27  1  0  0  0  0
 25 36  1  0  0  0  0
 25 37  1  0  0  0  0
 48 50  1  0  0  0  0
  7 12  1  0  0  0  0
 38 43  1  0  0  0  0
 17 26  1  0  0  0  0
M  END
$$$$

  -OEChem-05262214473D

 53 52  0     1  0  0  0  0  0999 V2000
   -1.0338   -5.6785    0.1476 C   0  0  0  0  0  0  0  0  0  0  0  0
   -2.0514   -5.7797    0.8227 O   0  0  0  0  0  0  0  0  0  0  0  0
   -0.6558   -6.7819   -0.7841 C   0  0  0  0  0  0  0  0  0  0  0  0
   -0.0111   -7.5354   -0.3038 H   0  0  0  0  0  0  0  0  0  0  0  0
   -1.5317   -7.3401   -1.1520 H   0  0  0  0  0  0  0  0  0  0  0  0
   -0.1109   -6.4687   -1.6890 H   0  0  0  0  0  0  0  0  0  0  0  0
   -0.1543   -4.6083    0.1480 N   0  0  0  0  0  0  0  0  0  0  0  0
   -0.3302   -3.4398    0.9696 C   0  0  2  0  0  0  0  0  0  0  0  0
    0.2328   -2.2439    0.2131 C   0  0  0  0  0  0  0  0  0  0  0  0
    1.2097   -2.3192   -0.5294 O   0  0  0  0  0  0  0  0  0  0  0  0
    0.3557   -3.6024    2.3171 C   0  0  0  0  0  0  0  0  0  0  0  0
    0.6584   -4.6506   -0.4643 H   0  0  0  0  0  0  0  0  0  0  0  0
   -1.4091   -3.3101    1.1082 H   0  0  0  0  0  0  0  0  0  0  0  0
    1.4375   -3.7336    2.1985 H   0  0  0  0  0  0  0  0  0  0  0  0
    0.1969   -2.7243    2.9517 H   0  0  0  0  0  0  0  0  0  0  0  0
   -0.0294   -4.4803    2.8470 H   0  0  0  0  0  0  0  0  0  0  0  0
   -0.4616   -1.0893    0.5050 N   0  0  0  0  0  0  0  0  0  0  0  0
   -0.0884    0.2050   -0.0621 C   0  0  2  0  0  0  0  0  0  0  0  0
   -0.5359    0.2168   -1.5210 C   0  0  0  0  0  0  0  0  0  0  0  0
   -0.6261    1.2470   -2.1859 O   0  0  0  0  0  0  0  0  0  0  0  0
    1.4251    0.4572    0.0099 C   0  0  0  0  0  0  0  0  0  0  0  0
    1.9431    0.6437    1.4398 C   0  0  0  0  0  0  0  0  0  0  0  0
    3.4498    0.9158    1.4521 C   0  0  0  0  0  0  0  0  0  0  0  0
    3.9702    1.0773    2.8794 C   0  0  0  0  0  0  0  0  0  0  0  0
    5.4092    1.3119    2.8701 N   0  0  0  0  0  0  0  0  0  0  0  0
   -1.2794   -1.1113    1.0935 H   0  0  0  0  0  0  0  0  0  0  0  0
   -0.6236    0.9917    0.4832 H   0  0  0  0  0  0  0  0  0  0  0  0
    1.6680    1.3545   -0.5743 H   0  0  0  0  0  0  0  0  0  0  0  0
    1.9651   -0.3696   -0.4713 H   0  0  0  0  0  0  0  0  0  0  0  0
    1.7367   -0.2519    2.0364 H   0  0  0  0  0  0  0  0  0  0  0  0
    1.4162    1.4804    1.9141 H   0  0  0  0  0  0  0  0  0  0  0  0
    3.9734    0.0888    0.9560 H   0  0  0  0  0  0  0  0  0  0  0  0
    3.6621    1.8249    0.8752 H   0  0  0  0  0  0  0  0  0  0  0  0
    3.7529    0.1781    3.4661 H   0  0  0  0  0  0  0  0  0  0  0  0
    3.4740    1.9226    3.3680 H   0  0  0  0  0  0  0  0  0  0  0  0
    5.7238    1.2899    1.9282 H   0  0  0  0  0  0  0  0  0  0  0  0
    5.5833    2.2018    3.2755 H   0  0  0  0  0  0  0  0  0  0  0  0
   -0.8431   -1.0554   -1.9835 N   0  0  0  0  0  0  0  0  0  0  0  0
   -1.3128   -1.3191   -3.3246 C   0  0  2  0  0  0  0  0  0  0  0  0
   -2.2600   -2.5102   -3.2655 C   0  0  0  0  0  0  0  0  0  0  0  0
   -2.1132   -3.4457   -2.4817 O   0  0  0  0  0  0  0  0  0  0  0  0
   -0.1554   -1.5915   -4.2727 C   0  0  0  0  0  0  0  0  0  0  0  0
   -0.7290   -1.8514   -1.3631 H   0  0  0  0  0  0  0  0  0  0  0  0
   -1.8640   -0.4291   -3.6473 H   0  0  0  0  0  0  0  0  0  0  0  0
    0.4086   -2.4797   -3.9654 H   0  0  0  0  0  0  0  0  0  0  0  0
   -0.5111   -1.7629   -5.2940 H   0  0  0  0  0  0  0  0  0  0  0  0
    0.5405   -0.7458   -4.2913 H   0  0  0  0  0  0  0  0  0  0  0  0
   -3.2640   -2.4265   -4.2200 N   0  0  0  0  0  0  0  0  0  0  0  0
   -4.2625   -3.4555   -4.3936 C   0  0  0  0  0  0  0  0  0  0  0  0
   -3.3333   -1.5961   -4.8008 H   0  0  0  0  0  0  0  0  0  0  0  0
   -3.9236   -4.1709   -5.1573 H   0  0  0  0  0  0  0  0  0  0  0  0
   -4.4156   -3.9823   -3.4401 H   0  0  0  0  0  0  0  0  0  0  0  0
   -5.2092   -2.9970   -4.7153 H   0  0  0  0  0  0  0  0  0  0  0  0
  1  3  1  0  0  0  0
  1  7  1  0  0  0  0
  1  2  2  0  0  0  0
 39 40  1  0  0  0  0
 40 48  1  0  0  0  0
 40 41  2  0  0  0  0
  8  9  1  0  0  0  0
  9 17  1  0  0  0  0
  9 10  2  0  0  0  0
 18 19  1  0  0  0  0
 19 38  1  0  0  0  0
 19 20  2  0  0  0  0
 39 42  1  0  0  0  0
  8 11  1  0  0  0  0
 48 49  1  0  0  0  0
 22 23  1  0  0  0  0
 21 22  1  0  0  0  0
 23 24  1  0  0  0  0
 18 21  1  0  0  0  0
 24 25  1  0  0  0  0
 38 39  1  0  0  0  0
  7  8  1  0  0  0  0
 17 18  1  0  0  0  0
  3  4  1  0  0  0  0
  3  5  1  0  0  0  0
  3  6  1  0  0  0  0
 42 45  1  0  0  0  0
 42 46  1  0  0  0  0
 42 47  1  0  0  0  0
 11 14  1  0  0  0  0
 11 15  1  0  0  0  0
 11 16  1  0  0  0  0
 49 51  1  0  0  0  0
 49 52  1  0  0  0  0
 49 53  1  0  0  0  0
 22 30  1  0  0  0  0
 22 31  1  0  0  0  0
 23 32  1  0  0  0  0
 23 33  1  0  0  0  0
 21 28  1  0  0  0  0
 21 29  1  0  0  0  0
 24 34  1  0  0  0  0
 24 35  1  0  0  0  0
 39 44  1  0  0  0  0
  8 13  1  0  0  0  0
 18 27  1  0  0  0  0
 25 36  1  0  0  0  0
 25 37  1  0  0  0  0
 48 50  1  0  0  0  0
  7 12  1  0  0  0  0
 38 43  1  0  0  0  0
 17 26  1  0  0  0  0
M  END
$$$$

  -OEChem-05262214473D

 53 52  0     1  0  0  0  0  0999 V2000
   -1.0338   -5.6785    0.1476 C   0  0  0  0  0  0  0  0  0  0  0  0
   -2.0514   -5.7797    0.8227 O   0  0  0  0  0  0  0  0  0  0  0  0
   -0.6558   -6.7819   -0.7841 C   0  0  0  0  0  0  0  0  0  0  0  0
   -0.0111   -7.5354   -0.3038 H   0  0  0  0  0  0  0  0  0  0  0  0
   -1.5317   -7.3401   -1.1520 H   0  0  0  0  0  0  0  0  0  0  0  0
   -0.1109   -6.4687   -1.6890 H   0  0  0  0  0  0  0  0  0  0  0  0
   -0.1543   -4.6083    0.1480 N   0  0  0  0  0  0  0  0  0  0  0  0
   -0.3302   -3.4398    0.9696 C   0  0  2  0  0  0  0  0  0  0  0  0
    0.2328   -2.2439    0.2131 C   0  0  0  0  0  0  0  0  0  0  0  0
    1.2097   -2.3192   -0.5294 O   0  0  0  0  0  0  0  0  0  0  0  0
    0.3557   -3.6024    2.3171 C   0  0  0  0  0  0  0  0  0  0  0  0
    0.6584   -4.6506   -0.4643 H   0  0  0  0  0  0  0  0  0  0  0  0
   -1.4091   -3.3101    1.1082 H   0  0  0  0  0  0  0  0  0  0  0  0
    1.4375   -3.7336    2.1985 H   0  0  0  0  0  0  0  0  0  0  0  0
    0.1969   -2.7243    2.9517 H   0  0  0  0  0  0  0  0  0  0  0  0
   -0.0294   -4.4803    2.8470 H   0  0  0  0  0  0  0  0  0  0  0  0
   -0.4616   -1.0893    0.5050 N   0  0  0  0  0  0  0  0  0  0  0  0
   -0.0884    0.2050   -0.0621 C   0  0  2  0  0  0  0  0  0  0  0  0
   -0.5359    0.2168   -1.5210 C   0  0  0  0  0  0  0  0  0  0  0  0
   -0.3761    1.1839   -2.2631 O   0  0  0  0  0  0  0  0  0  0  0  0
    1.4251    0.4572    0.0099 C   0  0  0  0  0  0  0  0  0  0  0  0
    1.9431    0.6437    1.4398 C   0  0  0  0  0  0  0  0  0  0  0  0
    3.4498    0.9158    1.4521 C   0  0  0  0  0  0  0  0  0  0  0  0
    3.9702    1.0773    2.8794 C   0  0  0  0  0  0  0  0  0  0  0  0
    5.4092    1.3119    2.8701 N   0  0  0  0  0  0  0  0  0  0  0  0
   -1.2794   -1.1113    1.0935 H   0  0  0  0  0  0  0  0  0  0  0  0
   -0.6236    0.9917    0.4832 H   0  0  0  0  0  0  0  0  0  0  0  0
    1.6680    1.3545   -0.5743 H   0  0  0  0  0  0  0  0  0  0  0  0
    1.9651   -0.3696   -0.4713 H   0  0  0  0  0  0  0  0  0  0  0  0
    1.7367   -0.2519    2.0364 H   0  0  0  0  0  0  0  0  0  0  0  0
    1.4162    1.4804    1.9141 H   0  0  0  0  0  0  0  0  0  0  0  0
    3.9734    0.0888    0.9560 H   0  0  0  0  0  0  0  0  0  0  0  0
    3.6621    1.8249    0.8752 H   0  0  0  0  0  0  0  0  0  0  0  0
    3.7529    0.1781    3.4661 H   0  0  0  0  0  0  0  0  0  0  0  0
    3.4740    1.9226    3.3680 H   0  0  0  0  0  0  0  0  0  0  0  0
    5.7238    1.2899    1.9282 H   0  0  0  0  0  0  0  0  0  0  0  0
    5.5833    2.2018    3.2755 H   0  0  0  0  0  0  0  0  0  0  0  0
   -1.1536   -0.9710   -1.8875 N   0  0  0  0  0  0  0  0  0  0  0  0
   -1.6894   -1.2109   -3.2082 C   0  0  2  0  0  0  0  0  0  0  0  0
   -2.9010   -2.1225   -3.0657 C   0  0  0  0  0  0  0  0  0  0  0  0
   -2.9811   -3.0033   -2.2119 O   0  0  0  0  0  0  0  0  0  0  0  0
   -0.6464   -1.8322   -4.1240 C   0  0  0  0  0  0  0  0  0  0  0  0
   -1.2327   -1.7213   -1.2075 H   0  0  0  0  0  0  0  0  0  0  0  0
   -2.0070   -0.2392   -3.6019 H   0  0  0  0  0  0  0  0  0  0  0  0
   -0.3160   -2.8065   -3.7457 H   0  0  0  0  0  0  0  0  0  0  0  0
   -1.0451   -1.9870   -5.1320 H   0  0  0  0  0  0  0  0  0  0  0  0
    0.2368   -1.1890   -4.2017 H   0  0  0  0  0  0  0  0  0  0  0  0
   -3.8640   -1.8654   -4.0314 N   0  0  0  0  0  0  0  0  0  0  0  0
   -5.0880   -2.6253   -4.1336 C   0  0  0  0  0  0  0  0  0  0  0  0
   -3.7325   -1.0901   -4.6743 H   0  0  0  0  0  0  0  0  0  0  0  0
   -4.9454   -3.4581   -4.8381 H   0  0  0  0  0  0  0  0  0  0  0  0
   -5.3556   -3.0241   -3.1440 H   0  0  0  0  0  0  0  0  0  0  0  0
   -5.8956   -1.9725   -4.4965 H   0  0  0  0  0  0  0  0  0  0  0  0
  1  3  1  0  0  0  0
  1  7  1  0  0  0  0
  1  2  2  0  0  0  0
 39 40  1  0  0  0  0
 40 48  1  0  0  0  0
 40 41  2  0  0  0  0
  8  9  1  0  0  0  0
  9 17  1  0  0  0  0
  9 10  2  0  0  0  0
 18 19  1  0  0  0  0
 19 38  1  0  0  0  0
 19 20  2  0  0  0  0
 39 42  1  0  0  0  0
  8 11  1  0  0  0  0
 48 49  1  0  0  0  0
 22 23  1  0  0  0  0
 21 22  1  0  0  0  0
 23 24  1  0  0  0  0
 18 21  1  0  0  0  0
 24 25  1  0  0  0  0
 38 39  1  0  0  0  0
  7  8  1  0  0  0  0
 17 18  1  0  0  0  0
  3  4  1  0  0  0  0
  3  5  1  0  0  0  0
  3  6  1  0  0  0  0
 42 45  1  0  0  0  0
 42 46  1  0  0  0  0
 42 47  1  0  0  0  0
 11 14  1  0  0  0  0
 11 15  1  0  0  0  0
 11 16  1  0  0  0  0
 49 51  1  0  0  0  0
 49 52  1  0  0  0  0
 49 53  1  0  0  0  0
 22 30  1  0  0  0  0
 22 31  1  0  0  0  0
 23 32  1  0  0  0  0
 23 33  1  0  0  0  0
 21 28  1  0  0  0  0
 21 29  1  0  0  0  0
 24 34  1  0  0  0  0
 24 35  1  0  0  0  0
 39 44  1  0  0  0  0
  8 13  1  0  0  0  0
 18 27  1  0  0  0  0
 25 36  1  0  0  0  0
 25 37  1  0  0  0  0
 48 50  1  0  0  0  0
  7 12  1  0  0  0  0
 38 43  1  0  0  0  0
 17 26  1  0  0  0  0
M  END
$$$$

  -OEChem-05262214473D

 53 52  0     1  0  0  0  0  0999 V2000
   -1.0338   -5.6785    0.1476 C   0  0  0  0  0  0  0  0  0  0  0  0
   -2.0514   -5.7797    0.8227 O   0  0  0  0  0  0  0  0  0  0  0  0
   -0.6558   -6.7819   -0.7841 C   0  0  0  0  0  0  0  0  0  0  0  0
   -0.0111   -7.5354   -0.3038 H   0  0  0  0  0  0  0  0  0  0  0  0
   -1.5317   -7.3401   -1.1520 H   0  0  0  0  0  0  0  0  0  0  0  0
   -0.1109   -6.4687   -1.6890 H   0  0  0  0  0  0  0  0  0  0  0  0
   -0.1543   -4.6083    0.1480 N   0  0  0  0  0  0  0  0  0  0  0  0
   -0.3302   -3.4398    0.9696 C   0  0  2  0  0  0  0  0  0  0  0  0
    0.2328   -2.2439    0.2131 C   0  0  0  0  0  0  0  0  0  0  0  0
    1.2097   -2.3192   -0.5294 O   0  0  0  0  0  0  0  0  0  0  0  0
    0.3557   -3.6024    2.3171 C   0  0  0  0  0  0  0  0  0  0  0  0
    0.6584   -4.6506   -0.4643 H   0  0  0  0  0  0  0  0  0  0  0  0
   -1.4091   -3.3101    1.1082 H   0  0  0  0  0  0  0  0  0  0  0  0
    1.4375   -3.7336    2.1985 H   0  0  0  0  0  0  0  0  0  0  0  0
    0.1969   -2.7243    2.9517 H   0  0  0  0  0  0  0  0  0  0  0  0
   -0.0294   -4.4803    2.8470 H   0  0  0  0  0  0  0  0  0  0  0  0
   -0.4616   -1.0893    0.5050 N   0  0  0  0  0  0  0  0  0  0  0  0
   -0.0884    0.2050   -0.0621 C   0  0  2  0  0  0  0  0  0  0  0  0
   -0.5359    0.2168   -1.5210 C   0  0  0  0  0  0  0  0  0  0  0  0
   -0.1505    1.0553   -2.3333 O   0  0  0  0  0  0  0  0  0  0  0  0
    1.4251    0.4572    0.0099 C   0  0  0  0  0  0  0  0  0  0  0  0
    1.9431    0.6437    1.4398 C   0  0  0  0  0  0  0  0  0  0  0  0
    3.4498    0.9158    1.4521 C   0  0  0  0  0  0  0  0  0  0  0  0
    3.9702    1.0773    2.8794 C   0  0  0  0  0  0  0  0  0  0  0  0
    5.4092    1.3119    2.8701 N   0  0  0  0  0  0  0  0  0  0  0  0
   -1.2794   -1.1113    1.0935 H   0  0  0  0  0  0  0  0  0  0  0  0
   -0.6236    0.9917    0.4832 H   0  0  0  0  0  0  0  0  0  0  0  0
    1.6680    1.3545   -0.5743 H   0  0  0  0  0  0  0  0  0  0  0  0
    1.9651   -0.3696   -0.4713 H   0  0  0  0  0  0  0  0  0  0  0  0
    1.7367   -0.2519    2.0364 H   0  0  0  0  0  0  0  0  0  0  0  0
    1.4162    1.4804    1.9141 H   0  0  0  0  0  0  0  0  0  0  0  0
    3.9734    0.0888    0.9560 H   0  0  0  0  0  0  0  0  0  0  0  0
    3.6621    1.8249    0.8752 H   0  0  0  0  0  0  0  0  0  0  0  0
    3.7529    0.1781    3.4661 H   0  0  0  0  0  0  0  0  0  0  0  0
    3.4740    1.9226    3.3680 H   0  0  0  0  0  0  0  0  0  0  0  0
    5.7238    1.2899    1.9282 H   0  0  0  0  0  0  0  0  0  0  0  0
    5.5833    2.2018    3.2755 H   0  0  0  0  0  0  0  0  0  0  0  0
   -1.4324   -0.8054   -1.8007 N   0  0  0  0  0  0  0  0  0  0  0  0
   -2.0261   -1.0044   -3.1032 C   0  0  2  0  0  0  0  0  0  0  0  0
   -3.4239   -1.5743   -2.9009 C   0  0  0  0  0  0  0  0  0  0  0  0
   -3.7094   -2.3406   -1.9831 O   0  0  0  0  0  0  0  0  0  0  0  0
   -1.1798   -1.9320   -3.9612 C   0  0  0  0  0  0  0  0  0  0  0  0
   -1.6868   -1.4590   -1.0661 H   0  0  0  0  0  0  0  0  0  0  0  0
   -2.0980   -0.0170   -3.5722 H   0  0  0  0  0  0  0  0  0  0  0  0
   -1.0964   -2.9263   -3.5073 H   0  0  0  0  0  0  0  0  0  0  0  0
   -1.6161   -2.0591   -4.9574 H   0  0  0  0  0  0  0  0  0  0  0  0
   -0.1659   -1.5352   -4.0810 H   0  0  0  0  0  0  0  0  0  0  0  0
   -4.3044   -1.1606   -3.8906 N   0  0  0  0  0  0  0  0  0  0  0  0
   -5.6794   -1.5995   -3.9439 C   0  0  0  0  0  0  0  0  0  0  0  0
   -3.9926   -0.4929   -4.5897 H   0  0  0  0  0  0  0  0  0  0  0  0
   -5.7554   -2.4924   -4.5818 H   0  0  0  0  0  0  0  0  0  0  0  0
   -6.0259   -1.8436   -2.9288 H   0  0  0  0  0  0  0  0  0  0  0  0
   -6.3045   -0.7964   -4.3615 H   0  0  0  0  0  0  0  0  0  0  0  0
  1  3  1  0  0  0  0
  1  7  1  0  0  0  0
  1  2  2  0  0  0  0
 39 40  1  0  0  0  0
 40 48  1  0  0  0  0
 40 41  2  0  0  0  0
  8  9  1  0  0  0  0
  9 17  1  0  0  0  0
  9 10  2  0  0  0  0
 18 19  1  0  0  0  0
 19 38  1  0  0  0  0
 19 20  2  0  0  0  0
 39 42  1  0  0  0  0
  8 11  1  0  0  0  0
 48 49  1  0  0  0  0
 22 23  1  0  0  0  0
 21 22  1  0  0  0  0
 23 24  1  0  0  0  0
 18 21  1  0  0  0  0
 24 25  1  0  0  0  0
 38 39  1  0  0  0  0
  7  8  1  0  0  0  0
 17 18  1  0  0  0  0
  3  4  1  0  0  0  0
  3  5  1  0  0  0  0
  3  6  1  0  0  0  0
 42 45  1  0  0  0  0
 42 46  1  0  0  0  0
 42 47  1  0  0  0  0
 11 14  1  0  0  0  0
 11 15  1  0  0  0  0
 11 16  1  0  0  0  0
 49 51  1  0  0  0  0
 49 52  1  0  0  0  0
 49 53  1  0  0  0  0
 22 30  1  0  0  0  0
 22 31  1  0  0  0  0
 23 32  1  0  0  0  0
 23 33  1  0  0  0  0
 21 28  1  0  0  0  0
 21 29  1  0  0  0  0
 24 34  1  0  0  0  0
 24 35  1  0  0  0  0
 39 44  1  0  0  0  0
  8 13  1  0  0  0  0
 18 27  1  0  0  0  0
 25 36  1  0  0  0  0
 25 37  1  0  0  0  0
 48 50  1  0  0  0  0
  7 12  1  0  0  0  0
 38 43  1  0  0  0  0
 17 26  1  0  0  0  0
M  END
$$$$

  -OEChem-05262214473D

 53 52  0     1  0  0  0  0  0999 V2000
   -1.0338   -5.6785    0.1476 C   0  0  0  0  0  0  0  0  0  0  0  0
   -2.0514   -5.7797    0.8227 O   0  0  0  0  0  0  0  0  0  0  0  0
   -0.6558   -6.7819   -0.7841 C   0  0  0  0  0  0  0  0  0  0  0  0
   -0.0111   -7.5354   -0.3038 H   0  0  0  0  0  0  0  0  0  0  0  0
   -1.5317   -7.3401   -1.1520 H   0  0  0  0  0  0  0  0  0  0  0  0
   -0.1109   -6.4687   -1.6890 H   0  0  0  0  0  0  0  0  0  0  0  0
   -0.1543   -4.6083    0.1480 N   0  0  0  0  0  0  0  0  0  0  0  0
   -0.3302   -3.4398    0.9696 C   0  0  2  0  0  0  0  0  0  0  0  0
    0.2328   -2.2439    0.2131 C   0  0  0  0  0  0  0  0  0  0  0  0
    1.2097   -2.3192   -0.5294 O   0  0  0  0  0  0  0  0  0  0  0  0
    0.3557   -3.6024    2.3171 C   0  0  0  0  0  0  0  0  0  0  0  0
    0.6584   -4.6506   -0.4643 H   0  0  0  0  0  0  0  0  0  0  0  0
   -1.4091   -3.3101    1.1082 H   0  0  0  0  0  0  0  0  0  0  0  0
    1.4375   -3.7336    2.1985 H   0  0  0  0  0  0  0  0  0  0  0  0
    0.1969   -2.7243    2.9517 H   0  0  0  0  0  0  0  0  0  0  0  0
   -0.0294   -4.4803    2.8470 H   0  0  0  0  0  0  0  0  0  0  0  0
   -0.4616   -1.0893    0.5050 N   0  0  0  0  0  0  0  0  0  0  0  0
   -0.0884    0.2050   -0.0621 C   0  0  2  0  0  0  0  0  0  0  0  0
   -0.5359    0.2168   -1.5210 C   0  0  0  0  0  0  0  0  0  0  0  0
    0.0355    0.8699   -2.3919 O   0  0  0  0  0  0  0  0  0  0  0  0
    1.4251    0.4572    0.0099 C   0  0  0  0  0  0  0  0  0  0  0  0
    1.9431    0.6437    1.4398 C   0  0  0  0  0  0  0  0  0  0  0  0
    3.4498    0.9158    1.4521 C   0  0  0  0  0  0  0  0  0  0  0  0
    3.9702    1.0773    2.8794 C   0  0  0  0  0  0  0  0  0  0  0  0
    5.4092    1.3119    2.8701 N   0  0  0  0  0  0  0  0  0  0  0  0
   -1.2794   -1.1113    1.0935 H   0  0  0  0  0  0  0  0  0  0  0  0
   -0.6236    0.9917    0.4832 H   0  0  0  0  0  0  0  0  0  0  0  0
    1.6680    1.3545   -0.5743 H   0  0  0  0  0  0  0  0  0  0  0  0
    1.9651   -0.3696   -0.4713 H   0  0  0  0  0  0  0  0  0  0  0  0
    1.7367   -0.2519    2.0364 H   0  0  0  0  0  0  0  0  0  0  0  0
    1.4162    1.4804    1.9141 H   0  0  0  0  0  0  0  0  0  0  0  0
    3.9734    0.0888    0.9560 H   0  0  0  0  0  0  0  0  0  0  0  0
    3.6621    1.8249    0.8752 H   0  0  0  0  0  0  0  0  0  0  0  0
    3.7529    0.1781    3.4661 H   0  0  0  0  0  0  0  0  0  0  0  0
    3.4740    1.9226    3.3680 H   0  0  0  0  0  0  0  0  0  0  0  0
    5.7238    1.2899    1.9282 H   0  0  0  0  0  0  0  0  0  0  0  0
    5.5833    2.2018    3.2755 H   0  0  0  0  0  0  0  0  0  0  0  0
   -1.6605   -0.5698   -1.7288 N   0  0  0  0  0  0  0  0  0  0  0  0
   -2.3000   -0.7136   -3.0168 C   0  0  2  0  0  0  0  0  0  0  0  0
   -3.7929   -0.9029   -2.7822 C   0  0  0  0  0  0  0  0  0  0  0  0
   -4.2485   -1.5030   -1.8110 O   0  0  0  0  0  0  0  0  0  0  0  0
   -1.7195   -1.8840   -3.7952 C   0  0  0  0  0  0  0  0  0  0  0  0
   -2.0602   -1.0827   -0.9485 H   0  0  0  0  0  0  0  0  0  0  0  0
   -2.1309    0.2224   -3.5602 H   0  0  0  0  0  0  0  0  0  0  0  0
   -1.8793   -2.8307   -3.2664 H   0  0  0  0  0  0  0  0  0  0  0  0
   -2.1851   -1.9741   -4.7822 H   0  0  0  0  0  0  0  0  0  0  0  0
   -0.6404   -1.7608   -3.9372 H   0  0  0  0  0  0  0  0  0  0  0  0
   -4.5552   -0.3602   -3.8072 N   0  0  0  0  0  0  0  0  0  0  0  0
   -5.9965   -0.4478   -3.8374 C   0  0  0  0  0  0  0  0  0  0  0  0
   -4.0960    0.1547   -4.5527 H   0  0  0  0  0  0  0  0  0  0  0  0
   -6.2984   -1.3398   -4.4059 H   0  0  0  0  0  0  0  0  0  0  0  0
   -6.3808   -0.5211   -2.8093 H   0  0  0  0  0  0  0  0  0  0  0  0
   -6.4083    0.4510   -4.3196 H   0  0  0  0  0  0  0  0  0  0  0  0
  1  3  1  0  0  0  0
  1  7  1  0  0  0  0
  1  2  2  0  0  0  0
 39 40  1  0  0  0  0
 40 48  1  0  0  0  0
 40 41  2  0  0  0  0
  8  9  1  0  0  0  0
  9 17  1  0  0  0  0
  9 10  2  0  0  0  0
 18 19  1  0  0  0  0
 19 38  1  0  0  0  0
 19 20  2  0  0  0  0
 39 42  1  0  0  0  0
  8 11  1  0  0  0  0
 48 49  1  0  0  0  0
 22 23  1  0  0  0  0
 21 22  1  0  0  0  0
 23 24  1  0  0  0  0
 18 21  1  0  0  0  0
 24 25  1  0  0  0  0
 38 39  1  0  0  0  0
  7  8  1  0  0  0  0
 17 18  1  0  0  0  0
  3  4  1  0  0  0  0
  3  5  1  0  0  0  0
  3  6  1  0  0  0  0
 42 45  1  0  0  0  0
 42 46  1  0  0  0  0
 42 47  1  0  0  0  0
 11 14  1  0  0  0  0
 11 15  1  0  0  0  0
 11 16  1  0  0  0  0
 49 51  1  0  0  0  0
 49 52  1  0  0  0  0
 49 53  1  0  0  0  0
 22 30  1  0  0  0  0
 22 31  1  0  0  0  0
 23 32  1  0  0  0  0
 23 33  1  0  0  0  0
 21 28  1  0  0  0  0
 21 29  1  0  0  0  0
 24 34  1  0  0  0  0
 24 35  1  0  0  0  0
 39 44  1  0  0  0  0
  8 13  1  0  0  0  0
 18 27  1  0  0  0  0
 25 36  1  0  0  0  0
 25 37  1  0  0  0  0
 48 50  1  0  0  0  0
  7 12  1  0  0  0  0
 38 43  1  0  0  0  0
 17 26  1  0  0  0  0
M  END
$$$$

  -OEChem-05262214473D

 53 52  0     1  0  0  0  0  0999 V2000
   -1.0338   -5.6785    0.1476 C   0  0  0  0  0  0  0  0  0  0  0  0
   -2.0514   -5.7797    0.8227 O   0  0  0  0  0  0  0  0  0  0  0  0
   -0.6558   -6.7819   -0.7841 C   0  0  0  0  0  0  0  0  0  0  0  0
   -0.0111   -7.5354   -0.3038 H   0  0  0  0  0  0  0  0  0  0  0  0
   -1.5317   -7.3401   -1.1520 H   0  0  0  0  0  0  0  0  0  0  0  0
   -0.1109   -6.4687   -1.6890 H   0  0  0  0  0  0  0  0  0  0  0  0
   -0.1543   -4.6083    0.1480 N   0  0  0  0  0  0  0  0  0  0  0  0
   -0.3302   -3.4398    0.9696 C   0  0  2  0  0  0  0  0  0  0  0  0
    0.2328   -2.2439    0.2131 C   0  0  0  0  0  0  0  0  0  0  0  0
    1.2097   -2.3192   -0.5294 O   0  0  0  0  0  0  0  0  0  0  0  0
    0.3557   -3.6024    2.3171 C   0  0  0  0  0  0  0  0  0  0  0  0
    0.6584   -4.6506   -0.4643 H   0  0  0  0  0  0  0  0  0  0  0  0
   -1.4091   -3.3101    1.1082 H   0  0  0  0  0  0  0  0  0  0  0  0
    1.4375   -3.7336    2.1985 H   0  0  0  0  0  0  0  0  0  0  0  0
    0.1969   -2.7243    2.9517 H   0  0  0  0  0  0  0  0  0  0  0  0
   -0.0294   -4.4803    2.8470 H   0  0  0  0  0  0  0  0  0  0  0  0
   -0.4616   -1.0893    0.5050 N   0  0  0  0  0  0  0  0  0  0  0  0
   -0.0884    0.2050   -0.0621 C   0  0  2  0  0  0  0  0  0  0  0  0
   -0.5359    0.2168   -1.5210 C   0  0  0  0  0  0  0  0  0  0  0  0
    0.1692    0.6403   -2.4348 O   0  0  0  0  0  0  0  0  0  0  0  0
    1.4251    0.4572    0.0099 C   0  0  0  0  0  0  0  0  0  0  0  0
    1.9431    0.6437    1.4398 C   0  0  0  0  0  0  0  0  0  0  0  0
    3.4498    0.9158    1.4521 C   0  0  0  0  0  0  0  0  0  0  0  0
    3.9702    1.0773    2.8794 C   0  0  0  0  0  0  0  0  0  0  0  0
    5.4092    1.3119    2.8701 N   0  0  0  0  0  0  0  0  0  0  0  0
   -1.2794   -1.1113    1.0935 H   0  0  0  0  0  0  0  0  0  0  0  0
   -0.6236    0.9917    0.4832 H   0  0  0  0  0  0  0  0  0  0  0  0
    1.6680    1.3545   -0.5743 H   0  0  0  0  0  0  0  0  0  0  0  0
    1.9651   -0.3696   -0.4713 H   0  0  0  0  0  0  0  0  0  0  0  0
    1.7367   -0.2519    2.0364 H   0  0  0  0  0  0  0  0  0  0  0  0
    1.4162    1.4804    1.9141 H   0  0  0  0  0  0  0  0  0  0  0  0
    3.9734    0.0888    0.9560 H   0  0  0  0  0  0  0  0  0  0  0  0
    3.6621    1.8249    0.8752 H   0  0  0  0  0  0  0  0  0  0  0  0
    3.7529    0.1781    3.4661 H   0  0  0  0  0  0  0  0  0  0  0  0
    3.4740    1.9226    3.3680 H   0  0  0  0  0  0  0  0  0  0  0  0
    5.7238    1.2899    1.9282 H   0  0  0  0  0  0  0  0  0  0  0  0
    5.5833    2.2018    3.2755 H   0  0  0  0  0  0  0  0  0  0  0  0
   -1.8225   -0.2804   -1.6768 N   0  0  0  0  0  0  0  0  0  0  0  0
   -2.4925   -0.3585   -2.9549 C   0  0  2  0  0  0  0  0  0  0  0  0
   -3.9830   -0.1540   -2.7179 C   0  0  0  0  0  0  0  0  0  0  0  0
   -4.5616   -0.5474   -1.7072 O   0  0  0  0  0  0  0  0  0  0  0  0
   -2.2286   -1.6916   -3.6375 C   0  0  0  0  0  0  0  0  0  0  0  0
   -2.3276   -0.6178   -0.8628 H   0  0  0  0  0  0  0  0  0  0  0  0
   -2.1034    0.4627   -3.5667 H   0  0  0  0  0  0  0  0  0  0  0  0
   -2.6115   -2.5264   -3.0393 H   0  0  0  0  0  0  0  0  0  0  0  0
   -2.7134   -1.7380   -4.6182 H   0  0  0  0  0  0  0  0  0  0  0  0
   -1.1542   -1.8503   -3.7803 H   0  0  0  0  0  0  0  0  0  0  0  0
   -4.5992    0.4813   -3.7869 N   0  0  0  0  0  0  0  0  0  0  0  0
   -6.0176    0.7511   -3.8212 C   0  0  0  0  0  0  0  0  0  0  0  0
   -4.0355    0.8086   -4.5660 H   0  0  0  0  0  0  0  0  0  0  0  0
   -6.5373   -0.0787   -4.3225 H   0  0  0  0  0  0  0  0  0  0  0  0
   -6.3962    0.8532   -2.7935 H   0  0  0  0  0  0  0  0  0  0  0  0
   -6.1999    1.6848   -4.3736 H   0  0  0  0  0  0  0  0  0  0  0  0
  1  3  1  0  0  0  0
  1  7  1  0  0  0  0
  1  2  2  0  0  0  0
 39 40  1  0  0  0  0
 40 48  1  0  0  0  0
 40 41  2  0  0  0  0
  8  9  1  0  0  0  0
  9 17  1  0  0  0  0
  9 10  2  0  0  0  0
 18 19  1  0  0  0  0
 19 38  1  0  0  0  0
 19 20  2  0  0  0  0
 39 42  1  0  0  0  0
  8 11  1  0  0  0  0
 48 49  1  0  0  0  0
 22 23  1  0  0  0  0
 21 22  1  0  0  0  0
 23 24  1  0  0  0  0
 18 21  1  0  0  0  0
 24 25  1  0  0  0  0
 38 39  1  0  0  0  0
  7  8  1  0  0  0  0
 17 18  1  0  0  0  0
  3  4  1  0  0  0  0
  3  5  1  0  0  0  0
  3  6  1  0  0  0  0
 42 45  1  0  0  0  0
 42 46  1  0  0  0  0
 42 47  1  0  0  0  0
 11 14  1  0  0  0  0
 11 15  1  0  0  0  0
 11 16  1  0  0  0  0
 49 51  1  0  0  0  0
 49 52  1  0  0  0  0
 49 53  1  0  0  0  0
 22 30  1  0  0  0  0
 22 31  1  0  0  0  0
 23 32  1  0  0  0  0
 23 33  1  0  0  0  0
 21 28  1  0  0  0  0
 21 29  1  0  0  0  0
 24 34  1  0  0  0  0
 24 35  1  0  0  0  0
 39 44  1  0  0  0  0
  8 13  1  0  0  0  0
 18 27  1  0  0  0  0
 25 36  1  0  0  0  0
 25 37  1  0  0  0  0
 48 50  1  0  0  0  0
  7 12  1  0  0  0  0
 38 43  1  0  0  0  0
 17 26  1  0  0  0  0
M  END
$$$$

  -OEChem-05262214473D

 53 52  0     1  0  0  0  0  0999 V2000
   -1.0338   -5.6785    0.1476 C   0  0  0  0  0  0  0  0  0  0  0  0
   -2.0514   -5.7797    0.8227 O   0  0  0  0  0  0  0  0  0  0  0  0
   -0.6558   -6.7819   -0.7841 C   0  0  0  0  0  0  0  0  0  0  0  0
   -0.0111   -7.5354   -0.3038 H   0  0  0  0  0  0  0  0  0  0  0  0
   -1.5317   -7.3401   -1.1520 H   0  0  0  0  0  0  0  0  0  0  0  0
   -0.1109   -6.4687   -1.6890 H   0  0  0  0  0  0  0  0  0  0  0  0
   -0.1543   -4.6083    0.1480 N   0  0  0  0  0  0  0  0  0  0  0  0
   -0.3302   -3.4398    0.9696 C   0  0  2  0  0  0  0  0  0  0  0  0
    0.2328   -2.2439    0.2131 C   0  0  0  0  0  0  0  0  0  0  0  0
    1.2097   -2.3192   -0.5294 O   0  0  0  0  0  0  0  0  0  0  0  0
    0.3557   -3.6024    2.3171 C   0  0  0  0  0  0  0  0  0  0  0  0
    0.6584   -4.6506   -0.4643 H   0  0  0  0  0  0  0  0  0  0  0  0
   -1.4091   -3.3101    1.1082 H   0  0  0  0  0  0  0  0  0  0  0  0
    1.4375   -3.7336    2.1985 H   0  0  0  0  0  0  0  0  0  0  0  0
    0.1969   -2.7243    2.9517 H   0  0  0  0  0  0  0  0  0  0  0  0
   -0.0294   -4.4803    2.8470 H   0  0  0  0  0  0  0  0  0  0  0  0
   -0.4616   -1.0893    0.5050 N   0  0  0  0  0  0  0  0  0  0  0  0
   -0.0884    0.2050   -0.0621 C   0  0  2  0  0  0  0  0  0  0  0  0
   -0.5359    0.2168   -1.5210 C   0  0  0  0  0  0  0  0  0  0  0  0
    0.2414    0.3822   -2.4590 O   0  0  0  0  0  0  0  0  0  0  0  0
    1.4251    0.4572    0.0099 C   0  0  0  0  0  0  0  0  0  0  0  0
    1.9431    0.6437    1.4398 C   0  0  0  0  0  0  0  0  0  0  0  0
    3.4498    0.9158    1.4521 C   0  0  0  0  0  0  0  0  0  0  0  0
    3.9702    1.0773    2.8794 C   0  0  0  0  0  0  0  0  0  0  0  0
    5.4092    1.3119    2.8701 N   0  0  0  0  0  0  0  0  0  0  0  0
   -1.2794   -1.1113    1.0935 H   0  0  0  0  0  0  0  0  0  0  0  0
   -0.6236    0.9917    0.4832 H   0  0  0  0  0  0  0  0  0  0  0  0
    1.6680    1.3545   -0.5743 H   0  0  0  0  0  0  0  0  0  0  0  0
    1.9651   -0.3696   -0.4713 H   0  0  0  0  0  0  0  0  0  0  0  0
    1.7367   -0.2519    2.0364 H   0  0  0  0  0  0  0  0  0  0  0  0
    1.4162    1.4804    1.9141 H   0  0  0  0  0  0  0  0  0  0  0  0
    3.9734    0.0888    0.9560 H   0  0  0  0  0  0  0  0  0  0  0  0
    3.6621    1.8249    0.8752 H   0  0  0  0  0  0  0  0  0  0  0  0
    3.7529    0.1781    3.4661 H   0  0  0  0  0  0  0  0  0  0  0  0
    3.4740    1.9226    3.3680 H   0  0  0  0  0  0  0  0  0  0  0  0
    5.7238    1.2899    1.9282 H   0  0  0  0  0  0  0  0  0  0  0  0
    5.5833    2.2018    3.2755 H   0  0  0  0  0  0  0  0  0  0  0  0
   -1.9072    0.0432   -1.6481 N   0  0  0  0  0  0  0  0  0  0  0  0
   -2.5905    0.0369   -2.9217 C   0  0  2  0  0  0  0  0  0  0  0  0
   -3.9812    0.6213   -2.7122 C   0  0  0  0  0  0  0  0  0  0  0  0
   -4.6275    0.4609   -1.6789 O   0  0  0  0  0  0  0  0  0  0  0  0
   -2.6724   -1.3677   -3.4988 C   0  0  0  0  0  0  0  0  0  0  0  0
   -2.4706   -0.0961   -0.8147 H   0  0  0  0  0  0  0  0  0  0  0  0
   -2.0174    0.6875   -3.5913 H   0  0  0  0  0  0  0  0  0  0  0  0
   -3.2429   -2.0341   -2.8416 H   0  0  0  0  0  0  0  0  0  0  0  0
   -3.1649   -1.3668   -4.4767 H   0  0  0  0  0  0  0  0  0  0  0  0
   -1.6724   -1.7978   -3.6209 H   0  0  0  0  0  0  0  0  0  0  0  0
   -4.4334    1.3065   -3.8311 N   0  0  0  0  0  0  0  0  0  0  0  0
   -5.7413    1.9157   -3.8965 C   0  0  0  0  0  0  0  0  0  0  0  0
   -3.8153    1.4242   -4.6286 H   0  0  0  0  0  0  0  0  0  0  0  0
   -6.4558    1.2048   -4.3371 H   0  0  0  0  0  0  0  0  0  0  0  0
   -6.0710    2.1858   -2.8825 H   0  0  0  0  0  0  0  0  0  0  0  0
   -5.6933    2.8208   -4.5198 H   0  0  0  0  0  0  0  0  0  0  0  0
  1  3  1  0  0  0  0
  1  7  1  0  0  0  0
  1  2  2  0  0  0  0
 39 40  1  0  0  0  0
 40 48  1  0  0  0  0
 40 41  2  0  0  0  0
  8  9  1  0  0  0  0
  9 17  1  0  0  0  0
  9 10  2  0  0  0  0
 18 19  1  0  0  0  0
 19 38  1  0  0  0  0
 19 20  2  0  0  0  0
 39 42  1  0  0  0  0
  8 11  1  0  0  0  0
 48 49  1  0  0  0  0
 22 23  1  0  0  0  0
 21 22  1  0  0  0  0
 23 24  1  0  0  0  0
 18 21  1  0  0  0  0
 24 25  1  0  0  0  0
 38 39  1  0  0  0  0
  7  8  1  0  0  0  0
 17 18  1  0  0  0  0
  3  4  1  0  0  0  0
  3  5  1  0  0  0  0
  3  6  1  0  0  0  0
 42 45  1  0  0  0  0
 42 46  1  0  0  0  0
 42 47  1  0  0  0  0
 11 14  1  0  0  0  0
 11 15  1  0  0  0  0
 11 16  1  0  0  0  0
 49 51  1  0  0  0  0
 49 52  1  0  0  0  0
 49 53  1  0  0  0  0
 22 30  1  0  0  0  0
 22 31  1  0  0  0  0
 23 32  1  0  0  0  0
 23 33  1  0  0  0  0
 21 28  1  0  0  0  0
 21 29  1  0  0  0  0
 24 34  1  0  0  0  0
 24 35  1  0  0  0  0
 39 44  1  0  0  0  0
  8 13  1  0  0  0  0
 18 27  1  0  0  0  0
 25 36  1  0  0  0  0
 25 37  1  0  0  0  0
 48 50  1  0  0  0  0
  7 12  1  0  0  0  0
 38 43  1  0  0  0  0
 17 26  1  0  0  0  0
M  END
$$$$

  -OEChem-05262214473D

 53 52  0     1  0  0  0  0  0999 V2000
   -1.0338   -5.6785    0.1476 C   0  0  0  0  0  0  0  0  0  0  0  0
   -2.0514   -5.7797    0.8227 O   0  0  0  0  0  0  0  0  0  0  0  0
   -0.6558   -6.7819   -0.7841 C   0  0  0  0  0  0  0  0  0  0  0  0
   -0.0111   -7.5354   -0.3038 H   0  0  0  0  0  0  0  0  0  0  0  0
   -1.5317   -7.3401   -1.1520 H   0  0  0  0  0  0  0  0  0  0  0  0
   -0.1109   -6.4687   -1.6890 H   0  0  0  0  0  0  0  0  0  0  0  0
   -0.1543   -4.6083    0.1480 N   0  0  0  0  0  0  0  0  0  0  0  0
   -0.3302   -3.4398    0.9696 C   0  0  2  0  0  0  0  0  0  0  0  0
    0.2328   -2.2439    0.2131 C   0  0  0  0  0  0  0  0  0  0  0  0
    1.2097   -2.3192   -0.5294 O   0  0  0  0  0  0  0  0  0  0  0  0
    0.3557   -3.6024    2.3171 C   0  0  0  0  0  0  0  0  0  0  0  0
    0.6584   -4.6506   -0.4643 H   0  0  0  0  0  0  0  0  0  0  0  0
   -1.4091   -3.3101    1.1082 H   0  0  0  0  0  0  0  0  0  0  0  0
    1.4375   -3.7336    2.1985 H   0  0  0  0  0  0  0  0  0  0  0  0
    0.1969   -2.7243    2.9517 H   0  0  0  0  0  0  0  0  0  0  0  0
   -0.0294   -4.4803    2.8470 H   0  0  0  0  0  0  0  0  0  0  0  0
   -0.4616   -1.0893    0.5050 N   0  0  0  0  0  0  0  0  0  0  0  0
   -0.0884    0.2050   -0.0621 C   0  0  2  0  0  0  0  0  0  0  0  0
   -0.5359    0.2168   -1.5210 C   0  0  0  0  0  0  0  0  0  0  0  0
    0.2473    0.1132   -2.4630 O   0  0  0  0  0  0  0  0  0  0  0  0
    1.4251    0.4572    0.0099 C   0  0  0  0  0  0  0  0  0  0  0  0
    1.9431    0.6437    1.4398 C   0  0  0  0  0  0  0  0  0  0  0  0
    3.4498    0.9158    1.4521 C   0  0  0  0  0  0  0  0  0  0  0  0
    3.9702    1.0773    2.8794 C   0  0  0  0  0  0  0  0  0  0  0  0
    5.4092    1.3119    2.8701 N   0  0  0  0  0  0  0  0  0  0  0  0
   -1.2794   -1.1113    1.0935 H   0  0  0  0  0  0  0  0  0  0  0  0
   -0.6236    0.9917    0.4832 H   0  0  0  0  0  0  0  0  0  0  0  0
    1.6680    1.3545   -0.5743 H   0  0  0  0  0  0  0  0  0  0  0  0
    1.9651   -0.3696   -0.4713 H   0  0  0  0  0  0  0  0  0  0  0  0
    1.7367   -0.2519    2.0364 H   0  0  0  0  0  0  0  0  0  0  0  0
    1.4162    1.4804    1.9141 H   0  0  0  0  0  0  0  0  0  0  0  0
    3.9734    0.0888    0.9560 H   0  0  0  0  0  0  0  0  0  0  0  0
    3.6621    1.8249    0.8752 H   0  0  0  0  0  0  0  0  0  0  0  0
    3.7529    0.1781    3.4661 H   0  0  0  0  0  0  0  0  0  0  0  0
    3.4740    1.9226    3.3680 H   0  0  0  0  0  0  0  0  0  0  0  0
    5.7238    1.2899    1.9282 H   0  0  0  0  0  0  0  0  0  0  0  0
    5.5833    2.2018    3.2755 H   0  0  0  0  0  0  0  0  0  0  0  0
   -1.9089    0.3789   -1.6449 N   0  0  0  0  0  0  0  0  0  0  0  0
   -2.5872    0.4456   -2.9194 C   0  0  2  0  0  0  0  0  0  0  0  0
   -3.7876    1.3701   -2.7655 C   0  0  0  0  0  0  0  0  0  0  0  0
   -4.4415    1.4534   -1.7279 O   0  0  0  0  0  0  0  0  0  0  0  0
   -3.0206   -0.9346   -3.3884 C   0  0  0  0  0  0  0  0  0  0  0  0
   -2.4796    0.4468   -0.8075 H   0  0  0  0  0  0  0  0  0  0  0  0
   -1.8787    0.8816   -3.6322 H   0  0  0  0  0  0  0  0  0  0  0  0
   -3.7307   -1.3873   -2.6868 H   0  0  0  0  0  0  0  0  0  0  0  0
   -3.5089   -0.8857   -4.3673 H   0  0  0  0  0  0  0  0  0  0  0  0
   -2.1596   -1.6067   -3.4700 H   0  0  0  0  0  0  0  0  0  0  0  0
   -4.0691    2.0593   -3.9368 N   0  0  0  0  0  0  0  0  0  0  0  0
   -5.1864    2.9664   -4.0583 C   0  0  0  0  0  0  0  0  0  0  0  0
   -3.4504    1.9597   -4.7362 H   0  0  0  0  0  0  0  0  0  0  0  0
   -6.0596    2.4233   -4.4488 H   0  0  0  0  0  0  0  0  0  0  0  0
   -5.4273    3.3856   -3.0702 H   0  0  0  0  0  0  0  0  0  0  0  0
   -4.9232    3.7817   -4.7482 H   0  0  0  0  0  0  0  0  0  0  0  0
  1  3  1  0  0  0  0
  1  7  1  0  0  0  0
  1  2  2  0  0  0  0
 39 40  1  0  0  0  0
 40 48  1  0  0  0  0
 40 41  2  0  0  0  0
  8  9  1  0  0  0  0
  9 17  1  0  0  0  0
  9 10  2  0  0  0  0
 18 19  1  0  0  0  0
 19 38  1  0  0  0  0
 19 20  2  0  0  0  0
 39 42  1  0  0  0  0
  8 11  1  0  0  0  0
 48 49  1  0  0  0  0
 22 23  1  0  0  0  0
 21 22  1  0  0  0  0
 23 24  1  0  0  0  0
 18 21  1  0  0  0  0
 24 25  1  0  0  0  0
 38 39  1  0  0  0  0
  7  8  1  0  0  0  0
 17 18  1  0  0  0  0
  3  4  1  0  0  0  0
  3  5  1  0  0  0  0
  3  6  1  0  0  0  0
 42 45  1  0  0  0  0
 42 46  1  0  0  0  0
 42 47  1  0  0  0  0
 11 14  1  0  0  0  0
 11 15  1  0  0  0  0
 11 16  1  0  0  0  0
 49 51  1  0  0  0  0
 49 52  1  0  0  0  0
 49 53  1  0  0  0  0
 22 30  1  0  0  0  0
 22 31  1  0  0  0  0
 23 32  1  0  0  0  0
 23 33  1  0  0  0  0
 21 28  1  0  0  0  0
 21 29  1  0  0  0  0
 24 34  1  0  0  0  0
 24 35  1  0  0  0  0
 39 44  1  0  0  0  0
  8 13  1  0  0  0  0
 18 27  1  0  0  0  0
 25 36  1  0  0  0  0
 25 37  1  0  0  0  0
 48 50  1  0  0  0  0
  7 12  1  0  0  0  0
 38 43  1  0  0  0  0
 17 26  1  0  0  0  0
M  END
$$$$

  -OEChem-05262214473D

 53 52  0     1  0  0  0  0  0999 V2000
   -1.0338   -5.6785    0.1476 C   0  0  0  0  0  0  0  0  0  0  0  0
   -2.0514   -5.7797    0.8227 O   0  0  0  0  0  0  0  0  0  0  0  0
   -0.6558   -6.7819   -0.7841 C   0  0  0  0  0  0  0  0  0  0  0  0
   -0.0111   -7.5354   -0.3038 H   0  0  0  0  0  0  0  0  0  0  0  0
   -1.5317   -7.3401   -1.1520 H   0  0  0  0  0  0  0  0  0  0  0  0
   -0.1109   -6.4687   -1.6890 H   0  0  0  0  0  0  0  0  0  0  0  0
   -0.1543   -4.6083    0.1480 N   0  0  0  0  0  0  0  0  0  0  0  0
   -0.3302   -3.4398    0.9696 C   0  0  2  0  0  0  0  0  0  0  0  0
    0.2328   -2.2439    0.2131 C   0  0  0  0  0  0  0  0  0  0  0  0
    1.2097   -2.3192   -0.5294 O   0  0  0  0  0  0  0  0  0  0  0  0
    0.3557   -3.6024    2.3171 C   0  0  0  0  0  0  0  0  0  0  0  0
    0.6584   -4.6506   -0.4643 H   0  0  0  0  0  0  0  0  0  0  0  0
   -1.4091   -3.3101    1.1082 H   0  0  0  0  0  0  0  0  0  0  0  0
    1.4375   -3.7336    2.1985 H   0  0  0  0  0  0  0  0  0  0  0  0
    0.1969   -2.7243    2.9517 H   0  0  0  0  0  0  0  0  0  0  0  0
   -0.0294   -4.4803    2.8470 H   0  0  0  0  0  0  0  0  0  0  0  0
   -0.4616   -1.0893    0.5050 N   0  0  0  0  0  0  0  0  0  0  0  0
   -0.0884    0.2050   -0.0621 C   0  0  2  0  0  0  0  0  0  0  0  0
   -0.5359    0.2168   -1.5210 C   0  0  0  0  0  0  0  0  0  0  0  0
    0.1864   -0.1484   -2.4464 O   0  0  0  0  0  0  0  0  0  0  0  0
    1.4251    0.4572    0.0099 C   0  0  0  0  0  0  0  0  0  0  0  0
    1.9431    0.6437    1.4398 C   0  0  0  0  0  0  0  0  0  0  0  0
    3.4498    0.9158    1.4521 C   0  0  0  0  0  0  0  0  0  0  0  0
    3.9702    1.0773    2.8794 C   0  0  0  0  0  0  0  0  0  0  0  0
    5.4092    1.3119    2.8701 N   0  0  0  0  0  0  0  0  0  0  0  0
   -1.2794   -1.1113    1.0935 H   0  0  0  0  0  0  0  0  0  0  0  0
   -0.6236    0.9917    0.4832 H   0  0  0  0  0  0  0  0  0  0  0  0
    1.6680    1.3545   -0.5743 H   0  0  0  0  0  0  0  0  0  0  0  0
    1.9651   -0.3696   -0.4713 H   0  0  0  0  0  0  0  0  0  0  0  0
    1.7367   -0.2519    2.0364 H   0  0  0  0  0  0  0  0  0  0  0  0
    1.4162    1.4804    1.9141 H   0  0  0  0  0  0  0  0  0  0  0  0
    3.9734    0.0888    0.9560 H   0  0  0  0  0  0  0  0  0  0  0  0
    3.6621    1.8249    0.8752 H   0  0  0  0  0  0  0  0  0  0  0  0
    3.7529    0.1781    3.4661 H   0  0  0  0  0  0  0  0  0  0  0  0
    3.4740    1.9226    3.3680 H   0  0  0  0  0  0  0  0  0  0  0  0
    5.7238    1.2899    1.9282 H   0  0  0  0  0  0  0  0  0  0  0  0
    5.5833    2.2018    3.2755 H   0  0  0  0  0  0  0  0  0  0  0  0
   -1.8275    0.7038   -1.6673 N   0  0  0  0  0  0  0  0  0  0  0  0
   -2.4828    0.8397   -2.9482 C   0  0  2  0  0  0  0  0  0  0  0  0
   -3.4155    2.0415   -2.8742 C   0  0  0  0  0  0  0  0  0  0  0  0
   -4.0164    2.3622   -1.8510 O   0  0  0  0  0  0  0  0  0  0  0  0
   -3.2496   -0.4216   -3.3140 C   0  0  0  0  0  0  0  0  0  0  0  0
   -2.3540    0.9741   -0.8418 H   0  0  0  0  0  0  0  0  0  0  0  0
   -1.6969    1.0316   -3.6868 H   0  0  0  0  0  0  0  0  0  0  0  0
   -4.0414   -0.6301   -2.5853 H   0  0  0  0  0  0  0  0  0  0  0  0
   -3.7219   -0.3277   -4.2975 H   0  0  0  0  0  0  0  0  0  0  0  0
   -2.5826   -1.2901   -3.3376 H   0  0  0  0  0  0  0  0  0  0  0  0
   -3.5313    2.6882   -4.0967 N   0  0  0  0  0  0  0  0  0  0  0  0
   -4.3908    3.8318   -4.2954 C   0  0  0  0  0  0  0  0  0  0  0  0
   -2.9657    2.3784   -4.8815 H   0  0  0  0  0  0  0  0  0  0  0  0
   -5.3756    3.4938   -4.6499 H   0  0  0  0  0  0  0  0  0  0  0  0
   -4.5090    4.3711   -3.3440 H   0  0  0  0  0  0  0  0  0  0  0  0
   -3.9421    4.5020   -5.0434 H   0  0  0  0  0  0  0  0  0  0  0  0
  1  3  1  0  0  0  0
  1  7  1  0  0  0  0
  1  2  2  0  0  0  0
 39 40  1  0  0  0  0
 40 48  1  0  0  0  0
 40 41  2  0  0  0  0
  8  9  1  0  0  0  0
  9 17  1  0  0  0  0
  9 10  2  0  0  0  0
 18 19  1  0  0  0  0
 19 38  1  0  0  0  0
 19 20  2  0  0  0  0
 39 42  1  0  0  0  0
  8 11  1  0  0  0  0
 48 49  1  0  0  0  0
 22 23  1  0  0  0  0
 21 22  1  0  0  0  0
 23 24  1  0  0  0  0
 18 21  1  0  0  0  0
 24 25  1  0  0  0  0
 38 39  1  0  0  0  0
  7  8  1  0  0  0  0
 17 18  1  0  0  0  0
  3  4  1  0  0  0  0
  3  5  1  0  0  0  0
  3  6  1  0  0  0  0
 42 45  1  0  0  0  0
 42 46  1  0  0  0  0
 42 47  1  0  0  0  0
 11 14  1  0  0  0  0
 11 15  1  0  0  0  0
 11 16  1  0  0  0  0
 49 51  1  0  0  0  0
 49 52  1  0  0  0  0
 49 53  1  0  0  0  0
 22 30  1  0  0  0  0
 22 31  1  0  0  0  0
 23 32  1  0  0  0  0
 23 33  1  0  0  0  0
 21 28  1  0  0  0  0
 21 29  1  0  0  0  0
 24 34  1  0  0  0  0
 24 35  1  0  0  0  0
 39 44  1  0  0  0  0
  8 13  1  0  0  0  0
 18 27  1  0  0  0  0
 25 36  1  0  0  0  0
 25 37  1  0  0  0  0
 48 50  1  0  0  0  0
  7 12  1  0  0  0  0
 38 43  1  0  0  0  0
 17 26  1  0  0  0  0
M  END
$$$$

  -OEChem-05262214473D

 53 52  0     1  0  0  0  0  0999 V2000
   -1.0338   -5.6785    0.1476 C   0  0  0  0  0  0  0  0  0  0  0  0
   -2.0514   -5.7797    0.8227 O   0  0  0  0  0  0  0  0  0  0  0  0
   -0.6558   -6.7819   -0.7841 C   0  0  0  0  0  0  0  0  0  0  0  0
   -0.0111   -7.5354   -0.3038 H   0  0  0  0  0  0  0  0  0  0  0  0
   -1.5317   -7.3401   -1.1520 H   0  0  0  0  0  0  0  0  0  0  0  0
   -0.1109   -6.4687   -1.6890 H   0  0  0  0  0  0  0  0  0  0  0  0
   -0.1543   -4.6083    0.1480 N   0  0  0  0  0  0  0  0  0  0  0  0
   -0.3302   -3.4398    0.9696 C   0  0  2  0  0  0  0  0  0  0  0  0
    0.2328   -2.2439    0.2131 C   0  0  0  0  0  0  0  0  0  0  0  0
    1.2097   -2.3192   -0.5294 O   0  0  0  0  0  0  0  0  0  0  0  0
    0.3557   -3.6024    2.3171 C   0  0  0  0  0  0  0  0  0  0  0  0
    0.6584   -4.6506   -0.4643 H   0  0  0  0  0  0  0  0  0  0  0  0
   -1.4091   -3.3101    1.1082 H   0  0  0  0  0  0  0  0  0  0  0  0
    1.4375   -3.7336    2.1985 H   0  0  0  0  0  0  0  0  0  0  0  0
    0.1969   -2.7243    2.9517 H   0  0  0  0  0  0  0  0  0  0  0  0
   -0.0294   -4.4803    2.8470 H   0  0  0  0  0  0  0  0  0  0  0  0
   -0.4616   -1.0893    0.5050 N   0  0  0  0  0  0  0  0  0  0  0  0
   -0.0884    0.2050   -0.0621 C   0  0  2  0  0  0  0  0  0  0  0  0
   -0.5359    0.2168   -1.5210 C   0  0  0  0  0  0  0  0  0  0  0  0
    0.0629   -0.3847   -2.4104 O   0  0  0  0  0  0  0  0  0  0  0  0
    1.4251    0.4572    0.0099 C   0  0  0  0  0  0  0  0  0  0  0  0
    1.9431    0.6437    1.4398 C   0  0  0  0  0  0  0  0  0  0  0  0
    3.4498    0.9158    1.4521 C   0  0  0  0  0  0  0  0  0  0  0  0
    3.9702    1.0773    2.8794 C   0  0  0  0  0  0  0  0  0  0  0  0
    5.4092    1.3119    2.8701 N   0  0  0  0  0  0  0  0  0  0  0  0
   -1.2794   -1.1113    1.0935 H   0  0  0  0  0  0  0  0  0  0  0  0
   -0.6236    0.9917    0.4832 H   0  0  0  0  0  0  0  0  0  0  0  0
    1.6680    1.3545   -0.5743 H   0  0  0  0  0  0  0  0  0  0  0  0
    1.9651   -0.3696   -0.4713 H   0  0  0  0  0  0  0  0  0  0  0  0
    1.7367   -0.2519    2.0364 H   0  0  0  0  0  0  0  0  0  0  0  0
    1.4162    1.4804    1.9141 H   0  0  0  0  0  0  0  0  0  0  0  0
    3.9734    0.0888    0.9560 H   0  0  0  0  0  0  0  0  0  0  0  0
    3.6621    1.8249    0.8752 H   0  0  0  0  0  0  0  0  0  0  0  0
    3.7529    0.1781    3.4661 H   0  0  0  0  0  0  0  0  0  0  0  0
    3.4740    1.9226    3.3680 H   0  0  0  0  0  0  0  0  0  0  0  0
    5.7238    1.2899    1.9282 H   0  0  0  0  0  0  0  0  0  0  0  0
    5.5833    2.2018    3.2755 H   0  0  0  0  0  0  0  0  0  0  0  0
   -1.6685    0.9959   -1.7137 N   0  0  0  0  0  0  0  0  0  0  0  0
   -2.2846    1.1924   -3.0062 C   0  0  2  0  0  0  0  0  0  0  0  0
   -2.8901    2.5897   -3.0310 C   0  0  0  0  0  0  0  0  0  0  0  0
   -3.3811    3.1256   -2.0397 O   0  0  0  0  0  0  0  0  0  0  0  0
   -3.3437    0.1361   -3.2807 C   0  0  0  0  0  0  0  0  0  0  0  0
   -2.1022    1.4496   -0.9152 H   0  0  0  0  0  0  0  0  0  0  0  0
   -1.4842    1.1273   -3.7513 H   0  0  0  0  0  0  0  0  0  0  0  0
   -4.1540    0.1859   -2.5442 H   0  0  0  0  0  0  0  0  0  0  0  0
   -3.7894    0.2694   -4.2719 H   0  0  0  0  0  0  0  0  0  0  0  0
   -2.9126   -0.8697   -3.2330 H   0  0  0  0  0  0  0  0  0  0  0  0
   -2.8564    3.1505   -4.3000 N   0  0  0  0  0  0  0  0  0  0  0  0
   -3.4086    4.4529   -4.5917 C   0  0  0  0  0  0  0  0  0  0  0  0
   -2.3942    2.6519   -5.0546 H   0  0  0  0  0  0  0  0  0  0  0  0
   -4.4505    4.3433   -4.9269 H   0  0  0  0  0  0  0  0  0  0  0  0
   -3.3788    5.0751   -3.6850 H   0  0  0  0  0  0  0  0  0  0  0  0
   -2.8168    4.9326   -5.3851 H   0  0  0  0  0  0  0  0  0  0  0  0
  1  3  1  0  0  0  0
  1  7  1  0  0  0  0
  1  2  2  0  0  0  0
 39 40  1  0  0  0  0
 40 48  1  0  0  0  0
 40 41  2  0  0  0  0
  8  9  1  0  0  0  0
  9 17  1  0  0  0  0
  9 10  2  0  0  0  0
 18 19  1  0  0  0  0
 19 38  1  0  0  0  0
 19 20  2  0  0  0  0
 39 42  1  0  0  0  0
  8 11  1  0  0  0  0
 48 49  1  0  0  0  0
 22 23  1  0  0  0  0
 21 22  1  0  0  0  0
 23 24  1  0  0  0  0
 18 21  1  0  0  0  0
 24 25  1  0  0  0  0
 38 39  1  0  0  0  0
  7  8  1  0  0  0  0
 17 18  1  0  0  0  0
  3  4  1  0  0  0  0
  3  5  1  0  0  0  0
  3  6  1  0  0  0  0
 42 45  1  0  0  0  0
 42 46  1  0  0  0  0
 42 47  1  0  0  0  0
 11 14  1  0  0  0  0
 11 15  1  0  0  0  0
 11 16  1  0  0  0  0
 49 51  1  0  0  0  0
 49 52  1  0  0  0  0
 49 53  1  0  0  0  0
 22 30  1  0  0  0  0
 22 31  1  0  0  0  0
 23 32  1  0  0  0  0
 23 33  1  0  0  0  0
 21 28  1  0  0  0  0
 21 29  1  0  0  0  0
 24 34  1  0  0  0  0
 24 35  1  0  0  0  0
 39 44  1  0  0  0  0
  8 13  1  0  0  0  0
 18 27  1  0  0  0  0
 25 36  1  0  0  0  0
 25 37  1  0  0  0  0
 48 50  1  0  0  0  0
  7 12  1  0  0  0  0
 38 43  1  0  0  0  0
 17 26  1  0  0  0  0
M  END
$$$$

  -OEChem-05262214473D

 53 52  0     1  0  0  0  0  0999 V2000
   -1.0338   -5.6785    0.1476 C   0  0  0  0  0  0  0  0  0  0  0  0
   -2.0514   -5.7797    0.8227 O   0  0  0  0  0  0  0  0  0  0  0  0
   -0.6558   -6.7819   -0.7841 C   0  0  0  0  0  0  0  0  0  0  0  0
   -0.0111   -7.5354   -0.3038 H   0  0  0  0  0  0  0  0  0  0  0  0
   -1.5317   -7.3401   -1.1520 H   0  0  0  0  0  0  0  0  0  0  0  0
   -0.1109   -6.4687   -1.6890 H   0  0  0  0  0  0  0  0  0  0  0  0
   -0.1543   -4.6083    0.1480 N   0  0  0  0  0  0  0  0  0  0  0  0
   -0.3302   -3.4398    0.9696 C   0  0  2  0  0  0  0  0  0  0  0  0
    0.2328   -2.2439    0.2131 C   0  0  0  0  0  0  0  0  0  0  0  0
    1.2097   -2.3192   -0.5294 O   0  0  0  0  0  0  0  0  0  0  0  0
    0.3557   -3.6024    2.3171 C   0  0  0  0  0  0  0  0  0  0  0  0
    0.6584   -4.6506   -0.4643 H   0  0  0  0  0  0  0  0  0  0  0  0
   -1.4091   -3.3101    1.1082 H   0  0  0  0  0  0  0  0  0  0  0  0
    1.4375   -3.7336    2.1985 H   0  0  0  0  0  0  0  0  0  0  0  0
    0.1969   -2.7243    2.9517 H   0  0  0  0  0  0  0  0  0  0  0  0
   -0.0294   -4.4803    2.8470 H   0  0  0  0  0  0  0  0  0  0  0  0
   -0.4616   -1.0893    0.5050 N   0  0  0  0  0  0  0  0  0  0  0  0
   -0.0884    0.2050   -0.0621 C   0  0  2  0  0  0  0  0  0  0  0  0
   -0.5359    0.2168   -1.5210 C   0  0  0  0  0  0  0  0  0  0  0  0
   -0.1148   -0.5797   -2.3575 O   0  0  0  0  0  0  0  0  0  0  0  0
    1.4251    0.4572    0.0099 C   0  0  0  0  0  0  0  0  0  0  0  0
    1.9431    0.6437    1.4398 C   0  0  0  0  0  0  0  0  0  0  0  0
    3.4498    0.9158    1.4521 C   0  0  0  0  0  0  0  0  0  0  0  0
    3.9702    1.0773    2.8794 C   0  0  0  0  0  0  0  0  0  0  0  0
    5.4092    1.3119    2.8701 N   0  0  0  0  0  0  0  0  0  0  0  0
   -1.2794   -1.1113    1.0935 H   0  0  0  0  0  0  0  0  0  0  0  0
   -0.6236    0.9917    0.4832 H   0  0  0  0  0  0  0  0  0  0  0  0
    1.6680    1.3545   -0.5743 H   0  0  0  0  0  0  0  0  0  0  0  0
    1.9651   -0.3696   -0.4713 H   0  0  0  0  0  0  0  0  0  0  0  0
    1.7367   -0.2519    2.0364 H   0  0  0  0  0  0  0  0  0  0  0  0
    1.4162    1.4804    1.9141 H   0  0  0  0  0  0  0  0  0  0  0  0
    3.9734    0.0888    0.9560 H   0  0  0  0  0  0  0  0  0  0  0  0
    3.6621    1.8249    0.8752 H   0  0  0  0  0  0  0  0  0  0  0  0
    3.7529    0.1781    3.4661 H   0  0  0  0  0  0  0  0  0  0  0  0
    3.4740    1.9226    3.3680 H   0  0  0  0  0  0  0  0  0  0  0  0
    5.7238    1.2899    1.9282 H   0  0  0  0  0  0  0  0  0  0  0  0
    5.5833    2.2018    3.2755 H   0  0  0  0  0  0  0  0  0  0  0  0
   -1.4428    1.2351   -1.7810 N   0  0  0  0  0  0  0  0  0  0  0  0
   -2.0060    1.4796   -3.0893 C   0  0  2  0  0  0  0  0  0  0  0  0
   -2.2473    2.9772   -3.2250 C   0  0  0  0  0  0  0  0  0  0  0  0
   -2.5790    3.6915   -2.2812 O   0  0  0  0  0  0  0  0  0  0  0  0
   -3.2966    0.7007   -3.2906 C   0  0  0  0  0  0  0  0  0  0  0  0
   -1.7415    1.8411   -1.0227 H   0  0  0  0  0  0  0  0  0  0  0  0
   -1.2552    1.1623   -3.8212 H   0  0  0  0  0  0  0  0  0  0  0  0
   -4.0608    1.0050   -2.5662 H   0  0  0  0  0  0  0  0  0  0  0  0
   -3.7069    0.8648   -4.2924 H   0  0  0  0  0  0  0  0  0  0  0  0
   -3.1271   -0.3739   -3.1632 H   0  0  0  0  0  0  0  0  0  0  0  0
   -2.0906    3.4147   -4.5328 N   0  0  0  0  0  0  0  0  0  0  0  0
   -2.3068    4.7873   -4.9269 C   0  0  0  0  0  0  0  0  0  0  0  0
   -1.7748    2.7616   -5.2437 H   0  0  0  0  0  0  0  0  0  0  0  0
   -3.3472    4.9139   -5.2607 H   0  0  0  0  0  0  0  0  0  0  0  0
   -2.1135    5.4494   -4.0701 H   0  0  0  0  0  0  0  0  0  0  0  0
   -1.6239    5.0441   -5.7502 H   0  0  0  0  0  0  0  0  0  0  0  0
  1  3  1  0  0  0  0
  1  7  1  0  0  0  0
  1  2  2  0  0  0  0
 39 40  1  0  0  0  0
 40 48  1  0  0  0  0
 40 41  2  0  0  0  0
  8  9  1  0  0  0  0
  9 17  1  0  0  0  0
  9 10  2  0  0  0  0
 18 19  1  0  0  0  0
 19 38  1  0  0  0  0
 19 20  2  0  0  0  0
 39 42  1  0  0  0  0
  8 11  1  0  0  0  0
 48 49  1  0  0  0  0
 22 23  1  0  0  0  0
 21 22  1  0  0  0  0
 23 24  1  0  0  0  0
 18 21  1  0  0  0  0
 24 25  1  0  0  0  0
 38 39  1  0  0  0  0
  7  8  1  0  0  0  0
 17 18  1  0  0  0  0
  3  4  1  0  0  0  0
  3  5  1  0  0  0  0
  3  6  1  0  0  0  0
 42 45  1  0  0  0  0
 42 46  1  0  0  0  0
 42 47  1  0  0  0  0
 11 14  1  0  0  0  0
 11 15  1  0  0  0  0
 11 16  1  0  0  0  0
 49 51  1  0  0  0  0
 49 52  1  0  0  0  0
 49 53  1  0  0  0  0
 22 30  1  0  0  0  0
 22 31  1  0  0  0  0
 23 32  1  0  0  0  0
 23 33  1  0  0  0  0
 21 28  1  0  0  0  0
 21 29  1  0  0  0  0
 24 34  1  0  0  0  0
 24 35  1  0  0  0  0
 39 44  1  0  0  0  0
  8 13  1  0  0  0  0
 18 27  1  0  0  0  0
 25 36  1  0  0  0  0
 25 37  1  0  0  0  0
 48 50  1  0  0  0  0
  7 12  1  0  0  0  0
 38 43  1  0  0  0  0
 17 26  1  0  0  0  0
M  END
$$$$

  -OEChem-05262214473D

 53 52  0     1  0  0  0  0  0999 V2000
   -1.0338   -5.6785    0.1476 C   0  0  0  0  0  0  0  0  0  0  0  0
   -2.0514   -5.7797    0.8227 O   0  0  0  0  0  0  0  0  0  0  0  0
   -0.6558   -6.7819   -0.7841 C   0  0  0  0  0  0  0  0  0  0  0  0
   -0.0111   -7.5354   -0.3038 H   0  0  0  0  0  0  0  0  0  0  0  0
   -1.5317   -7.3401   -1.1520 H   0  0  0  0  0  0  0  0  0  0  0  0
   -0.1109   -6.4687   -1.6890 H   0  0  0  0  0  0  0  0  0  0  0  0
   -0.1543   -4.6083    0.1480 N   0  0  0  0  0  0  0  0  0  0  0  0
   -0.3302   -3.4398    0.9696 C   0  0  2  0  0  0  0  0  0  0  0  0
    0.2328   -2.2439    0.2131 C   0  0  0  0  0  0  0  0  0  0  0  0
    1.2097   -2.3192   -0.5294 O   0  0  0  0  0  0  0  0  0  0  0  0
    0.3557   -3.6024    2.3171 C   0  0  0  0  0  0  0  0  0  0  0  0
    0.6584   -4.6506   -0.4643 H   0  0  0  0  0  0  0  0  0  0  0  0
   -1.4091   -3.3101    1.1082 H   0  0  0  0  0  0  0  0  0  0  0  0
    1.4375   -3.7336    2.1985 H   0  0  0  0  0  0  0  0  0  0  0  0
    0.1969   -2.7243    2.9517 H   0  0  0  0  0  0  0  0  0  0  0  0
   -0.0294   -4.4803    2.8470 H   0  0  0  0  0  0  0  0  0  0  0  0
   -0.4616   -1.0893    0.5050 N   0  0  0  0  0  0  0  0  0  0  0  0
   -0.0884    0.2050   -0.0621 C   0  0  2  0  0  0  0  0  0  0  0  0
   -0.5359    0.2168   -1.5210 C   0  0  0  0  0  0  0  0  0  0  0  0
   -0.3346   -0.7201   -2.2912 O   0  0  0  0  0  0  0  0  0  0  0  0
    1.4251    0.4572    0.0099 C   0  0  0  0  0  0  0  0  0  0  0  0
    1.9431    0.6437    1.4398 C   0  0  0  0  0  0  0  0  0  0  0  0
    3.4498    0.9158    1.4521 C   0  0  0  0  0  0  0  0  0  0  0  0
    3.9702    1.0773    2.8794 C   0  0  0  0  0  0  0  0  0  0  0  0
    5.4092    1.3119    2.8701 N   0  0  0  0  0  0  0  0  0  0  0  0
   -1.2794   -1.1113    1.0935 H   0  0  0  0  0  0  0  0  0  0  0  0
   -0.6236    0.9917    0.4832 H   0  0  0  0  0  0  0  0  0  0  0  0
    1.6680    1.3545   -0.5743 H   0  0  0  0  0  0  0  0  0  0  0  0
    1.9651   -0.3696   -0.4713 H   0  0  0  0  0  0  0  0  0  0  0  0
    1.7367   -0.2519    2.0364 H   0  0  0  0  0  0  0  0  0  0  0  0
    1.4162    1.4804    1.9141 H   0  0  0  0  0  0  0  0  0  0  0  0
    3.9734    0.0888    0.9560 H   0  0  0  0  0  0  0  0  0  0  0  0
    3.6621    1.8249    0.8752 H   0  0  0  0  0  0  0  0  0  0  0  0
    3.7529    0.1781    3.4661 H   0  0  0  0  0  0  0  0  0  0  0  0
    3.4740    1.9226    3.3680 H   0  0  0  0  0  0  0  0  0  0  0  0
    5.7238    1.2899    1.9282 H   0  0  0  0  0  0  0  0  0  0  0  0
    5.5833    2.2018    3.2755 H   0  0  0  0  0  0  0  0  0  0  0  0
   -1.1657    1.4052   -1.8646 N   0  0  0  0  0  0  0  0  0  0  0  0
   -1.6660    1.6818   -3.1920 C   0  0  2  0  0  0  0  0  0  0  0  0
   -1.5309    3.1779   -3.4432 C   0  0  0  0  0  0  0  0  0  0  0  0
   -1.6647    4.0213   -2.5590 O   0  0  0  0  0  0  0  0  0  0  0  0
   -3.1113    1.2336   -3.3431 C   0  0  0  0  0  0  0  0  0  0  0  0
   -1.2964    2.1219   -1.1570 H   0  0  0  0  0  0  0  0  0  0  0  0
   -1.0256    1.1341   -3.8919 H   0  0  0  0  0  0  0  0  0  0  0  0
   -3.7682    1.7716   -2.6497 H   0  0  0  0  0  0  0  0  0  0  0  0
   -3.4799    1.4178   -4.3576 H   0  0  0  0  0  0  0  0  0  0  0  0
   -3.2115    0.1633   -3.1330 H   0  0  0  0  0  0  0  0  0  0  0  0
   -1.2860    3.4627   -4.7792 N   0  0  0  0  0  0  0  0  0  0  0  0
   -1.1605    4.8122   -5.2784 C   0  0  0  0  0  0  0  0  0  0  0  0
   -1.1498    2.6999   -5.4360 H   0  0  0  0  0  0  0  0  0  0  0  0
   -2.1411    5.1668   -5.6287 H   0  0  0  0  0  0  0  0  0  0  0  0
   -0.7996    5.4688   -4.4730 H   0  0  0  0  0  0  0  0  0  0  0  0
   -0.4449    4.8290   -6.1136 H   0  0  0  0  0  0  0  0  0  0  0  0
  1  3  1  0  0  0  0
  1  7  1  0  0  0  0
  1  2  2  0  0  0  0
 39 40  1  0  0  0  0
 40 48  1  0  0  0  0
 40 41  2  0  0  0  0
  8  9  1  0  0  0  0
  9 17  1  0  0  0  0
  9 10  2  0  0  0  0
 18 19  1  0  0  0  0
 19 38  1  0  0  0  0
 19 20  2  0  0  0  0
 39 42  1  0  0  0  0
  8 11  1  0  0  0  0
 48 49  1  0  0  0  0
 22 23  1  0  0  0  0
 21 22  1  0  0  0  0
 23 24  1  0  0  0  0
 18 21  1  0  0  0  0
 24 25  1  0  0  0  0
 38 39  1  0  0  0  0
  7  8  1  0  0  0  0
 17 18  1  0  0  0  0
  3  4  1  0  0  0  0
  3  5  1  0  0  0  0
  3  6  1  0  0  0  0
 42 45  1  0  0  0  0
 42 46  1  0  0  0  0
 42 47  1  0  0  0  0
 11 14  1  0  0  0  0
 11 15  1  0  0  0  0
 11 16  1  0  0  0  0
 49 51  1  0  0  0  0
 49 52  1  0  0  0  0
 49 53  1  0  0  0  0
 22 30  1  0  0  0  0
 22 31  1  0  0  0  0
 23 32  1  0  0  0  0
 23 33  1  0  0  0  0
 21 28  1  0  0  0  0
 21 29  1  0  0  0  0
 24 34  1  0  0  0  0
 24 35  1  0  0  0  0
 39 44  1  0  0  0  0
  8 13  1  0  0  0  0
 18 27  1  0  0  0  0
 25 36  1  0  0  0  0
 25 37  1  0  0  0  0
 48 50  1  0  0  0  0
  7 12  1  0  0  0  0
 38 43  1  0  0  0  0
 17 26  1  0  0  0  0
M  END
$$$$

  -OEChem-05262214473D

 53 52  0     1  0  0  0  0  0999 V2000
   -1.0338   -5.6785    0.1476 C   0  0  0  0  0  0  0  0  0  0  0  0
   -2.0514   -5.7797    0.8227 O   0  0  0  0  0  0  0  0  0  0  0  0
   -0.6558   -6.7819   -0.7841 C   0  0  0  0  0  0  0  0  0  0  0  0
   -0.0111   -7.5354   -0.3038 H   0  0  0  0  0  0  0  0  0  0  0  0
   -1.5317   -7.3401   -1.1520 H   0  0  0  0  0  0  0  0  0  0  0  0
   -0.1109   -6.4687   -1.6890 H   0  0  0  0  0  0  0  0  0  0  0  0
   -0.1543   -4.6083    0.1480 N   0  0  0  0  0  0  0  0  0  0  0  0
   -0.3302   -3.4398    0.9696 C   0  0  2  0  0  0  0  0  0  0  0  0
    0.2328   -2.2439    0.2131 C   0  0  0  0  0  0  0  0  0  0  0  0
    1.2097   -2.3192   -0.5294 O   0  0  0  0  0  0  0  0  0  0  0  0
    0.3557   -3.6024    2.3171 C   0  0  0  0  0  0  0  0  0  0  0  0
    0.6584   -4.6506   -0.4643 H   0  0  0  0  0  0  0  0  0  0  0  0
   -1.4091   -3.3101    1.1082 H   0  0  0  0  0  0  0  0  0  0  0  0
    1.4375   -3.7336    2.1985 H   0  0  0  0  0  0  0  0  0  0  0  0
    0.1969   -2.7243    2.9517 H   0  0  0  0  0  0  0  0  0  0  0  0
   -0.0294   -4.4803    2.8470 H   0  0  0  0  0  0  0  0  0  0  0  0
   -0.4616   -1.0893    0.5050 N   0  0  0  0  0  0  0  0  0  0  0  0
   -0.0884    0.2050   -0.0621 C   0  0  2  0  0  0  0  0  0  0  0  0
   -0.5359    0.2168   -1.5210 C   0  0  0  0  0  0  0  0  0  0  0  0
   -0.5816   -0.7962   -2.2161 O   0  0  0  0  0  0  0  0  0  0  0  0
    1.4251    0.4572    0.0099 C   0  0  0  0  0  0  0  0  0  0  0  0
    1.9431    0.6437    1.4398 C   0  0  0  0  0  0  0  0  0  0  0  0
    3.4498    0.9158    1.4521 C   0  0  0  0  0  0  0  0  0  0  0  0
    3.9702    1.0773    2.8794 C   0  0  0  0  0  0  0  0  0  0  0  0
    5.4092    1.3119    2.8701 N   0  0  0  0  0  0  0  0  0  0  0  0
   -1.2794   -1.1113    1.0935 H   0  0  0  0  0  0  0  0  0  0  0  0
   -0.6236    0.9917    0.4832 H   0  0  0  0  0  0  0  0  0  0  0  0
    1.6680    1.3545   -0.5743 H   0  0  0  0  0  0  0  0  0  0  0  0
    1.9651   -0.3696   -0.4713 H   0  0  0  0  0  0  0  0  0  0  0  0
    1.7367   -0.2519    2.0364 H   0  0  0  0  0  0  0  0  0  0  0  0
    1.4162    1.4804    1.9141 H   0  0  0  0  0  0  0  0  0  0  0  0
    3.9734    0.0888    0.9560 H   0  0  0  0  0  0  0  0  0  0  0  0
    3.6621    1.8249    0.8752 H   0  0  0  0  0  0  0  0  0  0  0  0
    3.7529    0.1781    3.4661 H   0  0  0  0  0  0  0  0  0  0  0  0
    3.4740    1.9226    3.3680 H   0  0  0  0  0  0  0  0  0  0  0  0
    5.7238    1.2899    1.9282 H   0  0  0  0  0  0  0  0  0  0  0  0
    5.5833    2.2018    3.2755 H   0  0  0  0  0  0  0  0  0  0  0  0
   -0.8561    1.4945   -1.9589 N   0  0  0  0  0  0  0  0  0  0  0  0
   -1.2877    1.7852   -3.3072 C   0  0  2  0  0  0  0  0  0  0  0  0
   -0.7897    3.1778   -3.6706 C   0  0  0  0  0  0  0  0  0  0  0  0
   -0.7005    4.0925   -2.8542 O   0  0  0  0  0  0  0  0  0  0  0  0
   -2.8007    1.6986   -3.4346 C   0  0  0  0  0  0  0  0  0  0  0  0
   -0.7973    2.2727   -1.3088 H   0  0  0  0  0  0  0  0  0  0  0  0
   -0.8108    1.0447   -3.9585 H   0  0  0  0  0  0  0  0  0  0  0  0
   -3.2960    2.4332   -2.7893 H   0  0  0  0  0  0  0  0  0  0  0  0
   -3.1239    1.8910   -4.4630 H   0  0  0  0  0  0  0  0  0  0  0  0
   -3.1600    0.7054   -3.1444 H   0  0  0  0  0  0  0  0  0  0  0  0
   -0.4974    3.2913   -5.0225 N   0  0  0  0  0  0  0  0  0  0  0  0
   -0.0478    4.5259   -5.6221 C   0  0  0  0  0  0  0  0  0  0  0  0
   -0.5617    2.4710   -5.6182 H   0  0  0  0  0  0  0  0  0  0  0  0
   -0.9141    5.0847   -6.0058 H   0  0  0  0  0  0  0  0  0  0  0  0
    0.4736    5.1318   -4.8663 H   0  0  0  0  0  0  0  0  0  0  0  0
    0.6401    4.3018   -6.4507 H   0  0  0  0  0  0  0  0  0  0  0  0
  1  3  1  0  0  0  0
  1  7  1  0  0  0  0
  1  2  2  0  0  0  0
 39 40  1  0  0  0  0
 40 48  1  0  0  0  0
 40 41  2  0  0  0  0
  8  9  1  0  0  0  0
  9 17  1  0  0  0  0
  9 10  2  0  0  0  0
 18 19  1  0  0  0  0
 19 38  1  0  0  0  0
 19 20  2  0  0  0  0
 39 42  1  0  0  0  0
  8 11  1  0  0  0  0
 48 49  1  0  0  0  0
 22 23  1  0  0  0  0
 21 22  1  0  0  0  0
 23 24  1  0  0  0  0
 18 21  1  0  0  0  0
 24 25  1  0  0  0  0
 38 39  1  0  0  0  0
  7  8  1  0  0  0  0
 17 18  1  0  0  0  0
  3  4  1  0  0  0  0
  3  5  1  0  0  0  0
  3  6  1  0  0  0  0
 42 45  1  0  0  0  0
 42 46  1  0  0  0  0
 42 47  1  0  0  0  0
 11 14  1  0  0  0  0
 11 15  1  0  0  0  0
 11 16  1  0  0  0  0
 49 51  1  0  0  0  0
 49 52  1  0  0  0  0
 49 53  1  0  0  0  0
 22 30  1  0  0  0  0
 22 31  1  0  0  0  0
 23 32  1  0  0  0  0
 23 33  1  0  0  0  0
 21 28  1  0  0  0  0
 21 29  1  0  0  0  0
 24 34  1  0  0  0  0
 24 35  1  0  0  0  0
 39 44  1  0  0  0  0
  8 13  1  0  0  0  0
 18 27  1  0  0  0  0
 25 36  1  0  0  0  0
 25 37  1  0  0  0  0
 48 50  1  0  0  0  0
  7 12  1  0  0  0  0
 38 43  1  0  0  0  0
 17 26  1  0  0  0  0
M  END
$$$$

  -OEChem-05262214473D

 53 52  0     1  0  0  0  0  0999 V2000
   -1.0338   -5.6785    0.1476 C   0  0  0  0  0  0  0  0  0  0  0  0
   -2.0514   -5.7797    0.8227 O   0  0  0  0  0  0  0  0  0  0  0  0
   -0.6558   -6.7819   -0.7841 C   0  0  0  0  0  0  0  0  0  0  0  0
   -0.0111   -7.5354   -0.3038 H   0  0  0  0  0  0  0  0  0  0  0  0
   -1.5317   -7.3401   -1.1520 H   0  0  0  0  0  0  0  0  0  0  0  0
   -0.1109   -6.4687   -1.6890 H   0  0  0  0  0  0  0  0  0  0  0  0
   -0.1543   -4.6083    0.1480 N   0  0  0  0  0  0  0  0  0  0  0  0
   -0.3302   -3.4398    0.9696 C   0  0  2  0  0  0  0  0  0  0  0  0
    0.2328   -2.2439    0.2131 C   0  0  0  0  0  0  0  0  0  0  0  0
    1.2097   -2.3192   -0.5294 O   0  0  0  0  0  0  0  0  0  0  0  0
    0.3557   -3.6024    2.3171 C   0  0  0  0  0  0  0  0  0  0  0  0
    0.6584   -4.6506   -0.4643 H   0  0  0  0  0  0  0  0  0  0  0  0
   -1.4091   -3.3101    1.1082 H   0  0  0  0  0  0  0  0  0  0  0  0
    1.4375   -3.7336    2.1985 H   0  0  0  0  0  0  0  0  0  0  0  0
    0.1969   -2.7243    2.9517 H   0  0  0  0  0  0  0  0  0  0  0  0
   -0.0294   -4.4803    2.8470 H   0  0  0  0  0  0  0  0  0  0  0  0
   -0.4616   -1.0893    0.5050 N   0  0  0  0  0  0  0  0  0  0  0  0
   -0.0884    0.2050   -0.0621 C   0  0  2  0  0  0  0  0  0  0  0  0
   -0.5359    0.2168   -1.5210 C   0  0  0  0  0  0  0  0  0  0  0  0
   -0.8387   -0.8030   -2.1372 O   0  0  0  0  0  0  0  0  0  0  0  0
    1.4251    0.4572    0.0099 C   0  0  0  0  0  0  0  0  0  0  0  0
    1.9431    0.6437    1.4398 C   0  0  0  0  0  0  0  0  0  0  0  0
    3.4498    0.9158    1.4521 C   0  0  0  0  0  0  0  0  0  0  0  0
    3.9702    1.0773    2.8794 C   0  0  0  0  0  0  0  0  0  0  0  0
    5.4092    1.3119    2.8701 N   0  0  0  0  0  0  0  0  0  0  0  0
   -1.2794   -1.1113    1.0935 H   0  0  0  0  0  0  0  0  0  0  0  0
   -0.6236    0.9917    0.4832 H   0  0  0  0  0  0  0  0  0  0  0  0
    1.6680    1.3545   -0.5743 H   0  0  0  0  0  0  0  0  0  0  0  0
    1.9651   -0.3696   -0.4713 H   0  0  0  0  0  0  0  0  0  0  0  0
    1.7367   -0.2519    2.0364 H   0  0  0  0  0  0  0  0  0  0  0  0
    1.4162    1.4804    1.9141 H   0  0  0  0  0  0  0  0  0  0  0  0
    3.9734    0.0888    0.9560 H   0  0  0  0  0  0  0  0  0  0  0  0
    3.6621    1.8249    0.8752 H   0  0  0  0  0  0  0  0  0  0  0  0
    3.7529    0.1781    3.4661 H   0  0  0  0  0  0  0  0  0  0  0  0
    3.4740    1.9226    3.3680 H   0  0  0  0  0  0  0  0  0  0  0  0
    5.7238    1.2899    1.9282 H   0  0  0  0  0  0  0  0  0  0  0  0
    5.5833    2.2018    3.2755 H   0  0  0  0  0  0  0  0  0  0  0  0
   -0.5351    1.4971   -2.0573 N   0  0  0  0  0  0  0  0  0  0  0  0
   -0.8970    1.7827   -3.4271 C   0  0  2  0  0  0  0  0  0  0  0  0
   -0.0742    2.9771   -3.8917 C   0  0  0  0  0  0  0  0  0  0  0  0
    0.2479    3.9003   -3.1467 O   0  0  0  0  0  0  0  0  0  0  0  0
   -2.3857    2.0639   -3.5590 C   0  0  0  0  0  0  0  0  0  0  0  0
   -0.2782    2.2834   -1.4680 H   0  0  0  0  0  0  0  0  0  0  0  0
   -0.6257    0.9001   -4.0165 H   0  0  0  0  0  0  0  0  0  0  0  0
   -2.6764    2.9449   -2.9752 H   0  0  0  0  0  0  0  0  0  0  0  0
   -2.6632    2.2519   -4.6014 H   0  0  0  0  0  0  0  0  0  0  0  0
   -2.9762    1.2154   -3.1966 H   0  0  0  0  0  0  0  0  0  0  0  0
    0.2214    2.9121   -5.2461 N   0  0  0  0  0  0  0  0  0  0  0  0
    0.9555    3.9480   -5.9345 C   0  0  0  0  0  0  0  0  0  0  0  0
   -0.0506    2.0906   -5.7781 H   0  0  0  0  0  0  0  0  0  0  0  0
    0.2499    4.6731   -6.3662 H   0  0  0  0  0  0  0  0  0  0  0  0
    1.6193    4.4613   -5.2232 H   0  0  0  0  0  0  0  0  0  0  0  0
    1.5569    3.4986   -6.7385 H   0  0  0  0  0  0  0  0  0  0  0  0
  1  3  1  0  0  0  0
  1  7  1  0  0  0  0
  1  2  2  0  0  0  0
 39 40  1  0  0  0  0
 40 48  1  0  0  0  0
 40 41  2  0  0  0  0
  8  9  1  0  0  0  0
  9 17  1  0  0  0  0
  9 10  2  0  0  0  0
 18 19  1  0  0  0  0
 19 38  1  0  0  0  0
 19 20  2  0  0  0  0
 39 42  1  0  0  0  0
  8 11  1  0  0  0  0
 48 49  1  0  0  0  0
 22 23  1  0  0  0  0
 21 22  1  0  0  0  0
 23 24  1  0  0  0  0
 18 21  1  0  0  0  0
 24 25  1  0  0  0  0
 38 39  1  0  0  0  0
  7  8  1  0  0  0  0
 17 18  1  0  0  0  0
  3  4  1  0  0  0  0
  3  5  1  0  0  0  0
  3  6  1  0  0  0  0
 42 45  1  0  0  0  0
 42 46  1  0  0  0  0
 42 47  1  0  0  0  0
 11 14  1  0  0  0  0
 11 15  1  0  0  0  0
 11 16  1  0  0  0  0
 49 51  1  0  0  0  0
 49 52  1  0  0  0  0
 49 53  1  0  0  0  0
 22 30  1  0  0  0  0
 22 31  1  0  0  0  0
 23 32  1  0  0  0  0
 23 33  1  0  0  0  0
 21 28  1  0  0  0  0
 21 29  1  0  0  0  0
 24 34  1  0  0  0  0
 24 35  1  0  0  0  0
 39 44  1  0  0  0  0
  8 13  1  0  0  0  0
 18 27  1  0  0  0  0
 25 36  1  0  0  0  0
 25 37  1  0  0  0  0
 48 50  1  0  0  0  0
  7 12  1  0  0  0  0
 38 43  1  0  0  0  0
 17 26  1  0  0  0  0
M  END
$$$$

  -OEChem-05262214473D

 53 52  0     1  0  0  0  0  0999 V2000
   -1.0338   -5.6785    0.1476 C   0  0  0  0  0  0  0  0  0  0  0  0
   -2.0514   -5.7797    0.8227 O   0  0  0  0  0  0  0  0  0  0  0  0
   -0.6558   -6.7819   -0.7841 C   0  0  0  0  0  0  0  0  0  0  0  0
   -0.0111   -7.5354   -0.3038 H   0  0  0  0  0  0  0  0  0  0  0  0
   -1.5317   -7.3401   -1.1520 H   0  0  0  0  0  0  0  0  0  0  0  0
   -0.1109   -6.4687   -1.6890 H   0  0  0  0  0  0  0  0  0  0  0  0
   -0.1543   -4.6083    0.1480 N   0  0  0  0  0  0  0  0  0  0  0  0
   -0.3302   -3.4398    0.9696 C   0  0  2  0  0  0  0  0  0  0  0  0
    0.2328   -2.2439    0.2131 C   0  0  0  0  0  0  0  0  0  0  0  0
    1.2097   -2.3192   -0.5294 O   0  0  0  0  0  0  0  0  0  0  0  0
    0.3557   -3.6024    2.3171 C   0  0  0  0  0  0  0  0  0  0  0  0
    0.6584   -4.6506   -0.4643 H   0  0  0  0  0  0  0  0  0  0  0  0
   -1.4091   -3.3101    1.1082 H   0  0  0  0  0  0  0  0  0  0  0  0
    1.4375   -3.7336    2.1985 H   0  0  0  0  0  0  0  0  0  0  0  0
    0.1969   -2.7243    2.9517 H   0  0  0  0  0  0  0  0  0  0  0  0
   -0.0294   -4.4803    2.8470 H   0  0  0  0  0  0  0  0  0  0  0  0
   -0.4616   -1.0893    0.5050 N   0  0  0  0  0  0  0  0  0  0  0  0
   -0.0884    0.2050   -0.0621 C   0  0  2  0  0  0  0  0  0  0  0  0
   -0.8498    0.3717   -1.3740 C   0  0  0  0  0  0  0  0  0  0  0  0
   -1.6102   -0.4848   -1.8209 O   0  0  0  0  0  0  0  0  0  0  0  0
    1.4204    0.3094   -0.3305 C   0  0  0  0  0  0  0  0  0  0  0  0
    2.2650    0.3353    0.9477 C   0  0  0  0  0  0  0  0  0  0  0  0
    3.7559    0.4647    0.6240 C   0  0  0  0  0  0  0  0  0  0  0  0
    4.5995    0.4658    1.8977 C   0  0  0  0  0  0  0  0  0  0  0  0
    6.0159    0.5659    1.5668 N   0  0  0  0  0  0  0  0  0  0  0  0
   -1.2794   -1.1113    1.0935 H   0  0  0  0  0  0  0  0  0  0  0  0
   -0.3983    0.9931    0.6347 H   0  0  0  0  0  0  0  0  0  0  0  0
    1.6207    1.2231   -0.9055 H   0  0  0  0  0  0  0  0  0  0  0  0
    1.7452   -0.5239   -0.9683 H   0  0  0  0  0  0  0  0  0  0  0  0
    2.1030   -0.5810    1.5263 H   0  0  0  0  0  0  0  0  0  0  0  0
    1.9525    1.1777    1.5763 H   0  0  0  0  0  0  0  0  0  0  0  0
    4.0613   -0.3661   -0.0245 H   0  0  0  0  0  0  0  0  0  0  0  0
    3.9294    1.3923    0.0638 H   0  0  0  0  0  0  0  0  0  0  0  0
    4.4244   -0.4524    2.4691 H   0  0  0  0  0  0  0  0  0  0  0  0
    4.3208    1.3128    2.5335 H   0  0  0  0  0  0  0  0  0  0  0  0
    6.1055    0.5882    0.5778 H   0  0  0  0  0  0  0  0  0  0  0  0
    6.3723    1.4016    1.9684 H   0  0  0  0  0  0  0  0  0  0  0  0
   -0.5620    1.5792   -1.9953 N   0  0  0  0  0  0  0  0  0  0  0  0
   -1.1340    1.9746   -3.2623 C   0  0  2  0  0  0  0  0  0  0  0  0
   -0.1062    2.8246   -3.9975 C   0  0  0  0  0  0  0  0  0  0  0  0
    0.6717    3.5832   -3.4226 O   0  0  0  0  0  0  0  0  0  0  0  0
   -2.4335    2.7403   -3.0678 C   0  0  0  0  0  0  0  0  0  0  0  0
    0.0736    2.2313   -1.5455 H   0  0  0  0  0  0  0  0  0  0  0  0
   -1.3188    1.0543   -3.8269 H   0  0  0  0  0  0  0  0  0  0  0  0
   -2.2683    3.6657   -2.5040 H   0  0  0  0  0  0  0  0  0  0  0  0
   -2.8803    3.0143   -4.0292 H   0  0  0  0  0  0  0  0  0  0  0  0
   -3.1612    2.1384   -2.5128 H   0  0  0  0  0  0  0  0  0  0  0  0
   -0.1888    2.6688   -5.3741 N   0  0  0  0  0  0  0  0  0  0  0  0
    0.6516    3.4002   -6.2933 C   0  0  0  0  0  0  0  0  0  0  0  0
   -0.8356    1.9885   -5.7621 H   0  0  0  0  0  0  0  0  0  0  0  0
    0.1387    4.3218   -6.6058 H   0  0  0  0  0  0  0  0  0  0  0  0
    1.5992    3.6581   -5.7978 H   0  0  0  0  0  0  0  0  0  0  0  0
    0.8572    2.7777   -7.1766 H   0  0  0  0  0  0  0  0  0  0  0  0
  1  3  1  0  0  0  0
  1  7  1  0  0  0  0
  1  2  2  0  0  0  0
 39 40  1  0  0  0  0
 40 48  1  0  0  0  0
 40 41  2  0  0  0  0
  8  9  1  0  0  0  0
  9 17  1  0  0  0  0
  9 10  2  0  0  0  0
 18 19  1  0  0  0  0
 19 38  1  0  0  0  0
 19 20  2  0  0  0  0
 39 42  1  0  0  0  0
  8 11  1  0  0  0  0
 48 49  1  0  0  0  0
 22 23  1  0  0  0  0
 21 22  1  0  0  0  0
 23 24  1  0  0  0  0
 18 21  1  0  0  0  0
 24 25  1  0  0  0  0
 38 39  1  0  0  0  0
  7  8  1  0  0  0  0
 17 18  1  0  0  0  0
  3  4  1  0  0  0  0
  3  5  1  0  0  0  0
  3  6  1  0  0  0  0
 42 45  1  0  0  0  0
 42 46  1  0  0  0  0
 42 47  1  0  0  0  0
 11 14  1  0  0  0  0
 11 15  1  0  0  0  0
 11 16  1  0  0  0  0
 49 51  1  0  0  0  0
 49 52  1  0  0  0  0
 49 53  1  0  0  0  0
 22 30  1  0  0  0  0
 22 31  1  0  0  0  0
 23 32  1  0  0  0  0
 23 33  1  0  0  0  0
 21 28  1  0  0  0  0
 21 29  1  0  0  0  0
 24 34  1  0  0  0  0
 24 35  1  0  0  0  0
 39 44  1  0  0  0  0
  8 13  1  0  0  0  0
 18 27  1  0  0  0  0
 25 36  1  0  0  0  0
 25 37  1  0  0  0  0
 48 50  1  0  0  0  0
  7 12  1  0  0  0  0
 38 43  1  0  0  0  0
 17 26  1  0  0  0  0
M  END
$$$$

  -OEChem-05262214473D

 53 52  0     1  0  0  0  0  0999 V2000
   -1.0338   -5.6785    0.1476 C   0  0  0  0  0  0  0  0  0  0  0  0
   -2.0514   -5.7797    0.8227 O   0  0  0  0  0  0  0  0  0  0  0  0
   -0.6558   -6.7819   -0.7841 C   0  0  0  0  0  0  0  0  0  0  0  0
   -0.0111   -7.5354   -0.3038 H   0  0  0  0  0  0  0  0  0  0  0  0
   -1.5317   -7.3401   -1.1520 H   0  0  0  0  0  0  0  0  0  0  0  0
   -0.1109   -6.4687   -1.6890 H   0  0  0  0  0  0  0  0  0  0  0  0
   -0.1543   -4.6083    0.1480 N   0  0  0  0  0  0  0  0  0  0  0  0
   -0.3302   -3.4398    0.9696 C   0  0  2  0  0  0  0  0  0  0  0  0
    0.2328   -2.2439    0.2131 C   0  0  0  0  0  0  0  0  0  0  0  0
    1.2097   -2.3192   -0.5294 O   0  0  0  0  0  0  0  0  0  0  0  0
    0.3557   -3.6024    2.3171 C   0  0  0  0  0  0  0  0  0  0  0  0
    0.6584   -4.6506   -0.4643 H   0  0  0  0  0  0  0  0  0  0  0  0
   -1.4091   -3.3101    1.1082 H   0  0  0  0  0  0  0  0  0  0  0  0
    1.4375   -3.7336    2.1985 H   0  0  0  0  0  0  0  0  0  0  0  0
    0.1969   -2.7243    2.9517 H   0  0  0  0  0  0  0  0  0  0  0  0
   -0.0294   -4.4803    2.8470 H   0  0  0  0  0  0  0  0  0  0  0  0
   -0.4616   -1.0893    0.5050 N   0  0  0  0  0  0  0  0  0  0  0  0
   -0.0884    0.2050   -0.0621 C   0  0  2  0  0  0  0  0  0  0  0  0
   -0.8498    0.3717   -1.3740 C   0  0  0  0  0  0  0  0  0  0  0  0
   -1.7989   -0.3416   -1.6932 O   0  0  0  0  0  0  0  0  0  0  0  0
    1.4204    0.3094   -0.3305 C   0  0  0  0  0  0  0  0  0  0  0  0
    2.2650    0.3353    0.9477 C   0  0  0  0  0  0  0  0  0  0  0  0
    3.7559    0.4647    0.6240 C   0  0  0  0  0  0  0  0  0  0  0  0
    4.5995    0.4658    1.8977 C   0  0  0  0  0  0  0  0  0  0  0  0
    6.0159    0.5659    1.5668 N   0  0  0  0  0  0  0  0  0  0  0  0
   -1.2794   -1.1113    1.0935 H   0  0  0  0  0  0  0  0  0  0  0  0
   -0.3983    0.9931    0.6347 H   0  0  0  0  0  0  0  0  0  0  0  0
    1.6207    1.2231   -0.9055 H   0  0  0  0  0  0  0  0  0  0  0  0
    1.7452   -0.5239   -0.9683 H   0  0  0  0  0  0  0  0  0  0  0  0
    2.1030   -0.5810    1.5263 H   0  0  0  0  0  0  0  0  0  0  0  0
    1.9525    1.1777    1.5763 H   0  0  0  0  0  0  0  0  0  0  0  0
    4.0613   -0.3661   -0.0245 H   0  0  0  0  0  0  0  0  0  0  0  0
    3.9294    1.3923    0.0638 H   0  0  0  0  0  0  0  0  0  0  0  0
    4.4244   -0.4524    2.4691 H   0  0  0  0  0  0  0  0  0  0  0  0
    4.3208    1.3128    2.5335 H   0  0  0  0  0  0  0  0  0  0  0  0
    6.1055    0.5882    0.5778 H   0  0  0  0  0  0  0  0  0  0  0  0
    6.3723    1.4016    1.9684 H   0  0  0  0  0  0  0  0  0  0  0  0
   -0.3296    1.3957   -2.1535 N   0  0  0  0  0  0  0  0  0  0  0  0
   -0.8540    1.7466   -3.4538 C   0  0  2  0  0  0  0  0  0  0  0  0
    0.3035    2.2448   -4.3090 C   0  0  0  0  0  0  0  0  0  0  0  0
    1.2535    2.8757   -3.8502 O   0  0  0  0  0  0  0  0  0  0  0  0
   -1.9430    2.8025   -3.3446 C   0  0  0  0  0  0  0  0  0  0  0  0
    0.4529    1.9399   -1.8027 H   0  0  0  0  0  0  0  0  0  0  0  0
   -1.2614    0.8276   -3.8890 H   0  0  0  0  0  0  0  0  0  0  0  0
   -1.5537    3.7307   -2.9105 H   0  0  0  0  0  0  0  0  0  0  0  0
   -2.3591    3.0465   -4.3276 H   0  0  0  0  0  0  0  0  0  0  0  0
   -2.7610    2.4540   -2.7049 H   0  0  0  0  0  0  0  0  0  0  0  0
    0.1296    1.9394   -5.6516 N   0  0  0  0  0  0  0  0  0  0  0  0
    1.0704    2.3418   -6.6709 C   0  0  0  0  0  0  0  0  0  0  0  0
   -0.6674    1.3782   -5.9372 H   0  0  0  0  0  0  0  0  0  0  0  0
    0.7606    3.3081   -7.0956 H   0  0  0  0  0  0  0  0  0  0  0  0
    2.0719    2.4408   -6.2268 H   0  0  0  0  0  0  0  0  0  0  0  0
    1.0955    1.5829   -7.4667 H   0  0  0  0  0  0  0  0  0  0  0  0
  1  3  1  0  0  0  0
  1  7  1  0  0  0  0
  1  2  2  0  0  0  0
 39 40  1  0  0  0  0
 40 48  1  0  0  0  0
 40 41  2  0  0  0  0
  8  9  1  0  0  0  0
  9 17  1  0  0  0  0
  9 10  2  0  0  0  0
 18 19  1  0  0  0  0
 19 38  1  0  0  0  0
 19 20  2  0  0  0  0
 39 42  1  0  0  0  0
  8 11  1  0  0  0  0
 48 49  1  0  0  0  0
 22 23  1  0  0  0  0
 21 22  1  0  0  0  0
 23 24  1  0  0  0  0
 18 21  1  0  0  0  0
 24 25  1  0  0  0  0
 38 39  1  0  0  0  0
  7  8  1  0  0  0  0
 17 18  1  0  0  0  0
  3  4  1  0  0  0  0
  3  5  1  0  0  0  0
  3  6  1  0  0  0  0
 42 45  1  0  0  0  0
 42 46  1  0  0  0  0
 42 47  1  0  0  0  0
 11 14  1  0  0  0  0
 11 15  1  0  0  0  0
 11 16  1  0  0  0  0
 49 51  1  0  0  0  0
 49 52  1  0  0  0  0
 49 53  1  0  0  0  0
 22 30  1  0  0  0  0
 22 31  1  0  0  0  0
 23 32  1  0  0  0  0
 23 33  1  0  0  0  0
 21 28  1  0  0  0  0
 21 29  1  0  0  0  0
 24 34  1  0  0  0  0
 24 35  1  0  0  0  0
 39 44  1  0  0  0  0
  8 13  1  0  0  0  0
 18 27  1  0  0  0  0
 25 36  1  0  0  0  0
 25 37  1  0  0  0  0
 48 50  1  0  0  0  0
  7 12  1  0  0  0  0
 38 43  1  0  0  0  0
 17 26  1  0  0  0  0
M  END
$$$$

  -OEChem-05262214473D

 53 52  0     1  0  0  0  0  0999 V2000
   -1.0338   -5.6785    0.1476 C   0  0  0  0  0  0  0  0  0  0  0  0
   -2.0514   -5.7797    0.8227 O   0  0  0  0  0  0  0  0  0  0  0  0
   -0.6558   -6.7819   -0.7841 C   0  0  0  0  0  0  0  0  0  0  0  0
   -0.0111   -7.5354   -0.3038 H   0  0  0  0  0  0  0  0  0  0  0  0
   -1.5317   -7.3401   -1.1520 H   0  0  0  0  0  0  0  0  0  0  0  0
   -0.1109   -6.4687   -1.6890 H   0  0  0  0  0  0  0  0  0  0  0  0
   -0.1543   -4.6083    0.1480 N   0  0  0  0  0  0  0  0  0  0  0  0
   -0.3302   -3.4398    0.9696 C   0  0  2  0  0  0  0  0  0  0  0  0
    0.2328   -2.2439    0.2131 C   0  0  0  0  0  0  0  0  0  0  0  0
    1.2097   -2.3192   -0.5294 O   0  0  0  0  0  0  0  0  0  0  0  0
    0.3557   -3.6024    2.3171 C   0  0  0  0  0  0  0  0  0  0  0  0
    0.6584   -4.6506   -0.4643 H   0  0  0  0  0  0  0  0  0  0  0  0
   -1.4091   -3.3101    1.1082 H   0  0  0  0  0  0  0  0  0  0  0  0
    1.4375   -3.7336    2.1985 H   0  0  0  0  0  0  0  0  0  0  0  0
    0.1969   -2.7243    2.9517 H   0  0  0  0  0  0  0  0  0  0  0  0
   -0.0294   -4.4803    2.8470 H   0  0  0  0  0  0  0  0  0  0  0  0
   -0.4616   -1.0893    0.5050 N   0  0  0  0  0  0  0  0  0  0  0  0
   -0.0884    0.2050   -0.0621 C   0  0  2  0  0  0  0  0  0  0  0  0
   -0.8498    0.3717   -1.3740 C   0  0  0  0  0  0  0  0  0  0  0  0
   -1.9457   -0.1449   -1.5830 O   0  0  0  0  0  0  0  0  0  0  0  0
    1.4204    0.3094   -0.3305 C   0  0  0  0  0  0  0  0  0  0  0  0
    2.2650    0.3353    0.9477 C   0  0  0  0  0  0  0  0  0  0  0  0
    3.7559    0.4647    0.6240 C   0  0  0  0  0  0  0  0  0  0  0  0
    4.5995    0.4658    1.8977 C   0  0  0  0  0  0  0  0  0  0  0  0
    6.0159    0.5659    1.5668 N   0  0  0  0  0  0  0  0  0  0  0  0
   -1.2794   -1.1113    1.0935 H   0  0  0  0  0  0  0  0  0  0  0  0
   -0.3983    0.9931    0.6347 H   0  0  0  0  0  0  0  0  0  0  0  0
    1.6207    1.2231   -0.9055 H   0  0  0  0  0  0  0  0  0  0  0  0
    1.7452   -0.5239   -0.9683 H   0  0  0  0  0  0  0  0  0  0  0  0
    2.1030   -0.5810    1.5263 H   0  0  0  0  0  0  0  0  0  0  0  0
    1.9525    1.1777    1.5763 H   0  0  0  0  0  0  0  0  0  0  0  0
    4.0613   -0.3661   -0.0245 H   0  0  0  0  0  0  0  0  0  0  0  0
    3.9294    1.3923    0.0638 H   0  0  0  0  0  0  0  0  0  0  0  0
    4.4244   -0.4524    2.4691 H   0  0  0  0  0  0  0  0  0  0  0  0
    4.3208    1.3128    2.5335 H   0  0  0  0  0  0  0  0  0  0  0  0
    6.1055    0.5882    0.5778 H   0  0  0  0  0  0  0  0  0  0  0  0
    6.3723    1.4016    1.9684 H   0  0  0  0  0  0  0  0  0  0  0  0
   -0.1504    1.1463   -2.2892 N   0  0  0  0  0  0  0  0  0  0  0  0
   -0.6398    1.4393   -3.6172 C   0  0  2  0  0  0  0  0  0  0  0  0
    0.5614    1.5533   -4.5465 C   0  0  0  0  0  0  0  0  0  0  0  0
    1.6460    2.0077   -4.1883 O   0  0  0  0  0  0  0  0  0  0  0  0
   -1.4632    2.7178   -3.6338 C   0  0  0  0  0  0  0  0  0  0  0  0
    0.7472    1.5408   -2.0242 H   0  0  0  0  0  0  0  0  0  0  0  0
   -1.2581    0.5878   -3.9214 H   0  0  0  0  0  0  0  0  0  0  0  0
   -0.8604    3.5820   -3.3318 H   0  0  0  0  0  0  0  0  0  0  0  0
   -1.8570    2.9231   -4.6347 H   0  0  0  0  0  0  0  0  0  0  0  0
   -2.3098    2.6451   -2.9426 H   0  0  0  0  0  0  0  0  0  0  0  0
    0.2670    1.1281   -5.8344 N   0  0  0  0  0  0  0  0  0  0  0  0
    1.2288    1.1776   -6.9108 C   0  0  0  0  0  0  0  0  0  0  0  0
   -0.6457    0.7287   -6.0324 H   0  0  0  0  0  0  0  0  0  0  0  0
    1.1219    2.1273   -7.4553 H   0  0  0  0  0  0  0  0  0  0  0  0
    2.2455    1.1044   -6.4974 H   0  0  0  0  0  0  0  0  0  0  0  0
    1.0517    0.3383   -7.5994 H   0  0  0  0  0  0  0  0  0  0  0  0
  1  3  1  0  0  0  0
  1  7  1  0  0  0  0
  1  2  2  0  0  0  0
 39 40  1  0  0  0  0
 40 48  1  0  0  0  0
 40 41  2  0  0  0  0
  8  9  1  0  0  0  0
  9 17  1  0  0  0  0
  9 10  2  0  0  0  0
 18 19  1  0  0  0  0
 19 38  1  0  0  0  0
 19 20  2  0  0  0  0
 39 42  1  0  0  0  0
  8 11  1  0  0  0  0
 48 49  1  0  0  0  0
 22 23  1  0  0  0  0
 21 22  1  0  0  0  0
 23 24  1  0  0  0  0
 18 21  1  0  0  0  0
 24 25  1  0  0  0  0
 38 39  1  0  0  0  0
  7  8  1  0  0  0  0
 17 18  1  0  0  0  0
  3  4  1  0  0  0  0
  3  5  1  0  0  0  0
  3  6  1  0  0  0  0
 42 45  1  0  0  0  0
 42 46  1  0  0  0  0
 42 47  1  0  0  0  0
 11 14  1  0  0  0  0
 11 15  1  0  0  0  0
 11 16  1  0  0  0  0
 49 51  1  0  0  0  0
 49 52  1  0  0  0  0
 49 53  1  0  0  0  0
 22 30  1  0  0  0  0
 22 31  1  0  0  0  0
 23 32  1  0  0  0  0
 23 33  1  0  0  0  0
 21 28  1  0  0  0  0
 21 29  1  0  0  0  0
 24 34  1  0  0  0  0
 24 35  1  0  0  0  0
 39 44  1  0  0  0  0
  8 13  1  0  0  0  0
 18 27  1  0  0  0  0
 25 36  1  0  0  0  0
 25 37  1  0  0  0  0
 48 50  1  0  0  0  0
  7 12  1  0  0  0  0
 38 43  1  0  0  0  0
 17 26  1  0  0  0  0
M  END
$$$$

  -OEChem-05262214473D

 53 52  0     1  0  0  0  0  0999 V2000
   -1.0338   -5.6785    0.1476 C   0  0  0  0  0  0  0  0  0  0  0  0
   -2.0514   -5.7797    0.8227 O   0  0  0  0  0  0  0  0  0  0  0  0
   -0.6558   -6.7819   -0.7841 C   0  0  0  0  0  0  0  0  0  0  0  0
   -0.0111   -7.5354   -0.3038 H   0  0  0  0  0  0  0  0  0  0  0  0
   -1.5317   -7.3401   -1.1520 H   0  0  0  0  0  0  0  0  0  0  0  0
   -0.1109   -6.4687   -1.6890 H   0  0  0  0  0  0  0  0  0  0  0  0
   -0.1543   -4.6083    0.1480 N   0  0  0  0  0  0  0  0  0  0  0  0
   -0.3302   -3.4398    0.9696 C   0  0  2  0  0  0  0  0  0  0  0  0
    0.2328   -2.2439    0.2131 C   0  0  0  0  0  0  0  0  0  0  0  0
    1.2097   -2.3192   -0.5294 O   0  0  0  0  0  0  0  0  0  0  0  0
    0.3557   -3.6024    2.3171 C   0  0  0  0  0  0  0  0  0  0  0  0
    0.6584   -4.6506   -0.4643 H   0  0  0  0  0  0  0  0  0  0  0  0
   -1.4091   -3.3101    1.1082 H   0  0  0  0  0  0  0  0  0  0  0  0
    1.4375   -3.7336    2.1985 H   0  0  0  0  0  0  0  0  0  0  0  0
    0.1969   -2.7243    2.9517 H   0  0  0  0  0  0  0  0  0  0  0  0
   -0.0294   -4.4803    2.8470 H   0  0  0  0  0  0  0  0  0  0  0  0
   -0.4616   -1.0893    0.5050 N   0  0  0  0  0  0  0  0  0  0  0  0
   -0.0884    0.2050   -0.0621 C   0  0  2  0  0  0  0  0  0  0  0  0
   -0.8498    0.3717   -1.3740 C   0  0  0  0  0  0  0  0  0  0  0  0
   -2.0406    0.0921   -1.4978 O   0  0  0  0  0  0  0  0  0  0  0  0
    1.4204    0.3094   -0.3305 C   0  0  0  0  0  0  0  0  0  0  0  0
    2.2650    0.3353    0.9477 C   0  0  0  0  0  0  0  0  0  0  0  0
    3.7559    0.4647    0.6240 C   0  0  0  0  0  0  0  0  0  0  0  0
    4.5995    0.4658    1.8977 C   0  0  0  0  0  0  0  0  0  0  0  0
    6.0159    0.5659    1.5668 N   0  0  0  0  0  0  0  0  0  0  0  0
   -1.2794   -1.1113    1.0935 H   0  0  0  0  0  0  0  0  0  0  0  0
   -0.3983    0.9931    0.6347 H   0  0  0  0  0  0  0  0  0  0  0  0
    1.6207    1.2231   -0.9055 H   0  0  0  0  0  0  0  0  0  0  0  0
    1.7452   -0.5239   -0.9683 H   0  0  0  0  0  0  0  0  0  0  0  0
    2.1030   -0.5810    1.5263 H   0  0  0  0  0  0  0  0  0  0  0  0
    1.9525    1.1777    1.5763 H   0  0  0  0  0  0  0  0  0  0  0  0
    4.0613   -0.3661   -0.0245 H   0  0  0  0  0  0  0  0  0  0  0  0
    3.9294    1.3923    0.0638 H   0  0  0  0  0  0  0  0  0  0  0  0
    4.4244   -0.4524    2.4691 H   0  0  0  0  0  0  0  0  0  0  0  0
    4.3208    1.3128    2.5335 H   0  0  0  0  0  0  0  0  0  0  0  0
    6.1055    0.5882    0.5778 H   0  0  0  0  0  0  0  0  0  0  0  0
    6.3723    1.4016    1.9684 H   0  0  0  0  0  0  0  0  0  0  0  0
   -0.0366    0.8480   -2.3932 N   0  0  0  0  0  0  0  0  0  0  0  0
   -0.5058    1.0737   -3.7414 C   0  0  2  0  0  0  0  0  0  0  0  0
    0.6499    0.7973   -4.6940 C   0  0  0  0  0  0  0  0  0  0  0  0
    1.8224    1.0382   -4.4138 O   0  0  0  0  0  0  0  0  0  0  0  0
   -1.0268    2.4918   -3.9159 C   0  0  0  0  0  0  0  0  0  0  0  0
    0.9364    1.0613   -2.1949 H   0  0  0  0  0  0  0  0  0  0  0  0
   -1.3093    0.3513   -3.9217 H   0  0  0  0  0  0  0  0  0  0  0  0
   -0.2358    3.2297   -3.7391 H   0  0  0  0  0  0  0  0  0  0  0  0
   -1.4081    2.6525   -4.9297 H   0  0  0  0  0  0  0  0  0  0  0  0
   -1.8381    2.6986   -3.2096 H   0  0  0  0  0  0  0  0  0  0  0  0
    0.2140    0.2903   -5.9101 N   0  0  0  0  0  0  0  0  0  0  0  0
    1.1159   -0.0133   -6.9966 C   0  0  0  0  0  0  0  0  0  0  0  0
   -0.7720    0.0842   -6.0410 H   0  0  0  0  0  0  0  0  0  0  0  0
    1.1980    0.8599   -7.6605 H   0  0  0  0  0  0  0  0  0  0  0  0
    2.1082   -0.2600   -6.5911 H   0  0  0  0  0  0  0  0  0  0  0  0
    0.7286   -0.8713   -7.5656 H   0  0  0  0  0  0  0  0  0  0  0  0
  1  3  1  0  0  0  0
  1  7  1  0  0  0  0
  1  2  2  0  0  0  0
 39 40  1  0  0  0  0
 40 48  1  0  0  0  0
 40 41  2  0  0  0  0
  8  9  1  0  0  0  0
  9 17  1  0  0  0  0
  9 10  2  0  0  0  0
 18 19  1  0  0  0  0
 19 38  1  0  0  0  0
 19 20  2  0  0  0  0
 39 42  1  0  0  0  0
  8 11  1  0  0  0  0
 48 49  1  0  0  0  0
 22 23  1  0  0  0  0
 21 22  1  0  0  0  0
 23 24  1  0  0  0  0
 18 21  1  0  0  0  0
 24 25  1  0  0  0  0
 38 39  1  0  0  0  0
  7  8  1  0  0  0  0
 17 18  1  0  0  0  0
  3  4  1  0  0  0  0
  3  5  1  0  0  0  0
  3  6  1  0  0  0  0
 42 45  1  0  0  0  0
 42 46  1  0  0  0  0
 42 47  1  0  0  0  0
 11 14  1  0  0  0  0
 11 15  1  0  0  0  0
 11 16  1  0  0  0  0
 49 51  1  0  0  0  0
 49 52  1  0  0  0  0
 49 53  1  0  0  0  0
 22 30  1  0  0  0  0
 22 31  1  0  0  0  0
 23 32  1  0  0  0  0
 23 33  1  0  0  0  0
 21 28  1  0  0  0  0
 21 29  1  0  0  0  0
 24 34  1  0  0  0  0
 24 35  1  0  0  0  0
 39 44  1  0  0  0  0
  8 13  1  0  0  0  0
 18 27  1  0  0  0  0
 25 36  1  0  0  0  0
 25 37  1  0  0  0  0
 48 50  1  0  0  0  0
  7 12  1  0  0  0  0
 38 43  1  0  0  0  0
 17 26  1  0  0  0  0
M  END
$$$$

  -OEChem-05262214473D

 53 52  0     1  0  0  0  0  0999 V2000
   -1.0338   -5.6785    0.1476 C   0  0  0  0  0  0  0  0  0  0  0  0
   -2.0514   -5.7797    0.8227 O   0  0  0  0  0  0  0  0  0  0  0  0
   -0.6558   -6.7819   -0.7841 C   0  0  0  0  0  0  0  0  0  0  0  0
   -0.0111   -7.5354   -0.3038 H   0  0  0  0  0  0  0  0  0  0  0  0
   -1.5317   -7.3401   -1.1520 H   0  0  0  0  0  0  0  0  0  0  0  0
   -0.1109   -6.4687   -1.6890 H   0  0  0  0  0  0  0  0  0  0  0  0
   -0.1543   -4.6083    0.1480 N   0  0  0  0  0  0  0  0  0  0  0  0
   -0.3302   -3.4398    0.9696 C   0  0  2  0  0  0  0  0  0  0  0  0
    0.2328   -2.2439    0.2131 C   0  0  0  0  0  0  0  0  0  0  0  0
    1.2097   -2.3192   -0.5294 O   0  0  0  0  0  0  0  0  0  0  0  0
    0.3557   -3.6024    2.3171 C   0  0  0  0  0  0  0  0  0  0  0  0
    0.6584   -4.6506   -0.4643 H   0  0  0  0  0  0  0  0  0  0  0  0
   -1.4091   -3.3101    1.1082 H   0  0  0  0  0  0  0  0  0  0  0  0
    1.4375   -3.7336    2.1985 H   0  0  0  0  0  0  0  0  0  0  0  0
    0.1969   -2.7243    2.9517 H   0  0  0  0  0  0  0  0  0  0  0  0
   -0.0294   -4.4803    2.8470 H   0  0  0  0  0  0  0  0  0  0  0  0
   -0.4616   -1.0893    0.5050 N   0  0  0  0  0  0  0  0  0  0  0  0
   -0.0884    0.2050   -0.0621 C   0  0  2  0  0  0  0  0  0  0  0  0
   -0.8498    0.3717   -1.3740 C   0  0  0  0  0  0  0  0  0  0  0  0
   -2.0772    0.3531   -1.4435 O   0  0  0  0  0  0  0  0  0  0  0  0
    1.4204    0.3094   -0.3305 C   0  0  0  0  0  0  0  0  0  0  0  0
    2.2650    0.3353    0.9477 C   0  0  0  0  0  0  0  0  0  0  0  0
    3.7559    0.4647    0.6240 C   0  0  0  0  0  0  0  0  0  0  0  0
    4.5995    0.4658    1.8977 C   0  0  0  0  0  0  0  0  0  0  0  0
    6.0159    0.5659    1.5668 N   0  0  0  0  0  0  0  0  0  0  0  0
   -1.2794   -1.1113    1.0935 H   0  0  0  0  0  0  0  0  0  0  0  0
   -0.3983    0.9931    0.6347 H   0  0  0  0  0  0  0  0  0  0  0  0
    1.6207    1.2231   -0.9055 H   0  0  0  0  0  0  0  0  0  0  0  0
    1.7452   -0.5239   -0.9683 H   0  0  0  0  0  0  0  0  0  0  0  0
    2.1030   -0.5810    1.5263 H   0  0  0  0  0  0  0  0  0  0  0  0
    1.9525    1.1777    1.5763 H   0  0  0  0  0  0  0  0  0  0  0  0
    4.0613   -0.3661   -0.0245 H   0  0  0  0  0  0  0  0  0  0  0  0
    3.9294    1.3923    0.0638 H   0  0  0  0  0  0  0  0  0  0  0  0
    4.4244   -0.4524    2.4691 H   0  0  0  0  0  0  0  0  0  0  0  0
    4.3208    1.3128    2.5335 H   0  0  0  0  0  0  0  0  0  0  0  0
    6.1055    0.5882    0.5778 H   0  0  0  0  0  0  0  0  0  0  0  0
    6.3723    1.4016    1.9684 H   0  0  0  0  0  0  0  0  0  0  0  0
    0.0039    0.5212   -2.4582 N   0  0  0  0  0  0  0  0  0  0  0  0
   -0.4612    0.6747   -3.8179 C   0  0  2  0  0  0  0  0  0  0  0  0
    0.5631    0.0284   -4.7413 C   0  0  0  0  0  0  0  0  0  0  0  0
    1.7706    0.0333   -4.5115 O   0  0  0  0  0  0  0  0  0  0  0  0
   -0.6635    2.1400   -4.1714 C   0  0  0  0  0  0  0  0  0  0  0  0
    1.0076    0.5339   -2.3033 H   0  0  0  0  0  0  0  0  0  0  0  0
   -1.4113    0.1342   -3.8901 H   0  0  0  0  0  0  0  0  0  0  0  0
    0.2777    2.6978   -4.1047 H   0  0  0  0  0  0  0  0  0  0  0  0
   -1.0431    2.2531   -5.1923 H   0  0  0  0  0  0  0  0  0  0  0  0
   -1.3781    2.6108   -3.4877 H   0  0  0  0  0  0  0  0  0  0  0  0
   -0.0258   -0.5170   -5.8735 N   0  0  0  0  0  0  0  0  0  0  0  0
    0.7395   -1.1495   -6.9225 C   0  0  0  0  0  0  0  0  0  0  0  0
   -1.0376   -0.5114   -5.9625 H   0  0  0  0  0  0  0  0  0  0  0  0
    0.9837   -0.4078   -7.6972 H   0  0  0  0  0  0  0  0  0  0  0  0
    1.6694   -1.5595   -6.5015 H   0  0  0  0  0  0  0  0  0  0  0  0
    0.1484   -1.9634   -7.3676 H   0  0  0  0  0  0  0  0  0  0  0  0
  1  3  1  0  0  0  0
  1  7  1  0  0  0  0
  1  2  2  0  0  0  0
 39 40  1  0  0  0  0
 40 48  1  0  0  0  0
 40 41  2  0  0  0  0
  8  9  1  0  0  0  0
  9 17  1  0  0  0  0
  9 10  2  0  0  0  0
 18 19  1  0  0  0  0
 19 38  1  0  0  0  0
 19 20  2  0  0  0  0
 39 42  1  0  0  0  0
  8 11  1  0  0  0  0
 48 49  1  0  0  0  0
 22 23  1  0  0  0  0
 21 22  1  0  0  0  0
 23 24  1  0  0  0  0
 18 21  1  0  0  0  0
 24 25  1  0  0  0  0
 38 39  1  0  0  0  0
  7  8  1  0  0  0  0
 17 18  1  0  0  0  0
  3  4  1  0  0  0  0
  3  5  1  0  0  0  0
  3  6  1  0  0  0  0
 42 45  1  0  0  0  0
 42 46  1  0  0  0  0
 42 47  1  0  0  0  0
 11 14  1  0  0  0  0
 11 15  1  0  0  0  0
 11 16  1  0  0  0  0
 49 51  1  0  0  0  0
 49 52  1  0  0  0  0
 49 53  1  0  0  0  0
 22 30  1  0  0  0  0
 22 31  1  0  0  0  0
 23 32  1  0  0  0  0
 23 33  1  0  0  0  0
 21 28  1  0  0  0  0
 21 29  1  0  0  0  0
 24 34  1  0  0  0  0
 24 35  1  0  0  0  0
 39 44  1  0  0  0  0
  8 13  1  0  0  0  0
 18 27  1  0  0  0  0
 25 36  1  0  0  0  0
 25 37  1  0  0  0  0
 48 50  1  0  0  0  0
  7 12  1  0  0  0  0
 38 43  1  0  0  0  0
 17 26  1  0  0  0  0
M  END
$$$$

  -OEChem-05262214473D

 53 52  0     1  0  0  0  0  0999 V2000
   -1.0338   -5.6785    0.1476 C   0  0  0  0  0  0  0  0  0  0  0  0
   -2.0514   -5.7797    0.8227 O   0  0  0  0  0  0  0  0  0  0  0  0
   -0.6558   -6.7819   -0.7841 C   0  0  0  0  0  0  0  0  0  0  0  0
   -0.0111   -7.5354   -0.3038 H   0  0  0  0  0  0  0  0  0  0  0  0
   -1.5317   -7.3401   -1.1520 H   0  0  0  0  0  0  0  0  0  0  0  0
   -0.1109   -6.4687   -1.6890 H   0  0  0  0  0  0  0  0  0  0  0  0
   -0.1543   -4.6083    0.1480 N   0  0  0  0  0  0  0  0  0  0  0  0
   -0.3302   -3.4398    0.9696 C   0  0  2  0  0  0  0  0  0  0  0  0
    0.2328   -2.2439    0.2131 C   0  0  0  0  0  0  0  0  0  0  0  0
    1.2097   -2.3192   -0.5294 O   0  0  0  0  0  0  0  0  0  0  0  0
    0.3557   -3.6024    2.3171 C   0  0  0  0  0  0  0  0  0  0  0  0
    0.6584   -4.6506   -0.4643 H   0  0  0  0  0  0  0  0  0  0  0  0
   -1.4091   -3.3101    1.1082 H   0  0  0  0  0  0  0  0  0  0  0  0
    1.4375   -3.7336    2.1985 H   0  0  0  0  0  0  0  0  0  0  0  0
    0.1969   -2.7243    2.9517 H   0  0  0  0  0  0  0  0  0  0  0  0
   -0.0294   -4.4803    2.8470 H   0  0  0  0  0  0  0  0  0  0  0  0
   -0.4616   -1.0893    0.5050 N   0  0  0  0  0  0  0  0  0  0  0  0
   -0.0884    0.2050   -0.0621 C   0  0  2  0  0  0  0  0  0  0  0  0
   -0.8498    0.3717   -1.3740 C   0  0  0  0  0  0  0  0  0  0  0  0
   -2.0529    0.6203   -1.4236 O   0  0  0  0  0  0  0  0  0  0  0  0
    1.4204    0.3094   -0.3305 C   0  0  0  0  0  0  0  0  0  0  0  0
    2.2650    0.3353    0.9477 C   0  0  0  0  0  0  0  0  0  0  0  0
    3.7559    0.4647    0.6240 C   0  0  0  0  0  0  0  0  0  0  0  0
    4.5995    0.4658    1.8977 C   0  0  0  0  0  0  0  0  0  0  0  0
    6.0159    0.5659    1.5668 N   0  0  0  0  0  0  0  0  0  0  0  0
   -1.2794   -1.1113    1.0935 H   0  0  0  0  0  0  0  0  0  0  0  0
   -0.3983    0.9931    0.6347 H   0  0  0  0  0  0  0  0  0  0  0  0
    1.6207    1.2231   -0.9055 H   0  0  0  0  0  0  0  0  0  0  0  0
    1.7452   -0.5239   -0.9683 H   0  0  0  0  0  0  0  0  0  0  0  0
    2.1030   -0.5810    1.5263 H   0  0  0  0  0  0  0  0  0  0  0  0
    1.9525    1.1777    1.5763 H   0  0  0  0  0  0  0  0  0  0  0  0
    4.0613   -0.3661   -0.0245 H   0  0  0  0  0  0  0  0  0  0  0  0
    3.9294    1.3923    0.0638 H   0  0  0  0  0  0  0  0  0  0  0  0
    4.4244   -0.4524    2.4691 H   0  0  0  0  0  0  0  0  0  0  0  0
    4.3208    1.3128    2.5335 H   0  0  0  0  0  0  0  0  0  0  0  0
    6.1055    0.5882    0.5778 H   0  0  0  0  0  0  0  0  0  0  0  0
    6.3723    1.4016    1.9684 H   0  0  0  0  0  0  0  0  0  0  0  0
   -0.0314    0.1880   -2.4800 N   0  0  0  0  0  0  0  0  0  0  0  0
   -0.5091    0.2696   -3.8416 C   0  0  2  0  0  0  0  0  0  0  0  0
    0.3067   -0.7012   -4.6852 C   0  0  0  0  0  0  0  0  0  0  0  0
    1.4944   -0.9384   -4.4746 O   0  0  0  0  0  0  0  0  0  0  0  0
   -0.3981    1.6863   -4.3831 C   0  0  0  0  0  0  0  0  0  0  0  0
    0.9560   -0.0054   -2.3418 H   0  0  0  0  0  0  0  0  0  0  0  0
   -1.5573   -0.0488   -3.8286 H   0  0  0  0  0  0  0  0  0  0  0  0
    0.6450    2.0226   -4.4037 H   0  0  0  0  0  0  0  0  0  0  0  0
   -0.7868    1.7522   -5.4047 H   0  0  0  0  0  0  0  0  0  0  0  0
   -0.9612    2.3877   -3.7580 H   0  0  0  0  0  0  0  0  0  0  0  0
   -0.4359   -1.2386   -5.7272 N   0  0  0  0  0  0  0  0  0  0  0  0
    0.1252   -2.1537   -6.6935 C   0  0  0  0  0  0  0  0  0  0  0  0
   -1.4244   -1.0175   -5.8023 H   0  0  0  0  0  0  0  0  0  0  0  0
    0.4936   -1.5893   -7.5628 H   0  0  0  0  0  0  0  0  0  0  0  0
    0.9589   -2.7055   -6.2347 H   0  0  0  0  0  0  0  0  0  0  0  0
   -0.6494   -2.8636   -7.0189 H   0  0  0  0  0  0  0  0  0  0  0  0
  1  3  1  0  0  0  0
  1  7  1  0  0  0  0
  1  2  2  0  0  0  0
 39 40  1  0  0  0  0
 40 48  1  0  0  0  0
 40 41  2  0  0  0  0
  8  9  1  0  0  0  0
  9 17  1  0  0  0  0
  9 10  2  0  0  0  0
 18 19  1  0  0  0  0
 19 38  1  0  0  0  0
 19 20  2  0  0  0  0
 39 42  1  0  0  0  0
  8 11  1  0  0  0  0
 48 49  1  0  0  0  0
 22 23  1  0  0  0  0
 21 22  1  0  0  0  0
 23 24  1  0  0  0  0
 18 21  1  0  0  0  0
 24 25  1  0  0  0  0
 38 39  1  0  0  0  0
  7  8  1  0  0  0  0
 17 18  1  0  0  0  0
  3  4  1  0  0  0  0
  3  5  1  0  0  0  0
  3  6  1  0  0  0  0
 42 45  1  0  0  0  0
 42 46  1  0  0  0  0
 42 47  1  0  0  0  0
 11 14  1  0  0  0  0
 11 15  1  0  0  0  0
 11 16  1  0  0  0  0
 49 51  1  0  0  0  0
 49 52  1  0  0  0  0
 49 53  1  0  0  0  0
 22 30  1  0  0  0  0
 22 31  1  0  0  0  0
 23 32  1  0  0  0  0
 23 33  1  0  0  0  0
 21 28  1  0  0  0  0
 21 29  1  0  0  0  0
 24 34  1  0  0  0  0
 24 35  1  0  0  0  0
 39 44  1  0  0  0  0
  8 13  1  0  0  0  0
 18 27  1  0  0  0  0
 25 36  1  0  0  0  0
 25 37  1  0  0  0  0
 48 50  1  0  0  0  0
  7 12  1  0  0  0  0
 38 43  1  0  0  0  0
 17 26  1  0  0  0  0
M  END
$$$$

  -OEChem-05262214473D

 53 52  0     1  0  0  0  0  0999 V2000
   -1.0338   -5.6785    0.1476 C   0  0  0  0  0  0  0  0  0  0  0  0
   -2.0514   -5.7797    0.8227 O   0  0  0  0  0  0  0  0  0  0  0  0
   -0.6558   -6.7819   -0.7841 C   0  0  0  0  0  0  0  0  0  0  0  0
   -0.0111   -7.5354   -0.3038 H   0  0  0  0  0  0  0  0  0  0  0  0
   -1.5317   -7.3401   -1.1520 H   0  0  0  0  0  0  0  0  0  0  0  0
   -0.1109   -6.4687   -1.6890 H   0  0  0  0  0  0  0  0  0  0  0  0
   -0.1543   -4.6083    0.1480 N   0  0  0  0  0  0  0  0  0  0  0  0
   -0.3302   -3.4398    0.9696 C   0  0  2  0  0  0  0  0  0  0  0  0
    0.2328   -2.2439    0.2131 C   0  0  0  0  0  0  0  0  0  0  0  0
    1.2097   -2.3192   -0.5294 O   0  0  0  0  0  0  0  0  0  0  0  0
    0.3557   -3.6024    2.3171 C   0  0  0  0  0  0  0  0  0  0  0  0
    0.6584   -4.6506   -0.4643 H   0  0  0  0  0  0  0  0  0  0  0  0
   -1.4091   -3.3101    1.1082 H   0  0  0  0  0  0  0  0  0  0  0  0
    1.4375   -3.7336    2.1985 H   0  0  0  0  0  0  0  0  0  0  0  0
    0.1969   -2.7243    2.9517 H   0  0  0  0  0  0  0  0  0  0  0  0
   -0.0294   -4.4803    2.8470 H   0  0  0  0  0  0  0  0  0  0  0  0
   -0.4616   -1.0893    0.5050 N   0  0  0  0  0  0  0  0  0  0  0  0
   -0.0884    0.2050   -0.0621 C   0  0  2  0  0  0  0  0  0  0  0  0
   -0.8498    0.3717   -1.3740 C   0  0  0  0  0  0  0  0  0  0  0  0
   -1.9694    0.8756   -1.4396 O   0  0  0  0  0  0  0  0  0  0  0  0
    1.4204    0.3094   -0.3305 C   0  0  0  0  0  0  0  0  0  0  0  0
    2.2650    0.3353    0.9477 C   0  0  0  0  0  0  0  0  0  0  0  0
    3.7559    0.4647    0.6240 C   0  0  0  0  0  0  0  0  0  0  0  0
    4.5995    0.4658    1.8977 C   0  0  0  0  0  0  0  0  0  0  0  0
    6.0159    0.5659    1.5668 N   0  0  0  0  0  0  0  0  0  0  0  0
   -1.2794   -1.1113    1.0935 H   0  0  0  0  0  0  0  0  0  0  0  0
   -0.3983    0.9931    0.6347 H   0  0  0  0  0  0  0  0  0  0  0  0
    1.6207    1.2231   -0.9055 H   0  0  0  0  0  0  0  0  0  0  0  0
    1.7452   -0.5239   -0.9683 H   0  0  0  0  0  0  0  0  0  0  0  0
    2.1030   -0.5810    1.5263 H   0  0  0  0  0  0  0  0  0  0  0  0
    1.9525    1.1777    1.5763 H   0  0  0  0  0  0  0  0  0  0  0  0
    4.0613   -0.3661   -0.0245 H   0  0  0  0  0  0  0  0  0  0  0  0
    3.9294    1.3923    0.0638 H   0  0  0  0  0  0  0  0  0  0  0  0
    4.4244   -0.4524    2.4691 H   0  0  0  0  0  0  0  0  0  0  0  0
    4.3208    1.3128    2.5335 H   0  0  0  0  0  0  0  0  0  0  0  0
    6.1055    0.5882    0.5778 H   0  0  0  0  0  0  0  0  0  0  0  0
    6.3723    1.4016    1.9684 H   0  0  0  0  0  0  0  0  0  0  0  0
   -0.1403   -0.1287   -2.4571 N   0  0  0  0  0  0  0  0  0  0  0  0
   -0.6462   -0.1142   -3.8108 C   0  0  2  0  0  0  0  0  0  0  0  0
   -0.1016   -1.3415   -4.5295 C   0  0  0  0  0  0  0  0  0  0  0  0
    1.0123   -1.8107   -4.3057 O   0  0  0  0  0  0  0  0  0  0  0  0
   -0.2486    1.1617   -4.5365 C   0  0  0  0  0  0  0  0  0  0  0  0
    0.7851   -0.5197   -2.3080 H   0  0  0  0  0  0  0  0  0  0  0  0
   -1.7372   -0.1850   -3.7415 H   0  0  0  0  0  0  0  0  0  0  0  0
    0.8411    1.2501   -4.6156 H   0  0  0  0  0  0  0  0  0  0  0  0
   -0.6567    1.1839   -5.5524 H   0  0  0  0  0  0  0  0  0  0  0  0
   -0.6158    2.0446   -4.0021 H   0  0  0  0  0  0  0  0  0  0  0  0
   -0.9885   -1.8256   -5.4810 N   0  0  0  0  0  0  0  0  0  0  0  0
   -0.6851   -2.9574   -6.3253 C   0  0  0  0  0  0  0  0  0  0  0  0
   -1.9062   -1.3995   -5.5712 H   0  0  0  0  0  0  0  0  0  0  0  0
   -0.2389   -2.6041   -7.2666 H   0  0  0  0  0  0  0  0  0  0  0  0
    0.0251   -3.6199   -5.8089 H   0  0  0  0  0  0  0  0  0  0  0  0
   -1.6106   -3.5106   -6.5432 H   0  0  0  0  0  0  0  0  0  0  0  0
  1  3  1  0  0  0  0
  1  7  1  0  0  0  0
  1  2  2  0  0  0  0
 39 40  1  0  0  0  0
 40 48  1  0  0  0  0
 40 41  2  0  0  0  0
  8  9  1  0  0  0  0
  9 17  1  0  0  0  0
  9 10  2  0  0  0  0
 18 19  1  0  0  0  0
 19 38  1  0  0  0  0
 19 20  2  0  0  0  0
 39 42  1  0  0  0  0
  8 11  1  0  0  0  0
 48 49  1  0  0  0  0
 22 23  1  0  0  0  0
 21 22  1  0  0  0  0
 23 24  1  0  0  0  0
 18 21  1  0  0  0  0
 24 25  1  0  0  0  0
 38 39  1  0  0  0  0
  7  8  1  0  0  0  0
 17 18  1  0  0  0  0
  3  4  1  0  0  0  0
  3  5  1  0  0  0  0
  3  6  1  0  0  0  0
 42 45  1  0  0  0  0
 42 46  1  0  0  0  0
 42 47  1  0  0  0  0
 11 14  1  0  0  0  0
 11 15  1  0  0  0  0
 11 16  1  0  0  0  0
 49 51  1  0  0  0  0
 49 52  1  0  0  0  0
 49 53  1  0  0  0  0
 22 30  1  0  0  0  0
 22 31  1  0  0  0  0
 23 32  1  0  0  0  0
 23 33  1  0  0  0  0
 21 28  1  0  0  0  0
 21 29  1  0  0  0  0
 24 34  1  0  0  0  0
 24 35  1  0  0  0  0
 39 44  1  0  0  0  0
  8 13  1  0  0  0  0
 18 27  1  0  0  0  0
 25 36  1  0  0  0  0
 25 37  1  0  0  0  0
 48 50  1  0  0  0  0
  7 12  1  0  0  0  0
 38 43  1  0  0  0  0
 17 26  1  0  0  0  0
M  END
$$$$

  -OEChem-05262214473D

 53 52  0     1  0  0  0  0  0999 V2000
   -1.0338   -5.6785    0.1476 C   0  0  0  0  0  0  0  0  0  0  0  0
   -2.0514   -5.7797    0.8227 O   0  0  0  0  0  0  0  0  0  0  0  0
   -0.6558   -6.7819   -0.7841 C   0  0  0  0  0  0  0  0  0  0  0  0
   -0.0111   -7.5354   -0.3038 H   0  0  0  0  0  0  0  0  0  0  0  0
   -1.5317   -7.3401   -1.1520 H   0  0  0  0  0  0  0  0  0  0  0  0
   -0.1109   -6.4687   -1.6890 H   0  0  0  0  0  0  0  0  0  0  0  0
   -0.1543   -4.6083    0.1480 N   0  0  0  0  0  0  0  0  0  0  0  0
   -0.3302   -3.4398    0.9696 C   0  0  2  0  0  0  0  0  0  0  0  0
    0.2328   -2.2439    0.2131 C   0  0  0  0  0  0  0  0  0  0  0  0
    1.2097   -2.3192   -0.5294 O   0  0  0  0  0  0  0  0  0  0  0  0
    0.3557   -3.6024    2.3171 C   0  0  0  0  0  0  0  0  0  0  0  0
    0.6584   -4.6506   -0.4643 H   0  0  0  0  0  0  0  0  0  0  0  0
   -1.4091   -3.3101    1.1082 H   0  0  0  0  0  0  0  0  0  0  0  0
    1.4375   -3.7336    2.1985 H   0  0  0  0  0  0  0  0  0  0  0  0
    0.1969   -2.7243    2.9517 H   0  0  0  0  0  0  0  0  0  0  0  0
   -0.0294   -4.4803    2.8470 H   0  0  0  0  0  0  0  0  0  0  0  0
   -0.4616   -1.0893    0.5050 N   0  0  0  0  0  0  0  0  0  0  0  0
   -0.0884    0.2050   -0.0621 C   0  0  2  0  0  0  0  0  0  0  0  0
   -0.8498    0.3717   -1.3740 C   0  0  0  0  0  0  0  0  0  0  0  0
   -1.8323    1.1016   -1.4904 O   0  0  0  0  0  0  0  0  0  0  0  0
    1.4204    0.3094   -0.3305 C   0  0  0  0  0  0  0  0  0  0  0  0
    2.2650    0.3353    0.9477 C   0  0  0  0  0  0  0  0  0  0  0  0
    3.7559    0.4647    0.6240 C   0  0  0  0  0  0  0  0  0  0  0  0
    4.5995    0.4658    1.8977 C   0  0  0  0  0  0  0  0  0  0  0  0
    6.0159    0.5659    1.5668 N   0  0  0  0  0  0  0  0  0  0  0  0
   -1.2794   -1.1113    1.0935 H   0  0  0  0  0  0  0  0  0  0  0  0
   -0.3983    0.9931    0.6347 H   0  0  0  0  0  0  0  0  0  0  0  0
    1.6207    1.2231   -0.9055 H   0  0  0  0  0  0  0  0  0  0  0  0
    1.7452   -0.5239   -0.9683 H   0  0  0  0  0  0  0  0  0  0  0  0
    2.1030   -0.5810    1.5263 H   0  0  0  0  0  0  0  0  0  0  0  0
    1.9525    1.1777    1.5763 H   0  0  0  0  0  0  0  0  0  0  0  0
    4.0613   -0.3661   -0.0245 H   0  0  0  0  0  0  0  0  0  0  0  0
    3.9294    1.3923    0.0638 H   0  0  0  0  0  0  0  0  0  0  0  0
    4.4244   -0.4524    2.4691 H   0  0  0  0  0  0  0  0  0  0  0  0
    4.3208    1.3128    2.5335 H   0  0  0  0  0  0  0  0  0  0  0  0
    6.1055    0.5882    0.5778 H   0  0  0  0  0  0  0  0  0  0  0  0
    6.3723    1.4016    1.9684 H   0  0  0  0  0  0  0  0  0  0  0  0
   -0.3154   -0.4074   -2.3909 N   0  0  0  0  0  0  0  0  0  0  0  0
   -0.8632   -0.4505   -3.7276 C   0  0  2  0  0  0  0  0  0  0  0  0
   -0.6341   -1.8492   -4.2849 C   0  0  0  0  0  0  0  0  0  0  0  0
    0.3574   -2.5243   -4.0162 O   0  0  0  0  0  0  0  0  0  0  0  0
   -0.2253    0.6019   -4.6211 C   0  0  0  0  0  0  0  0  0  0  0  0
    0.5065   -0.9742   -2.2040 H   0  0  0  0  0  0  0  0  0  0  0  0
   -1.9389   -0.2654   -3.6346 H   0  0  0  0  0  0  0  0  0  0  0  0
    0.8526    0.4329   -4.7262 H   0  0  0  0  0  0  0  0  0  0  0  0
   -0.6616    0.5870   -5.6254 H   0  0  0  0  0  0  0  0  0  0  0  0
   -0.3654    1.6047   -4.2034 H   0  0  0  0  0  0  0  0  0  0  0  0
   -1.6460   -2.2377   -5.1518 N   0  0  0  0  0  0  0  0  0  0  0  0
   -1.6363   -3.5059   -5.8429 C   0  0  0  0  0  0  0  0  0  0  0  0
   -2.4500   -1.6315   -5.2850 H   0  0  0  0  0  0  0  0  0  0  0  0
   -1.1639   -3.3832   -6.8287 H   0  0  0  0  0  0  0  0  0  0  0  0
   -1.0682   -4.2404   -5.2532 H   0  0  0  0  0  0  0  0  0  0  0  0
   -2.6694   -3.8603   -5.9731 H   0  0  0  0  0  0  0  0  0  0  0  0
  1  3  1  0  0  0  0
  1  7  1  0  0  0  0
  1  2  2  0  0  0  0
 39 40  1  0  0  0  0
 40 48  1  0  0  0  0
 40 41  2  0  0  0  0
  8  9  1  0  0  0  0
  9 17  1  0  0  0  0
  9 10  2  0  0  0  0
 18 19  1  0  0  0  0
 19 38  1  0  0  0  0
 19 20  2  0  0  0  0
 39 42  1  0  0  0  0
  8 11  1  0  0  0  0
 48 49  1  0  0  0  0
 22 23  1  0  0  0  0
 21 22  1  0  0  0  0
 23 24  1  0  0  0  0
 18 21  1  0  0  0  0
 24 25  1  0  0  0  0
 38 39  1  0  0  0  0
  7  8  1  0  0  0  0
 17 18  1  0  0  0  0
  3  4  1  0  0  0  0
  3  5  1  0  0  0  0
  3  6  1  0  0  0  0
 42 45  1  0  0  0  0
 42 46  1  0  0  0  0
 42 47  1  0  0  0  0
 11 14  1  0  0  0  0
 11 15  1  0  0  0  0
 11 16  1  0  0  0  0
 49 51  1  0  0  0  0
 49 52  1  0  0  0  0
 49 53  1  0  0  0  0
 22 30  1  0  0  0  0
 22 31  1  0  0  0  0
 23 32  1  0  0  0  0
 23 33  1  0  0  0  0
 21 28  1  0  0  0  0
 21 29  1  0  0  0  0
 24 34  1  0  0  0  0
 24 35  1  0  0  0  0
 39 44  1  0  0  0  0
  8 13  1  0  0  0  0
 18 27  1  0  0  0  0
 25 36  1  0  0  0  0
 25 37  1  0  0  0  0
 48 50  1  0  0  0  0
  7 12  1  0  0  0  0
 38 43  1  0  0  0  0
 17 26  1  0  0  0  0
M  END
$$$$

  -OEChem-05262214473D

 53 52  0     1  0  0  0  0  0999 V2000
   -1.0338   -5.6785    0.1476 C   0  0  0  0  0  0  0  0  0  0  0  0
   -2.0514   -5.7797    0.8227 O   0  0  0  0  0  0  0  0  0  0  0  0
   -0.6558   -6.7819   -0.7841 C   0  0  0  0  0  0  0  0  0  0  0  0
   -0.0111   -7.5354   -0.3038 H   0  0  0  0  0  0  0  0  0  0  0  0
   -1.5317   -7.3401   -1.1520 H   0  0  0  0  0  0  0  0  0  0  0  0
   -0.1109   -6.4687   -1.6890 H   0  0  0  0  0  0  0  0  0  0  0  0
   -0.1543   -4.6083    0.1480 N   0  0  0  0  0  0  0  0  0  0  0  0
   -0.3302   -3.4398    0.9696 C   0  0  2  0  0  0  0  0  0  0  0  0
    0.2328   -2.2439    0.2131 C   0  0  0  0  0  0  0  0  0  0  0  0
    1.2097   -2.3192   -0.5294 O   0  0  0  0  0  0  0  0  0  0  0  0
    0.3557   -3.6024    2.3171 C   0  0  0  0  0  0  0  0  0  0  0  0
    0.6584   -4.6506   -0.4643 H   0  0  0  0  0  0  0  0  0  0  0  0
   -1.4091   -3.3101    1.1082 H   0  0  0  0  0  0  0  0  0  0  0  0
    1.4375   -3.7336    2.1985 H   0  0  0  0  0  0  0  0  0  0  0  0
    0.1969   -2.7243    2.9517 H   0  0  0  0  0  0  0  0  0  0  0  0
   -0.0294   -4.4803    2.8470 H   0  0  0  0  0  0  0  0  0  0  0  0
   -0.4616   -1.0893    0.5050 N   0  0  0  0  0  0  0  0  0  0  0  0
   -0.0884    0.2050   -0.0621 C   0  0  2  0  0  0  0  0  0  0  0  0
   -0.8498    0.3717   -1.3740 C   0  0  0  0  0  0  0  0  0  0  0  0
   -1.6512    1.2828   -1.5726 O   0  0  0  0  0  0  0  0  0  0  0  0
    1.4204    0.3094   -0.3305 C   0  0  0  0  0  0  0  0  0  0  0  0
    2.2650    0.3353    0.9477 C   0  0  0  0  0  0  0  0  0  0  0  0
    3.7559    0.4647    0.6240 C   0  0  0  0  0  0  0  0  0  0  0  0
    4.5995    0.4658    1.8977 C   0  0  0  0  0  0  0  0  0  0  0  0
    6.0159    0.5659    1.5668 N   0  0  0  0  0  0  0  0  0  0  0  0
   -1.2794   -1.1113    1.0935 H   0  0  0  0  0  0  0  0  0  0  0  0
   -0.3983    0.9931    0.6347 H   0  0  0  0  0  0  0  0  0  0  0  0
    1.6207    1.2231   -0.9055 H   0  0  0  0  0  0  0  0  0  0  0  0
    1.7452   -0.5239   -0.9683 H   0  0  0  0  0  0  0  0  0  0  0  0
    2.1030   -0.5810    1.5263 H   0  0  0  0  0  0  0  0  0  0  0  0
    1.9525    1.1777    1.5763 H   0  0  0  0  0  0  0  0  0  0  0  0
    4.0613   -0.3661   -0.0245 H   0  0  0  0  0  0  0  0  0  0  0  0
    3.9294    1.3923    0.0638 H   0  0  0  0  0  0  0  0  0  0  0  0
    4.4244   -0.4524    2.4691 H   0  0  0  0  0  0  0  0  0  0  0  0
    4.3208    1.3128    2.5335 H   0  0  0  0  0  0  0  0  0  0  0  0
    6.1055    0.5882    0.5778 H   0  0  0  0  0  0  0  0  0  0  0  0
    6.3723    1.4016    1.9684 H   0  0  0  0  0  0  0  0  0  0  0  0
   -0.5446   -0.6292   -2.2860 N   0  0  0  0  0  0  0  0  0  0  0  0
   -1.1452   -0.7162   -3.5977 C   0  0  2  0  0  0  0  0  0  0  0  0
   -1.2545   -2.1894   -3.9681 C   0  0  0  0  0  0  0  0  0  0  0  0
   -0.4259   -3.0304   -3.6259 O   0  0  0  0  0  0  0  0  0  0  0  0
   -0.3298    0.0451   -4.6313 C   0  0  0  0  0  0  0  0  0  0  0  0
    0.1392   -1.3377   -2.0370 H   0  0  0  0  0  0  0  0  0  0  0  0
   -2.1486   -0.2843   -3.5154 H   0  0  0  0  0  0  0  0  0  0  0  0
    0.6787   -0.3733   -4.7277 H   0  0  0  0  0  0  0  0  0  0  0  0
   -0.8013    0.0021   -5.6186 H   0  0  0  0  0  0  0  0  0  0  0  0
   -0.2270    1.0982   -4.3480 H   0  0  0  0  0  0  0  0  0  0  0  0
   -2.3634   -2.4470   -4.7620 N   0  0  0  0  0  0  0  0  0  0  0  0
   -2.6634   -3.7617   -5.2793 C   0  0  0  0  0  0  0  0  0  0  0  0
   -3.0188   -1.6976   -4.9633 H   0  0  0  0  0  0  0  0  0  0  0  0
   -2.2183   -3.8733   -6.2790 H   0  0  0  0  0  0  0  0  0  0  0  0
   -2.2467   -4.5247   -4.6053 H   0  0  0  0  0  0  0  0  0  0  0  0
   -3.7539   -3.8888   -5.3473 H   0  0  0  0  0  0  0  0  0  0  0  0
  1  3  1  0  0  0  0
  1  7  1  0  0  0  0
  1  2  2  0  0  0  0
 39 40  1  0  0  0  0
 40 48  1  0  0  0  0
 40 41  2  0  0  0  0
  8  9  1  0  0  0  0
  9 17  1  0  0  0  0
  9 10  2  0  0  0  0
 18 19  1  0  0  0  0
 19 38  1  0  0  0  0
 19 20  2  0  0  0  0
 39 42  1  0  0  0  0
  8 11  1  0  0  0  0
 48 49  1  0  0  0  0
 22 23  1  0  0  0  0
 21 22  1  0  0  0  0
 23 24  1  0  0  0  0
 18 21  1  0  0  0  0
 24 25  1  0  0  0  0
 38 39  1  0  0  0  0
  7  8  1  0  0  0  0
 17 18  1  0  0  0  0
  3  4  1  0  0  0  0
  3  5  1  0  0  0  0
  3  6  1  0  0  0  0
 42 45  1  0  0  0  0
 42 46  1  0  0  0  0
 42 47  1  0  0  0  0
 11 14  1  0  0  0  0
 11 15  1  0  0  0  0
 11 16  1  0  0  0  0
 49 51  1  0  0  0  0
 49 52  1  0  0  0  0
 49 53  1  0  0  0  0
 22 30  1  0  0  0  0
 22 31  1  0  0  0  0
 23 32  1  0  0  0  0
 23 33  1  0  0  0  0
 21 28  1  0  0  0  0
 21 29  1  0  0  0  0
 24 34  1  0  0  0  0
 24 35  1  0  0  0  0
 39 44  1  0  0  0  0
  8 13  1  0  0  0  0
 18 27  1  0  0  0  0
 25 36  1  0  0  0  0
 25 37  1  0  0  0  0
 48 50  1  0  0  0  0
  7 12  1  0  0  0  0
 38 43  1  0  0  0  0
 17 26  1  0  0  0  0
M  END
$$$$

  -OEChem-05262214473D

 53 52  0     1  0  0  0  0  0999 V2000
   -1.0338   -5.6785    0.1476 C   0  0  0  0  0  0  0  0  0  0  0  0
   -2.0514   -5.7797    0.8227 O   0  0  0  0  0  0  0  0  0  0  0  0
   -0.6558   -6.7819   -0.7841 C   0  0  0  0  0  0  0  0  0  0  0  0
   -0.0111   -7.5354   -0.3038 H   0  0  0  0  0  0  0  0  0  0  0  0
   -1.5317   -7.3401   -1.1520 H   0  0  0  0  0  0  0  0  0  0  0  0
   -0.1109   -6.4687   -1.6890 H   0  0  0  0  0  0  0  0  0  0  0  0
   -0.1543   -4.6083    0.1480 N   0  0  0  0  0  0  0  0  0  0  0  0
   -0.3302   -3.4398    0.9696 C   0  0  2  0  0  0  0  0  0  0  0  0
    0.2328   -2.2439    0.2131 C   0  0  0  0  0  0  0  0  0  0  0  0
    1.2097   -2.3192   -0.5294 O   0  0  0  0  0  0  0  0  0  0  0  0
    0.3557   -3.6024    2.3171 C   0  0  0  0  0  0  0  0  0  0  0  0
    0.6584   -4.6506   -0.4643 H   0  0  0  0  0  0  0  0  0  0  0  0
   -1.4091   -3.3101    1.1082 H   0  0  0  0  0  0  0  0  0  0  0  0
    1.4375   -3.7336    2.1985 H   0  0  0  0  0  0  0  0  0  0  0  0
    0.1969   -2.7243    2.9517 H   0  0  0  0  0  0  0  0  0  0  0  0
   -0.0294   -4.4803    2.8470 H   0  0  0  0  0  0  0  0  0  0  0  0
   -0.4616   -1.0893    0.5050 N   0  0  0  0  0  0  0  0  0  0  0  0
   -0.0884    0.2050   -0.0621 C   0  0  2  0  0  0  0  0  0  0  0  0
   -0.8498    0.3717   -1.3740 C   0  0  0  0  0  0  0  0  0  0  0  0
   -1.4382    1.4069   -1.6804 O   0  0  0  0  0  0  0  0  0  0  0  0
    1.4204    0.3094   -0.3305 C   0  0  0  0  0  0  0  0  0  0  0  0
    2.2650    0.3353    0.9477 C   0  0  0  0  0  0  0  0  0  0  0  0
    3.7559    0.4647    0.6240 C   0  0  0  0  0  0  0  0  0  0  0  0
    4.5995    0.4658    1.8977 C   0  0  0  0  0  0  0  0  0  0  0  0
    6.0159    0.5659    1.5668 N   0  0  0  0  0  0  0  0  0  0  0  0
   -1.2794   -1.1113    1.0935 H   0  0  0  0  0  0  0  0  0  0  0  0
   -0.3983    0.9931    0.6347 H   0  0  0  0  0  0  0  0  0  0  0  0
    1.6207    1.2231   -0.9055 H   0  0  0  0  0  0  0  0  0  0  0  0
    1.7452   -0.5239   -0.9683 H   0  0  0  0  0  0  0  0  0  0  0  0
    2.1030   -0.5810    1.5263 H   0  0  0  0  0  0  0  0  0  0  0  0
    1.9525    1.1777    1.5763 H   0  0  0  0  0  0  0  0  0  0  0  0
    4.0613   -0.3661   -0.0245 H   0  0  0  0  0  0  0  0  0  0  0  0
    3.9294    1.3923    0.0638 H   0  0  0  0  0  0  0  0  0  0  0  0
    4.4244   -0.4524    2.4691 H   0  0  0  0  0  0  0  0  0  0  0  0
    4.3208    1.3128    2.5335 H   0  0  0  0  0  0  0  0  0  0  0  0
    6.1055    0.5882    0.5778 H   0  0  0  0  0  0  0  0  0  0  0  0
    6.3723    1.4016    1.9684 H   0  0  0  0  0  0  0  0  0  0  0  0
   -0.8124   -0.7788   -2.1496 N   0  0  0  0  0  0  0  0  0  0  0  0
   -1.4731   -0.8934   -3.4299 C   0  0  2  0  0  0  0  0  0  0  0  0
   -1.9206   -2.3391   -3.6005 C   0  0  0  0  0  0  0  0  0  0  0  0
   -1.2840   -3.2946   -3.1614 O   0  0  0  0  0  0  0  0  0  0  0  0
   -0.5549   -0.4709   -4.5662 C   0  0  0  0  0  0  0  0  0  0  0  0
   -0.2917   -1.5856   -1.8184 H   0  0  0  0  0  0  0  0  0  0  0  0
   -2.3519   -0.2405   -3.3918 H   0  0  0  0  0  0  0  0  0  0  0  0
    0.3314   -1.1136   -4.6201 H   0  0  0  0  0  0  0  0  0  0  0  0
   -1.0661   -0.5310   -5.5326 H   0  0  0  0  0  0  0  0  0  0  0  0
   -0.2103    0.5594   -4.4262 H   0  0  0  0  0  0  0  0  0  0  0  0
   -3.0919   -2.4393   -4.3381 N   0  0  0  0  0  0  0  0  0  0  0  0
   -3.6965   -3.7075   -4.6727 C   0  0  0  0  0  0  0  0  0  0  0  0
   -3.5738   -1.5933   -4.6279 H   0  0  0  0  0  0  0  0  0  0  0  0
   -3.3303   -4.0411   -5.6549 H   0  0  0  0  0  0  0  0  0  0  0  0
   -3.4299   -4.4534   -3.9095 H   0  0  0  0  0  0  0  0  0  0  0  0
   -4.7901   -3.5942   -4.7084 H   0  0  0  0  0  0  0  0  0  0  0  0
  1  3  1  0  0  0  0
  1  7  1  0  0  0  0
  1  2  2  0  0  0  0
 39 40  1  0  0  0  0
 40 48  1  0  0  0  0
 40 41  2  0  0  0  0
  8  9  1  0  0  0  0
  9 17  1  0  0  0  0
  9 10  2  0  0  0  0
 18 19  1  0  0  0  0
 19 38  1  0  0  0  0
 19 20  2  0  0  0  0
 39 42  1  0  0  0  0
  8 11  1  0  0  0  0
 48 49  1  0  0  0  0
 22 23  1  0  0  0  0
 21 22  1  0  0  0  0
 23 24  1  0  0  0  0
 18 21  1  0  0  0  0
 24 25  1  0  0  0  0
 38 39  1  0  0  0  0
  7  8  1  0  0  0  0
 17 18  1  0  0  0  0
  3  4  1  0  0  0  0
  3  5  1  0  0  0  0
  3  6  1  0  0  0  0
 42 45  1  0  0  0  0
 42 46  1  0  0  0  0
 42 47  1  0  0  0  0
 11 14  1  0  0  0  0
 11 15  1  0  0  0  0
 11 16  1  0  0  0  0
 49 51  1  0  0  0  0
 49 52  1  0  0  0  0
 49 53  1  0  0  0  0
 22 30  1  0  0  0  0
 22 31  1  0  0  0  0
 23 32  1  0  0  0  0
 23 33  1  0  0  0  0
 21 28  1  0  0  0  0
 21 29  1  0  0  0  0
 24 34  1  0  0  0  0
 24 35  1  0  0  0  0
 39 44  1  0  0  0  0
  8 13  1  0  0  0  0
 18 27  1  0  0  0  0
 25 36  1  0  0  0  0
 25 37  1  0  0  0  0
 48 50  1  0  0  0  0
  7 12  1  0  0  0  0
 38 43  1  0  0  0  0
 17 26  1  0  0  0  0
M  END
$$$$

  -OEChem-05262214473D

 53 52  0     1  0  0  0  0  0999 V2000
   -1.0338   -5.6785    0.1476 C   0  0  0  0  0  0  0  0  0  0  0  0
   -2.0514   -5.7797    0.8227 O   0  0  0  0  0  0  0  0  0  0  0  0
   -0.6558   -6.7819   -0.7841 C   0  0  0  0  0  0  0  0  0  0  0  0
   -0.0111   -7.5354   -0.3038 H   0  0  0  0  0  0  0  0  0  0  0  0
   -1.5317   -7.3401   -1.1520 H   0  0  0  0  0  0  0  0  0  0  0  0
   -0.1109   -6.4687   -1.6890 H   0  0  0  0  0  0  0  0  0  0  0  0
   -0.1543   -4.6083    0.1480 N   0  0  0  0  0  0  0  0  0  0  0  0
   -0.3302   -3.4398    0.9696 C   0  0  2  0  0  0  0  0  0  0  0  0
    0.2328   -2.2439    0.2131 C   0  0  0  0  0  0  0  0  0  0  0  0
    1.2097   -2.3192   -0.5294 O   0  0  0  0  0  0  0  0  0  0  0  0
    0.3557   -3.6024    2.3171 C   0  0  0  0  0  0  0  0  0  0  0  0
    0.6584   -4.6506   -0.4643 H   0  0  0  0  0  0  0  0  0  0  0  0
   -1.4091   -3.3101    1.1082 H   0  0  0  0  0  0  0  0  0  0  0  0
    1.4375   -3.7336    2.1985 H   0  0  0  0  0  0  0  0  0  0  0  0
    0.1969   -2.7243    2.9517 H   0  0  0  0  0  0  0  0  0  0  0  0
   -0.0294   -4.4803    2.8470 H   0  0  0  0  0  0  0  0  0  0  0  0
   -0.4616   -1.0893    0.5050 N   0  0  0  0  0  0  0  0  0  0  0  0
   -0.0884    0.2050   -0.0621 C   0  0  2  0  0  0  0  0  0  0  0  0
   -0.8498    0.3717   -1.3740 C   0  0  0  0  0  0  0  0  0  0  0  0
   -1.2078    1.4654   -1.8067 O   0  0  0  0  0  0  0  0  0  0  0  0
    1.4204    0.3094   -0.3305 C   0  0  0  0  0  0  0  0  0  0  0  0
    2.2650    0.3353    0.9477 C   0  0  0  0  0  0  0  0  0  0  0  0
    3.7559    0.4647    0.6240 C   0  0  0  0  0  0  0  0  0  0  0  0
    4.5995    0.4658    1.8977 C   0  0  0  0  0  0  0  0  0  0  0  0
    6.0159    0.5659    1.5668 N   0  0  0  0  0  0  0  0  0  0  0  0
   -1.2794   -1.1113    1.0935 H   0  0  0  0  0  0  0  0  0  0  0  0
   -0.3983    0.9931    0.6347 H   0  0  0  0  0  0  0  0  0  0  0  0
    1.6207    1.2231   -0.9055 H   0  0  0  0  0  0  0  0  0  0  0  0
    1.7452   -0.5239   -0.9683 H   0  0  0  0  0  0  0  0  0  0  0  0
    2.1030   -0.5810    1.5263 H   0  0  0  0  0  0  0  0  0  0  0  0
    1.9525    1.1777    1.5763 H   0  0  0  0  0  0  0  0  0  0  0  0
    4.0613   -0.3661   -0.0245 H   0  0  0  0  0  0  0  0  0  0  0  0
    3.9294    1.3923    0.0638 H   0  0  0  0  0  0  0  0  0  0  0  0
    4.4244   -0.4524    2.4691 H   0  0  0  0  0  0  0  0  0  0  0  0
    4.3208    1.3128    2.5335 H   0  0  0  0  0  0  0  0  0  0  0  0
    6.1055    0.5882    0.5778 H   0  0  0  0  0  0  0  0  0  0  0  0
    6.3723    1.4016    1.9684 H   0  0  0  0  0  0  0  0  0  0  0  0
   -1.1005   -0.8462   -1.9910 N   0  0  0  0  0  0  0  0  0  0  0  0
   -1.8245   -0.9699   -3.2357 C   0  0  2  0  0  0  0  0  0  0  0  0
   -2.5868   -2.2880   -3.2073 C   0  0  0  0  0  0  0  0  0  0  0  0
   -2.1585   -3.2989   -2.6544 O   0  0  0  0  0  0  0  0  0  0  0  0
   -0.8853   -0.9107   -4.4303 C   0  0  0  0  0  0  0  0  0  0  0  0
   -0.7569   -1.7008   -1.5630 H   0  0  0  0  0  0  0  0  0  0  0  0
   -2.5351   -0.1370   -3.2723 H   0  0  0  0  0  0  0  0  0  0  0  0
   -0.1658   -1.7374   -4.4108 H   0  0  0  0  0  0  0  0  0  0  0  0
   -1.4381   -0.9758   -5.3732 H   0  0  0  0  0  0  0  0  0  0  0  0
   -0.3161    0.0252   -4.4326 H   0  0  0  0  0  0  0  0  0  0  0  0
   -3.7819   -2.2149   -3.9091 N   0  0  0  0  0  0  0  0  0  0  0  0
   -4.6652   -3.3469   -4.0646 C   0  0  0  0  0  0  0  0  0  0  0  0
   -4.0773   -1.3258   -4.3017 H   0  0  0  0  0  0  0  0  0  0  0  0
   -4.4242   -3.8752   -4.9989 H   0  0  0  0  0  0  0  0  0  0  0  0
   -4.5373   -4.0314   -3.2131 H   0  0  0  0  0  0  0  0  0  0  0  0
   -5.7073   -2.9966   -4.1001 H   0  0  0  0  0  0  0  0  0  0  0  0
  1  3  1  0  0  0  0
  1  7  1  0  0  0  0
  1  2  2  0  0  0  0
 39 40  1  0  0  0  0
 40 48  1  0  0  0  0
 40 41  2  0  0  0  0
  8  9  1  0  0  0  0
  9 17  1  0  0  0  0
  9 10  2  0  0  0  0
 18 19  1  0  0  0  0
 19 38  1  0  0  0  0
 19 20  2  0  0  0  0
 39 42  1  0  0  0  0
  8 11  1  0  0  0  0
 48 49  1  0  0  0  0
 22 23  1  0  0  0  0
 21 22  1  0  0  0  0
 23 24  1  0  0  0  0
 18 21  1  0  0  0  0
 24 25  1  0  0  0  0
 38 39  1  0  0  0  0
  7  8  1  0  0  0  0
 17 18  1  0  0  0  0
  3  4  1  0  0  0  0
  3  5  1  0  0  0  0
  3  6  1  0  0  0  0
 42 45  1  0  0  0  0
 42 46  1  0  0  0  0
 42 47  1  0  0  0  0
 11 14  1  0  0  0  0
 11 15  1  0  0  0  0
 11 16  1  0  0  0  0
 49 51  1  0  0  0  0
 49 52  1  0  0  0  0
 49 53  1  0  0  0  0
 22 30  1  0  0  0  0
 22 31  1  0  0  0  0
 23 32  1  0  0  0  0
 23 33  1  0  0  0  0
 21 28  1  0  0  0  0
 21 29  1  0  0  0  0
 24 34  1  0  0  0  0
 24 35  1  0  0  0  0
 39 44  1  0  0  0  0
  8 13  1  0  0  0  0
 18 27  1  0  0  0  0
 25 36  1  0  0  0  0
 25 37  1  0  0  0  0
 48 50  1  0  0  0  0
  7 12  1  0  0  0  0
 38 43  1  0  0  0  0
 17 26  1  0  0  0  0
M  END
$$$$

  -OEChem-05262214473D

 53 52  0     1  0  0  0  0  0999 V2000
   -1.0338   -5.6785    0.1476 C   0  0  0  0  0  0  0  0  0  0  0  0
   -2.0514   -5.7797    0.8227 O   0  0  0  0  0  0  0  0  0  0  0  0
   -0.6558   -6.7819   -0.7841 C   0  0  0  0  0  0  0  0  0  0  0  0
   -0.0111   -7.5354   -0.3038 H   0  0  0  0  0  0  0  0  0  0  0  0
   -1.5317   -7.3401   -1.1520 H   0  0  0  0  0  0  0  0  0  0  0  0
   -0.1109   -6.4687   -1.6890 H   0  0  0  0  0  0  0  0  0  0  0  0
   -0.1543   -4.6083    0.1480 N   0  0  0  0  0  0  0  0  0  0  0  0
   -0.3302   -3.4398    0.9696 C   0  0  2  0  0  0  0  0  0  0  0  0
    0.2328   -2.2439    0.2131 C   0  0  0  0  0  0  0  0  0  0  0  0
    1.2097   -2.3192   -0.5294 O   0  0  0  0  0  0  0  0  0  0  0  0
    0.3557   -3.6024    2.3171 C   0  0  0  0  0  0  0  0  0  0  0  0
    0.6584   -4.6506   -0.4643 H   0  0  0  0  0  0  0  0  0  0  0  0
   -1.4091   -3.3101    1.1082 H   0  0  0  0  0  0  0  0  0  0  0  0
    1.4375   -3.7336    2.1985 H   0  0  0  0  0  0  0  0  0  0  0  0
    0.1969   -2.7243    2.9517 H   0  0  0  0  0  0  0  0  0  0  0  0
   -0.0294   -4.4803    2.8470 H   0  0  0  0  0  0  0  0  0  0  0  0
   -0.4616   -1.0893    0.5050 N   0  0  0  0  0  0  0  0  0  0  0  0
   -0.0884    0.2050   -0.0621 C   0  0  2  0  0  0  0  0  0  0  0  0
   -0.8498    0.3717   -1.3740 C   0  0  0  0  0  0  0  0  0  0  0  0
   -0.9759    1.4544   -1.9427 O   0  0  0  0  0  0  0  0  0  0  0  0
    1.4204    0.3094   -0.3305 C   0  0  0  0  0  0  0  0  0  0  0  0
    2.2650    0.3353    0.9477 C   0  0  0  0  0  0  0  0  0  0  0  0
    3.7559    0.4647    0.6240 C   0  0  0  0  0  0  0  0  0  0  0  0
    4.5995    0.4658    1.8977 C   0  0  0  0  0  0  0  0  0  0  0  0
    6.0159    0.5659    1.5668 N   0  0  0  0  0  0  0  0  0  0  0  0
   -1.2794   -1.1113    1.0935 H   0  0  0  0  0  0  0  0  0  0  0  0
   -0.3983    0.9931    0.6347 H   0  0  0  0  0  0  0  0  0  0  0  0
    1.6207    1.2231   -0.9055 H   0  0  0  0  0  0  0  0  0  0  0  0
    1.7452   -0.5239   -0.9683 H   0  0  0  0  0  0  0  0  0  0  0  0
    2.1030   -0.5810    1.5263 H   0  0  0  0  0  0  0  0  0  0  0  0
    1.9525    1.1777    1.5763 H   0  0  0  0  0  0  0  0  0  0  0  0
    4.0613   -0.3661   -0.0245 H   0  0  0  0  0  0  0  0  0  0  0  0
    3.9294    1.3923    0.0638 H   0  0  0  0  0  0  0  0  0  0  0  0
    4.4244   -0.4524    2.4691 H   0  0  0  0  0  0  0  0  0  0  0  0
    4.3208    1.3128    2.5335 H   0  0  0  0  0  0  0  0  0  0  0  0
    6.1055    0.5882    0.5778 H   0  0  0  0  0  0  0  0  0  0  0  0
    6.3723    1.4016    1.9684 H   0  0  0  0  0  0  0  0  0  0  0  0
   -1.3892   -0.8267   -1.8209 N   0  0  0  0  0  0  0  0  0  0  0  0
   -2.1754   -0.9405   -3.0282 C   0  0  2  0  0  0  0  0  0  0  0  0
   -3.2079   -2.0397   -2.8153 C   0  0  0  0  0  0  0  0  0  0  0  0
   -2.9898   -3.0429   -2.1393 O   0  0  0  0  0  0  0  0  0  0  0  0
   -1.2984   -1.2445   -4.2329 C   0  0  0  0  0  0  0  0  0  0  0  0
   -1.2247   -1.6757   -1.2883 H   0  0  0  0  0  0  0  0  0  0  0  0
   -2.6857    0.0191   -3.1651 H   0  0  0  0  0  0  0  0  0  0  0  0
   -0.7790   -2.2024   -4.1140 H   0  0  0  0  0  0  0  0  0  0  0  0
   -1.8919   -1.3022   -5.1513 H   0  0  0  0  0  0  0  0  0  0  0  0
   -0.5374   -0.4681   -4.3669 H   0  0  0  0  0  0  0  0  0  0  0  0
   -4.3864   -1.7892   -3.5042 N   0  0  0  0  0  0  0  0  0  0  0  0
   -5.5035   -2.7046   -3.4965 C   0  0  0  0  0  0  0  0  0  0  0  0
   -4.4948   -0.9133   -4.0069 H   0  0  0  0  0  0  0  0  0  0  0  0
   -5.4252   -3.3868   -4.3558 H   0  0  0  0  0  0  0  0  0  0  0  0
   -5.4933   -3.2875   -2.5637 H   0  0  0  0  0  0  0  0  0  0  0  0
   -6.4432   -2.1367   -3.5637 H   0  0  0  0  0  0  0  0  0  0  0  0
  1  3  1  0  0  0  0
  1  7  1  0  0  0  0
  1  2  2  0  0  0  0
 39 40  1  0  0  0  0
 40 48  1  0  0  0  0
 40 41  2  0  0  0  0
  8  9  1  0  0  0  0
  9 17  1  0  0  0  0
  9 10  2  0  0  0  0
 18 19  1  0  0  0  0
 19 38  1  0  0  0  0
 19 20  2  0  0  0  0
 39 42  1  0  0  0  0
  8 11  1  0  0  0  0
 48 49  1  0  0  0  0
 22 23  1  0  0  0  0
 21 22  1  0  0  0  0
 23 24  1  0  0  0  0
 18 21  1  0  0  0  0
 24 25  1  0  0  0  0
 38 39  1  0  0  0  0
  7  8  1  0  0  0  0
 17 18  1  0  0  0  0
  3  4  1  0  0  0  0
  3  5  1  0  0  0  0
  3  6  1  0  0  0  0
 42 45  1  0  0  0  0
 42 46  1  0  0  0  0
 42 47  1  0  0  0  0
 11 14  1  0  0  0  0
 11 15  1  0  0  0  0
 11 16  1  0  0  0  0
 49 51  1  0  0  0  0
 49 52  1  0  0  0  0
 49 53  1  0  0  0  0
 22 30  1  0  0  0  0
 22 31  1  0  0  0  0
 23 32  1  0  0  0  0
 23 33  1  0  0  0  0
 21 28  1  0  0  0  0
 21 29  1  0  0  0  0
 24 34  1  0  0  0  0
 24 35  1  0  0  0  0
 39 44  1  0  0  0  0
  8 13  1  0  0  0  0
 18 27  1  0  0  0  0
 25 36  1  0  0  0  0
 25 37  1  0  0  0  0
 48 50  1  0  0  0  0
  7 12  1  0  0  0  0
 38 43  1  0  0  0  0
 17 26  1  0  0  0  0
M  END
$$$$

  -OEChem-05262214473D

 53 52  0     1  0  0  0  0  0999 V2000
   -1.0338   -5.6785    0.1476 C   0  0  0  0  0  0  0  0  0  0  0  0
   -2.0514   -5.7797    0.8227 O   0  0  0  0  0  0  0  0  0  0  0  0
   -0.6558   -6.7819   -0.7841 C   0  0  0  0  0  0  0  0  0  0  0  0
   -0.0111   -7.5354   -0.3038 H   0  0  0  0  0  0  0  0  0  0  0  0
   -1.5317   -7.3401   -1.1520 H   0  0  0  0  0  0  0  0  0  0  0  0
   -0.1109   -6.4687   -1.6890 H   0  0  0  0  0  0  0  0  0  0  0  0
   -0.1543   -4.6083    0.1480 N   0  0  0  0  0  0  0  0  0  0  0  0
   -0.3302   -3.4398    0.9696 C   0  0  2  0  0  0  0  0  0  0  0  0
    0.2328   -2.2439    0.2131 C   0  0  0  0  0  0  0  0  0  0  0  0
    1.2097   -2.3192   -0.5294 O   0  0  0  0  0  0  0  0  0  0  0  0
    0.3557   -3.6024    2.3171 C   0  0  0  0  0  0  0  0  0  0  0  0
    0.6584   -4.6506   -0.4643 H   0  0  0  0  0  0  0  0  0  0  0  0
   -1.4091   -3.3101    1.1082 H   0  0  0  0  0  0  0  0  0  0  0  0
    1.4375   -3.7336    2.1985 H   0  0  0  0  0  0  0  0  0  0  0  0
    0.1969   -2.7243    2.9517 H   0  0  0  0  0  0  0  0  0  0  0  0
   -0.0294   -4.4803    2.8470 H   0  0  0  0  0  0  0  0  0  0  0  0
   -0.4616   -1.0893    0.5050 N   0  0  0  0  0  0  0  0  0  0  0  0
   -0.0884    0.2050   -0.0621 C   0  0  2  0  0  0  0  0  0  0  0  0
   -0.8498    0.3717   -1.3740 C   0  0  0  0  0  0  0  0  0  0  0  0
   -0.7582    1.3746   -2.0792 O   0  0  0  0  0  0  0  0  0  0  0  0
    1.4204    0.3094   -0.3305 C   0  0  0  0  0  0  0  0  0  0  0  0
    2.2650    0.3353    0.9477 C   0  0  0  0  0  0  0  0  0  0  0  0
    3.7559    0.4647    0.6240 C   0  0  0  0  0  0  0  0  0  0  0  0
    4.5995    0.4658    1.8977 C   0  0  0  0  0  0  0  0  0  0  0  0
    6.0159    0.5659    1.5668 N   0  0  0  0  0  0  0  0  0  0  0  0
   -1.2794   -1.1113    1.0935 H   0  0  0  0  0  0  0  0  0  0  0  0
   -0.3983    0.9931    0.6347 H   0  0  0  0  0  0  0  0  0  0  0  0
    1.6207    1.2231   -0.9055 H   0  0  0  0  0  0  0  0  0  0  0  0
    1.7452   -0.5239   -0.9683 H   0  0  0  0  0  0  0  0  0  0  0  0
    2.1030   -0.5810    1.5263 H   0  0  0  0  0  0  0  0  0  0  0  0
    1.9525    1.1777    1.5763 H   0  0  0  0  0  0  0  0  0  0  0  0
    4.0613   -0.3661   -0.0245 H   0  0  0  0  0  0  0  0  0  0  0  0
    3.9294    1.3923    0.0638 H   0  0  0  0  0  0  0  0  0  0  0  0
    4.4244   -0.4524    2.4691 H   0  0  0  0  0  0  0  0  0  0  0  0
    4.3208    1.3128    2.5335 H   0  0  0  0  0  0  0  0  0  0  0  0
    6.1055    0.5882    0.5778 H   0  0  0  0  0  0  0  0  0  0  0  0
    6.3723    1.4016    1.9684 H   0  0  0  0  0  0  0  0  0  0  0  0
   -1.6590   -0.7216   -1.6509 N   0  0  0  0  0  0  0  0  0  0  0  0
   -2.5020   -0.8073   -2.8218 C   0  0  2  0  0  0  0  0  0  0  0  0
   -3.7414   -1.6109   -2.4512 C   0  0  0  0  0  0  0  0  0  0  0  0
   -3.7213   -2.5442   -1.6514 O   0  0  0  0  0  0  0  0  0  0  0  0
   -1.7662   -1.4495   -3.9875 C   0  0  0  0  0  0  0  0  0  0  0  0
   -1.6632   -1.5119   -1.0130 H   0  0  0  0  0  0  0  0  0  0  0  0
   -2.7933    0.2173   -3.0774 H   0  0  0  0  0  0  0  0  0  0  0  0
   -1.4663   -2.4767   -3.7500 H   0  0  0  0  0  0  0  0  0  0  0  0
   -2.3966   -1.4877   -4.8820 H   0  0  0  0  0  0  0  0  0  0  0  0
   -0.8591   -0.8869   -4.2334 H   0  0  0  0  0  0  0  0  0  0  0  0
   -4.8640   -1.1913   -3.1510 N   0  0  0  0  0  0  0  0  0  0  0  0
   -6.1543   -1.8242   -3.0069 C   0  0  0  0  0  0  0  0  0  0  0  0
   -4.7980   -0.3838   -3.7637 H   0  0  0  0  0  0  0  0  0  0  0  0
   -6.2654   -2.6092   -3.7694 H   0  0  0  0  0  0  0  0  0  0  0  0
   -6.2329   -2.2723   -2.0054 H   0  0  0  0  0  0  0  0  0  0  0  0
   -6.9474   -1.0731   -3.1359 H   0  0  0  0  0  0  0  0  0  0  0  0
  1  3  1  0  0  0  0
  1  7  1  0  0  0  0
  1  2  2  0  0  0  0
 39 40  1  0  0  0  0
 40 48  1  0  0  0  0
 40 41  2  0  0  0  0
  8  9  1  0  0  0  0
  9 17  1  0  0  0  0
  9 10  2  0  0  0  0
 18 19  1  0  0  0  0
 19 38  1  0  0  0  0
 19 20  2  0  0  0  0
 39 42  1  0  0  0  0
  8 11  1  0  0  0  0
 48 49  1  0  0  0  0
 22 23  1  0  0  0  0
 21 22  1  0  0  0  0
 23 24  1  0  0  0  0
 18 21  1  0  0  0  0
 24 25  1  0  0  0  0
 38 39  1  0  0  0  0
  7  8  1  0  0  0  0
 17 18  1  0  0  0  0
  3  4  1  0  0  0  0
  3  5  1  0  0  0  0
  3  6  1  0  0  0  0
 42 45  1  0  0  0  0
 42 46  1  0  0  0  0
 42 47  1  0  0  0  0
 11 14  1  0  0  0  0
 11 15  1  0  0  0  0
 11 16  1  0  0  0  0
 49 51  1  0  0  0  0
 49 52  1  0  0  0  0
 49 53  1  0  0  0  0
 22 30  1  0  0  0  0
 22 31  1  0  0  0  0
 23 32  1  0  0  0  0
 23 33  1  0  0  0  0
 21 28  1  0  0  0  0
 21 29  1  0  0  0  0
 24 34  1  0  0  0  0
 24 35  1  0  0  0  0
 39 44  1  0  0  0  0
  8 13  1  0  0  0  0
 18 27  1  0  0  0  0
 25 36  1  0  0  0  0
 25 37  1  0  0  0  0
 48 50  1  0  0  0  0
  7 12  1  0  0  0  0
 38 43  1  0  0  0  0
 17 26  1  0  0  0  0
M  END
$$$$

  -OEChem-05262214473D

 53 52  0     1  0  0  0  0  0999 V2000
   -1.0338   -5.6785    0.1476 C   0  0  0  0  0  0  0  0  0  0  0  0
   -2.0514   -5.7797    0.8227 O   0  0  0  0  0  0  0  0  0  0  0  0
   -0.6558   -6.7819   -0.7841 C   0  0  0  0  0  0  0  0  0  0  0  0
   -0.0111   -7.5354   -0.3038 H   0  0  0  0  0  0  0  0  0  0  0  0
   -1.5317   -7.3401   -1.1520 H   0  0  0  0  0  0  0  0  0  0  0  0
   -0.1109   -6.4687   -1.6890 H   0  0  0  0  0  0  0  0  0  0  0  0
   -0.1543   -4.6083    0.1480 N   0  0  0  0  0  0  0  0  0  0  0  0
   -0.3302   -3.4398    0.9696 C   0  0  2  0  0  0  0  0  0  0  0  0
    0.2328   -2.2439    0.2131 C   0  0  0  0  0  0  0  0  0  0  0  0
    1.2097   -2.3192   -0.5294 O   0  0  0  0  0  0  0  0  0  0  0  0
    0.3557   -3.6024    2.3171 C   0  0  0  0  0  0  0  0  0  0  0  0
    0.6584   -4.6506   -0.4643 H   0  0  0  0  0  0  0  0  0  0  0  0
   -1.4091   -3.3101    1.1082 H   0  0  0  0  0  0  0  0  0  0  0  0
    1.4375   -3.7336    2.1985 H   0  0  0  0  0  0  0  0  0  0  0  0
    0.1969   -2.7243    2.9517 H   0  0  0  0  0  0  0  0  0  0  0  0
   -0.0294   -4.4803    2.8470 H   0  0  0  0  0  0  0  0  0  0  0  0
   -0.4616   -1.0893    0.5050 N   0  0  0  0  0  0  0  0  0  0  0  0
   -0.0884    0.2050   -0.0621 C   0  0  2  0  0  0  0  0  0  0  0  0
   -0.8498    0.3717   -1.3740 C   0  0  0  0  0  0  0  0  0  0  0  0
   -0.5695    1.2315   -2.2069 O   0  0  0  0  0  0  0  0  0  0  0  0
    1.4204    0.3094   -0.3305 C   0  0  0  0  0  0  0  0  0  0  0  0
    2.2650    0.3353    0.9477 C   0  0  0  0  0  0  0  0  0  0  0  0
    3.7559    0.4647    0.6240 C   0  0  0  0  0  0  0  0  0  0  0  0
    4.5995    0.4658    1.8977 C   0  0  0  0  0  0  0  0  0  0  0  0
    6.0159    0.5659    1.5668 N   0  0  0  0  0  0  0  0  0  0  0  0
   -1.2794   -1.1113    1.0935 H   0  0  0  0  0  0  0  0  0  0  0  0
   -0.3983    0.9931    0.6347 H   0  0  0  0  0  0  0  0  0  0  0  0
    1.6207    1.2231   -0.9055 H   0  0  0  0  0  0  0  0  0  0  0  0
    1.7452   -0.5239   -0.9683 H   0  0  0  0  0  0  0  0  0  0  0  0
    2.1030   -0.5810    1.5263 H   0  0  0  0  0  0  0  0  0  0  0  0
    1.9525    1.1777    1.5763 H   0  0  0  0  0  0  0  0  0  0  0  0
    4.0613   -0.3661   -0.0245 H   0  0  0  0  0  0  0  0  0  0  0  0
    3.9294    1.3923    0.0638 H   0  0  0  0  0  0  0  0  0  0  0  0
    4.4244   -0.4524    2.4691 H   0  0  0  0  0  0  0  0  0  0  0  0
    4.3208    1.3128    2.5335 H   0  0  0  0  0  0  0  0  0  0  0  0
    6.1055    0.5882    0.5778 H   0  0  0  0  0  0  0  0  0  0  0  0
    6.3723    1.4016    1.9684 H   0  0  0  0  0  0  0  0  0  0  0  0
   -1.8914   -0.5381   -1.4927 N   0  0  0  0  0  0  0  0  0  0  0  0
   -2.7819   -0.5792   -2.6303 C   0  0  2  0  0  0  0  0  0  0  0  0
   -4.1511   -1.0311   -2.1397 C   0  0  0  0  0  0  0  0  0  0  0  0
   -4.3031   -1.8367   -1.2238 O   0  0  0  0  0  0  0  0  0  0  0  0
   -2.2567   -1.5118   -3.7107 C   0  0  0  0  0  0  0  0  0  0  0  0
   -2.0425   -1.2205   -0.7558 H   0  0  0  0  0  0  0  0  0  0  0  0
   -2.8507    0.4440   -3.0153 H   0  0  0  0  0  0  0  0  0  0  0  0
   -2.1809   -2.5417   -3.3434 H   0  0  0  0  0  0  0  0  0  0  0  0
   -2.9178   -1.5199   -4.5836 H   0  0  0  0  0  0  0  0  0  0  0  0
   -1.2592   -1.2026   -4.0412 H   0  0  0  0  0  0  0  0  0  0  0  0
   -5.1824   -0.4618   -2.8735 N   0  0  0  0  0  0  0  0  0  0  0  0
   -6.5731   -0.7658   -2.6293 C   0  0  0  0  0  0  0  0  0  0  0  0
   -4.9662    0.2265   -3.5885 H   0  0  0  0  0  0  0  0  0  0  0  0
   -6.8873   -1.5955   -3.2796 H   0  0  0  0  0  0  0  0  0  0  0  0
   -6.7057   -1.0550   -1.5763 H   0  0  0  0  0  0  0  0  0  0  0  0
   -7.1858    0.1218   -2.8458 H   0  0  0  0  0  0  0  0  0  0  0  0
  1  3  1  0  0  0  0
  1  7  1  0  0  0  0
  1  2  2  0  0  0  0
 39 40  1  0  0  0  0
 40 48  1  0  0  0  0
 40 41  2  0  0  0  0
  8  9  1  0  0  0  0
  9 17  1  0  0  0  0
  9 10  2  0  0  0  0
 18 19  1  0  0  0  0
 19 38  1  0  0  0  0
 19 20  2  0  0  0  0
 39 42  1  0  0  0  0
  8 11  1  0  0  0  0
 48 49  1  0  0  0  0
 22 23  1  0  0  0  0
 21 22  1  0  0  0  0
 23 24  1  0  0  0  0
 18 21  1  0  0  0  0
 24 25  1  0  0  0  0
 38 39  1  0  0  0  0
  7  8  1  0  0  0  0
 17 18  1  0  0  0  0
  3  4  1  0  0  0  0
  3  5  1  0  0  0  0
  3  6  1  0  0  0  0
 42 45  1  0  0  0  0
 42 46  1  0  0  0  0
 42 47  1  0  0  0  0
 11 14  1  0  0  0  0
 11 15  1  0  0  0  0
 11 16  1  0  0  0  0
 49 51  1  0  0  0  0
 49 52  1  0  0  0  0
 49 53  1  0  0  0  0
 22 30  1  0  0  0  0
 22 31  1  0  0  0  0
 23 32  1  0  0  0  0
 23 33  1  0  0  0  0
 21 28  1  0  0  0  0
 21 29  1  0  0  0  0
 24 34  1  0  0  0  0
 24 35  1  0  0  0  0
 39 44  1  0  0  0  0
  8 13  1  0  0  0  0
 18 27  1  0  0  0  0
 25 36  1  0  0  0  0
 25 37  1  0  0  0  0
 48 50  1  0  0  0  0
  7 12  1  0  0  0  0
 38 43  1  0  0  0  0
 17 26  1  0  0  0  0
M  END
$$$$

  -OEChem-05262214473D

 53 52  0     1  0  0  0  0  0999 V2000
   -1.0338   -5.6785    0.1476 C   0  0  0  0  0  0  0  0  0  0  0  0
   -2.0514   -5.7797    0.8227 O   0  0  0  0  0  0  0  0  0  0  0  0
   -0.6558   -6.7819   -0.7841 C   0  0  0  0  0  0  0  0  0  0  0  0
   -0.0111   -7.5354   -0.3038 H   0  0  0  0  0  0  0  0  0  0  0  0
   -1.5317   -7.3401   -1.1520 H   0  0  0  0  0  0  0  0  0  0  0  0
   -0.1109   -6.4687   -1.6890 H   0  0  0  0  0  0  0  0  0  0  0  0
   -0.1543   -4.6083    0.1480 N   0  0  0  0  0  0  0  0  0  0  0  0
   -0.3302   -3.4398    0.9696 C   0  0  2  0  0  0  0  0  0  0  0  0
    0.2328   -2.2439    0.2131 C   0  0  0  0  0  0  0  0  0  0  0  0
    1.2097   -2.3192   -0.5294 O   0  0  0  0  0  0  0  0  0  0  0  0
    0.3557   -3.6024    2.3171 C   0  0  0  0  0  0  0  0  0  0  0  0
    0.6584   -4.6506   -0.4643 H   0  0  0  0  0  0  0  0  0  0  0  0
   -1.4091   -3.3101    1.1082 H   0  0  0  0  0  0  0  0  0  0  0  0
    1.4375   -3.7336    2.1985 H   0  0  0  0  0  0  0  0  0  0  0  0
    0.1969   -2.7243    2.9517 H   0  0  0  0  0  0  0  0  0  0  0  0
   -0.0294   -4.4803    2.8470 H   0  0  0  0  0  0  0  0  0  0  0  0
   -0.4616   -1.0893    0.5050 N   0  0  0  0  0  0  0  0  0  0  0  0
   -0.0884    0.2050   -0.0621 C   0  0  2  0  0  0  0  0  0  0  0  0
   -0.8498    0.3717   -1.3740 C   0  0  0  0  0  0  0  0  0  0  0  0
   -0.4227    1.0348   -2.3171 O   0  0  0  0  0  0  0  0  0  0  0  0
    1.4204    0.3094   -0.3305 C   0  0  0  0  0  0  0  0  0  0  0  0
    2.2650    0.3353    0.9477 C   0  0  0  0  0  0  0  0  0  0  0  0
    3.7559    0.4647    0.6240 C   0  0  0  0  0  0  0  0  0  0  0  0
    4.5995    0.4658    1.8977 C   0  0  0  0  0  0  0  0  0  0  0  0
    6.0159    0.5659    1.5668 N   0  0  0  0  0  0  0  0  0  0  0  0
   -1.2794   -1.1113    1.0935 H   0  0  0  0  0  0  0  0  0  0  0  0
   -0.3983    0.9931    0.6347 H   0  0  0  0  0  0  0  0  0  0  0  0
    1.6207    1.2231   -0.9055 H   0  0  0  0  0  0  0  0  0  0  0  0
    1.7452   -0.5239   -0.9683 H   0  0  0  0  0  0  0  0  0  0  0  0
    2.1030   -0.5810    1.5263 H   0  0  0  0  0  0  0  0  0  0  0  0
    1.9525    1.1777    1.5763 H   0  0  0  0  0  0  0  0  0  0  0  0
    4.0613   -0.3661   -0.0245 H   0  0  0  0  0  0  0  0  0  0  0  0
    3.9294    1.3923    0.0638 H   0  0  0  0  0  0  0  0  0  0  0  0
    4.4244   -0.4524    2.4691 H   0  0  0  0  0  0  0  0  0  0  0  0
    4.3208    1.3128    2.5335 H   0  0  0  0  0  0  0  0  0  0  0  0
    6.1055    0.5882    0.5778 H   0  0  0  0  0  0  0  0  0  0  0  0
    6.3723    1.4016    1.9684 H   0  0  0  0  0  0  0  0  0  0  0  0
   -2.0706   -0.2887   -1.3570 N   0  0  0  0  0  0  0  0  0  0  0  0
   -2.9962   -0.2720   -2.4669 C   0  0  2  0  0  0  0  0  0  0  0  0
   -4.4090   -0.3396   -1.9021 C   0  0  0  0  0  0  0  0  0  0  0  0
   -4.6956   -0.9686   -0.8857 O   0  0  0  0  0  0  0  0  0  0  0  0
   -2.7365   -1.4270   -3.4214 C   0  0  0  0  0  0  0  0  0  0  0  0
   -2.3368   -0.8214   -0.5343 H   0  0  0  0  0  0  0  0  0  0  0  0
   -2.8539    0.6838   -2.9829 H   0  0  0  0  0  0  0  0  0  0  0  0
   -2.8742   -2.3931   -2.9222 H   0  0  0  0  0  0  0  0  0  0  0  0
   -3.4199   -1.3965   -4.2764 H   0  0  0  0  0  0  0  0  0  0  0  0
   -1.7105   -1.3936   -3.8036 H   0  0  0  0  0  0  0  0  0  0  0  0
   -5.3198    0.3494   -2.6907 N   0  0  0  0  0  0  0  0  0  0  0  0
   -6.7315    0.3985   -2.3895 C   0  0  0  0  0  0  0  0  0  0  0  0
   -4.9879    0.8760   -3.4934 H   0  0  0  0  0  0  0  0  0  0  0  0
   -7.2486   -0.4147   -2.9199 H   0  0  0  0  0  0  0  0  0  0  0  0
   -6.8793    0.2814   -1.3057 H   0  0  0  0  0  0  0  0  0  0  0  0
   -7.1419    1.3664   -2.7131 H   0  0  0  0  0  0  0  0  0  0  0  0
  1  3  1  0  0  0  0
  1  7  1  0  0  0  0
  1  2  2  0  0  0  0
 39 40  1  0  0  0  0
 40 48  1  0  0  0  0
 40 41  2  0  0  0  0
  8  9  1  0  0  0  0
  9 17  1  0  0  0  0
  9 10  2  0  0  0  0
 18 19  1  0  0  0  0
 19 38  1  0  0  0  0
 19 20  2  0  0  0  0
 39 42  1  0  0  0  0
  8 11  1  0  0  0  0
 48 49  1  0  0  0  0
 22 23  1  0  0  0  0
 21 22  1  0  0  0  0
 23 24  1  0  0  0  0
 18 21  1  0  0  0  0
 24 25  1  0  0  0  0
 38 39  1  0  0  0  0
  7  8  1  0  0  0  0
 17 18  1  0  0  0  0
  3  4  1  0  0  0  0
  3  5  1  0  0  0  0
  3  6  1  0  0  0  0
 42 45  1  0  0  0  0
 42 46  1  0  0  0  0
 42 47  1  0  0  0  0
 11 14  1  0  0  0  0
 11 15  1  0  0  0  0
 11 16  1  0  0  0  0
 49 51  1  0  0  0  0
 49 52  1  0  0  0  0
 49 53  1  0  0  0  0
 22 30  1  0  0  0  0
 22 31  1  0  0  0  0
 23 32  1  0  0  0  0
 23 33  1  0  0  0  0
 21 28  1  0  0  0  0
 21 29  1  0  0  0  0
 24 34  1  0  0  0  0
 24 35  1  0  0  0  0
 39 44  1  0  0  0  0
  8 13  1  0  0  0  0
 18 27  1  0  0  0  0
 25 36  1  0  0  0  0
 25 37  1  0  0  0  0
 48 50  1  0  0  0  0
  7 12  1  0  0  0  0
 38 43  1  0  0  0  0
 17 26  1  0  0  0  0
M  END
$$$$

  -OEChem-05262214473D

 53 52  0     1  0  0  0  0  0999 V2000
   -1.0338   -5.6785    0.1476 C   0  0  0  0  0  0  0  0  0  0  0  0
   -2.0514   -5.7797    0.8227 O   0  0  0  0  0  0  0  0  0  0  0  0
   -0.6558   -6.7819   -0.7841 C   0  0  0  0  0  0  0  0  0  0  0  0
   -0.0111   -7.5354   -0.3038 H   0  0  0  0  0  0  0  0  0  0  0  0
   -1.5317   -7.3401   -1.1520 H   0  0  0  0  0  0  0  0  0  0  0  0
   -0.1109   -6.4687   -1.6890 H   0  0  0  0  0  0  0  0  0  0  0  0
   -0.1543   -4.6083    0.1480 N   0  0  0  0  0  0  0  0  0  0  0  0
   -0.3302   -3.4398    0.9696 C   0  0  2  0  0  0  0  0  0  0  0  0
    0.2328   -2.2439    0.2131 C   0  0  0  0  0  0  0  0  0  0  0  0
    1.2097   -2.3192   -0.5294 O   0  0  0  0  0  0  0  0  0  0  0  0
    0.3557   -3.6024    2.3171 C   0  0  0  0  0  0  0  0  0  0  0  0
    0.6584   -4.6506   -0.4643 H   0  0  0  0  0  0  0  0  0  0  0  0
   -1.4091   -3.3101    1.1082 H   0  0  0  0  0  0  0  0  0  0  0  0
    1.4375   -3.7336    2.1985 H   0  0  0  0  0  0  0  0  0  0  0  0
    0.1969   -2.7243    2.9517 H   0  0  0  0  0  0  0  0  0  0  0  0
   -0.0294   -4.4803    2.8470 H   0  0  0  0  0  0  0  0  0  0  0  0
   -0.4616   -1.0893    0.5050 N   0  0  0  0  0  0  0  0  0  0  0  0
   -0.0884    0.2050   -0.0621 C   0  0  2  0  0  0  0  0  0  0  0  0
   -0.8498    0.3717   -1.3740 C   0  0  0  0  0  0  0  0  0  0  0  0
   -0.3278    0.7978   -2.4023 O   0  0  0  0  0  0  0  0  0  0  0  0
    1.4204    0.3094   -0.3305 C   0  0  0  0  0  0  0  0  0  0  0  0
    2.2650    0.3353    0.9477 C   0  0  0  0  0  0  0  0  0  0  0  0
    3.7559    0.4647    0.6240 C   0  0  0  0  0  0  0  0  0  0  0  0
    4.5995    0.4658    1.8977 C   0  0  0  0  0  0  0  0  0  0  0  0
    6.0159    0.5659    1.5668 N   0  0  0  0  0  0  0  0  0  0  0  0
   -1.2794   -1.1113    1.0935 H   0  0  0  0  0  0  0  0  0  0  0  0
   -0.3983    0.9931    0.6347 H   0  0  0  0  0  0  0  0  0  0  0  0
    1.6207    1.2231   -0.9055 H   0  0  0  0  0  0  0  0  0  0  0  0
    1.7452   -0.5239   -0.9683 H   0  0  0  0  0  0  0  0  0  0  0  0
    2.1030   -0.5810    1.5263 H   0  0  0  0  0  0  0  0  0  0  0  0
    1.9525    1.1777    1.5763 H   0  0  0  0  0  0  0  0  0  0  0  0
    4.0613   -0.3661   -0.0245 H   0  0  0  0  0  0  0  0  0  0  0  0
    3.9294    1.3923    0.0638 H   0  0  0  0  0  0  0  0  0  0  0  0
    4.4244   -0.4524    2.4691 H   0  0  0  0  0  0  0  0  0  0  0  0
    4.3208    1.3128    2.5335 H   0  0  0  0  0  0  0  0  0  0  0  0
    6.1055    0.5882    0.5778 H   0  0  0  0  0  0  0  0  0  0  0  0
    6.3723    1.4016    1.9684 H   0  0  0  0  0  0  0  0  0  0  0  0
   -2.1844    0.0096   -1.2531 N   0  0  0  0  0  0  0  0  0  0  0  0
   -3.1302    0.0936   -2.3427 C   0  0  2  0  0  0  0  0  0  0  0  0
   -4.4975    0.4164   -1.7547 C   0  0  0  0  0  0  0  0  0  0  0  0
   -4.8720    0.0008   -0.6601 O   0  0  0  0  0  0  0  0  0  0  0  0
   -3.1729   -1.2010   -3.1394 C   0  0  0  0  0  0  0  0  0  0  0  0
   -2.5260   -0.3419   -0.3635 H   0  0  0  0  0  0  0  0  0  0  0  0
   -2.8028    0.9203   -2.9826 H   0  0  0  0  0  0  0  0  0  0  0  0
   -3.4988   -2.0408   -2.5148 H   0  0  0  0  0  0  0  0  0  0  0  0
   -3.8688   -1.1259   -3.9815 H   0  0  0  0  0  0  0  0  0  0  0  0
   -2.1822   -1.4471   -3.5366 H   0  0  0  0  0  0  0  0  0  0  0  0
   -5.2668    1.1872   -2.6150 N   0  0  0  0  0  0  0  0  0  0  0  0
   -6.6186    1.5893   -2.3037 C   0  0  0  0  0  0  0  0  0  0  0  0
   -4.8616    1.5205   -3.4848 H   0  0  0  0  0  0  0  0  0  0  0  0
   -7.3246    0.8527   -2.7147 H   0  0  0  0  0  0  0  0  0  0  0  0
   -6.7420    1.6458   -1.2121 H   0  0  0  0  0  0  0  0  0  0  0  0
   -6.8189    2.5759   -2.7469 H   0  0  0  0  0  0  0  0  0  0  0  0
  1  3  1  0  0  0  0
  1  7  1  0  0  0  0
  1  2  2  0  0  0  0
 39 40  1  0  0  0  0
 40 48  1  0  0  0  0
 40 41  2  0  0  0  0
  8  9  1  0  0  0  0
  9 17  1  0  0  0  0
  9 10  2  0  0  0  0
 18 19  1  0  0  0  0
 19 38  1  0  0  0  0
 19 20  2  0  0  0  0
 39 42  1  0  0  0  0
  8 11  1  0  0  0  0
 48 49  1  0  0  0  0
 22 23  1  0  0  0  0
 21 22  1  0  0  0  0
 23 24  1  0  0  0  0
 18 21  1  0  0  0  0
 24 25  1  0  0  0  0
 38 39  1  0  0  0  0
  7  8  1  0  0  0  0
 17 18  1  0  0  0  0
  3  4  1  0  0  0  0
  3  5  1  0  0  0  0
  3  6  1  0  0  0  0
 42 45  1  0  0  0  0
 42 46  1  0  0  0  0
 42 47  1  0  0  0  0
 11 14  1  0  0  0  0
 11 15  1  0  0  0  0
 11 16  1  0  0  0  0
 49 51  1  0  0  0  0
 49 52  1  0  0  0  0
 49 53  1  0  0  0  0
 22 30  1  0  0  0  0
 22 31  1  0  0  0  0
 23 32  1  0  0  0  0
 23 33  1  0  0  0  0
 21 28  1  0  0  0  0
 21 29  1  0  0  0  0
 24 34  1  0  0  0  0
 24 35  1  0  0  0  0
 39 44  1  0  0  0  0
  8 13  1  0  0  0  0
 18 27  1  0  0  0  0
 25 36  1  0  0  0  0
 25 37  1  0  0  0  0
 48 50  1  0  0  0  0
  7 12  1  0  0  0  0
 38 43  1  0  0  0  0
 17 26  1  0  0  0  0
M  END
$$$$

  -OEChem-05262214473D

 53 52  0     1  0  0  0  0  0999 V2000
   -1.0338   -5.6785    0.1476 C   0  0  0  0  0  0  0  0  0  0  0  0
   -2.0514   -5.7797    0.8227 O   0  0  0  0  0  0  0  0  0  0  0  0
   -0.6558   -6.7819   -0.7841 C   0  0  0  0  0  0  0  0  0  0  0  0
   -0.0111   -7.5354   -0.3038 H   0  0  0  0  0  0  0  0  0  0  0  0
   -1.5317   -7.3401   -1.1520 H   0  0  0  0  0  0  0  0  0  0  0  0
   -0.1109   -6.4687   -1.6890 H   0  0  0  0  0  0  0  0  0  0  0  0
   -0.1543   -4.6083    0.1480 N   0  0  0  0  0  0  0  0  0  0  0  0
   -0.3302   -3.4398    0.9696 C   0  0  2  0  0  0  0  0  0  0  0  0
    0.2328   -2.2439    0.2131 C   0  0  0  0  0  0  0  0  0  0  0  0
    1.2097   -2.3192   -0.5294 O   0  0  0  0  0  0  0  0  0  0  0  0
    0.3557   -3.6024    2.3171 C   0  0  0  0  0  0  0  0  0  0  0  0
    0.6584   -4.6506   -0.4643 H   0  0  0  0  0  0  0  0  0  0  0  0
   -1.4091   -3.3101    1.1082 H   0  0  0  0  0  0  0  0  0  0  0  0
    1.4375   -3.7336    2.1985 H   0  0  0  0  0  0  0  0  0  0  0  0
    0.1969   -2.7243    2.9517 H   0  0  0  0  0  0  0  0  0  0  0  0
   -0.0294   -4.4803    2.8470 H   0  0  0  0  0  0  0  0  0  0  0  0
   -0.4616   -1.0893    0.5050 N   0  0  0  0  0  0  0  0  0  0  0  0
   -0.0884    0.2050   -0.0621 C   0  0  2  0  0  0  0  0  0  0  0  0
   -0.8498    0.3717   -1.3740 C   0  0  0  0  0  0  0  0  0  0  0  0
   -0.2912    0.5368   -2.4567 O   0  0  0  0  0  0  0  0  0  0  0  0
    1.4204    0.3094   -0.3305 C   0  0  0  0  0  0  0  0  0  0  0  0
    2.2650    0.3353    0.9477 C   0  0  0  0  0  0  0  0  0  0  0  0
    3.7559    0.4647    0.6240 C   0  0  0  0  0  0  0  0  0  0  0  0
    4.5995    0.4658    1.8977 C   0  0  0  0  0  0  0  0  0  0  0  0
    6.0159    0.5659    1.5668 N   0  0  0  0  0  0  0  0  0  0  0  0
   -1.2794   -1.1113    1.0935 H   0  0  0  0  0  0  0  0  0  0  0  0
   -0.3983    0.9931    0.6347 H   0  0  0  0  0  0  0  0  0  0  0  0
    1.6207    1.2231   -0.9055 H   0  0  0  0  0  0  0  0  0  0  0  0
    1.7452   -0.5239   -0.9683 H   0  0  0  0  0  0  0  0  0  0  0  0
    2.1030   -0.5810    1.5263 H   0  0  0  0  0  0  0  0  0  0  0  0
    1.9525    1.1777    1.5763 H   0  0  0  0  0  0  0  0  0  0  0  0
    4.0613   -0.3661   -0.0245 H   0  0  0  0  0  0  0  0  0  0  0  0
    3.9294    1.3923    0.0638 H   0  0  0  0  0  0  0  0  0  0  0  0
    4.4244   -0.4524    2.4691 H   0  0  0  0  0  0  0  0  0  0  0  0
    4.3208    1.3128    2.5335 H   0  0  0  0  0  0  0  0  0  0  0  0
    6.1055    0.5882    0.5778 H   0  0  0  0  0  0  0  0  0  0  0  0
    6.3723    1.4016    1.9684 H   0  0  0  0  0  0  0  0  0  0  0  0
   -2.2250    0.3364   -1.1880 N   0  0  0  0  0  0  0  0  0  0  0  0
   -3.1747    0.4926   -2.2661 C   0  0  2  0  0  0  0  0  0  0  0  0
   -4.4106    1.1853   -1.7074 C   0  0  0  0  0  0  0  0  0  0  0  0
   -4.8203    1.0057   -0.5624 O   0  0  0  0  0  0  0  0  0  0  0  0
   -3.5362   -0.8492   -2.8838 C   0  0  0  0  0  0  0  0  0  0  0  0
   -2.5973    0.1855   -0.2552 H   0  0  0  0  0  0  0  0  0  0  0  0
   -2.7008    1.1374   -3.0142 H   0  0  0  0  0  0  0  0  0  0  0  0
   -4.0123   -1.5089   -2.1492 H   0  0  0  0  0  0  0  0  0  0  0  0
   -4.2338   -0.7265   -3.7189 H   0  0  0  0  0  0  0  0  0  0  0  0
   -2.6422   -1.3593   -3.2584 H   0  0  0  0  0  0  0  0  0  0  0  0
   -5.0270    1.9945   -2.6516 N   0  0  0  0  0  0  0  0  0  0  0  0
   -6.2422    2.7255   -2.3778 C   0  0  0  0  0  0  0  0  0  0  0  0
   -4.5960    2.1161   -3.5633 H   0  0  0  0  0  0  0  0  0  0  0  0
   -7.1103    2.1204   -2.6780 H   0  0  0  0  0  0  0  0  0  0  0  0
   -6.3032    2.9453   -1.3017 H   0  0  0  0  0  0  0  0  0  0  0  0
   -6.2386    3.6680   -2.9449 H   0  0  0  0  0  0  0  0  0  0  0  0
  1  3  1  0  0  0  0
  1  7  1  0  0  0  0
  1  2  2  0  0  0  0
 39 40  1  0  0  0  0
 40 48  1  0  0  0  0
 40 41  2  0  0  0  0
  8  9  1  0  0  0  0
  9 17  1  0  0  0  0
  9 10  2  0  0  0  0
 18 19  1  0  0  0  0
 19 38  1  0  0  0  0
 19 20  2  0  0  0  0
 39 42  1  0  0  0  0
  8 11  1  0  0  0  0
 48 49  1  0  0  0  0
 22 23  1  0  0  0  0
 21 22  1  0  0  0  0
 23 24  1  0  0  0  0
 18 21  1  0  0  0  0
 24 25  1  0  0  0  0
 38 39  1  0  0  0  0
  7  8  1  0  0  0  0
 17 18  1  0  0  0  0
  3  4  1  0  0  0  0
  3  5  1  0  0  0  0
  3  6  1  0  0  0  0
 42 45  1  0  0  0  0
 42 46  1  0  0  0  0
 42 47  1  0  0  0  0
 11 14  1  0  0  0  0
 11 15  1  0  0  0  0
 11 16  1  0  0  0  0
 49 51  1  0  0  0  0
 49 52  1  0  0  0  0
 49 53  1  0  0  0  0
 22 30  1  0  0  0  0
 22 31  1  0  0  0  0
 23 32  1  0  0  0  0
 23 33  1  0  0  0  0
 21 28  1  0  0  0  0
 21 29  1  0  0  0  0
 24 34  1  0  0  0  0
 24 35  1  0  0  0  0
 39 44  1  0  0  0  0
  8 13  1  0  0  0  0
 18 27  1  0  0  0  0
 25 36  1  0  0  0  0
 25 37  1  0  0  0  0
 48 50  1  0  0  0  0
  7 12  1  0  0  0  0
 38 43  1  0  0  0  0
 17 26  1  0  0  0  0
M  END
$$$$

  -OEChem-05262214473D

 53 52  0     1  0  0  0  0  0999 V2000
   -1.0338   -5.6785    0.1476 C   0  0  0  0  0  0  0  0  0  0  0  0
   -2.0514   -5.7797    0.8227 O   0  0  0  0  0  0  0  0  0  0  0  0
   -0.6558   -6.7819   -0.7841 C   0  0  0  0  0  0  0  0  0  0  0  0
   -0.0111   -7.5354   -0.3038 H   0  0  0  0  0  0  0  0  0  0  0  0
   -1.5317   -7.3401   -1.1520 H   0  0  0  0  0  0  0  0  0  0  0  0
   -0.1109   -6.4687   -1.6890 H   0  0  0  0  0  0  0  0  0  0  0  0
   -0.1543   -4.6083    0.1480 N   0  0  0  0  0  0  0  0  0  0  0  0
   -0.3302   -3.4398    0.9696 C   0  0  2  0  0  0  0  0  0  0  0  0
    0.2328   -2.2439    0.2131 C   0  0  0  0  0  0  0  0  0  0  0  0
    1.2097   -2.3192   -0.5294 O   0  0  0  0  0  0  0  0  0  0  0  0
    0.3557   -3.6024    2.3171 C   0  0  0  0  0  0  0  0  0  0  0  0
    0.6584   -4.6506   -0.4643 H   0  0  0  0  0  0  0  0  0  0  0  0
   -1.4091   -3.3101    1.1082 H   0  0  0  0  0  0  0  0  0  0  0  0
    1.4375   -3.7336    2.1985 H   0  0  0  0  0  0  0  0  0  0  0  0
    0.1969   -2.7243    2.9517 H   0  0  0  0  0  0  0  0  0  0  0  0
   -0.0294   -4.4803    2.8470 H   0  0  0  0  0  0  0  0  0  0  0  0
   -0.4616   -1.0893    0.5050 N   0  0  0  0  0  0  0  0  0  0  0  0
   -0.0884    0.2050   -0.0621 C   0  0  2  0  0  0  0  0  0  0  0  0
   -0.8498    0.3717   -1.3740 C   0  0  0  0  0  0  0  0  0  0  0  0
   -0.3155    0.2696   -2.4766 O   0  0  0  0  0  0  0  0  0  0  0  0
    1.4204    0.3094   -0.3305 C   0  0  0  0  0  0  0  0  0  0  0  0
    2.2650    0.3353    0.9477 C   0  0  0  0  0  0  0  0  0  0  0  0
    3.7559    0.4647    0.6240 C   0  0  0  0  0  0  0  0  0  0  0  0
    4.5995    0.4658    1.8977 C   0  0  0  0  0  0  0  0  0  0  0  0
    6.0159    0.5659    1.5668 N   0  0  0  0  0  0  0  0  0  0  0  0
   -1.2794   -1.1113    1.0935 H   0  0  0  0  0  0  0  0  0  0  0  0
   -0.3983    0.9931    0.6347 H   0  0  0  0  0  0  0  0  0  0  0  0
    1.6207    1.2231   -0.9055 H   0  0  0  0  0  0  0  0  0  0  0  0
    1.7452   -0.5239   -0.9683 H   0  0  0  0  0  0  0  0  0  0  0  0
    2.1030   -0.5810    1.5263 H   0  0  0  0  0  0  0  0  0  0  0  0
    1.9525    1.1777    1.5763 H   0  0  0  0  0  0  0  0  0  0  0  0
    4.0613   -0.3661   -0.0245 H   0  0  0  0  0  0  0  0  0  0  0  0
    3.9294    1.3923    0.0638 H   0  0  0  0  0  0  0  0  0  0  0  0
    4.4244   -0.4524    2.4691 H   0  0  0  0  0  0  0  0  0  0  0  0
    4.3208    1.3128    2.5335 H   0  0  0  0  0  0  0  0  0  0  0  0
    6.1055    0.5882    0.5778 H   0  0  0  0  0  0  0  0  0  0  0  0
    6.3723    1.4016    1.9684 H   0  0  0  0  0  0  0  0  0  0  0  0
   -2.1896    0.6696   -1.1662 N   0  0  0  0  0  0  0  0  0  0  0  0
   -3.1268    0.8978   -2.2424 C   0  0  2  0  0  0  0  0  0  0  0  0
   -4.1543    1.9148   -1.7635 C   0  0  0  0  0  0  0  0  0  0  0  0
   -4.5440    1.9774   -0.5993 O   0  0  0  0  0  0  0  0  0  0  0  0
   -3.8016   -0.3955   -2.6721 C   0  0  0  0  0  0  0  0  0  0  0  0
   -2.5456    0.7248   -0.2166 H   0  0  0  0  0  0  0  0  0  0  0  0
   -2.5548    1.3203   -3.0757 H   0  0  0  0  0  0  0  0  0  0  0  0
   -4.3795   -0.8337   -1.8503 H   0  0  0  0  0  0  0  0  0  0  0  0
   -4.4901   -0.2256   -3.5065 H   0  0  0  0  0  0  0  0  0  0  0  0
   -3.0591   -1.1362   -2.9881 H   0  0  0  0  0  0  0  0  0  0  0  0
   -4.6169    2.7162   -2.7979 N   0  0  0  0  0  0  0  0  0  0  0  0
   -5.6279    3.7297   -2.6067 C   0  0  0  0  0  0  0  0  0  0  0  0
   -4.2092    2.6221   -3.7235 H   0  0  0  0  0  0  0  0  0  0  0  0
   -6.6202    3.3019   -2.8124 H   0  0  0  0  0  0  0  0  0  0  0  0
   -5.5927    4.0913   -1.5684 H   0  0  0  0  0  0  0  0  0  0  0  0
   -5.4408    4.5683   -3.2936 H   0  0  0  0  0  0  0  0  0  0  0  0
  1  3  1  0  0  0  0
  1  7  1  0  0  0  0
  1  2  2  0  0  0  0
 39 40  1  0  0  0  0
 40 48  1  0  0  0  0
 40 41  2  0  0  0  0
  8  9  1  0  0  0  0
  9 17  1  0  0  0  0
  9 10  2  0  0  0  0
 18 19  1  0  0  0  0
 19 38  1  0  0  0  0
 19 20  2  0  0  0  0
 39 42  1  0  0  0  0
  8 11  1  0  0  0  0
 48 49  1  0  0  0  0
 22 23  1  0  0  0  0
 21 22  1  0  0  0  0
 23 24  1  0  0  0  0
 18 21  1  0  0  0  0
 24 25  1  0  0  0  0
 38 39  1  0  0  0  0
  7  8  1  0  0  0  0
 17 18  1  0  0  0  0
  3  4  1  0  0  0  0
  3  5  1  0  0  0  0
  3  6  1  0  0  0  0
 42 45  1  0  0  0  0
 42 46  1  0  0  0  0
 42 47  1  0  0  0  0
 11 14  1  0  0  0  0
 11 15  1  0  0  0  0
 11 16  1  0  0  0  0
 49 51  1  0  0  0  0
 49 52  1  0  0  0  0
 49 53  1  0  0  0  0
 22 30  1  0  0  0  0
 22 31  1  0  0  0  0
 23 32  1  0  0  0  0
 23 33  1  0  0  0  0
 21 28  1  0  0  0  0
 21 29  1  0  0  0  0
 24 34  1  0  0  0  0
 24 35  1  0  0  0  0
 39 44  1  0  0  0  0
  8 13  1  0  0  0  0
 18 27  1  0  0  0  0
 25 36  1  0  0  0  0
 25 37  1  0  0  0  0
 48 50  1  0  0  0  0
  7 12  1  0  0  0  0
 38 43  1  0  0  0  0
 17 26  1  0  0  0  0
M  END
$$$$

  -OEChem-05262214473D

 53 52  0     1  0  0  0  0  0999 V2000
   -1.0338   -5.6785    0.1476 C   0  0  0  0  0  0  0  0  0  0  0  0
   -2.0514   -5.7797    0.8227 O   0  0  0  0  0  0  0  0  0  0  0  0
   -0.6558   -6.7819   -0.7841 C   0  0  0  0  0  0  0  0  0  0  0  0
   -0.0111   -7.5354   -0.3038 H   0  0  0  0  0  0  0  0  0  0  0  0
   -1.5317   -7.3401   -1.1520 H   0  0  0  0  0  0  0  0  0  0  0  0
   -0.1109   -6.4687   -1.6890 H   0  0  0  0  0  0  0  0  0  0  0  0
   -0.1543   -4.6083    0.1480 N   0  0  0  0  0  0  0  0  0  0  0  0
   -0.3302   -3.4398    0.9696 C   0  0  2  0  0  0  0  0  0  0  0  0
    0.2328   -2.2439    0.2131 C   0  0  0  0  0  0  0  0  0  0  0  0
    1.2097   -2.3192   -0.5294 O   0  0  0  0  0  0  0  0  0  0  0  0
    0.3557   -3.6024    2.3171 C   0  0  0  0  0  0  0  0  0  0  0  0
    0.6584   -4.6506   -0.4643 H   0  0  0  0  0  0  0  0  0  0  0  0
   -1.4091   -3.3101    1.1082 H   0  0  0  0  0  0  0  0  0  0  0  0
    1.4375   -3.7336    2.1985 H   0  0  0  0  0  0  0  0  0  0  0  0
    0.1969   -2.7243    2.9517 H   0  0  0  0  0  0  0  0  0  0  0  0
   -0.0294   -4.4803    2.8470 H   0  0  0  0  0  0  0  0  0  0  0  0
   -0.4616   -1.0893    0.5050 N   0  0  0  0  0  0  0  0  0  0  0  0
   -0.0884    0.2050   -0.0621 C   0  0  2  0  0  0  0  0  0  0  0  0
   -0.8498    0.3717   -1.3740 C   0  0  0  0  0  0  0  0  0  0  0  0
   -0.3990    0.0143   -2.4605 O   0  0  0  0  0  0  0  0  0  0  0  0
    1.4204    0.3094   -0.3305 C   0  0  0  0  0  0  0  0  0  0  0  0
    2.2650    0.3353    0.9477 C   0  0  0  0  0  0  0  0  0  0  0  0
    3.7559    0.4647    0.6240 C   0  0  0  0  0  0  0  0  0  0  0  0
    4.5995    0.4658    1.8977 C   0  0  0  0  0  0  0  0  0  0  0  0
    6.0159    0.5659    1.5668 N   0  0  0  0  0  0  0  0  0  0  0  0
   -1.2794   -1.1113    1.0935 H   0  0  0  0  0  0  0  0  0  0  0  0
   -0.3983    0.9931    0.6347 H   0  0  0  0  0  0  0  0  0  0  0  0
    1.6207    1.2231   -0.9055 H   0  0  0  0  0  0  0  0  0  0  0  0
    1.7452   -0.5239   -0.9683 H   0  0  0  0  0  0  0  0  0  0  0  0
    2.1030   -0.5810    1.5263 H   0  0  0  0  0  0  0  0  0  0  0  0
    1.9525    1.1777    1.5763 H   0  0  0  0  0  0  0  0  0  0  0  0
    4.0613   -0.3661   -0.0245 H   0  0  0  0  0  0  0  0  0  0  0  0
    3.9294    1.3923    0.0638 H   0  0  0  0  0  0  0  0  0  0  0  0
    4.4244   -0.4524    2.4691 H   0  0  0  0  0  0  0  0  0  0  0  0
    4.3208    1.3128    2.5335 H   0  0  0  0  0  0  0  0  0  0  0  0
    6.1055    0.5882    0.5778 H   0  0  0  0  0  0  0  0  0  0  0  0
    6.3723    1.4016    1.9684 H   0  0  0  0  0  0  0  0  0  0  0  0
   -2.0807    0.9863   -1.1892 N   0  0  0  0  0  0  0  0  0  0  0  0
   -2.9897    1.2816   -2.2733 C   0  0  2  0  0  0  0  0  0  0  0  0
   -3.7460    2.5552   -1.9191 C   0  0  0  0  0  0  0  0  0  0  0  0
   -4.0620    2.8497   -0.7683 O   0  0  0  0  0  0  0  0  0  0  0  0
   -3.9510    0.1291   -2.5188 C   0  0  0  0  0  0  0  0  0  0  0  0
   -2.3747    1.2391   -0.2505 H   0  0  0  0  0  0  0  0  0  0  0  0
   -2.3748    1.4566   -3.1628 H   0  0  0  0  0  0  0  0  0  0  0  0
   -4.5756   -0.0611   -1.6383 H   0  0  0  0  0  0  0  0  0  0  0  0
   -4.6202    0.3426   -3.3588 H   0  0  0  0  0  0  0  0  0  0  0  0
   -3.4045   -0.7931   -2.7440 H   0  0  0  0  0  0  0  0  0  0  0  0
   -4.0643    3.3031   -3.0441 N   0  0  0  0  0  0  0  0  0  0  0  0
   -4.8176    4.5334   -2.9749 C   0  0  0  0  0  0  0  0  0  0  0  0
   -3.7274    3.0042   -3.9546 H   0  0  0  0  0  0  0  0  0  0  0  0
   -5.8877    4.3167   -3.1086 H   0  0  0  0  0  0  0  0  0  0  0  0
   -4.6589    5.0057   -1.9942 H   0  0  0  0  0  0  0  0  0  0  0  0
   -4.4797    5.2153   -3.7692 H   0  0  0  0  0  0  0  0  0  0  0  0
  1  3  1  0  0  0  0
  1  7  1  0  0  0  0
  1  2  2  0  0  0  0
 39 40  1  0  0  0  0
 40 48  1  0  0  0  0
 40 41  2  0  0  0  0
  8  9  1  0  0  0  0
  9 17  1  0  0  0  0
  9 10  2  0  0  0  0
 18 19  1  0  0  0  0
 19 38  1  0  0  0  0
 19 20  2  0  0  0  0
 39 42  1  0  0  0  0
  8 11  1  0  0  0  0
 48 49  1  0  0  0  0
 22 23  1  0  0  0  0
 21 22  1  0  0  0  0
 23 24  1  0  0  0  0
 18 21  1  0  0  0  0
 24 25  1  0  0  0  0
 38 39  1  0  0  0  0
  7  8  1  0  0  0  0
 17 18  1  0  0  0  0
  3  4  1  0  0  0  0
  3  5  1  0  0  0  0
  3  6  1  0  0  0  0
 42 45  1  0  0  0  0
 42 46  1  0  0  0  0
 42 47  1  0  0  0  0
 11 14  1  0  0  0  0
 11 15  1  0  0  0  0
 11 16  1  0  0  0  0
 49 51  1  0  0  0  0
 49 52  1  0  0  0  0
 49 53  1  0  0  0  0
 22 30  1  0  0  0  0
 22 31  1  0  0  0  0
 23 32  1  0  0  0  0
 23 33  1  0  0  0  0
 21 28  1  0  0  0  0
 21 29  1  0  0  0  0
 24 34  1  0  0  0  0
 24 35  1  0  0  0  0
 39 44  1  0  0  0  0
  8 13  1  0  0  0  0
 18 27  1  0  0  0  0
 25 36  1  0  0  0  0
 25 37  1  0  0  0  0
 48 50  1  0  0  0  0
  7 12  1  0  0  0  0
 38 43  1  0  0  0  0
 17 26  1  0  0  0  0
M  END
$$$$

  -OEChem-05262214473D

 53 52  0     1  0  0  0  0  0999 V2000
   -1.0338   -5.6785    0.1476 C   0  0  0  0  0  0  0  0  0  0  0  0
   -2.0514   -5.7797    0.8227 O   0  0  0  0  0  0  0  0  0  0  0  0
   -0.6558   -6.7819   -0.7841 C   0  0  0  0  0  0  0  0  0  0  0  0
   -0.0111   -7.5354   -0.3038 H   0  0  0  0  0  0  0  0  0  0  0  0
   -1.5317   -7.3401   -1.1520 H   0  0  0  0  0  0  0  0  0  0  0  0
   -0.1109   -6.4687   -1.6890 H   0  0  0  0  0  0  0  0  0  0  0  0
   -0.1543   -4.6083    0.1480 N   0  0  0  0  0  0  0  0  0  0  0  0
   -0.3302   -3.4398    0.9696 C   0  0  2  0  0  0  0  0  0  0  0  0
    0.2328   -2.2439    0.2131 C   0  0  0  0  0  0  0  0  0  0  0  0
    1.2097   -2.3192   -0.5294 O   0  0  0  0  0  0  0  0  0  0  0  0
    0.3557   -3.6024    2.3171 C   0  0  0  0  0  0  0  0  0  0  0  0
    0.6584   -4.6506   -0.4643 H   0  0  0  0  0  0  0  0  0  0  0  0
   -1.4091   -3.3101    1.1082 H   0  0  0  0  0  0  0  0  0  0  0  0
    1.4375   -3.7336    2.1985 H   0  0  0  0  0  0  0  0  0  0  0  0
    0.1969   -2.7243    2.9517 H   0  0  0  0  0  0  0  0  0  0  0  0
   -0.0294   -4.4803    2.8470 H   0  0  0  0  0  0  0  0  0  0  0  0
   -0.4616   -1.0893    0.5050 N   0  0  0  0  0  0  0  0  0  0  0  0
   -0.0884    0.2050   -0.0621 C   0  0  2  0  0  0  0  0  0  0  0  0
   -0.8498    0.3717   -1.3740 C   0  0  0  0  0  0  0  0  0  0  0  0
   -0.5360   -0.2117   -2.4097 O   0  0  0  0  0  0  0  0  0  0  0  0
    1.4204    0.3094   -0.3305 C   0  0  0  0  0  0  0  0  0  0  0  0
    2.2650    0.3353    0.9477 C   0  0  0  0  0  0  0  0  0  0  0  0
    3.7559    0.4647    0.6240 C   0  0  0  0  0  0  0  0  0  0  0  0
    4.5995    0.4658    1.8977 C   0  0  0  0  0  0  0  0  0  0  0  0
    6.0159    0.5659    1.5668 N   0  0  0  0  0  0  0  0  0  0  0  0
   -1.2794   -1.1113    1.0935 H   0  0  0  0  0  0  0  0  0  0  0  0
   -0.3983    0.9931    0.6347 H   0  0  0  0  0  0  0  0  0  0  0  0
    1.6207    1.2231   -0.9055 H   0  0  0  0  0  0  0  0  0  0  0  0
    1.7452   -0.5239   -0.9683 H   0  0  0  0  0  0  0  0  0  0  0  0
    2.1030   -0.5810    1.5263 H   0  0  0  0  0  0  0  0  0  0  0  0
    1.9525    1.1777    1.5763 H   0  0  0  0  0  0  0  0  0  0  0  0
    4.0613   -0.3661   -0.0245 H   0  0  0  0  0  0  0  0  0  0  0  0
    3.9294    1.3923    0.0638 H   0  0  0  0  0  0  0  0  0  0  0  0
    4.4244   -0.4524    2.4691 H   0  0  0  0  0  0  0  0  0  0  0  0
    4.3208    1.3128    2.5335 H   0  0  0  0  0  0  0  0  0  0  0  0
    6.1055    0.5882    0.5778 H   0  0  0  0  0  0  0  0  0  0  0  0
    6.3723    1.4016    1.9684 H   0  0  0  0  0  0  0  0  0  0  0  0
   -1.9056    1.2650   -1.2554 N   0  0  0  0  0  0  0  0  0  0  0  0
   -2.7728    1.6178   -2.3565 C   0  0  2  0  0  0  0  0  0  0  0  0
   -3.2134    3.0629   -2.1637 C   0  0  0  0  0  0  0  0  0  0  0  0
   -3.4070    3.5633   -1.0578 O   0  0  0  0  0  0  0  0  0  0  0  0
   -3.9743    0.6889   -2.4341 C   0  0  0  0  0  0  0  0  0  0  0  0
   -2.0961    1.6936   -0.3544 H   0  0  0  0  0  0  0  0  0  0  0  0
   -2.1732    1.5370   -3.2697 H   0  0  0  0  0  0  0  0  0  0  0  0
   -4.5871    0.7561   -1.5278 H   0  0  0  0  0  0  0  0  0  0  0  0
   -4.6153    0.9396   -3.2858 H   0  0  0  0  0  0  0  0  0  0  0  0
   -3.6549   -0.3532   -2.5428 H   0  0  0  0  0  0  0  0  0  0  0  0
   -3.4068    3.7152   -3.3733 N   0  0  0  0  0  0  0  0  0  0  0  0
   -3.8664    5.0819   -3.4573 C   0  0  0  0  0  0  0  0  0  0  0  0
   -3.1836    3.2361   -4.2407 H   0  0  0  0  0  0  0  0  0  0  0  0
   -4.9627    5.0958   -3.5465 H   0  0  0  0  0  0  0  0  0  0  0  0
   -3.5656    5.6262   -2.5500 H   0  0  0  0  0  0  0  0  0  0  0  0
   -3.4208    5.5649   -4.3394 H   0  0  0  0  0  0  0  0  0  0  0  0
  1  3  1  0  0  0  0
  1  7  1  0  0  0  0
  1  2  2  0  0  0  0
 39 40  1  0  0  0  0
 40 48  1  0  0  0  0
 40 41  2  0  0  0  0
  8  9  1  0  0  0  0
  9 17  1  0  0  0  0
  9 10  2  0  0  0  0
 18 19  1  0  0  0  0
 19 38  1  0  0  0  0
 19 20  2  0  0  0  0
 39 42  1  0  0  0  0
  8 11  1  0  0  0  0
 48 49  1  0  0  0  0
 22 23  1  0  0  0  0
 21 22  1  0  0  0  0
 23 24  1  0  0  0  0
 18 21  1  0  0  0  0
 24 25  1  0  0  0  0
 38 39  1  0  0  0  0
  7  8  1  0  0  0  0
 17 18  1  0  0  0  0
  3  4  1  0  0  0  0
  3  5  1  0  0  0  0
  3  6  1  0  0  0  0
 42 45  1  0  0  0  0
 42 46  1  0  0  0  0
 42 47  1  0  0  0  0
 11 14  1  0  0  0  0
 11 15  1  0  0  0  0
 11 16  1  0  0  0  0
 49 51  1  0  0  0  0
 49 52  1  0  0  0  0
 49 53  1  0  0  0  0
 22 30  1  0  0  0  0
 22 31  1  0  0  0  0
 23 32  1  0  0  0  0
 23 33  1  0  0  0  0
 21 28  1  0  0  0  0
 21 29  1  0  0  0  0
 24 34  1  0  0  0  0
 24 35  1  0  0  0  0
 39 44  1  0  0  0  0
  8 13  1  0  0  0  0
 18 27  1  0  0  0  0
 25 36  1  0  0  0  0
 25 37  1  0  0  0  0
 48 50  1  0  0  0  0
  7 12  1  0  0  0  0
 38 43  1  0  0  0  0
 17 26  1  0  0  0  0
M  END
$$$$

  -OEChem-05262214473D

 53 52  0     1  0  0  0  0  0999 V2000
   -1.0338   -5.6785    0.1476 C   0  0  0  0  0  0  0  0  0  0  0  0
   -2.0514   -5.7797    0.8227 O   0  0  0  0  0  0  0  0  0  0  0  0
   -0.6558   -6.7819   -0.7841 C   0  0  0  0  0  0  0  0  0  0  0  0
   -0.0111   -7.5354   -0.3038 H   0  0  0  0  0  0  0  0  0  0  0  0
   -1.5317   -7.3401   -1.1520 H   0  0  0  0  0  0  0  0  0  0  0  0
   -0.1109   -6.4687   -1.6890 H   0  0  0  0  0  0  0  0  0  0  0  0
   -0.1543   -4.6083    0.1480 N   0  0  0  0  0  0  0  0  0  0  0  0
   -0.3302   -3.4398    0.9696 C   0  0  2  0  0  0  0  0  0  0  0  0
    0.2328   -2.2439    0.2131 C   0  0  0  0  0  0  0  0  0  0  0  0
    1.2097   -2.3192   -0.5294 O   0  0  0  0  0  0  0  0  0  0  0  0
    0.3557   -3.6024    2.3171 C   0  0  0  0  0  0  0  0  0  0  0  0
    0.6584   -4.6506   -0.4643 H   0  0  0  0  0  0  0  0  0  0  0  0
   -1.4091   -3.3101    1.1082 H   0  0  0  0  0  0  0  0  0  0  0  0
    1.4375   -3.7336    2.1985 H   0  0  0  0  0  0  0  0  0  0  0  0
    0.1969   -2.7243    2.9517 H   0  0  0  0  0  0  0  0  0  0  0  0
   -0.0294   -4.4803    2.8470 H   0  0  0  0  0  0  0  0  0  0  0  0
   -0.4616   -1.0893    0.5050 N   0  0  0  0  0  0  0  0  0  0  0  0
   -0.0884    0.2050   -0.0621 C   0  0  2  0  0  0  0  0  0  0  0  0
   -0.8498    0.3717   -1.3740 C   0  0  0  0  0  0  0  0  0  0  0  0
   -0.7172   -0.3929   -2.3276 O   0  0  0  0  0  0  0  0  0  0  0  0
    1.4204    0.3094   -0.3305 C   0  0  0  0  0  0  0  0  0  0  0  0
    2.2650    0.3353    0.9477 C   0  0  0  0  0  0  0  0  0  0  0  0
    3.7559    0.4647    0.6240 C   0  0  0  0  0  0  0  0  0  0  0  0
    4.5995    0.4658    1.8977 C   0  0  0  0  0  0  0  0  0  0  0  0
    6.0159    0.5659    1.5668 N   0  0  0  0  0  0  0  0  0  0  0  0
   -1.2794   -1.1113    1.0935 H   0  0  0  0  0  0  0  0  0  0  0  0
   -0.3983    0.9931    0.6347 H   0  0  0  0  0  0  0  0  0  0  0  0
    1.6207    1.2231   -0.9055 H   0  0  0  0  0  0  0  0  0  0  0  0
    1.7452   -0.5239   -0.9683 H   0  0  0  0  0  0  0  0  0  0  0  0
    2.1030   -0.5810    1.5263 H   0  0  0  0  0  0  0  0  0  0  0  0
    1.9525    1.1777    1.5763 H   0  0  0  0  0  0  0  0  0  0  0  0
    4.0613   -0.3661   -0.0245 H   0  0  0  0  0  0  0  0  0  0  0  0
    3.9294    1.3923    0.0638 H   0  0  0  0  0  0  0  0  0  0  0  0
    4.4244   -0.4524    2.4691 H   0  0  0  0  0  0  0  0  0  0  0  0
    4.3208    1.3128    2.5335 H   0  0  0  0  0  0  0  0  0  0  0  0
    6.1055    0.5882    0.5778 H   0  0  0  0  0  0  0  0  0  0  0  0
    6.3723    1.4016    1.9684 H   0  0  0  0  0  0  0  0  0  0  0  0
   -1.6764    1.4868   -1.3602 N   0  0  0  0  0  0  0  0  0  0  0  0
   -2.4907    1.8836   -2.4864 C   0  0  2  0  0  0  0  0  0  0  0  0
   -2.5930    3.4031   -2.4806 C   0  0  0  0  0  0  0  0  0  0  0  0
   -2.6238    4.0694   -1.4480 O   0  0  0  0  0  0  0  0  0  0  0  0
   -3.8699    1.2457   -2.4240 C   0  0  0  0  0  0  0  0  0  0  0  0
   -1.7288    2.0571   -0.5214 H   0  0  0  0  0  0  0  0  0  0  0  0
   -1.9635    1.5559   -3.3890 H   0  0  0  0  0  0  0  0  0  0  0  0
   -4.4133    1.5623   -1.5263 H   0  0  0  0  0  0  0  0  0  0  0  0
   -4.4756    1.5245   -3.2925 H   0  0  0  0  0  0  0  0  0  0  0  0
   -3.7932    0.1533   -2.3982 H   0  0  0  0  0  0  0  0  0  0  0  0
   -2.6894    3.9246   -3.7631 N   0  0  0  0  0  0  0  0  0  0  0  0
   -2.8393    5.3377   -4.0210 C   0  0  0  0  0  0  0  0  0  0  0  0
   -2.6148    3.3023   -4.5625 H   0  0  0  0  0  0  0  0  0  0  0  0
   -3.9083    5.5859   -4.0962 H   0  0  0  0  0  0  0  0  0  0  0  0
   -2.3871    5.9105   -3.1979 H   0  0  0  0  0  0  0  0  0  0  0  0
   -2.3363    5.5934   -4.9652 H   0  0  0  0  0  0  0  0  0  0  0  0
  1  3  1  0  0  0  0
  1  7  1  0  0  0  0
  1  2  2  0  0  0  0
 39 40  1  0  0  0  0
 40 48  1  0  0  0  0
 40 41  2  0  0  0  0
  8  9  1  0  0  0  0
  9 17  1  0  0  0  0
  9 10  2  0  0  0  0
 18 19  1  0  0  0  0
 19 38  1  0  0  0  0
 19 20  2  0  0  0  0
 39 42  1  0  0  0  0
  8 11  1  0  0  0  0
 48 49  1  0  0  0  0
 22 23  1  0  0  0  0
 21 22  1  0  0  0  0
 23 24  1  0  0  0  0
 18 21  1  0  0  0  0
 24 25  1  0  0  0  0
 38 39  1  0  0  0  0
  7  8  1  0  0  0  0
 17 18  1  0  0  0  0
  3  4  1  0  0  0  0
  3  5  1  0  0  0  0
  3  6  1  0  0  0  0
 42 45  1  0  0  0  0
 42 46  1  0  0  0  0
 42 47  1  0  0  0  0
 11 14  1  0  0  0  0
 11 15  1  0  0  0  0
 11 16  1  0  0  0  0
 49 51  1  0  0  0  0
 49 52  1  0  0  0  0
 49 53  1  0  0  0  0
 22 30  1  0  0  0  0
 22 31  1  0  0  0  0
 23 32  1  0  0  0  0
 23 33  1  0  0  0  0
 21 28  1  0  0  0  0
 21 29  1  0  0  0  0
 24 34  1  0  0  0  0
 24 35  1  0  0  0  0
 39 44  1  0  0  0  0
  8 13  1  0  0  0  0
 18 27  1  0  0  0  0
 25 36  1  0  0  0  0
 25 37  1  0  0  0  0
 48 50  1  0  0  0  0
  7 12  1  0  0  0  0
 38 43  1  0  0  0  0
 17 26  1  0  0  0  0
M  END
$$$$

  -OEChem-05262214473D

 53 52  0     1  0  0  0  0  0999 V2000
   -1.0338   -5.6785    0.1476 C   0  0  0  0  0  0  0  0  0  0  0  0
   -2.0514   -5.7797    0.8227 O   0  0  0  0  0  0  0  0  0  0  0  0
   -0.6558   -6.7819   -0.7841 C   0  0  0  0  0  0  0  0  0  0  0  0
   -0.0111   -7.5354   -0.3038 H   0  0  0  0  0  0  0  0  0  0  0  0
   -1.5317   -7.3401   -1.1520 H   0  0  0  0  0  0  0  0  0  0  0  0
   -0.1109   -6.4687   -1.6890 H   0  0  0  0  0  0  0  0  0  0  0  0
   -0.1543   -4.6083    0.1480 N   0  0  0  0  0  0  0  0  0  0  0  0
   -0.3302   -3.4398    0.9696 C   0  0  2  0  0  0  0  0  0  0  0  0
    0.2328   -2.2439    0.2131 C   0  0  0  0  0  0  0  0  0  0  0  0
    1.2097   -2.3192   -0.5294 O   0  0  0  0  0  0  0  0  0  0  0  0
    0.3557   -3.6024    2.3171 C   0  0  0  0  0  0  0  0  0  0  0  0
    0.6584   -4.6506   -0.4643 H   0  0  0  0  0  0  0  0  0  0  0  0
   -1.4091   -3.3101    1.1082 H   0  0  0  0  0  0  0  0  0  0  0  0
    1.4375   -3.7336    2.1985 H   0  0  0  0  0  0  0  0  0  0  0  0
    0.1969   -2.7243    2.9517 H   0  0  0  0  0  0  0  0  0  0  0  0
   -0.0294   -4.4803    2.8470 H   0  0  0  0  0  0  0  0  0  0  0  0
   -0.4616   -1.0893    0.5050 N   0  0  0  0  0  0  0  0  0  0  0  0
   -0.0884    0.2050   -0.0621 C   0  0  2  0  0  0  0  0  0  0  0  0
   -0.8498    0.3717   -1.3740 C   0  0  0  0  0  0  0  0  0  0  0  0
   -0.9302   -0.5170   -2.2197 O   0  0  0  0  0  0  0  0  0  0  0  0
    1.4204    0.3094   -0.3305 C   0  0  0  0  0  0  0  0  0  0  0  0
    2.2650    0.3353    0.9477 C   0  0  0  0  0  0  0  0  0  0  0  0
    3.7559    0.4647    0.6240 C   0  0  0  0  0  0  0  0  0  0  0  0
    4.5995    0.4658    1.8977 C   0  0  0  0  0  0  0  0  0  0  0  0
    6.0159    0.5659    1.5668 N   0  0  0  0  0  0  0  0  0  0  0  0
   -1.2794   -1.1113    1.0935 H   0  0  0  0  0  0  0  0  0  0  0  0
   -0.3983    0.9931    0.6347 H   0  0  0  0  0  0  0  0  0  0  0  0
    1.6207    1.2231   -0.9055 H   0  0  0  0  0  0  0  0  0  0  0  0
    1.7452   -0.5239   -0.9683 H   0  0  0  0  0  0  0  0  0  0  0  0
    2.1030   -0.5810    1.5263 H   0  0  0  0  0  0  0  0  0  0  0  0
    1.9525    1.1777    1.5763 H   0  0  0  0  0  0  0  0  0  0  0  0
    4.0613   -0.3661   -0.0245 H   0  0  0  0  0  0  0  0  0  0  0  0
    3.9294    1.3923    0.0638 H   0  0  0  0  0  0  0  0  0  0  0  0
    4.4244   -0.4524    2.4691 H   0  0  0  0  0  0  0  0  0  0  0  0
    4.3208    1.3128    2.5335 H   0  0  0  0  0  0  0  0  0  0  0  0
    6.1055    0.5882    0.5778 H   0  0  0  0  0  0  0  0  0  0  0  0
    6.3723    1.4016    1.9684 H   0  0  0  0  0  0  0  0  0  0  0  0
   -1.4086    1.6365   -1.4966 N   0  0  0  0  0  0  0  0  0  0  0  0
   -2.1629    2.0607   -2.6542 C   0  0  2  0  0  0  0  0  0  0  0  0
   -1.9270    3.5528   -2.8481 C   0  0  0  0  0  0  0  0  0  0  0  0
   -1.7657    4.3336   -1.9125 O   0  0  0  0  0  0  0  0  0  0  0  0
   -3.6448    1.7616   -2.4891 C   0  0  0  0  0  0  0  0  0  0  0  0
   -1.2979    2.3049   -0.7401 H   0  0  0  0  0  0  0  0  0  0  0  0
   -1.7601    1.5121   -3.5126 H   0  0  0  0  0  0  0  0  0  0  0  0
   -4.0659    2.3025   -1.6338 H   0  0  0  0  0  0  0  0  0  0  0  0
   -4.2108    2.0576   -3.3785 H   0  0  0  0  0  0  0  0  0  0  0  0
   -3.8100    0.6921   -2.3200 H   0  0  0  0  0  0  0  0  0  0  0  0
   -1.9609    3.9168   -4.1870 N   0  0  0  0  0  0  0  0  0  0  0  0
   -1.8062    5.2835   -4.6275 C   0  0  0  0  0  0  0  0  0  0  0  0
   -2.0598    3.1980   -4.8979 H   0  0  0  0  0  0  0  0  0  0  0  0
   -2.7963    5.7537   -4.7203 H   0  0  0  0  0  0  0  0  0  0  0  0
   -1.2039    5.8392   -3.8937 H   0  0  0  0  0  0  0  0  0  0  0  0
   -1.3001    5.2988   -5.6041 H   0  0  0  0  0  0  0  0  0  0  0  0
  1  3  1  0  0  0  0
  1  7  1  0  0  0  0
  1  2  2  0  0  0  0
 39 40  1  0  0  0  0
 40 48  1  0  0  0  0
 40 41  2  0  0  0  0
  8  9  1  0  0  0  0
  9 17  1  0  0  0  0
  9 10  2  0  0  0  0
 18 19  1  0  0  0  0
 19 38  1  0  0  0  0
 19 20  2  0  0  0  0
 39 42  1  0  0  0  0
  8 11  1  0  0  0  0
 48 49  1  0  0  0  0
 22 23  1  0  0  0  0
 21 22  1  0  0  0  0
 23 24  1  0  0  0  0
 18 21  1  0  0  0  0
 24 25  1  0  0  0  0
 38 39  1  0  0  0  0
  7  8  1  0  0  0  0
 17 18  1  0  0  0  0
  3  4  1  0  0  0  0
  3  5  1  0  0  0  0
  3  6  1  0  0  0  0
 42 45  1  0  0  0  0
 42 46  1  0  0  0  0
 42 47  1  0  0  0  0
 11 14  1  0  0  0  0
 11 15  1  0  0  0  0
 11 16  1  0  0  0  0
 49 51  1  0  0  0  0
 49 52  1  0  0  0  0
 49 53  1  0  0  0  0
 22 30  1  0  0  0  0
 22 31  1  0  0  0  0
 23 32  1  0  0  0  0
 23 33  1  0  0  0  0
 21 28  1  0  0  0  0
 21 29  1  0  0  0  0
 24 34  1  0  0  0  0
 24 35  1  0  0  0  0
 39 44  1  0  0  0  0
  8 13  1  0  0  0  0
 18 27  1  0  0  0  0
 25 36  1  0  0  0  0
 25 37  1  0  0  0  0
 48 50  1  0  0  0  0
  7 12  1  0  0  0  0
 38 43  1  0  0  0  0
 17 26  1  0  0  0  0
M  END
$$$$

  -OEChem-05262214473D

 53 52  0     1  0  0  0  0  0999 V2000
   -1.0338   -5.6785    0.1476 C   0  0  0  0  0  0  0  0  0  0  0  0
   -2.0514   -5.7797    0.8227 O   0  0  0  0  0  0  0  0  0  0  0  0
   -0.6558   -6.7819   -0.7841 C   0  0  0  0  0  0  0  0  0  0  0  0
   -0.0111   -7.5354   -0.3038 H   0  0  0  0  0  0  0  0  0  0  0  0
   -1.5317   -7.3401   -1.1520 H   0  0  0  0  0  0  0  0  0  0  0  0
   -0.1109   -6.4687   -1.6890 H   0  0  0  0  0  0  0  0  0  0  0  0
   -0.1543   -4.6083    0.1480 N   0  0  0  0  0  0  0  0  0  0  0  0
   -0.3302   -3.4398    0.9696 C   0  0  2  0  0  0  0  0  0  0  0  0
    0.2328   -2.2439    0.2131 C   0  0  0  0  0  0  0  0  0  0  0  0
    1.2097   -2.3192   -0.5294 O   0  0  0  0  0  0  0  0  0  0  0  0
    0.3557   -3.6024    2.3171 C   0  0  0  0  0  0  0  0  0  0  0  0
    0.6584   -4.6506   -0.4643 H   0  0  0  0  0  0  0  0  0  0  0  0
   -1.4091   -3.3101    1.1082 H   0  0  0  0  0  0  0  0  0  0  0  0
    1.4375   -3.7336    2.1985 H   0  0  0  0  0  0  0  0  0  0  0  0
    0.1969   -2.7243    2.9517 H   0  0  0  0  0  0  0  0  0  0  0  0
   -0.0294   -4.4803    2.8470 H   0  0  0  0  0  0  0  0  0  0  0  0
   -0.4616   -1.0893    0.5050 N   0  0  0  0  0  0  0  0  0  0  0  0
   -0.0884    0.2050   -0.0621 C   0  0  2  0  0  0  0  0  0  0  0  0
   -0.8498    0.3717   -1.3740 C   0  0  0  0  0  0  0  0  0  0  0  0
   -1.1605   -0.5755   -2.0935 O   0  0  0  0  0  0  0  0  0  0  0  0
    1.4204    0.3094   -0.3305 C   0  0  0  0  0  0  0  0  0  0  0  0
    2.2650    0.3353    0.9477 C   0  0  0  0  0  0  0  0  0  0  0  0
    3.7559    0.4647    0.6240 C   0  0  0  0  0  0  0  0  0  0  0  0
    4.5995    0.4658    1.8977 C   0  0  0  0  0  0  0  0  0  0  0  0
    6.0159    0.5659    1.5668 N   0  0  0  0  0  0  0  0  0  0  0  0
   -1.2794   -1.1113    1.0935 H   0  0  0  0  0  0  0  0  0  0  0  0
   -0.3983    0.9931    0.6347 H   0  0  0  0  0  0  0  0  0  0  0  0
    1.6207    1.2231   -0.9055 H   0  0  0  0  0  0  0  0  0  0  0  0
    1.7452   -0.5239   -0.9683 H   0  0  0  0  0  0  0  0  0  0  0  0
    2.1030   -0.5810    1.5263 H   0  0  0  0  0  0  0  0  0  0  0  0
    1.9525    1.1777    1.5763 H   0  0  0  0  0  0  0  0  0  0  0  0
    4.0613   -0.3661   -0.0245 H   0  0  0  0  0  0  0  0  0  0  0  0
    3.9294    1.3923    0.0638 H   0  0  0  0  0  0  0  0  0  0  0  0
    4.4244   -0.4524    2.4691 H   0  0  0  0  0  0  0  0  0  0  0  0
    4.3208    1.3128    2.5335 H   0  0  0  0  0  0  0  0  0  0  0  0
    6.1055    0.5882    0.5778 H   0  0  0  0  0  0  0  0  0  0  0  0
    6.3723    1.4016    1.9684 H   0  0  0  0  0  0  0  0  0  0  0  0
   -1.1205    1.7038   -1.6553 N   0  0  0  0  0  0  0  0  0  0  0  0
   -1.8115    2.1372   -2.8484 C   0  0  2  0  0  0  0  0  0  0  0  0
   -1.2608    3.5017   -3.2413 C   0  0  0  0  0  0  0  0  0  0  0  0
   -0.8912    4.3379   -2.4196 O   0  0  0  0  0  0  0  0  0  0  0  0
   -3.3144    2.2015   -2.6250 C   0  0  0  0  0  0  0  0  0  0  0  0
   -0.8327    2.4202   -0.9954 H   0  0  0  0  0  0  0  0  0  0  0  0
   -1.5769    1.4086   -3.6320 H   0  0  0  0  0  0  0  0  0  0  0  0
   -3.5687    2.9264   -1.8431 H   0  0  0  0  0  0  0  0  0  0  0  0
   -3.8387    2.5024   -3.5379 H   0  0  0  0  0  0  0  0  0  0  0  0
   -3.7041    1.2263   -2.3135 H   0  0  0  0  0  0  0  0  0  0  0  0
   -1.2709    3.6924   -4.6160 N   0  0  0  0  0  0  0  0  0  0  0  0
   -0.8375    4.9230   -5.2356 C   0  0  0  0  0  0  0  0  0  0  0  0
   -1.5563    2.9305   -5.2241 H   0  0  0  0  0  0  0  0  0  0  0  0
   -1.7025    5.5878   -5.3763 H   0  0  0  0  0  0  0  0  0  0  0  0
   -0.0965    5.4172   -4.5901 H   0  0  0  0  0  0  0  0  0  0  0  0
   -0.3829    4.7012   -6.2124 H   0  0  0  0  0  0  0  0  0  0  0  0
  1  3  1  0  0  0  0
  1  7  1  0  0  0  0
  1  2  2  0  0  0  0
 39 40  1  0  0  0  0
 40 48  1  0  0  0  0
 40 41  2  0  0  0  0
  8  9  1  0  0  0  0
  9 17  1  0  0  0  0
  9 10  2  0  0  0  0
 18 19  1  0  0  0  0
 19 38  1  0  0  0  0
 19 20  2  0  0  0  0
 39 42  1  0  0  0  0
  8 11  1  0  0  0  0
 48 49  1  0  0  0  0
 22 23  1  0  0  0  0
 21 22  1  0  0  0  0
 23 24  1  0  0  0  0
 18 21  1  0  0  0  0
 24 25  1  0  0  0  0
 38 39  1  0  0  0  0
  7  8  1  0  0  0  0
 17 18  1  0  0  0  0
  3  4  1  0  0  0  0
  3  5  1  0  0  0  0
  3  6  1  0  0  0  0
 42 45  1  0  0  0  0
 42 46  1  0  0  0  0
 42 47  1  0  0  0  0
 11 14  1  0  0  0  0
 11 15  1  0  0  0  0
 11 16  1  0  0  0  0
 49 51  1  0  0  0  0
 49 52  1  0  0  0  0
 49 53  1  0  0  0  0
 22 30  1  0  0  0  0
 22 31  1  0  0  0  0
 23 32  1  0  0  0  0
 23 33  1  0  0  0  0
 21 28  1  0  0  0  0
 21 29  1  0  0  0  0
 24 34  1  0  0  0  0
 24 35  1  0  0  0  0
 39 44  1  0  0  0  0
  8 13  1  0  0  0  0
 18 27  1  0  0  0  0
 25 36  1  0  0  0  0
 25 37  1  0  0  0  0
 48 50  1  0  0  0  0
  7 12  1  0  0  0  0
 38 43  1  0  0  0  0
 17 26  1  0  0  0  0
M  END
$$$$

  -OEChem-05262214473D

 53 52  0     1  0  0  0  0  0999 V2000
   -1.0338   -5.6785    0.1476 C   0  0  0  0  0  0  0  0  0  0  0  0
   -2.0514   -5.7797    0.8227 O   0  0  0  0  0  0  0  0  0  0  0  0
   -0.6558   -6.7819   -0.7841 C   0  0  0  0  0  0  0  0  0  0  0  0
   -0.0111   -7.5354   -0.3038 H   0  0  0  0  0  0  0  0  0  0  0  0
   -1.5317   -7.3401   -1.1520 H   0  0  0  0  0  0  0  0  0  0  0  0
   -0.1109   -6.4687   -1.6890 H   0  0  0  0  0  0  0  0  0  0  0  0
   -0.1543   -4.6083    0.1480 N   0  0  0  0  0  0  0  0  0  0  0  0
   -0.3302   -3.4398    0.9696 C   0  0  2  0  0  0  0  0  0  0  0  0
    0.2328   -2.2439    0.2131 C   0  0  0  0  0  0  0  0  0  0  0  0
    1.2097   -2.3192   -0.5294 O   0  0  0  0  0  0  0  0  0  0  0  0
    0.3557   -3.6024    2.3171 C   0  0  0  0  0  0  0  0  0  0  0  0
    0.6584   -4.6506   -0.4643 H   0  0  0  0  0  0  0  0  0  0  0  0
   -1.4091   -3.3101    1.1082 H   0  0  0  0  0  0  0  0  0  0  0  0
    1.4375   -3.7336    2.1985 H   0  0  0  0  0  0  0  0  0  0  0  0
    0.1969   -2.7243    2.9517 H   0  0  0  0  0  0  0  0  0  0  0  0
   -0.0294   -4.4803    2.8470 H   0  0  0  0  0  0  0  0  0  0  0  0
   -0.4616   -1.0893    0.5050 N   0  0  0  0  0  0  0  0  0  0  0  0
   -0.0884    0.2050   -0.0621 C   0  0  2  0  0  0  0  0  0  0  0  0
   -0.8498    0.3717   -1.3740 C   0  0  0  0  0  0  0  0  0  0  0  0
   -1.3925   -0.5646   -1.9575 O   0  0  0  0  0  0  0  0  0  0  0  0
    1.4204    0.3094   -0.3305 C   0  0  0  0  0  0  0  0  0  0  0  0
    2.2650    0.3353    0.9477 C   0  0  0  0  0  0  0  0  0  0  0  0
    3.7559    0.4647    0.6240 C   0  0  0  0  0  0  0  0  0  0  0  0
    4.5995    0.4658    1.8977 C   0  0  0  0  0  0  0  0  0  0  0  0
    6.0159    0.5659    1.5668 N   0  0  0  0  0  0  0  0  0  0  0  0
   -1.2794   -1.1113    1.0935 H   0  0  0  0  0  0  0  0  0  0  0  0
   -0.3983    0.9931    0.6347 H   0  0  0  0  0  0  0  0  0  0  0  0
    1.6207    1.2231   -0.9055 H   0  0  0  0  0  0  0  0  0  0  0  0
    1.7452   -0.5239   -0.9683 H   0  0  0  0  0  0  0  0  0  0  0  0
    2.1030   -0.5810    1.5263 H   0  0  0  0  0  0  0  0  0  0  0  0
    1.9525    1.1777    1.5763 H   0  0  0  0  0  0  0  0  0  0  0  0
    4.0613   -0.3661   -0.0245 H   0  0  0  0  0  0  0  0  0  0  0  0
    3.9294    1.3923    0.0638 H   0  0  0  0  0  0  0  0  0  0  0  0
    4.4244   -0.4524    2.4691 H   0  0  0  0  0  0  0  0  0  0  0  0
    4.3208    1.3128    2.5335 H   0  0  0  0  0  0  0  0  0  0  0  0
    6.1055    0.5882    0.5778 H   0  0  0  0  0  0  0  0  0  0  0  0
    6.3723    1.4016    1.9684 H   0  0  0  0  0  0  0  0  0  0  0  0
   -0.8318    1.6843   -1.8254 N   0  0  0  0  0  0  0  0  0  0  0  0
   -1.4606    2.1079   -3.0558 C   0  0  2  0  0  0  0  0  0  0  0  0
   -0.6397    3.2534   -3.6334 C   0  0  0  0  0  0  0  0  0  0  0  0
   -0.0598    4.0820   -2.9346 O   0  0  0  0  0  0  0  0  0  0  0  0
   -2.9012    2.5353   -2.8223 C   0  0  0  0  0  0  0  0  0  0  0  0
   -0.3649    2.3951   -1.2701 H   0  0  0  0  0  0  0  0  0  0  0  0
   -1.4264    1.2524   -3.7393 H   0  0  0  0  0  0  0  0  0  0  0  0
   -2.9556    3.3913   -2.1399 H   0  0  0  0  0  0  0  0  0  0  0  0
   -3.3849    2.8287   -3.7599 H   0  0  0  0  0  0  0  0  0  0  0  0
   -3.4828    1.7196   -2.3793 H   0  0  0  0  0  0  0  0  0  0  0  0
   -0.6664    3.2668   -5.0209 N   0  0  0  0  0  0  0  0  0  0  0  0
    0.0008    4.2806   -5.8038 C   0  0  0  0  0  0  0  0  0  0  0  0
   -1.1388    2.5180   -5.5188 H   0  0  0  0  0  0  0  0  0  0  0  0
   -0.7014    5.0994   -6.0194 H   0  0  0  0  0  0  0  0  0  0  0  0
    0.8596    4.6733   -5.2395 H   0  0  0  0  0  0  0  0  0  0  0  0
    0.3530    3.8413   -6.7488 H   0  0  0  0  0  0  0  0  0  0  0  0
  1  3  1  0  0  0  0
  1  7  1  0  0  0  0
  1  2  2  0  0  0  0
 39 40  1  0  0  0  0
 40 48  1  0  0  0  0
 40 41  2  0  0  0  0
  8  9  1  0  0  0  0
  9 17  1  0  0  0  0
  9 10  2  0  0  0  0
 18 19  1  0  0  0  0
 19 38  1  0  0  0  0
 19 20  2  0  0  0  0
 39 42  1  0  0  0  0
  8 11  1  0  0  0  0
 48 49  1  0  0  0  0
 22 23  1  0  0  0  0
 21 22  1  0  0  0  0
 23 24  1  0  0  0  0
 18 21  1  0  0  0  0
 24 25  1  0  0  0  0
 38 39  1  0  0  0  0
  7  8  1  0  0  0  0
 17 18  1  0  0  0  0
  3  4  1  0  0  0  0
  3  5  1  0  0  0  0
  3  6  1  0  0  0  0
 42 45  1  0  0  0  0
 42 46  1  0  0  0  0
 42 47  1  0  0  0  0
 11 14  1  0  0  0  0
 11 15  1  0  0  0  0
 11 16  1  0  0  0  0
 49 51  1  0  0  0  0
 49 52  1  0  0  0  0
 49 53  1  0  0  0  0
 22 30  1  0  0  0  0
 22 31  1  0  0  0  0
 23 32  1  0  0  0  0
 23 33  1  0  0  0  0
 21 28  1  0  0  0  0
 21 29  1  0  0  0  0
 24 34  1  0  0  0  0
 24 35  1  0  0  0  0
 39 44  1  0  0  0  0
  8 13  1  0  0  0  0
 18 27  1  0  0  0  0
 25 36  1  0  0  0  0
 25 37  1  0  0  0  0
 48 50  1  0  0  0  0
  7 12  1  0  0  0  0
 38 43  1  0  0  0  0
 17 26  1  0  0  0  0
M  END
$$$$

  -OEChem-05262214473D

 53 52  0     1  0  0  0  0  0999 V2000
   -1.0338   -5.6785    0.1476 C   0  0  0  0  0  0  0  0  0  0  0  0
   -2.0514   -5.7797    0.8227 O   0  0  0  0  0  0  0  0  0  0  0  0
   -0.6558   -6.7819   -0.7841 C   0  0  0  0  0  0  0  0  0  0  0  0
   -0.0111   -7.5354   -0.3038 H   0  0  0  0  0  0  0  0  0  0  0  0
   -1.5317   -7.3401   -1.1520 H   0  0  0  0  0  0  0  0  0  0  0  0
   -0.1109   -6.4687   -1.6890 H   0  0  0  0  0  0  0  0  0  0  0  0
   -0.1543   -4.6083    0.1480 N   0  0  0  0  0  0  0  0  0  0  0  0
   -0.3302   -3.4398    0.9696 C   0  0  2  0  0  0  0  0  0  0  0  0
    0.2328   -2.2439    0.2131 C   0  0  0  0  0  0  0  0  0  0  0  0
    1.2097   -2.3192   -0.5294 O   0  0  0  0  0  0  0  0  0  0  0  0
    0.3557   -3.6024    2.3171 C   0  0  0  0  0  0  0  0  0  0  0  0
    0.6584   -4.6506   -0.4643 H   0  0  0  0  0  0  0  0  0  0  0  0
   -1.4091   -3.3101    1.1082 H   0  0  0  0  0  0  0  0  0  0  0  0
    1.4375   -3.7336    2.1985 H   0  0  0  0  0  0  0  0  0  0  0  0
    0.1969   -2.7243    2.9517 H   0  0  0  0  0  0  0  0  0  0  0  0
   -0.0294   -4.4803    2.8470 H   0  0  0  0  0  0  0  0  0  0  0  0
   -0.4616   -1.0893    0.5050 N   0  0  0  0  0  0  0  0  0  0  0  0
   -0.0884    0.2050   -0.0621 C   0  0  2  0  0  0  0  0  0  0  0  0
   -1.1038    0.5432   -1.1499 C   0  0  0  0  0  0  0  0  0  0  0  0
   -2.0335   -0.2018   -1.4536 O   0  0  0  0  0  0  0  0  0  0  0  0
    1.3230    0.1896   -0.6679 C   0  0  0  0  0  0  0  0  0  0  0  0
    2.4321    0.0376    0.3782 C   0  0  0  0  0  0  0  0  0  0  0  0
    3.8165    0.0530   -0.2758 C   0  0  0  0  0  0  0  0  0  0  0  0
    4.9210   -0.1232    0.7649 C   0  0  0  0  0  0  0  0  0  0  0  0
    6.2284   -0.1294    0.1195 N   0  0  0  0  0  0  0  0  0  0  0  0
   -1.2794   -1.1113    1.0935 H   0  0  0  0  0  0  0  0  0  0  0  0
   -0.1459    0.9618    0.7294 H   0  0  0  0  0  0  0  0  0  0  0  0
    1.4859    1.1228   -1.2232 H   0  0  0  0  0  0  0  0  0  0  0  0
    1.4033   -0.6180   -1.4082 H   0  0  0  0  0  0  0  0  0  0  0  0
    2.3070   -0.9020    0.9279 H   0  0  0  0  0  0  0  0  0  0  0  0
    2.3626    0.8539    1.1071 H   0  0  0  0  0  0  0  0  0  0  0  0
    3.8759   -0.7496   -1.0218 H   0  0  0  0  0  0  0  0  0  0  0  0
    3.9583    1.0013   -0.8097 H   0  0  0  0  0  0  0  0  0  0  0  0
    4.7812   -1.0629    1.3105 H   0  0  0  0  0  0  0  0  0  0  0  0
    4.8863    0.6939    1.4932 H   0  0  0  0  0  0  0  0  0  0  0  0
    6.0941   -0.0386   -0.8604 H   0  0  0  0  0  0  0  0  0  0  0  0
    6.7544    0.6358    0.4721 H   0  0  0  0  0  0  0  0  0  0  0  0
   -0.8349    1.7634   -1.7545 N   0  0  0  0  0  0  0  0  0  0  0  0
   -1.6321    2.3075   -2.8302 C   0  0  2  0  0  0  0  0  0  0  0  0
   -0.7111    3.1132   -3.7370 C   0  0  0  0  0  0  0  0  0  0  0  0
    0.2538    3.7494   -3.3184 O   0  0  0  0  0  0  0  0  0  0  0  0
   -2.7634    3.1729   -2.2975 C   0  0  0  0  0  0  0  0  0  0  0  0
   -0.0475    2.3168   -1.4300 H   0  0  0  0  0  0  0  0  0  0  0  0
   -2.0380    1.4550   -3.3856 H   0  0  0  0  0  0  0  0  0  0  0  0
   -2.3761    4.0323   -1.7381 H   0  0  0  0  0  0  0  0  0  0  0  0
   -3.3835    3.5612   -3.1123 H   0  0  0  0  0  0  0  0  0  0  0  0
   -3.4077    2.5997   -1.6220 H   0  0  0  0  0  0  0  0  0  0  0  0
   -1.1188    3.0733   -5.0630 N   0  0  0  0  0  0  0  0  0  0  0  0
   -0.4337    3.7929   -6.1113 C   0  0  0  0  0  0  0  0  0  0  0  0
   -1.9062    2.4882   -5.3263 H   0  0  0  0  0  0  0  0  0  0  0  0
   -0.9011    4.7796   -6.2453 H   0  0  0  0  0  0  0  0  0  0  0  0
    0.6235    3.9225   -5.8365 H   0  0  0  0  0  0  0  0  0  0  0  0
   -0.5014    3.2246   -7.0507 H   0  0  0  0  0  0  0  0  0  0  0  0
  1  3  1  0  0  0  0
  1  7  1  0  0  0  0
  1  2  2  0  0  0  0
 39 40  1  0  0  0  0
 40 48  1  0  0  0  0
 40 41  2  0  0  0  0
  8  9  1  0  0  0  0
  9 17  1  0  0  0  0
  9 10  2  0  0  0  0
 18 19  1  0  0  0  0
 19 38  1  0  0  0  0
 19 20  2  0  0  0  0
 39 42  1  0  0  0  0
  8 11  1  0  0  0  0
 48 49  1  0  0  0  0
 22 23  1  0  0  0  0
 21 22  1  0  0  0  0
 23 24  1  0  0  0  0
 18 21  1  0  0  0  0
 24 25  1  0  0  0  0
 38 39  1  0  0  0  0
  7  8  1  0  0  0  0
 17 18  1  0  0  0  0
  3  4  1  0  0  0  0
  3  5  1  0  0  0  0
  3  6  1  0  0  0  0
 42 45  1  0  0  0  0
 42 46  1  0  0  0  0
 42 47  1  0  0  0  0
 11 14  1  0  0  0  0
 11 15  1  0  0  0  0
 11 16  1  0  0  0  0
 49 51  1  0  0  0  0
 49 52  1  0  0  0  0
 49 53  1  0  0  0  0
 22 30  1  0  0  0  0
 22 31  1  0  0  0  0
 23 32  1  0  0  0  0
 23 33  1  0  0  0  0
 21 28  1  0  0  0  0
 21 29  1  0  0  0  0
 24 34  1  0  0  0  0
 24 35  1  0  0  0  0
 39 44  1  0  0  0  0
  8 13  1  0  0  0  0
 18 27  1  0  0  0  0
 25 36  1  0  0  0  0
 25 37  1  0  0  0  0
 48 50  1  0  0  0  0
  7 12  1  0  0  0  0
 38 43  1  0  0  0  0
 17 26  1  0  0  0  0
M  END
$$$$

  -OEChem-05262214473D

 53 52  0     1  0  0  0  0  0999 V2000
   -1.0338   -5.6785    0.1476 C   0  0  0  0  0  0  0  0  0  0  0  0
   -2.0514   -5.7797    0.8227 O   0  0  0  0  0  0  0  0  0  0  0  0
   -0.6558   -6.7819   -0.7841 C   0  0  0  0  0  0  0  0  0  0  0  0
   -0.0111   -7.5354   -0.3038 H   0  0  0  0  0  0  0  0  0  0  0  0
   -1.5317   -7.3401   -1.1520 H   0  0  0  0  0  0  0  0  0  0  0  0
   -0.1109   -6.4687   -1.6890 H   0  0  0  0  0  0  0  0  0  0  0  0
   -0.1543   -4.6083    0.1480 N   0  0  0  0  0  0  0  0  0  0  0  0
   -0.3302   -3.4398    0.9696 C   0  0  2  0  0  0  0  0  0  0  0  0
    0.2328   -2.2439    0.2131 C   0  0  0  0  0  0  0  0  0  0  0  0
    1.2097   -2.3192   -0.5294 O   0  0  0  0  0  0  0  0  0  0  0  0
    0.3557   -3.6024    2.3171 C   0  0  0  0  0  0  0  0  0  0  0  0
    0.6584   -4.6506   -0.4643 H   0  0  0  0  0  0  0  0  0  0  0  0
   -1.4091   -3.3101    1.1082 H   0  0  0  0  0  0  0  0  0  0  0  0
    1.4375   -3.7336    2.1985 H   0  0  0  0  0  0  0  0  0  0  0  0
    0.1969   -2.7243    2.9517 H   0  0  0  0  0  0  0  0  0  0  0  0
   -0.0294   -4.4803    2.8470 H   0  0  0  0  0  0  0  0  0  0  0  0
   -0.4616   -1.0893    0.5050 N   0  0  0  0  0  0  0  0  0  0  0  0
   -0.0884    0.2050   -0.0621 C   0  0  2  0  0  0  0  0  0  0  0  0
   -1.1038    0.5432   -1.1499 C   0  0  0  0  0  0  0  0  0  0  0  0
   -2.1719   -0.0521   -1.2779 O   0  0  0  0  0  0  0  0  0  0  0  0
    1.3230    0.1896   -0.6679 C   0  0  0  0  0  0  0  0  0  0  0  0
    2.4321    0.0376    0.3782 C   0  0  0  0  0  0  0  0  0  0  0  0
    3.8165    0.0530   -0.2758 C   0  0  0  0  0  0  0  0  0  0  0  0
    4.9210   -0.1232    0.7649 C   0  0  0  0  0  0  0  0  0  0  0  0
    6.2284   -0.1294    0.1195 N   0  0  0  0  0  0  0  0  0  0  0  0
   -1.2794   -1.1113    1.0935 H   0  0  0  0  0  0  0  0  0  0  0  0
   -0.1459    0.9618    0.7294 H   0  0  0  0  0  0  0  0  0  0  0  0
    1.4859    1.1228   -1.2232 H   0  0  0  0  0  0  0  0  0  0  0  0
    1.4033   -0.6180   -1.4082 H   0  0  0  0  0  0  0  0  0  0  0  0
    2.3070   -0.9020    0.9279 H   0  0  0  0  0  0  0  0  0  0  0  0
    2.3626    0.8539    1.1071 H   0  0  0  0  0  0  0  0  0  0  0  0
    3.8759   -0.7496   -1.0218 H   0  0  0  0  0  0  0  0  0  0  0  0
    3.9583    1.0013   -0.8097 H   0  0  0  0  0  0  0  0  0  0  0  0
    4.7812   -1.0629    1.3105 H   0  0  0  0  0  0  0  0  0  0  0  0
    4.8863    0.6939    1.4932 H   0  0  0  0  0  0  0  0  0  0  0  0
    6.0941   -0.0386   -0.8604 H   0  0  0  0  0  0  0  0  0  0  0  0
    6.7544    0.6358    0.4721 H   0  0  0  0  0  0  0  0  0  0  0  0
   -0.6655    1.5720   -1.9722 N   0  0  0  0  0  0  0  0  0  0  0  0
   -1.4289    2.0701   -3.0937 C   0  0  2  0  0  0  0  0  0  0  0  0
   -0.4475    2.5239   -4.1663 C   0  0  0  0  0  0  0  0  0  0  0  0
    0.6441    3.0264   -3.9074 O   0  0  0  0  0  0  0  0  0  0  0  0
   -2.3443    3.2108   -2.6769 C   0  0  0  0  0  0  0  0  0  0  0  0
    0.2302    2.0124   -1.7838 H   0  0  0  0  0  0  0  0  0  0  0  0
   -2.0209    1.2295   -3.4716 H   0  0  0  0  0  0  0  0  0  0  0  0
   -1.7690    4.0622   -2.2955 H   0  0  0  0  0  0  0  0  0  0  0  0
   -2.9428    3.5680   -3.5215 H   0  0  0  0  0  0  0  0  0  0  0  0
   -3.0296    2.8909   -1.8845 H   0  0  0  0  0  0  0  0  0  0  0  0
   -0.9521    2.3413   -5.4462 N   0  0  0  0  0  0  0  0  0  0  0  0
   -0.2279    2.7329   -6.6329 C   0  0  0  0  0  0  0  0  0  0  0  0
   -1.8489    1.8804   -5.5687 H   0  0  0  0  0  0  0  0  0  0  0  0
   -0.5193    3.7538   -6.9207 H   0  0  0  0  0  0  0  0  0  0  0  0
    0.8527    2.7037   -6.4292 H   0  0  0  0  0  0  0  0  0  0  0  0
   -0.4654    2.0391   -7.4528 H   0  0  0  0  0  0  0  0  0  0  0  0
  1  3  1  0  0  0  0
  1  7  1  0  0  0  0
  1  2  2  0  0  0  0
 39 40  1  0  0  0  0
 40 48  1  0  0  0  0
 40 41  2  0  0  0  0
  8  9  1  0  0  0  0
  9 17  1  0  0  0  0
  9 10  2  0  0  0  0
 18 19  1  0  0  0  0
 19 38  1  0  0  0  0
 19 20  2  0  0  0  0
 39 42  1  0  0  0  0
  8 11  1  0  0  0  0
 48 49  1  0  0  0  0
 22 23  1  0  0  0  0
 21 22  1  0  0  0  0
 23 24  1  0  0  0  0
 18 21  1  0  0  0  0
 24 25  1  0  0  0  0
 38 39  1  0  0  0  0
  7  8  1  0  0  0  0
 17 18  1  0  0  0  0
  3  4  1  0  0  0  0
  3  5  1  0  0  0  0
  3  6  1  0  0  0  0
 42 45  1  0  0  0  0
 42 46  1  0  0  0  0
 42 47  1  0  0  0  0
 11 14  1  0  0  0  0
 11 15  1  0  0  0  0
 11 16  1  0  0  0  0
 49 51  1  0  0  0  0
 49 52  1  0  0  0  0
 49 53  1  0  0  0  0
 22 30  1  0  0  0  0
 22 31  1  0  0  0  0
 23 32  1  0  0  0  0
 23 33  1  0  0  0  0
 21 28  1  0  0  0  0
 21 29  1  0  0  0  0
 24 34  1  0  0  0  0
 24 35  1  0  0  0  0
 39 44  1  0  0  0  0
  8 13  1  0  0  0  0
 18 27  1  0  0  0  0
 25 36  1  0  0  0  0
 25 37  1  0  0  0  0
 48 50  1  0  0  0  0
  7 12  1  0  0  0  0
 38 43  1  0  0  0  0
 17 26  1  0  0  0  0
M  END
$$$$

  -OEChem-05262214473D

 53 52  0     1  0  0  0  0  0999 V2000
   -1.0338   -5.6785    0.1476 C   0  0  0  0  0  0  0  0  0  0  0  0
   -2.0514   -5.7797    0.8227 O   0  0  0  0  0  0  0  0  0  0  0  0
   -0.6558   -6.7819   -0.7841 C   0  0  0  0  0  0  0  0  0  0  0  0
   -0.0111   -7.5354   -0.3038 H   0  0  0  0  0  0  0  0  0  0  0  0
   -1.5317   -7.3401   -1.1520 H   0  0  0  0  0  0  0  0  0  0  0  0
   -0.1109   -6.4687   -1.6890 H   0  0  0  0  0  0  0  0  0  0  0  0
   -0.1543   -4.6083    0.1480 N   0  0  0  0  0  0  0  0  0  0  0  0
   -0.3302   -3.4398    0.9696 C   0  0  2  0  0  0  0  0  0  0  0  0
    0.2328   -2.2439    0.2131 C   0  0  0  0  0  0  0  0  0  0  0  0
    1.2097   -2.3192   -0.5294 O   0  0  0  0  0  0  0  0  0  0  0  0
    0.3557   -3.6024    2.3171 C   0  0  0  0  0  0  0  0  0  0  0  0
    0.6584   -4.6506   -0.4643 H   0  0  0  0  0  0  0  0  0  0  0  0
   -1.4091   -3.3101    1.1082 H   0  0  0  0  0  0  0  0  0  0  0  0
    1.4375   -3.7336    2.1985 H   0  0  0  0  0  0  0  0  0  0  0  0
    0.1969   -2.7243    2.9517 H   0  0  0  0  0  0  0  0  0  0  0  0
   -0.0294   -4.4803    2.8470 H   0  0  0  0  0  0  0  0  0  0  0  0
   -0.4616   -1.0893    0.5050 N   0  0  0  0  0  0  0  0  0  0  0  0
   -0.0884    0.2050   -0.0621 C   0  0  2  0  0  0  0  0  0  0  0  0
   -1.1038    0.5432   -1.1499 C   0  0  0  0  0  0  0  0  0  0  0  0
   -2.2678    0.1482   -1.1261 O   0  0  0  0  0  0  0  0  0  0  0  0
    1.3230    0.1896   -0.6679 C   0  0  0  0  0  0  0  0  0  0  0  0
    2.4321    0.0376    0.3782 C   0  0  0  0  0  0  0  0  0  0  0  0
    3.8165    0.0530   -0.2758 C   0  0  0  0  0  0  0  0  0  0  0  0
    4.9210   -0.1232    0.7649 C   0  0  0  0  0  0  0  0  0  0  0  0
    6.2284   -0.1294    0.1195 N   0  0  0  0  0  0  0  0  0  0  0  0
   -1.2794   -1.1113    1.0935 H   0  0  0  0  0  0  0  0  0  0  0  0
   -0.1459    0.9618    0.7294 H   0  0  0  0  0  0  0  0  0  0  0  0
    1.4859    1.1228   -1.2232 H   0  0  0  0  0  0  0  0  0  0  0  0
    1.4033   -0.6180   -1.4082 H   0  0  0  0  0  0  0  0  0  0  0  0
    2.3070   -0.9020    0.9279 H   0  0  0  0  0  0  0  0  0  0  0  0
    2.3626    0.8539    1.1071 H   0  0  0  0  0  0  0  0  0  0  0  0
    3.8759   -0.7496   -1.0218 H   0  0  0  0  0  0  0  0  0  0  0  0
    3.9583    1.0013   -0.8097 H   0  0  0  0  0  0  0  0  0  0  0  0
    4.7812   -1.0629    1.3105 H   0  0  0  0  0  0  0  0  0  0  0  0
    4.8863    0.6939    1.4932 H   0  0  0  0  0  0  0  0  0  0  0  0
    6.0941   -0.0386   -0.8604 H   0  0  0  0  0  0  0  0  0  0  0  0
    6.7544    0.6358    0.4721 H   0  0  0  0  0  0  0  0  0  0  0  0
   -0.5496    1.3184   -2.1592 N   0  0  0  0  0  0  0  0  0  0  0  0
   -1.2916    1.7580   -3.3189 C   0  0  2  0  0  0  0  0  0  0  0  0
   -0.3262    1.8321   -4.4945 C   0  0  0  0  0  0  0  0  0  0  0  0
    0.8538    2.1546   -4.3742 O   0  0  0  0  0  0  0  0  0  0  0  0
   -1.9543    3.1046   -3.0740 C   0  0  0  0  0  0  0  0  0  0  0  0
    0.4219    1.6062   -2.0891 H   0  0  0  0  0  0  0  0  0  0  0  0
   -2.0510    0.9937   -3.5168 H   0  0  0  0  0  0  0  0  0  0  0  0
   -1.2091    3.8831   -2.8739 H   0  0  0  0  0  0  0  0  0  0  0  0
   -2.5394    3.4228   -3.9432 H   0  0  0  0  0  0  0  0  0  0  0  0
   -2.6257    3.0572   -2.2098 H   0  0  0  0  0  0  0  0  0  0  0  0
   -0.9481    1.5375   -5.6998 N   0  0  0  0  0  0  0  0  0  0  0  0
   -0.2547    1.5811   -6.9660 C   0  0  0  0  0  0  0  0  0  0  0  0
   -1.9196    1.2410   -5.7015 H   0  0  0  0  0  0  0  0  0  0  0  0
   -0.3784    2.5762   -7.4183 H   0  0  0  0  0  0  0  0  0  0  0  0
    0.8152    1.3821   -6.8050 H   0  0  0  0  0  0  0  0  0  0  0  0
   -0.6724    0.8180   -7.6392 H   0  0  0  0  0  0  0  0  0  0  0  0
  1  3  1  0  0  0  0
  1  7  1  0  0  0  0
  1  2  2  0  0  0  0
 39 40  1  0  0  0  0
 40 48  1  0  0  0  0
 40 41  2  0  0  0  0
  8  9  1  0  0  0  0
  9 17  1  0  0  0  0
  9 10  2  0  0  0  0
 18 19  1  0  0  0  0
 19 38  1  0  0  0  0
 19 20  2  0  0  0  0
 39 42  1  0  0  0  0
  8 11  1  0  0  0  0
 48 49  1  0  0  0  0
 22 23  1  0  0  0  0
 21 22  1  0  0  0  0
 23 24  1  0  0  0  0
 18 21  1  0  0  0  0
 24 25  1  0  0  0  0
 38 39  1  0  0  0  0
  7  8  1  0  0  0  0
 17 18  1  0  0  0  0
  3  4  1  0  0  0  0
  3  5  1  0  0  0  0
  3  6  1  0  0  0  0
 42 45  1  0  0  0  0
 42 46  1  0  0  0  0
 42 47  1  0  0  0  0
 11 14  1  0  0  0  0
 11 15  1  0  0  0  0
 11 16  1  0  0  0  0
 49 51  1  0  0  0  0
 49 52  1  0  0  0  0
 49 53  1  0  0  0  0
 22 30  1  0  0  0  0
 22 31  1  0  0  0  0
 23 32  1  0  0  0  0
 23 33  1  0  0  0  0
 21 28  1  0  0  0  0
 21 29  1  0  0  0  0
 24 34  1  0  0  0  0
 24 35  1  0  0  0  0
 39 44  1  0  0  0  0
  8 13  1  0  0  0  0
 18 27  1  0  0  0  0
 25 36  1  0  0  0  0
 25 37  1  0  0  0  0
 48 50  1  0  0  0  0
  7 12  1  0  0  0  0
 38 43  1  0  0  0  0
 17 26  1  0  0  0  0
M  END
$$$$

  -OEChem-05262214473D

 53 52  0     1  0  0  0  0  0999 V2000
   -1.0338   -5.6785    0.1476 C   0  0  0  0  0  0  0  0  0  0  0  0
   -2.0514   -5.7797    0.8227 O   0  0  0  0  0  0  0  0  0  0  0  0
   -0.6558   -6.7819   -0.7841 C   0  0  0  0  0  0  0  0  0  0  0  0
   -0.0111   -7.5354   -0.3038 H   0  0  0  0  0  0  0  0  0  0  0  0
   -1.5317   -7.3401   -1.1520 H   0  0  0  0  0  0  0  0  0  0  0  0
   -0.1109   -6.4687   -1.6890 H   0  0  0  0  0  0  0  0  0  0  0  0
   -0.1543   -4.6083    0.1480 N   0  0  0  0  0  0  0  0  0  0  0  0
   -0.3302   -3.4398    0.9696 C   0  0  2  0  0  0  0  0  0  0  0  0
    0.2328   -2.2439    0.2131 C   0  0  0  0  0  0  0  0  0  0  0  0
    1.2097   -2.3192   -0.5294 O   0  0  0  0  0  0  0  0  0  0  0  0
    0.3557   -3.6024    2.3171 C   0  0  0  0  0  0  0  0  0  0  0  0
    0.6584   -4.6506   -0.4643 H   0  0  0  0  0  0  0  0  0  0  0  0
   -1.4091   -3.3101    1.1082 H   0  0  0  0  0  0  0  0  0  0  0  0
    1.4375   -3.7336    2.1985 H   0  0  0  0  0  0  0  0  0  0  0  0
    0.1969   -2.7243    2.9517 H   0  0  0  0  0  0  0  0  0  0  0  0
   -0.0294   -4.4803    2.8470 H   0  0  0  0  0  0  0  0  0  0  0  0
   -0.4616   -1.0893    0.5050 N   0  0  0  0  0  0  0  0  0  0  0  0
   -0.0884    0.2050   -0.0621 C   0  0  2  0  0  0  0  0  0  0  0  0
   -1.1038    0.5432   -1.1499 C   0  0  0  0  0  0  0  0  0  0  0  0
   -2.3149    0.3856   -1.0084 O   0  0  0  0  0  0  0  0  0  0  0  0
    1.3230    0.1896   -0.6679 C   0  0  0  0  0  0  0  0  0  0  0  0
    2.4321    0.0376    0.3782 C   0  0  0  0  0  0  0  0  0  0  0  0
    3.8165    0.0530   -0.2758 C   0  0  0  0  0  0  0  0  0  0  0  0
    4.9210   -0.1232    0.7649 C   0  0  0  0  0  0  0  0  0  0  0  0
    6.2284   -0.1294    0.1195 N   0  0  0  0  0  0  0  0  0  0  0  0
   -1.2794   -1.1113    1.0935 H   0  0  0  0  0  0  0  0  0  0  0  0
   -0.1459    0.9618    0.7294 H   0  0  0  0  0  0  0  0  0  0  0  0
    1.4859    1.1228   -1.2232 H   0  0  0  0  0  0  0  0  0  0  0  0
    1.4033   -0.6180   -1.4082 H   0  0  0  0  0  0  0  0  0  0  0  0
    2.3070   -0.9020    0.9279 H   0  0  0  0  0  0  0  0  0  0  0  0
    2.3626    0.8539    1.1071 H   0  0  0  0  0  0  0  0  0  0  0  0
    3.8759   -0.7496   -1.0218 H   0  0  0  0  0  0  0  0  0  0  0  0
    3.9583    1.0013   -0.8097 H   0  0  0  0  0  0  0  0  0  0  0  0
    4.7812   -1.0629    1.3105 H   0  0  0  0  0  0  0  0  0  0  0  0
    4.8863    0.6939    1.4932 H   0  0  0  0  0  0  0  0  0  0  0  0
    6.0941   -0.0386   -0.8604 H   0  0  0  0  0  0  0  0  0  0  0  0
    6.7544    0.6358    0.4721 H   0  0  0  0  0  0  0  0  0  0  0  0
   -0.4952    1.0199   -2.3028 N   0  0  0  0  0  0  0  0  0  0  0  0
   -1.2295    1.3923   -3.4906 C   0  0  2  0  0  0  0  0  0  0  0  0
   -0.3556    1.0849   -4.6994 C   0  0  0  0  0  0  0  0  0  0  0  0
    0.8688    1.1935   -4.6870 O   0  0  0  0  0  0  0  0  0  0  0  0
   -1.6199    2.8618   -3.4617 C   0  0  0  0  0  0  0  0  0  0  0  0
    0.5147    1.1259   -2.3250 H   0  0  0  0  0  0  0  0  0  0  0  0
   -2.1262    0.7637   -3.5181 H   0  0  0  0  0  0  0  0  0  0  0  0
   -0.7344    3.5072   -3.4339 H   0  0  0  0  0  0  0  0  0  0  0  0
   -2.2007    3.1355   -4.3487 H   0  0  0  0  0  0  0  0  0  0  0  0
   -2.2235    3.0874   -2.5759 H   0  0  0  0  0  0  0  0  0  0  0  0
   -1.1071    0.7166   -5.8065 N   0  0  0  0  0  0  0  0  0  0  0  0
   -0.5120    0.4162   -7.0878 C   0  0  0  0  0  0  0  0  0  0  0  0
   -2.1135    0.6136   -5.7155 H   0  0  0  0  0  0  0  0  0  0  0  0
   -0.4881    1.3270   -7.7041 H   0  0  0  0  0  0  0  0  0  0  0  0
    0.5136    0.0477   -6.9383 H   0  0  0  0  0  0  0  0  0  0  0  0
   -1.1083   -0.3553   -7.5970 H   0  0  0  0  0  0  0  0  0  0  0  0
  1  3  1  0  0  0  0
  1  7  1  0  0  0  0
  1  2  2  0  0  0  0
 39 40  1  0  0  0  0
 40 48  1  0  0  0  0
 40 41  2  0  0  0  0
  8  9  1  0  0  0  0
  9 17  1  0  0  0  0
  9 10  2  0  0  0  0
 18 19  1  0  0  0  0
 19 38  1  0  0  0  0
 19 20  2  0  0  0  0
 39 42  1  0  0  0  0
  8 11  1  0  0  0  0
 48 49  1  0  0  0  0
 22 23  1  0  0  0  0
 21 22  1  0  0  0  0
 23 24  1  0  0  0  0
 18 21  1  0  0  0  0
 24 25  1  0  0  0  0
 38 39  1  0  0  0  0
  7  8  1  0  0  0  0
 17 18  1  0  0  0  0
  3  4  1  0  0  0  0
  3  5  1  0  0  0  0
  3  6  1  0  0  0  0
 42 45  1  0  0  0  0
 42 46  1  0  0  0  0
 42 47  1  0  0  0  0
 11 14  1  0  0  0  0
 11 15  1  0  0  0  0
 11 16  1  0  0  0  0
 49 51  1  0  0  0  0
 49 52  1  0  0  0  0
 49 53  1  0  0  0  0
 22 30  1  0  0  0  0
 22 31  1  0  0  0  0
 23 32  1  0  0  0  0
 23 33  1  0  0  0  0
 21 28  1  0  0  0  0
 21 29  1  0  0  0  0
 24 34  1  0  0  0  0
 24 35  1  0  0  0  0
 39 44  1  0  0  0  0
  8 13  1  0  0  0  0
 18 27  1  0  0  0  0
 25 36  1  0  0  0  0
 25 37  1  0  0  0  0
 48 50  1  0  0  0  0
  7 12  1  0  0  0  0
 38 43  1  0  0  0  0
 17 26  1  0  0  0  0
M  END
$$$$

  -OEChem-05262214473D

 53 52  0     1  0  0  0  0  0999 V2000
   -1.0338   -5.6785    0.1476 C   0  0  0  0  0  0  0  0  0  0  0  0
   -2.0514   -5.7797    0.8227 O   0  0  0  0  0  0  0  0  0  0  0  0
   -0.6558   -6.7819   -0.7841 C   0  0  0  0  0  0  0  0  0  0  0  0
   -0.0111   -7.5354   -0.3038 H   0  0  0  0  0  0  0  0  0  0  0  0
   -1.5317   -7.3401   -1.1520 H   0  0  0  0  0  0  0  0  0  0  0  0
   -0.1109   -6.4687   -1.6890 H   0  0  0  0  0  0  0  0  0  0  0  0
   -0.1543   -4.6083    0.1480 N   0  0  0  0  0  0  0  0  0  0  0  0
   -0.3302   -3.4398    0.9696 C   0  0  2  0  0  0  0  0  0  0  0  0
    0.2328   -2.2439    0.2131 C   0  0  0  0  0  0  0  0  0  0  0  0
    1.2097   -2.3192   -0.5294 O   0  0  0  0  0  0  0  0  0  0  0  0
    0.3557   -3.6024    2.3171 C   0  0  0  0  0  0  0  0  0  0  0  0
    0.6584   -4.6506   -0.4643 H   0  0  0  0  0  0  0  0  0  0  0  0
   -1.4091   -3.3101    1.1082 H   0  0  0  0  0  0  0  0  0  0  0  0
    1.4375   -3.7336    2.1985 H   0  0  0  0  0  0  0  0  0  0  0  0
    0.1969   -2.7243    2.9517 H   0  0  0  0  0  0  0  0  0  0  0  0
   -0.0294   -4.4803    2.8470 H   0  0  0  0  0  0  0  0  0  0  0  0
   -0.4616   -1.0893    0.5050 N   0  0  0  0  0  0  0  0  0  0  0  0
   -0.0884    0.2050   -0.0621 C   0  0  2  0  0  0  0  0  0  0  0  0
   -1.1038    0.5432   -1.1499 C   0  0  0  0  0  0  0  0  0  0  0  0
   -2.3098    0.6438   -0.9329 O   0  0  0  0  0  0  0  0  0  0  0  0
    1.3230    0.1896   -0.6679 C   0  0  0  0  0  0  0  0  0  0  0  0
    2.4321    0.0376    0.3782 C   0  0  0  0  0  0  0  0  0  0  0  0
    3.8165    0.0530   -0.2758 C   0  0  0  0  0  0  0  0  0  0  0  0
    4.9210   -0.1232    0.7649 C   0  0  0  0  0  0  0  0  0  0  0  0
    6.2284   -0.1294    0.1195 N   0  0  0  0  0  0  0  0  0  0  0  0
   -1.2794   -1.1113    1.0935 H   0  0  0  0  0  0  0  0  0  0  0  0
   -0.1459    0.9618    0.7294 H   0  0  0  0  0  0  0  0  0  0  0  0
    1.4859    1.1228   -1.2232 H   0  0  0  0  0  0  0  0  0  0  0  0
    1.4033   -0.6180   -1.4082 H   0  0  0  0  0  0  0  0  0  0  0  0
    2.3070   -0.9020    0.9279 H   0  0  0  0  0  0  0  0  0  0  0  0
    2.3626    0.8539    1.1071 H   0  0  0  0  0  0  0  0  0  0  0  0
    3.8759   -0.7496   -1.0218 H   0  0  0  0  0  0  0  0  0  0  0  0
    3.9583    1.0013   -0.8097 H   0  0  0  0  0  0  0  0  0  0  0  0
    4.7812   -1.0629    1.3105 H   0  0  0  0  0  0  0  0  0  0  0  0
    4.8863    0.6939    1.4932 H   0  0  0  0  0  0  0  0  0  0  0  0
    6.0941   -0.0386   -0.8604 H   0  0  0  0  0  0  0  0  0  0  0  0
    6.7544    0.6358    0.4721 H   0  0  0  0  0  0  0  0  0  0  0  0
   -0.5059    0.6967   -2.3932 N   0  0  0  0  0  0  0  0  0  0  0  0
   -1.2468    0.9981   -3.5970 C   0  0  2  0  0  0  0  0  0  0  0  0
   -0.5335    0.3333   -4.7669 C   0  0  0  0  0  0  0  0  0  0  0  0
    0.6881    0.2084   -4.8244 O   0  0  0  0  0  0  0  0  0  0  0  0
   -1.3639    2.4988   -3.8135 C   0  0  0  0  0  0  0  0  0  0  0  0
    0.5022    0.6042   -2.4754 H   0  0  0  0  0  0  0  0  0  0  0  0
   -2.2413    0.5552   -3.4755 H   0  0  0  0  0  0  0  0  0  0  0  0
   -0.3774    2.9601   -3.9373 H   0  0  0  0  0  0  0  0  0  0  0  0
   -1.9498    2.7257   -4.7103 H   0  0  0  0  0  0  0  0  0  0  0  0
   -1.8505    2.9792   -2.9578 H   0  0  0  0  0  0  0  0  0  0  0  0
   -1.4182   -0.0653   -5.7592 N   0  0  0  0  0  0  0  0  0  0  0  0
   -0.9826   -0.6826   -6.9901 C   0  0  0  0  0  0  0  0  0  0  0  0
   -2.4173    0.0409   -5.6099 H   0  0  0  0  0  0  0  0  0  0  0  0
   -0.8409    0.0914   -7.7589 H   0  0  0  0  0  0  0  0  0  0  0  0
   -0.0316   -1.2085   -6.8199 H   0  0  0  0  0  0  0  0  0  0  0  0
   -1.7434   -1.4010   -7.3291 H   0  0  0  0  0  0  0  0  0  0  0  0
  1  3  1  0  0  0  0
  1  7  1  0  0  0  0
  1  2  2  0  0  0  0
 39 40  1  0  0  0  0
 40 48  1  0  0  0  0
 40 41  2  0  0  0  0
  8  9  1  0  0  0  0
  9 17  1  0  0  0  0
  9 10  2  0  0  0  0
 18 19  1  0  0  0  0
 19 38  1  0  0  0  0
 19 20  2  0  0  0  0
 39 42  1  0  0  0  0
  8 11  1  0  0  0  0
 48 49  1  0  0  0  0
 22 23  1  0  0  0  0
 21 22  1  0  0  0  0
 23 24  1  0  0  0  0
 18 21  1  0  0  0  0
 24 25  1  0  0  0  0
 38 39  1  0  0  0  0
  7  8  1  0  0  0  0
 17 18  1  0  0  0  0
  3  4  1  0  0  0  0
  3  5  1  0  0  0  0
  3  6  1  0  0  0  0
 42 45  1  0  0  0  0
 42 46  1  0  0  0  0
 42 47  1  0  0  0  0
 11 14  1  0  0  0  0
 11 15  1  0  0  0  0
 11 16  1  0  0  0  0
 49 51  1  0  0  0  0
 49 52  1  0  0  0  0
 49 53  1  0  0  0  0
 22 30  1  0  0  0  0
 22 31  1  0  0  0  0
 23 32  1  0  0  0  0
 23 33  1  0  0  0  0
 21 28  1  0  0  0  0
 21 29  1  0  0  0  0
 24 34  1  0  0  0  0
 24 35  1  0  0  0  0
 39 44  1  0  0  0  0
  8 13  1  0  0  0  0
 18 27  1  0  0  0  0
 25 36  1  0  0  0  0
 25 37  1  0  0  0  0
 48 50  1  0  0  0  0
  7 12  1  0  0  0  0
 38 43  1  0  0  0  0
 17 26  1  0  0  0  0
M  END
$$$$

  -OEChem-05262214473D

 53 52  0     1  0  0  0  0  0999 V2000
   -1.0338   -5.6785    0.1476 C   0  0  0  0  0  0  0  0  0  0  0  0
   -2.0514   -5.7797    0.8227 O   0  0  0  0  0  0  0  0  0  0  0  0
   -0.6558   -6.7819   -0.7841 C   0  0  0  0  0  0  0  0  0  0  0  0
   -0.0111   -7.5354   -0.3038 H   0  0  0  0  0  0  0  0  0  0  0  0
   -1.5317   -7.3401   -1.1520 H   0  0  0  0  0  0  0  0  0  0  0  0
   -0.1109   -6.4687   -1.6890 H   0  0  0  0  0  0  0  0  0  0  0  0
   -0.1543   -4.6083    0.1480 N   0  0  0  0  0  0  0  0  0  0  0  0
   -0.3302   -3.4398    0.9696 C   0  0  2  0  0  0  0  0  0  0  0  0
    0.2328   -2.2439    0.2131 C   0  0  0  0  0  0  0  0  0  0  0  0
    1.2097   -2.3192   -0.5294 O   0  0  0  0  0  0  0  0  0  0  0  0
    0.3557   -3.6024    2.3171 C   0  0  0  0  0  0  0  0  0  0  0  0
    0.6584   -4.6506   -0.4643 H   0  0  0  0  0  0  0  0  0  0  0  0
   -1.4091   -3.3101    1.1082 H   0  0  0  0  0  0  0  0  0  0  0  0
    1.4375   -3.7336    2.1985 H   0  0  0  0  0  0  0  0  0  0  0  0
    0.1969   -2.7243    2.9517 H   0  0  0  0  0  0  0  0  0  0  0  0
   -0.0294   -4.4803    2.8470 H   0  0  0  0  0  0  0  0  0  0  0  0
   -0.4616   -1.0893    0.5050 N   0  0  0  0  0  0  0  0  0  0  0  0
   -0.0884    0.2050   -0.0621 C   0  0  2  0  0  0  0  0  0  0  0  0
   -1.1038    0.5432   -1.1499 C   0  0  0  0  0  0  0  0  0  0  0  0
   -2.2528    0.9053   -0.9047 O   0  0  0  0  0  0  0  0  0  0  0  0
    1.3230    0.1896   -0.6679 C   0  0  0  0  0  0  0  0  0  0  0  0
    2.4321    0.0376    0.3782 C   0  0  0  0  0  0  0  0  0  0  0  0
    3.8165    0.0530   -0.2758 C   0  0  0  0  0  0  0  0  0  0  0  0
    4.9210   -0.1232    0.7649 C   0  0  0  0  0  0  0  0  0  0  0  0
    6.2284   -0.1294    0.1195 N   0  0  0  0  0  0  0  0  0  0  0  0
   -1.2794   -1.1113    1.0935 H   0  0  0  0  0  0  0  0  0  0  0  0
   -0.1459    0.9618    0.7294 H   0  0  0  0  0  0  0  0  0  0  0  0
    1.4859    1.1228   -1.2232 H   0  0  0  0  0  0  0  0  0  0  0  0
    1.4033   -0.6180   -1.4082 H   0  0  0  0  0  0  0  0  0  0  0  0
    2.3070   -0.9020    0.9279 H   0  0  0  0  0  0  0  0  0  0  0  0
    2.3626    0.8539    1.1071 H   0  0  0  0  0  0  0  0  0  0  0  0
    3.8759   -0.7496   -1.0218 H   0  0  0  0  0  0  0  0  0  0  0  0
    3.9583    1.0013   -0.8097 H   0  0  0  0  0  0  0  0  0  0  0  0
    4.7812   -1.0629    1.3105 H   0  0  0  0  0  0  0  0  0  0  0  0
    4.8863    0.6939    1.4932 H   0  0  0  0  0  0  0  0  0  0  0  0
    6.0941   -0.0386   -0.8604 H   0  0  0  0  0  0  0  0  0  0  0  0
    6.7544    0.6358    0.4721 H   0  0  0  0  0  0  0  0  0  0  0  0
   -0.5811    0.3710   -2.4242 N   0  0  0  0  0  0  0  0  0  0  0  0
   -1.3423    0.6021   -3.6308 C   0  0  2  0  0  0  0  0  0  0  0  0
   -0.8479   -0.3714   -4.6925 C   0  0  0  0  0  0  0  0  0  0  0  0
    0.3238   -0.7334   -4.7772 O   0  0  0  0  0  0  0  0  0  0  0  0
   -1.2038    2.0403   -4.1055 C   0  0  0  0  0  0  0  0  0  0  0  0
    0.3852    0.0767   -2.5302 H   0  0  0  0  0  0  0  0  0  0  0  0
   -2.3885    0.3823   -3.3918 H   0  0  0  0  0  0  0  0  0  0  0  0
   -0.1623    2.2791   -4.3497 H   0  0  0  0  0  0  0  0  0  0  0  0
   -1.8037    2.2213   -5.0035 H   0  0  0  0  0  0  0  0  0  0  0  0
   -1.5320    2.7401   -3.3294 H   0  0  0  0  0  0  0  0  0  0  0  0
   -1.8603   -0.7551   -5.5609 N   0  0  0  0  0  0  0  0  0  0  0  0
   -1.6342   -1.6402   -6.6795 C   0  0  0  0  0  0  0  0  0  0  0  0
   -2.8104   -0.4380   -5.3919 H   0  0  0  0  0  0  0  0  0  0  0  0
   -1.4128   -1.0465   -7.5787 H   0  0  0  0  0  0  0  0  0  0  0  0
   -0.7831   -2.3010   -6.4579 H   0  0  0  0  0  0  0  0  0  0  0  0
   -2.5344   -2.2478   -6.8539 H   0  0  0  0  0  0  0  0  0  0  0  0
  1  3  1  0  0  0  0
  1  7  1  0  0  0  0
  1  2  2  0  0  0  0
 39 40  1  0  0  0  0
 40 48  1  0  0  0  0
 40 41  2  0  0  0  0
  8  9  1  0  0  0  0
  9 17  1  0  0  0  0
  9 10  2  0  0  0  0
 18 19  1  0  0  0  0
 19 38  1  0  0  0  0
 19 20  2  0  0  0  0
 39 42  1  0  0  0  0
  8 11  1  0  0  0  0
 48 49  1  0  0  0  0
 22 23  1  0  0  0  0
 21 22  1  0  0  0  0
 23 24  1  0  0  0  0
 18 21  1  0  0  0  0
 24 25  1  0  0  0  0
 38 39  1  0  0  0  0
  7  8  1  0  0  0  0
 17 18  1  0  0  0  0
  3  4  1  0  0  0  0
  3  5  1  0  0  0  0
  3  6  1  0  0  0  0
 42 45  1  0  0  0  0
 42 46  1  0  0  0  0
 42 47  1  0  0  0  0
 11 14  1  0  0  0  0
 11 15  1  0  0  0  0
 11 16  1  0  0  0  0
 49 51  1  0  0  0  0
 49 52  1  0  0  0  0
 49 53  1  0  0  0  0
 22 30  1  0  0  0  0
 22 31  1  0  0  0  0
 23 32  1  0  0  0  0
 23 33  1  0  0  0  0
 21 28  1  0  0  0  0
 21 29  1  0  0  0  0
 24 34  1  0  0  0  0
 24 35  1  0  0  0  0
 39 44  1  0  0  0  0
  8 13  1  0  0  0  0
 18 27  1  0  0  0  0
 25 36  1  0  0  0  0
 25 37  1  0  0  0  0
 48 50  1  0  0  0  0
  7 12  1  0  0  0  0
 38 43  1  0  0  0  0
 17 26  1  0  0  0  0
M  END
$$$$

  -OEChem-05262214473D

 53 52  0     1  0  0  0  0  0999 V2000
   -1.0338   -5.6785    0.1476 C   0  0  0  0  0  0  0  0  0  0  0  0
   -2.0514   -5.7797    0.8227 O   0  0  0  0  0  0  0  0  0  0  0  0
   -0.6558   -6.7819   -0.7841 C   0  0  0  0  0  0  0  0  0  0  0  0
   -0.0111   -7.5354   -0.3038 H   0  0  0  0  0  0  0  0  0  0  0  0
   -1.5317   -7.3401   -1.1520 H   0  0  0  0  0  0  0  0  0  0  0  0
   -0.1109   -6.4687   -1.6890 H   0  0  0  0  0  0  0  0  0  0  0  0
   -0.1543   -4.6083    0.1480 N   0  0  0  0  0  0  0  0  0  0  0  0
   -0.3302   -3.4398    0.9696 C   0  0  2  0  0  0  0  0  0  0  0  0
    0.2328   -2.2439    0.2131 C   0  0  0  0  0  0  0  0  0  0  0  0
    1.2097   -2.3192   -0.5294 O   0  0  0  0  0  0  0  0  0  0  0  0
    0.3557   -3.6024    2.3171 C   0  0  0  0  0  0  0  0  0  0  0  0
    0.6584   -4.6506   -0.4643 H   0  0  0  0  0  0  0  0  0  0  0  0
   -1.4091   -3.3101    1.1082 H   0  0  0  0  0  0  0  0  0  0  0  0
    1.4375   -3.7336    2.1985 H   0  0  0  0  0  0  0  0  0  0  0  0
    0.1969   -2.7243    2.9517 H   0  0  0  0  0  0  0  0  0  0  0  0
   -0.0294   -4.4803    2.8470 H   0  0  0  0  0  0  0  0  0  0  0  0
   -0.4616   -1.0893    0.5050 N   0  0  0  0  0  0  0  0  0  0  0  0
   -0.0884    0.2050   -0.0621 C   0  0  2  0  0  0  0  0  0  0  0  0
   -1.1038    0.5432   -1.1499 C   0  0  0  0  0  0  0  0  0  0  0  0
   -2.1480    1.1522   -0.9258 O   0  0  0  0  0  0  0  0  0  0  0  0
    1.3230    0.1896   -0.6679 C   0  0  0  0  0  0  0  0  0  0  0  0
    2.4321    0.0376    0.3782 C   0  0  0  0  0  0  0  0  0  0  0  0
    3.8165    0.0530   -0.2758 C   0  0  0  0  0  0  0  0  0  0  0  0
    4.9210   -0.1232    0.7649 C   0  0  0  0  0  0  0  0  0  0  0  0
    6.2284   -0.1294    0.1195 N   0  0  0  0  0  0  0  0  0  0  0  0
   -1.2794   -1.1113    1.0935 H   0  0  0  0  0  0  0  0  0  0  0  0
   -0.1459    0.9618    0.7294 H   0  0  0  0  0  0  0  0  0  0  0  0
    1.4859    1.1228   -1.2232 H   0  0  0  0  0  0  0  0  0  0  0  0
    1.4033   -0.6180   -1.4082 H   0  0  0  0  0  0  0  0  0  0  0  0
    2.3070   -0.9020    0.9279 H   0  0  0  0  0  0  0  0  0  0  0  0
    2.3626    0.8539    1.1071 H   0  0  0  0  0  0  0  0  0  0  0  0
    3.8759   -0.7496   -1.0218 H   0  0  0  0  0  0  0  0  0  0  0  0
    3.9583    1.0013   -0.8097 H   0  0  0  0  0  0  0  0  0  0  0  0
    4.7812   -1.0629    1.3105 H   0  0  0  0  0  0  0  0  0  0  0  0
    4.8863    0.6939    1.4932 H   0  0  0  0  0  0  0  0  0  0  0  0
    6.0941   -0.0386   -0.8604 H   0  0  0  0  0  0  0  0  0  0  0  0
    6.7544    0.6358    0.4721 H   0  0  0  0  0  0  0  0  0  0  0  0
   -0.7156    0.0649   -2.3938 N   0  0  0  0  0  0  0  0  0  0  0  0
   -1.5096    0.2315   -3.5899 C   0  0  2  0  0  0  0  0  0  0  0  0
   -1.2773   -0.9814   -4.4813 C   0  0  0  0  0  0  0  0  0  0  0  0
   -0.1990   -1.5678   -4.5485 O   0  0  0  0  0  0  0  0  0  0  0  0
   -1.1505    1.5176   -4.3177 C   0  0  0  0  0  0  0  0  0  0  0  0
    0.1717   -0.4206   -2.4855 H   0  0  0  0  0  0  0  0  0  0  0  0
   -2.5578    0.2570   -3.2727 H   0  0  0  0  0  0  0  0  0  0  0  0
   -0.1039    1.5105   -4.6432 H   0  0  0  0  0  0  0  0  0  0  0  0
   -1.7726    1.6566   -5.2081 H   0  0  0  0  0  0  0  0  0  0  0  0
   -1.2898    2.3865   -3.6654 H   0  0  0  0  0  0  0  0  0  0  0  0
   -2.4032   -1.3056   -5.2252 N   0  0  0  0  0  0  0  0  0  0  0  0
   -2.4225   -2.3915   -6.1772 C   0  0  0  0  0  0  0  0  0  0  0  0
   -3.2659   -0.7905   -5.0762 H   0  0  0  0  0  0  0  0  0  0  0  0
   -2.1649   -2.0090   -7.1759 H   0  0  0  0  0  0  0  0  0  0  0  0
   -1.6898   -3.1552   -5.8770 H   0  0  0  0  0  0  0  0  0  0  0  0
   -3.4275   -2.8379   -6.2037 H   0  0  0  0  0  0  0  0  0  0  0  0
  1  3  1  0  0  0  0
  1  7  1  0  0  0  0
  1  2  2  0  0  0  0
 39 40  1  0  0  0  0
 40 48  1  0  0  0  0
 40 41  2  0  0  0  0
  8  9  1  0  0  0  0
  9 17  1  0  0  0  0
  9 10  2  0  0  0  0
 18 19  1  0  0  0  0
 19 38  1  0  0  0  0
 19 20  2  0  0  0  0
 39 42  1  0  0  0  0
  8 11  1  0  0  0  0
 48 49  1  0  0  0  0
 22 23  1  0  0  0  0
 21 22  1  0  0  0  0
 23 24  1  0  0  0  0
 18 21  1  0  0  0  0
 24 25  1  0  0  0  0
 38 39  1  0  0  0  0
  7  8  1  0  0  0  0
 17 18  1  0  0  0  0
  3  4  1  0  0  0  0
  3  5  1  0  0  0  0
  3  6  1  0  0  0  0
 42 45  1  0  0  0  0
 42 46  1  0  0  0  0
 42 47  1  0  0  0  0
 11 14  1  0  0  0  0
 11 15  1  0  0  0  0
 11 16  1  0  0  0  0
 49 51  1  0  0  0  0
 49 52  1  0  0  0  0
 49 53  1  0  0  0  0
 22 30  1  0  0  0  0
 22 31  1  0  0  0  0
 23 32  1  0  0  0  0
 23 33  1  0  0  0  0
 21 28  1  0  0  0  0
 21 29  1  0  0  0  0
 24 34  1  0  0  0  0
 24 35  1  0  0  0  0
 39 44  1  0  0  0  0
  8 13  1  0  0  0  0
 18 27  1  0  0  0  0
 25 36  1  0  0  0  0
 25 37  1  0  0  0  0
 48 50  1  0  0  0  0
  7 12  1  0  0  0  0
 38 43  1  0  0  0  0
 17 26  1  0  0  0  0
M  END
$$$$

  -OEChem-05262214473D

 53 52  0     1  0  0  0  0  0999 V2000
   -1.0338   -5.6785    0.1476 C   0  0  0  0  0  0  0  0  0  0  0  0
   -2.0514   -5.7797    0.8227 O   0  0  0  0  0  0  0  0  0  0  0  0
   -0.6558   -6.7819   -0.7841 C   0  0  0  0  0  0  0  0  0  0  0  0
   -0.0111   -7.5354   -0.3038 H   0  0  0  0  0  0  0  0  0  0  0  0
   -1.5317   -7.3401   -1.1520 H   0  0  0  0  0  0  0  0  0  0  0  0
   -0.1109   -6.4687   -1.6890 H   0  0  0  0  0  0  0  0  0  0  0  0
   -0.1543   -4.6083    0.1480 N   0  0  0  0  0  0  0  0  0  0  0  0
   -0.3302   -3.4398    0.9696 C   0  0  2  0  0  0  0  0  0  0  0  0
    0.2328   -2.2439    0.2131 C   0  0  0  0  0  0  0  0  0  0  0  0
    1.2097   -2.3192   -0.5294 O   0  0  0  0  0  0  0  0  0  0  0  0
    0.3557   -3.6024    2.3171 C   0  0  0  0  0  0  0  0  0  0  0  0
    0.6584   -4.6506   -0.4643 H   0  0  0  0  0  0  0  0  0  0  0  0
   -1.4091   -3.3101    1.1082 H   0  0  0  0  0  0  0  0  0  0  0  0
    1.4375   -3.7336    2.1985 H   0  0  0  0  0  0  0  0  0  0  0  0
    0.1969   -2.7243    2.9517 H   0  0  0  0  0  0  0  0  0  0  0  0
   -0.0294   -4.4803    2.8470 H   0  0  0  0  0  0  0  0  0  0  0  0
   -0.4616   -1.0893    0.5050 N   0  0  0  0  0  0  0  0  0  0  0  0
   -0.0884    0.2050   -0.0621 C   0  0  2  0  0  0  0  0  0  0  0  0
   -1.1038    0.5432   -1.1499 C   0  0  0  0  0  0  0  0  0  0  0  0
   -2.0024    1.3678   -0.9947 O   0  0  0  0  0  0  0  0  0  0  0  0
    1.3230    0.1896   -0.6679 C   0  0  0  0  0  0  0  0  0  0  0  0
    2.4321    0.0376    0.3782 C   0  0  0  0  0  0  0  0  0  0  0  0
    3.8165    0.0530   -0.2758 C   0  0  0  0  0  0  0  0  0  0  0  0
    4.9210   -0.1232    0.7649 C   0  0  0  0  0  0  0  0  0  0  0  0
    6.2284   -0.1294    0.1195 N   0  0  0  0  0  0  0  0  0  0  0  0
   -1.2794   -1.1113    1.0935 H   0  0  0  0  0  0  0  0  0  0  0  0
   -0.1459    0.9618    0.7294 H   0  0  0  0  0  0  0  0  0  0  0  0
    1.4859    1.1228   -1.2232 H   0  0  0  0  0  0  0  0  0  0  0  0
    1.4033   -0.6180   -1.4082 H   0  0  0  0  0  0  0  0  0  0  0  0
    2.3070   -0.9020    0.9279 H   0  0  0  0  0  0  0  0  0  0  0  0
    2.3626    0.8539    1.1071 H   0  0  0  0  0  0  0  0  0  0  0  0
    3.8759   -0.7496   -1.0218 H   0  0  0  0  0  0  0  0  0  0  0  0
    3.9583    1.0013   -0.8097 H   0  0  0  0  0  0  0  0  0  0  0  0
    4.7812   -1.0629    1.3105 H   0  0  0  0  0  0  0  0  0  0  0  0
    4.8863    0.6939    1.4932 H   0  0  0  0  0  0  0  0  0  0  0  0
    6.0941   -0.0386   -0.8604 H   0  0  0  0  0  0  0  0  0  0  0  0
    6.7544    0.6358    0.4721 H   0  0  0  0  0  0  0  0  0  0  0  0
   -0.9003   -0.2007   -2.3040 N   0  0  0  0  0  0  0  0  0  0  0  0
   -1.7372   -0.0886   -3.4769 C   0  0  2  0  0  0  0  0  0  0  0  0
   -1.7925   -1.4549   -4.1475 C   0  0  0  0  0  0  0  0  0  0  0  0
   -0.8449   -2.2379   -4.1538 O   0  0  0  0  0  0  0  0  0  0  0  0
   -1.2076    0.9664   -4.4357 C   0  0  0  0  0  0  0  0  0  0  0  0
   -0.1237   -0.8540   -2.3445 H   0  0  0  0  0  0  0  0  0  0  0  0
   -2.7376    0.1876   -3.1264 H   0  0  0  0  0  0  0  0  0  0  0  0
   -0.2061    0.7068   -4.7976 H   0  0  0  0  0  0  0  0  0  0  0  0
   -1.8584    1.0702   -5.3103 H   0  0  0  0  0  0  0  0  0  0  0  0
   -1.1404    1.9423   -3.9429 H   0  0  0  0  0  0  0  0  0  0  0  0
   -3.0099   -1.6794   -4.7750 N   0  0  0  0  0  0  0  0  0  0  0  0
   -3.2937   -2.8853   -5.5174 C   0  0  0  0  0  0  0  0  0  0  0  0
   -3.7528   -0.9927   -4.6845 H   0  0  0  0  0  0  0  0  0  0  0  0
   -3.0457   -2.7306   -6.5779 H   0  0  0  0  0  0  0  0  0  0  0  0
   -2.6900   -3.7130   -5.1168 H   0  0  0  0  0  0  0  0  0  0  0  0
   -4.3617   -3.1312   -5.4228 H   0  0  0  0  0  0  0  0  0  0  0  0
  1  3  1  0  0  0  0
  1  7  1  0  0  0  0
  1  2  2  0  0  0  0
 39 40  1  0  0  0  0
 40 48  1  0  0  0  0
 40 41  2  0  0  0  0
  8  9  1  0  0  0  0
  9 17  1  0  0  0  0
  9 10  2  0  0  0  0
 18 19  1  0  0  0  0
 19 38  1  0  0  0  0
 19 20  2  0  0  0  0
 39 42  1  0  0  0  0
  8 11  1  0  0  0  0
 48 49  1  0  0  0  0
 22 23  1  0  0  0  0
 21 22  1  0  0  0  0
 23 24  1  0  0  0  0
 18 21  1  0  0  0  0
 24 25  1  0  0  0  0
 38 39  1  0  0  0  0
  7  8  1  0  0  0  0
 17 18  1  0  0  0  0
  3  4  1  0  0  0  0
  3  5  1  0  0  0  0
  3  6  1  0  0  0  0
 42 45  1  0  0  0  0
 42 46  1  0  0  0  0
 42 47  1  0  0  0  0
 11 14  1  0  0  0  0
 11 15  1  0  0  0  0
 11 16  1  0  0  0  0
 49 51  1  0  0  0  0
 49 52  1  0  0  0  0
 49 53  1  0  0  0  0
 22 30  1  0  0  0  0
 22 31  1  0  0  0  0
 23 32  1  0  0  0  0
 23 33  1  0  0  0  0
 21 28  1  0  0  0  0
 21 29  1  0  0  0  0
 24 34  1  0  0  0  0
 24 35  1  0  0  0  0
 39 44  1  0  0  0  0
  8 13  1  0  0  0  0
 18 27  1  0  0  0  0
 25 36  1  0  0  0  0
 25 37  1  0  0  0  0
 48 50  1  0  0  0  0
  7 12  1  0  0  0  0
 38 43  1  0  0  0  0
 17 26  1  0  0  0  0
M  END
$$$$

  -OEChem-05262214473D

 53 52  0     1  0  0  0  0  0999 V2000
   -1.0338   -5.6785    0.1476 C   0  0  0  0  0  0  0  0  0  0  0  0
   -2.0514   -5.7797    0.8227 O   0  0  0  0  0  0  0  0  0  0  0  0
   -0.6558   -6.7819   -0.7841 C   0  0  0  0  0  0  0  0  0  0  0  0
   -0.0111   -7.5354   -0.3038 H   0  0  0  0  0  0  0  0  0  0  0  0
   -1.5317   -7.3401   -1.1520 H   0  0  0  0  0  0  0  0  0  0  0  0
   -0.1109   -6.4687   -1.6890 H   0  0  0  0  0  0  0  0  0  0  0  0
   -0.1543   -4.6083    0.1480 N   0  0  0  0  0  0  0  0  0  0  0  0
   -0.3302   -3.4398    0.9696 C   0  0  2  0  0  0  0  0  0  0  0  0
    0.2328   -2.2439    0.2131 C   0  0  0  0  0  0  0  0  0  0  0  0
    1.2097   -2.3192   -0.5294 O   0  0  0  0  0  0  0  0  0  0  0  0
    0.3557   -3.6024    2.3171 C   0  0  0  0  0  0  0  0  0  0  0  0
    0.6584   -4.6506   -0.4643 H   0  0  0  0  0  0  0  0  0  0  0  0
   -1.4091   -3.3101    1.1082 H   0  0  0  0  0  0  0  0  0  0  0  0
    1.4375   -3.7336    2.1985 H   0  0  0  0  0  0  0  0  0  0  0  0
    0.1969   -2.7243    2.9517 H   0  0  0  0  0  0  0  0  0  0  0  0
   -0.0294   -4.4803    2.8470 H   0  0  0  0  0  0  0  0  0  0  0  0
   -0.4616   -1.0893    0.5050 N   0  0  0  0  0  0  0  0  0  0  0  0
   -0.0884    0.2050   -0.0621 C   0  0  2  0  0  0  0  0  0  0  0  0
   -1.1038    0.5432   -1.1499 C   0  0  0  0  0  0  0  0  0  0  0  0
   -1.8260    1.5372   -1.1068 O   0  0  0  0  0  0  0  0  0  0  0  0
    1.3230    0.1896   -0.6679 C   0  0  0  0  0  0  0  0  0  0  0  0
    2.4321    0.0376    0.3782 C   0  0  0  0  0  0  0  0  0  0  0  0
    3.8165    0.0530   -0.2758 C   0  0  0  0  0  0  0  0  0  0  0  0
    4.9210   -0.1232    0.7649 C   0  0  0  0  0  0  0  0  0  0  0  0
    6.2284   -0.1294    0.1195 N   0  0  0  0  0  0  0  0  0  0  0  0
   -1.2794   -1.1113    1.0935 H   0  0  0  0  0  0  0  0  0  0  0  0
   -0.1459    0.9618    0.7294 H   0  0  0  0  0  0  0  0  0  0  0  0
    1.4859    1.1228   -1.2232 H   0  0  0  0  0  0  0  0  0  0  0  0
    1.4033   -0.6180   -1.4082 H   0  0  0  0  0  0  0  0  0  0  0  0
    2.3070   -0.9020    0.9279 H   0  0  0  0  0  0  0  0  0  0  0  0
    2.3626    0.8539    1.1071 H   0  0  0  0  0  0  0  0  0  0  0  0
    3.8759   -0.7496   -1.0218 H   0  0  0  0  0  0  0  0  0  0  0  0
    3.9583    1.0013   -0.8097 H   0  0  0  0  0  0  0  0  0  0  0  0
    4.7812   -1.0629    1.3105 H   0  0  0  0  0  0  0  0  0  0  0  0
    4.8863    0.6939    1.4932 H   0  0  0  0  0  0  0  0  0  0  0  0
    6.0941   -0.0386   -0.8604 H   0  0  0  0  0  0  0  0  0  0  0  0
    6.7544    0.6358    0.4721 H   0  0  0  0  0  0  0  0  0  0  0  0
   -1.1225   -0.4077   -2.1609 N   0  0  0  0  0  0  0  0  0  0  0  0
   -2.0096   -0.3364   -3.2996 C   0  0  2  0  0  0  0  0  0  0  0  0
   -2.3584   -1.7598   -3.7140 C   0  0  0  0  0  0  0  0  0  0  0  0
   -1.5697   -2.6981   -3.6202 O   0  0  0  0  0  0  0  0  0  0  0  0
   -1.3713    0.4241   -4.4516 C   0  0  0  0  0  0  0  0  0  0  0  0
   -0.4808   -1.1938   -2.1167 H   0  0  0  0  0  0  0  0  0  0  0  0
   -2.9157    0.1790   -2.9629 H   0  0  0  0  0  0  0  0  0  0  0  0
   -0.4619   -0.0772   -4.8025 H   0  0  0  0  0  0  0  0  0  0  0  0
   -2.0553    0.5020   -5.3030 H   0  0  0  0  0  0  0  0  0  0  0  0
   -1.0939    1.4379   -4.1431 H   0  0  0  0  0  0  0  0  0  0  0  0
   -3.6391   -1.8510   -4.2410 N   0  0  0  0  0  0  0  0  0  0  0  0
   -4.1885   -3.0879   -4.7451 C   0  0  0  0  0  0  0  0  0  0  0  0
   -4.2380   -1.0306   -4.2433 H   0  0  0  0  0  0  0  0  0  0  0  0
   -3.9954   -3.1622   -5.8255 H   0  0  0  0  0  0  0  0  0  0  0  0
   -3.7153   -3.9363   -4.2290 H   0  0  0  0  0  0  0  0  0  0  0  0
   -5.2733   -3.1077   -4.5644 H   0  0  0  0  0  0  0  0  0  0  0  0
  1  3  1  0  0  0  0
  1  7  1  0  0  0  0
  1  2  2  0  0  0  0
 39 40  1  0  0  0  0
 40 48  1  0  0  0  0
 40 41  2  0  0  0  0
  8  9  1  0  0  0  0
  9 17  1  0  0  0  0
  9 10  2  0  0  0  0
 18 19  1  0  0  0  0
 19 38  1  0  0  0  0
 19 20  2  0  0  0  0
 39 42  1  0  0  0  0
  8 11  1  0  0  0  0
 48 49  1  0  0  0  0
 22 23  1  0  0  0  0
 21 22  1  0  0  0  0
 23 24  1  0  0  0  0
 18 21  1  0  0  0  0
 24 25  1  0  0  0  0
 38 39  1  0  0  0  0
  7  8  1  0  0  0  0
 17 18  1  0  0  0  0
  3  4  1  0  0  0  0
  3  5  1  0  0  0  0
  3  6  1  0  0  0  0
 42 45  1  0  0  0  0
 42 46  1  0  0  0  0
 42 47  1  0  0  0  0
 11 14  1  0  0  0  0
 11 15  1  0  0  0  0
 11 16  1  0  0  0  0
 49 51  1  0  0  0  0
 49 52  1  0  0  0  0
 49 53  1  0  0  0  0
 22 30  1  0  0  0  0
 22 31  1  0  0  0  0
 23 32  1  0  0  0  0
 23 33  1  0  0  0  0
 21 28  1  0  0  0  0
 21 29  1  0  0  0  0
 24 34  1  0  0  0  0
 24 35  1  0  0  0  0
 39 44  1  0  0  0  0
  8 13  1  0  0  0  0
 18 27  1  0  0  0  0
 25 36  1  0  0  0  0
 25 37  1  0  0  0  0
 48 50  1  0  0  0  0
  7 12  1  0  0  0  0
 38 43  1  0  0  0  0
 17 26  1  0  0  0  0
M  END
$$$$

  -OEChem-05262214473D

 53 52  0     1  0  0  0  0  0999 V2000
   -1.0338   -5.6785    0.1476 C   0  0  0  0  0  0  0  0  0  0  0  0
   -2.0514   -5.7797    0.8227 O   0  0  0  0  0  0  0  0  0  0  0  0
   -0.6558   -6.7819   -0.7841 C   0  0  0  0  0  0  0  0  0  0  0  0
   -0.0111   -7.5354   -0.3038 H   0  0  0  0  0  0  0  0  0  0  0  0
   -1.5317   -7.3401   -1.1520 H   0  0  0  0  0  0  0  0  0  0  0  0
   -0.1109   -6.4687   -1.6890 H   0  0  0  0  0  0  0  0  0  0  0  0
   -0.1543   -4.6083    0.1480 N   0  0  0  0  0  0  0  0  0  0  0  0
   -0.3302   -3.4398    0.9696 C   0  0  2  0  0  0  0  0  0  0  0  0
    0.2328   -2.2439    0.2131 C   0  0  0  0  0  0  0  0  0  0  0  0
    1.2097   -2.3192   -0.5294 O   0  0  0  0  0  0  0  0  0  0  0  0
    0.3557   -3.6024    2.3171 C   0  0  0  0  0  0  0  0  0  0  0  0
    0.6584   -4.6506   -0.4643 H   0  0  0  0  0  0  0  0  0  0  0  0
   -1.4091   -3.3101    1.1082 H   0  0  0  0  0  0  0  0  0  0  0  0
    1.4375   -3.7336    2.1985 H   0  0  0  0  0  0  0  0  0  0  0  0
    0.1969   -2.7243    2.9517 H   0  0  0  0  0  0  0  0  0  0  0  0
   -0.0294   -4.4803    2.8470 H   0  0  0  0  0  0  0  0  0  0  0  0
   -0.4616   -1.0893    0.5050 N   0  0  0  0  0  0  0  0  0  0  0  0
   -0.0884    0.2050   -0.0621 C   0  0  2  0  0  0  0  0  0  0  0  0
   -1.1038    0.5432   -1.1499 C   0  0  0  0  0  0  0  0  0  0  0  0
   -1.6307    1.6491   -1.2543 O   0  0  0  0  0  0  0  0  0  0  0  0
    1.3230    0.1896   -0.6679 C   0  0  0  0  0  0  0  0  0  0  0  0
    2.4321    0.0376    0.3782 C   0  0  0  0  0  0  0  0  0  0  0  0
    3.8165    0.0530   -0.2758 C   0  0  0  0  0  0  0  0  0  0  0  0
    4.9210   -0.1232    0.7649 C   0  0  0  0  0  0  0  0  0  0  0  0
    6.2284   -0.1294    0.1195 N   0  0  0  0  0  0  0  0  0  0  0  0
   -1.2794   -1.1113    1.0935 H   0  0  0  0  0  0  0  0  0  0  0  0
   -0.1459    0.9618    0.7294 H   0  0  0  0  0  0  0  0  0  0  0  0
    1.4859    1.1228   -1.2232 H   0  0  0  0  0  0  0  0  0  0  0  0
    1.4033   -0.6180   -1.4082 H   0  0  0  0  0  0  0  0  0  0  0  0
    2.3070   -0.9020    0.9279 H   0  0  0  0  0  0  0  0  0  0  0  0
    2.3626    0.8539    1.1071 H   0  0  0  0  0  0  0  0  0  0  0  0
    3.8759   -0.7496   -1.0218 H   0  0  0  0  0  0  0  0  0  0  0  0
    3.9583    1.0013   -0.8097 H   0  0  0  0  0  0  0  0  0  0  0  0
    4.7812   -1.0629    1.3105 H   0  0  0  0  0  0  0  0  0  0  0  0
    4.8863    0.6939    1.4932 H   0  0  0  0  0  0  0  0  0  0  0  0
    6.0941   -0.0386   -0.8604 H   0  0  0  0  0  0  0  0  0  0  0  0
    6.7544    0.6358    0.4721 H   0  0  0  0  0  0  0  0  0  0  0  0
   -1.3671   -0.5421   -1.9743 N   0  0  0  0  0  0  0  0  0  0  0  0
   -2.3083   -0.4949   -3.0701 C   0  0  2  0  0  0  0  0  0  0  0  0
   -2.9364   -1.8752   -3.2103 C   0  0  0  0  0  0  0  0  0  0  0  0
   -2.3242   -2.9169   -2.9840 O   0  0  0  0  0  0  0  0  0  0  0  0
   -1.6303   -0.0722   -4.3641 C   0  0  0  0  0  0  0  0  0  0  0  0
   -0.8755   -1.4169   -1.8177 H   0  0  0  0  0  0  0  0  0  0  0  0
   -3.0799    0.2317   -2.7932 H   0  0  0  0  0  0  0  0  0  0  0  0
   -0.8539   -0.7882   -4.6575 H   0  0  0  0  0  0  0  0  0  0  0  0
   -2.3500   -0.0093   -5.1869 H   0  0  0  0  0  0  0  0  0  0  0  0
   -1.1536    0.9076   -4.2523 H   0  0  0  0  0  0  0  0  0  0  0  0
   -4.2478   -1.8087   -3.6596 N   0  0  0  0  0  0  0  0  0  0  0  0
   -5.0459   -2.9855   -3.9129 C   0  0  0  0  0  0  0  0  0  0  0  0
   -4.6883   -0.9017   -3.7829 H   0  0  0  0  0  0  0  0  0  0  0  0
   -4.9492   -3.2742   -4.9699 H   0  0  0  0  0  0  0  0  0  0  0  0
   -4.6960   -3.8100   -3.2743 H   0  0  0  0  0  0  0  0  0  0  0  0
   -6.1004   -2.7689   -3.6870 H   0  0  0  0  0  0  0  0  0  0  0  0
  1  3  1  0  0  0  0
  1  7  1  0  0  0  0
  1  2  2  0  0  0  0
 39 40  1  0  0  0  0
 40 48  1  0  0  0  0
 40 41  2  0  0  0  0
  8  9  1  0  0  0  0
  9 17  1  0  0  0  0
  9 10  2  0  0  0  0
 18 19  1  0  0  0  0
 19 38  1  0  0  0  0
 19 20  2  0  0  0  0
 39 42  1  0  0  0  0
  8 11  1  0  0  0  0
 48 49  1  0  0  0  0
 22 23  1  0  0  0  0
 21 22  1  0  0  0  0
 23 24  1  0  0  0  0
 18 21  1  0  0  0  0
 24 25  1  0  0  0  0
 38 39  1  0  0  0  0
  7  8  1  0  0  0  0
 17 18  1  0  0  0  0
  3  4  1  0  0  0  0
  3  5  1  0  0  0  0
  3  6  1  0  0  0  0
 42 45  1  0  0  0  0
 42 46  1  0  0  0  0
 42 47  1  0  0  0  0
 11 14  1  0  0  0  0
 11 15  1  0  0  0  0
 11 16  1  0  0  0  0
 49 51  1  0  0  0  0
 49 52  1  0  0  0  0
 49 53  1  0  0  0  0
 22 30  1  0  0  0  0
 22 31  1  0  0  0  0
 23 32  1  0  0  0  0
 23 33  1  0  0  0  0
 21 28  1  0  0  0  0
 21 29  1  0  0  0  0
 24 34  1  0  0  0  0
 24 35  1  0  0  0  0
 39 44  1  0  0  0  0
  8 13  1  0  0  0  0
 18 27  1  0  0  0  0
 25 36  1  0  0  0  0
 25 37  1  0  0  0  0
 48 50  1  0  0  0  0
  7 12  1  0  0  0  0
 38 43  1  0  0  0  0
 17 26  1  0  0  0  0
M  END
$$$$

  -OEChem-05262214473D

 53 52  0     1  0  0  0  0  0999 V2000
   -1.0338   -5.6785    0.1476 C   0  0  0  0  0  0  0  0  0  0  0  0
   -2.0514   -5.7797    0.8227 O   0  0  0  0  0  0  0  0  0  0  0  0
   -0.6558   -6.7819   -0.7841 C   0  0  0  0  0  0  0  0  0  0  0  0
   -0.0111   -7.5354   -0.3038 H   0  0  0  0  0  0  0  0  0  0  0  0
   -1.5317   -7.3401   -1.1520 H   0  0  0  0  0  0  0  0  0  0  0  0
   -0.1109   -6.4687   -1.6890 H   0  0  0  0  0  0  0  0  0  0  0  0
   -0.1543   -4.6083    0.1480 N   0  0  0  0  0  0  0  0  0  0  0  0
   -0.3302   -3.4398    0.9696 C   0  0  2  0  0  0  0  0  0  0  0  0
    0.2328   -2.2439    0.2131 C   0  0  0  0  0  0  0  0  0  0  0  0
    1.2097   -2.3192   -0.5294 O   0  0  0  0  0  0  0  0  0  0  0  0
    0.3557   -3.6024    2.3171 C   0  0  0  0  0  0  0  0  0  0  0  0
    0.6584   -4.6506   -0.4643 H   0  0  0  0  0  0  0  0  0  0  0  0
   -1.4091   -3.3101    1.1082 H   0  0  0  0  0  0  0  0  0  0  0  0
    1.4375   -3.7336    2.1985 H   0  0  0  0  0  0  0  0  0  0  0  0
    0.1969   -2.7243    2.9517 H   0  0  0  0  0  0  0  0  0  0  0  0
   -0.0294   -4.4803    2.8470 H   0  0  0  0  0  0  0  0  0  0  0  0
   -0.4616   -1.0893    0.5050 N   0  0  0  0  0  0  0  0  0  0  0  0
   -0.0884    0.2050   -0.0621 C   0  0  2  0  0  0  0  0  0  0  0  0
   -1.1038    0.5432   -1.1499 C   0  0  0  0  0  0  0  0  0  0  0  0
   -1.4299    1.6957   -1.4273 O   0  0  0  0  0  0  0  0  0  0  0  0
    1.3230    0.1896   -0.6679 C   0  0  0  0  0  0  0  0  0  0  0  0
    2.4321    0.0376    0.3782 C   0  0  0  0  0  0  0  0  0  0  0  0
    3.8165    0.0530   -0.2758 C   0  0  0  0  0  0  0  0  0  0  0  0
    4.9210   -0.1232    0.7649 C   0  0  0  0  0  0  0  0  0  0  0  0
    6.2284   -0.1294    0.1195 N   0  0  0  0  0  0  0  0  0  0  0  0
   -1.2794   -1.1113    1.0935 H   0  0  0  0  0  0  0  0  0  0  0  0
   -0.1459    0.9618    0.7294 H   0  0  0  0  0  0  0  0  0  0  0  0
    1.4859    1.1228   -1.2232 H   0  0  0  0  0  0  0  0  0  0  0  0
    1.4033   -0.6180   -1.4082 H   0  0  0  0  0  0  0  0  0  0  0  0
    2.3070   -0.9020    0.9279 H   0  0  0  0  0  0  0  0  0  0  0  0
    2.3626    0.8539    1.1071 H   0  0  0  0  0  0  0  0  0  0  0  0
    3.8759   -0.7496   -1.0218 H   0  0  0  0  0  0  0  0  0  0  0  0
    3.9583    1.0013   -0.8097 H   0  0  0  0  0  0  0  0  0  0  0  0
    4.7812   -1.0629    1.3105 H   0  0  0  0  0  0  0  0  0  0  0  0
    4.8863    0.6939    1.4932 H   0  0  0  0  0  0  0  0  0  0  0  0
    6.0941   -0.0386   -0.8604 H   0  0  0  0  0  0  0  0  0  0  0  0
    6.7544    0.6358    0.4721 H   0  0  0  0  0  0  0  0  0  0  0  0
   -1.6175   -0.5946   -1.7569 N   0  0  0  0  0  0  0  0  0  0  0  0
   -2.6129   -0.5534   -2.8039 C   0  0  2  0  0  0  0  0  0  0  0  0
   -3.4871   -1.7933   -2.6708 C   0  0  0  0  0  0  0  0  0  0  0  0
   -3.0568   -2.8795   -2.2884 O   0  0  0  0  0  0  0  0  0  0  0  0
   -1.9670   -0.4888   -4.1792 C   0  0  0  0  0  0  0  0  0  0  0  0
   -1.2807   -1.5081   -1.4677 H   0  0  0  0  0  0  0  0  0  0  0  0
   -3.2191    0.3421   -2.6289 H   0  0  0  0  0  0  0  0  0  0  0  0
   -1.3555   -1.3776   -4.3726 H   0  0  0  0  0  0  0  0  0  0  0  0
   -2.7222   -0.4288   -4.9698 H   0  0  0  0  0  0  0  0  0  0  0  0
   -1.3153    0.3876   -4.2629 H   0  0  0  0  0  0  0  0  0  0  0  0
   -4.7947   -1.5553   -3.0703 N   0  0  0  0  0  0  0  0  0  0  0  0
   -5.8074   -2.5851   -3.0775 C   0  0  0  0  0  0  0  0  0  0  0  0
   -5.0732   -0.6149   -3.3345 H   0  0  0  0  0  0  0  0  0  0  0  0
   -5.8421   -3.0591   -4.0695 H   0  0  0  0  0  0  0  0  0  0  0  0
   -5.5652   -3.3426   -2.3176 H   0  0  0  0  0  0  0  0  0  0  0  0
   -6.7864   -2.1379   -2.8505 H   0  0  0  0  0  0  0  0  0  0  0  0
  1  3  1  0  0  0  0
  1  7  1  0  0  0  0
  1  2  2  0  0  0  0
 39 40  1  0  0  0  0
 40 48  1  0  0  0  0
 40 41  2  0  0  0  0
  8  9  1  0  0  0  0
  9 17  1  0  0  0  0
  9 10  2  0  0  0  0
 18 19  1  0  0  0  0
 19 38  1  0  0  0  0
 19 20  2  0  0  0  0
 39 42  1  0  0  0  0
  8 11  1  0  0  0  0
 48 49  1  0  0  0  0
 22 23  1  0  0  0  0
 21 22  1  0  0  0  0
 23 24  1  0  0  0  0
 18 21  1  0  0  0  0
 24 25  1  0  0  0  0
 38 39  1  0  0  0  0
  7  8  1  0  0  0  0
 17 18  1  0  0  0  0
  3  4  1  0  0  0  0
  3  5  1  0  0  0  0
  3  6  1  0  0  0  0
 42 45  1  0  0  0  0
 42 46  1  0  0  0  0
 42 47  1  0  0  0  0
 11 14  1  0  0  0  0
 11 15  1  0  0  0  0
 11 16  1  0  0  0  0
 49 51  1  0  0  0  0
 49 52  1  0  0  0  0
 49 53  1  0  0  0  0
 22 30  1  0  0  0  0
 22 31  1  0  0  0  0
 23 32  1  0  0  0  0
 23 33  1  0  0  0  0
 21 28  1  0  0  0  0
 21 29  1  0  0  0  0
 24 34  1  0  0  0  0
 24 35  1  0  0  0  0
 39 44  1  0  0  0  0
  8 13  1  0  0  0  0
 18 27  1  0  0  0  0
 25 36  1  0  0  0  0
 25 37  1  0  0  0  0
 48 50  1  0  0  0  0
  7 12  1  0  0  0  0
 38 43  1  0  0  0  0
 17 26  1  0  0  0  0
M  END
$$$$

  -OEChem-05262214473D

 53 52  0     1  0  0  0  0  0999 V2000
   -1.0338   -5.6785    0.1476 C   0  0  0  0  0  0  0  0  0  0  0  0
   -2.0514   -5.7797    0.8227 O   0  0  0  0  0  0  0  0  0  0  0  0
   -0.6558   -6.7819   -0.7841 C   0  0  0  0  0  0  0  0  0  0  0  0
   -0.0111   -7.5354   -0.3038 H   0  0  0  0  0  0  0  0  0  0  0  0
   -1.5317   -7.3401   -1.1520 H   0  0  0  0  0  0  0  0  0  0  0  0
   -0.1109   -6.4687   -1.6890 H   0  0  0  0  0  0  0  0  0  0  0  0
   -0.1543   -4.6083    0.1480 N   0  0  0  0  0  0  0  0  0  0  0  0
   -0.3302   -3.4398    0.9696 C   0  0  2  0  0  0  0  0  0  0  0  0
    0.2328   -2.2439    0.2131 C   0  0  0  0  0  0  0  0  0  0  0  0
    1.2097   -2.3192   -0.5294 O   0  0  0  0  0  0  0  0  0  0  0  0
    0.3557   -3.6024    2.3171 C   0  0  0  0  0  0  0  0  0  0  0  0
    0.6584   -4.6506   -0.4643 H   0  0  0  0  0  0  0  0  0  0  0  0
   -1.4091   -3.3101    1.1082 H   0  0  0  0  0  0  0  0  0  0  0  0
    1.4375   -3.7336    2.1985 H   0  0  0  0  0  0  0  0  0  0  0  0
    0.1969   -2.7243    2.9517 H   0  0  0  0  0  0  0  0  0  0  0  0
   -0.0294   -4.4803    2.8470 H   0  0  0  0  0  0  0  0  0  0  0  0
   -0.4616   -1.0893    0.5050 N   0  0  0  0  0  0  0  0  0  0  0  0
   -0.0884    0.2050   -0.0621 C   0  0  2  0  0  0  0  0  0  0  0  0
   -1.1038    0.5432   -1.1499 C   0  0  0  0  0  0  0  0  0  0  0  0
   -1.2372    1.6738   -1.6139 O   0  0  0  0  0  0  0  0  0  0  0  0
    1.3230    0.1896   -0.6679 C   0  0  0  0  0  0  0  0  0  0  0  0
    2.4321    0.0376    0.3782 C   0  0  0  0  0  0  0  0  0  0  0  0
    3.8165    0.0530   -0.2758 C   0  0  0  0  0  0  0  0  0  0  0  0
    4.9210   -0.1232    0.7649 C   0  0  0  0  0  0  0  0  0  0  0  0
    6.2284   -0.1294    0.1195 N   0  0  0  0  0  0  0  0  0  0  0  0
   -1.2794   -1.1113    1.0935 H   0  0  0  0  0  0  0  0  0  0  0  0
   -0.1459    0.9618    0.7294 H   0  0  0  0  0  0  0  0  0  0  0  0
    1.4859    1.1228   -1.2232 H   0  0  0  0  0  0  0  0  0  0  0  0
    1.4033   -0.6180   -1.4082 H   0  0  0  0  0  0  0  0  0  0  0  0
    2.3070   -0.9020    0.9279 H   0  0  0  0  0  0  0  0  0  0  0  0
    2.3626    0.8539    1.1071 H   0  0  0  0  0  0  0  0  0  0  0  0
    3.8759   -0.7496   -1.0218 H   0  0  0  0  0  0  0  0  0  0  0  0
    3.9583    1.0013   -0.8097 H   0  0  0  0  0  0  0  0  0  0  0  0
    4.7812   -1.0629    1.3105 H   0  0  0  0  0  0  0  0  0  0  0  0
    4.8863    0.6939    1.4932 H   0  0  0  0  0  0  0  0  0  0  0  0
    6.0941   -0.0386   -0.8604 H   0  0  0  0  0  0  0  0  0  0  0  0
    6.7544    0.6358    0.4721 H   0  0  0  0  0  0  0  0  0  0  0  0
   -1.8565   -0.5616   -1.5235 N   0  0  0  0  0  0  0  0  0  0  0  0
   -2.9026   -0.5078   -2.5193 C   0  0  2  0  0  0  0  0  0  0  0  0
   -3.9730   -1.5197   -2.1322 C   0  0  0  0  0  0  0  0  0  0  0  0
   -3.7177   -2.5884   -1.5810 O   0  0  0  0  0  0  0  0  0  0  0  0
   -2.3585   -0.7972   -3.9096 C   0  0  0  0  0  0  0  0  0  0  0  0
   -1.6688   -1.4611   -1.0908 H   0  0  0  0  0  0  0  0  0  0  0  0
   -3.3238    0.5027   -2.4813 H   0  0  0  0  0  0  0  0  0  0  0  0
   -1.9323   -1.8054   -3.9671 H   0  0  0  0  0  0  0  0  0  0  0  0
   -3.1467   -0.7279   -4.6665 H   0  0  0  0  0  0  0  0  0  0  0  0
   -1.5680   -0.0866   -4.1744 H   0  0  0  0  0  0  0  0  0  0  0  0
   -5.2424   -1.1083   -2.5134 N   0  0  0  0  0  0  0  0  0  0  0  0
   -6.4212   -1.9139   -2.2958 C   0  0  0  0  0  0  0  0  0  0  0  0
   -5.3662   -0.1896   -2.9287 H   0  0  0  0  0  0  0  0  0  0  0  0
   -6.6133   -2.5315   -3.1856 H   0  0  0  0  0  0  0  0  0  0  0  0
   -6.2637   -2.5661   -1.4241 H   0  0  0  0  0  0  0  0  0  0  0  0
   -7.2847   -1.2578   -2.1117 H   0  0  0  0  0  0  0  0  0  0  0  0
  1  3  1  0  0  0  0
  1  7  1  0  0  0  0
  1  2  2  0  0  0  0
 39 40  1  0  0  0  0
 40 48  1  0  0  0  0
 40 41  2  0  0  0  0
  8  9  1  0  0  0  0
  9 17  1  0  0  0  0
  9 10  2  0  0  0  0
 18 19  1  0  0  0  0
 19 38  1  0  0  0  0
 19 20  2  0  0  0  0
 39 42  1  0  0  0  0
  8 11  1  0  0  0  0
 48 49  1  0  0  0  0
 22 23  1  0  0  0  0
 21 22  1  0  0  0  0
 23 24  1  0  0  0  0
 18 21  1  0  0  0  0
 24 25  1  0  0  0  0
 38 39  1  0  0  0  0
  7  8  1  0  0  0  0
 17 18  1  0  0  0  0
  3  4  1  0  0  0  0
  3  5  1  0  0  0  0
  3  6  1  0  0  0  0
 42 45  1  0  0  0  0
 42 46  1  0  0  0  0
 42 47  1  0  0  0  0
 11 14  1  0  0  0  0
 11 15  1  0  0  0  0
 11 16  1  0  0  0  0
 49 51  1  0  0  0  0
 49 52  1  0  0  0  0
 49 53  1  0  0  0  0
 22 30  1  0  0  0  0
 22 31  1  0  0  0  0
 23 32  1  0  0  0  0
 23 33  1  0  0  0  0
 21 28  1  0  0  0  0
 21 29  1  0  0  0  0
 24 34  1  0  0  0  0
 24 35  1  0  0  0  0
 39 44  1  0  0  0  0
  8 13  1  0  0  0  0
 18 27  1  0  0  0  0
 25 36  1  0  0  0  0
 25 37  1  0  0  0  0
 48 50  1  0  0  0  0
  7 12  1  0  0  0  0
 38 43  1  0  0  0  0
 17 26  1  0  0  0  0
M  END
$$$$

  -OEChem-05262214473D

 53 52  0     1  0  0  0  0  0999 V2000
   -1.0338   -5.6785    0.1476 C   0  0  0  0  0  0  0  0  0  0  0  0
   -2.0514   -5.7797    0.8227 O   0  0  0  0  0  0  0  0  0  0  0  0
   -0.6558   -6.7819   -0.7841 C   0  0  0  0  0  0  0  0  0  0  0  0
   -0.0111   -7.5354   -0.3038 H   0  0  0  0  0  0  0  0  0  0  0  0
   -1.5317   -7.3401   -1.1520 H   0  0  0  0  0  0  0  0  0  0  0  0
   -0.1109   -6.4687   -1.6890 H   0  0  0  0  0  0  0  0  0  0  0  0
   -0.1543   -4.6083    0.1480 N   0  0  0  0  0  0  0  0  0  0  0  0
   -0.3302   -3.4398    0.9696 C   0  0  2  0  0  0  0  0  0  0  0  0
    0.2328   -2.2439    0.2131 C   0  0  0  0  0  0  0  0  0  0  0  0
    1.2097   -2.3192   -0.5294 O   0  0  0  0  0  0  0  0  0  0  0  0
    0.3557   -3.6024    2.3171 C   0  0  0  0  0  0  0  0  0  0  0  0
    0.6584   -4.6506   -0.4643 H   0  0  0  0  0  0  0  0  0  0  0  0
   -1.4091   -3.3101    1.1082 H   0  0  0  0  0  0  0  0  0  0  0  0
    1.4375   -3.7336    2.1985 H   0  0  0  0  0  0  0  0  0  0  0  0
    0.1969   -2.7243    2.9517 H   0  0  0  0  0  0  0  0  0  0  0  0
   -0.0294   -4.4803    2.8470 H   0  0  0  0  0  0  0  0  0  0  0  0
   -0.4616   -1.0893    0.5050 N   0  0  0  0  0  0  0  0  0  0  0  0
   -0.0884    0.2050   -0.0621 C   0  0  2  0  0  0  0  0  0  0  0  0
   -1.1038    0.5432   -1.1499 C   0  0  0  0  0  0  0  0  0  0  0  0
   -1.0659    1.5851   -1.8014 O   0  0  0  0  0  0  0  0  0  0  0  0
    1.3230    0.1896   -0.6679 C   0  0  0  0  0  0  0  0  0  0  0  0
    2.4321    0.0376    0.3782 C   0  0  0  0  0  0  0  0  0  0  0  0
    3.8165    0.0530   -0.2758 C   0  0  0  0  0  0  0  0  0  0  0  0
    4.9210   -0.1232    0.7649 C   0  0  0  0  0  0  0  0  0  0  0  0
    6.2284   -0.1294    0.1195 N   0  0  0  0  0  0  0  0  0  0  0  0
   -1.2794   -1.1113    1.0935 H   0  0  0  0  0  0  0  0  0  0  0  0
   -0.1459    0.9618    0.7294 H   0  0  0  0  0  0  0  0  0  0  0  0
    1.4859    1.1228   -1.2232 H   0  0  0  0  0  0  0  0  0  0  0  0
    1.4033   -0.6180   -1.4082 H   0  0  0  0  0  0  0  0  0  0  0  0
    2.3070   -0.9020    0.9279 H   0  0  0  0  0  0  0  0  0  0  0  0
    2.3626    0.8539    1.1071 H   0  0  0  0  0  0  0  0  0  0  0  0
    3.8759   -0.7496   -1.0218 H   0  0  0  0  0  0  0  0  0  0  0  0
    3.9583    1.0013   -0.8097 H   0  0  0  0  0  0  0  0  0  0  0  0
    4.7812   -1.0629    1.3105 H   0  0  0  0  0  0  0  0  0  0  0  0
    4.8863    0.6939    1.4932 H   0  0  0  0  0  0  0  0  0  0  0  0
    6.0941   -0.0386   -0.8604 H   0  0  0  0  0  0  0  0  0  0  0  0
    6.7544    0.6358    0.4721 H   0  0  0  0  0  0  0  0  0  0  0  0
   -2.0680   -0.4455   -1.2900 N   0  0  0  0  0  0  0  0  0  0  0  0
   -3.1577   -0.3613   -2.2356 C   0  0  2  0  0  0  0  0  0  0  0  0
   -4.3609   -1.0730   -1.6311 C   0  0  0  0  0  0  0  0  0  0  0  0
   -4.2618   -2.0635   -0.9099 O   0  0  0  0  0  0  0  0  0  0  0  0
   -2.7781   -0.9764   -3.5736 C   0  0  0  0  0  0  0  0  0  0  0  0
   -2.0134   -1.2793   -0.7126 H   0  0  0  0  0  0  0  0  0  0  0  0
   -3.3868    0.7026   -2.3603 H   0  0  0  0  0  0  0  0  0  0  0  0
   -2.5452   -2.0423   -3.4686 H   0  0  0  0  0  0  0  0  0  0  0  0
   -3.5946   -0.8863   -4.2977 H   0  0  0  0  0  0  0  0  0  0  0  0
   -1.8946   -0.4829   -3.9928 H   0  0  0  0  0  0  0  0  0  0  0  0
   -5.5605   -0.4980   -2.0268 N   0  0  0  0  0  0  0  0  0  0  0  0
   -6.8455   -1.0178   -1.6212 C   0  0  0  0  0  0  0  0  0  0  0  0
   -5.5476    0.3451   -2.5932 H   0  0  0  0  0  0  0  0  0  0  0  0
   -7.2101   -1.7274   -2.3785 H   0  0  0  0  0  0  0  0  0  0  0  0
   -6.7439   -1.5332   -0.6548 H   0  0  0  0  0  0  0  0  0  0  0  0
   -7.5613   -0.1886   -1.5211 H   0  0  0  0  0  0  0  0  0  0  0  0
  1  3  1  0  0  0  0
  1  7  1  0  0  0  0
  1  2  2  0  0  0  0
 39 40  1  0  0  0  0
 40 48  1  0  0  0  0
 40 41  2  0  0  0  0
  8  9  1  0  0  0  0
  9 17  1  0  0  0  0
  9 10  2  0  0  0  0
 18 19  1  0  0  0  0
 19 38  1  0  0  0  0
 19 20  2  0  0  0  0
 39 42  1  0  0  0  0
  8 11  1  0  0  0  0
 48 49  1  0  0  0  0
 22 23  1  0  0  0  0
 21 22  1  0  0  0  0
 23 24  1  0  0  0  0
 18 21  1  0  0  0  0
 24 25  1  0  0  0  0
 38 39  1  0  0  0  0
  7  8  1  0  0  0  0
 17 18  1  0  0  0  0
  3  4  1  0  0  0  0
  3  5  1  0  0  0  0
  3  6  1  0  0  0  0
 42 45  1  0  0  0  0
 42 46  1  0  0  0  0
 42 47  1  0  0  0  0
 11 14  1  0  0  0  0
 11 15  1  0  0  0  0
 11 16  1  0  0  0  0
 49 51  1  0  0  0  0
 49 52  1  0  0  0  0
 49 53  1  0  0  0  0
 22 30  1  0  0  0  0
 22 31  1  0  0  0  0
 23 32  1  0  0  0  0
 23 33  1  0  0  0  0
 21 28  1  0  0  0  0
 21 29  1  0  0  0  0
 24 34  1  0  0  0  0
 24 35  1  0  0  0  0
 39 44  1  0  0  0  0
  8 13  1  0  0  0  0
 18 27  1  0  0  0  0
 25 36  1  0  0  0  0
 25 37  1  0  0  0  0
 48 50  1  0  0  0  0
  7 12  1  0  0  0  0
 38 43  1  0  0  0  0
 17 26  1  0  0  0  0
M  END
$$$$

  -OEChem-05262214473D

 53 52  0     1  0  0  0  0  0999 V2000
   -1.0338   -5.6785    0.1476 C   0  0  0  0  0  0  0  0  0  0  0  0
   -2.0514   -5.7797    0.8227 O   0  0  0  0  0  0  0  0  0  0  0  0
   -0.6558   -6.7819   -0.7841 C   0  0  0  0  0  0  0  0  0  0  0  0
   -0.0111   -7.5354   -0.3038 H   0  0  0  0  0  0  0  0  0  0  0  0
   -1.5317   -7.3401   -1.1520 H   0  0  0  0  0  0  0  0  0  0  0  0
   -0.1109   -6.4687   -1.6890 H   0  0  0  0  0  0  0  0  0  0  0  0
   -0.1543   -4.6083    0.1480 N   0  0  0  0  0  0  0  0  0  0  0  0
   -0.3302   -3.4398    0.9696 C   0  0  2  0  0  0  0  0  0  0  0  0
    0.2328   -2.2439    0.2131 C   0  0  0  0  0  0  0  0  0  0  0  0
    1.2097   -2.3192   -0.5294 O   0  0  0  0  0  0  0  0  0  0  0  0
    0.3557   -3.6024    2.3171 C   0  0  0  0  0  0  0  0  0  0  0  0
    0.6584   -4.6506   -0.4643 H   0  0  0  0  0  0  0  0  0  0  0  0
   -1.4091   -3.3101    1.1082 H   0  0  0  0  0  0  0  0  0  0  0  0
    1.4375   -3.7336    2.1985 H   0  0  0  0  0  0  0  0  0  0  0  0
    0.1969   -2.7243    2.9517 H   0  0  0  0  0  0  0  0  0  0  0  0
   -0.0294   -4.4803    2.8470 H   0  0  0  0  0  0  0  0  0  0  0  0
   -0.4616   -1.0893    0.5050 N   0  0  0  0  0  0  0  0  0  0  0  0
   -0.0884    0.2050   -0.0621 C   0  0  2  0  0  0  0  0  0  0  0  0
   -1.1038    0.5432   -1.1499 C   0  0  0  0  0  0  0  0  0  0  0  0
   -0.9275    1.4354   -1.9771 O   0  0  0  0  0  0  0  0  0  0  0  0
    1.3230    0.1896   -0.6679 C   0  0  0  0  0  0  0  0  0  0  0  0
    2.4321    0.0376    0.3782 C   0  0  0  0  0  0  0  0  0  0  0  0
    3.8165    0.0530   -0.2758 C   0  0  0  0  0  0  0  0  0  0  0  0
    4.9210   -0.1232    0.7649 C   0  0  0  0  0  0  0  0  0  0  0  0
    6.2284   -0.1294    0.1195 N   0  0  0  0  0  0  0  0  0  0  0  0
   -1.2794   -1.1113    1.0935 H   0  0  0  0  0  0  0  0  0  0  0  0
   -0.1459    0.9618    0.7294 H   0  0  0  0  0  0  0  0  0  0  0  0
    1.4859    1.1228   -1.2232 H   0  0  0  0  0  0  0  0  0  0  0  0
    1.4033   -0.6180   -1.4082 H   0  0  0  0  0  0  0  0  0  0  0  0
    2.3070   -0.9020    0.9279 H   0  0  0  0  0  0  0  0  0  0  0  0
    2.3626    0.8539    1.1071 H   0  0  0  0  0  0  0  0  0  0  0  0
    3.8759   -0.7496   -1.0218 H   0  0  0  0  0  0  0  0  0  0  0  0
    3.9583    1.0013   -0.8097 H   0  0  0  0  0  0  0  0  0  0  0  0
    4.7812   -1.0629    1.3105 H   0  0  0  0  0  0  0  0  0  0  0  0
    4.8863    0.6939    1.4932 H   0  0  0  0  0  0  0  0  0  0  0  0
    6.0941   -0.0386   -0.8604 H   0  0  0  0  0  0  0  0  0  0  0  0
    6.7544    0.6358    0.4721 H   0  0  0  0  0  0  0  0  0  0  0  0
   -2.2374   -0.2541   -1.0724 N   0  0  0  0  0  0  0  0  0  0  0  0
   -3.3609   -0.1239   -1.9722 C   0  0  2  0  0  0  0  0  0  0  0  0
   -4.6245   -0.4837   -1.2019 C   0  0  0  0  0  0  0  0  0  0  0  0
   -4.6520   -1.3406   -0.3209 O   0  0  0  0  0  0  0  0  0  0  0  0
   -3.1972   -1.0142   -3.1941 C   0  0  0  0  0  0  0  0  0  0  0  0
   -2.2911   -0.9749   -0.3587 H   0  0  0  0  0  0  0  0  0  0  0  0
   -3.4038    0.9281   -2.2743 H   0  0  0  0  0  0  0  0  0  0  0  0
   -3.1523   -2.0722   -2.9112 H   0  0  0  0  0  0  0  0  0  0  0  0
   -4.0352   -0.8931   -3.8884 H   0  0  0  0  0  0  0  0  0  0  0  0
   -2.2727   -0.7741   -3.7303 H   0  0  0  0  0  0  0  0  0  0  0  0
   -5.7272    0.2341   -1.6436 N   0  0  0  0  0  0  0  0  0  0  0  0
   -7.0513    0.0423   -1.0996 C   0  0  0  0  0  0  0  0  0  0  0  0
   -5.6049    0.9529   -2.3508 H   0  0  0  0  0  0  0  0  0  0  0  0
   -7.5920   -0.7016   -1.7031 H   0  0  0  0  0  0  0  0  0  0  0  0
   -6.9731   -0.3144   -0.0620 H   0  0  0  0  0  0  0  0  0  0  0  0
   -7.5973    0.9970   -1.1190 H   0  0  0  0  0  0  0  0  0  0  0  0
  1  3  1  0  0  0  0
  1  7  1  0  0  0  0
  1  2  2  0  0  0  0
 39 40  1  0  0  0  0
 40 48  1  0  0  0  0
 40 41  2  0  0  0  0
  8  9  1  0  0  0  0
  9 17  1  0  0  0  0
  9 10  2  0  0  0  0
 18 19  1  0  0  0  0
 19 38  1  0  0  0  0
 19 20  2  0  0  0  0
 39 42  1  0  0  0  0
  8 11  1  0  0  0  0
 48 49  1  0  0  0  0
 22 23  1  0  0  0  0
 21 22  1  0  0  0  0
 23 24  1  0  0  0  0
 18 21  1  0  0  0  0
 24 25  1  0  0  0  0
 38 39  1  0  0  0  0
  7  8  1  0  0  0  0
 17 18  1  0  0  0  0
  3  4  1  0  0  0  0
  3  5  1  0  0  0  0
  3  6  1  0  0  0  0
 42 45  1  0  0  0  0
 42 46  1  0  0  0  0
 42 47  1  0  0  0  0
 11 14  1  0  0  0  0
 11 15  1  0  0  0  0
 11 16  1  0  0  0  0
 49 51  1  0  0  0  0
 49 52  1  0  0  0  0
 49 53  1  0  0  0  0
 22 30  1  0  0  0  0
 22 31  1  0  0  0  0
 23 32  1  0  0  0  0
 23 33  1  0  0  0  0
 21 28  1  0  0  0  0
 21 29  1  0  0  0  0
 24 34  1  0  0  0  0
 24 35  1  0  0  0  0
 39 44  1  0  0  0  0
  8 13  1  0  0  0  0
 18 27  1  0  0  0  0
 25 36  1  0  0  0  0
 25 37  1  0  0  0  0
 48 50  1  0  0  0  0
  7 12  1  0  0  0  0
 38 43  1  0  0  0  0
 17 26  1  0  0  0  0
M  END
$$$$

  -OEChem-05262214473D

 53 52  0     1  0  0  0  0  0999 V2000
   -1.0338   -5.6785    0.1476 C   0  0  0  0  0  0  0  0  0  0  0  0
   -2.0514   -5.7797    0.8227 O   0  0  0  0  0  0  0  0  0  0  0  0
   -0.6558   -6.7819   -0.7841 C   0  0  0  0  0  0  0  0  0  0  0  0
   -0.0111   -7.5354   -0.3038 H   0  0  0  0  0  0  0  0  0  0  0  0
   -1.5317   -7.3401   -1.1520 H   0  0  0  0  0  0  0  0  0  0  0  0
   -0.1109   -6.4687   -1.6890 H   0  0  0  0  0  0  0  0  0  0  0  0
   -0.1543   -4.6083    0.1480 N   0  0  0  0  0  0  0  0  0  0  0  0
   -0.3302   -3.4398    0.9696 C   0  0  2  0  0  0  0  0  0  0  0  0
    0.2328   -2.2439    0.2131 C   0  0  0  0  0  0  0  0  0  0  0  0
    1.2097   -2.3192   -0.5294 O   0  0  0  0  0  0  0  0  0  0  0  0
    0.3557   -3.6024    2.3171 C   0  0  0  0  0  0  0  0  0  0  0  0
    0.6584   -4.6506   -0.4643 H   0  0  0  0  0  0  0  0  0  0  0  0
   -1.4091   -3.3101    1.1082 H   0  0  0  0  0  0  0  0  0  0  0  0
    1.4375   -3.7336    2.1985 H   0  0  0  0  0  0  0  0  0  0  0  0
    0.1969   -2.7243    2.9517 H   0  0  0  0  0  0  0  0  0  0  0  0
   -0.0294   -4.4803    2.8470 H   0  0  0  0  0  0  0  0  0  0  0  0
   -0.4616   -1.0893    0.5050 N   0  0  0  0  0  0  0  0  0  0  0  0
   -0.0884    0.2050   -0.0621 C   0  0  2  0  0  0  0  0  0  0  0  0
   -1.1038    0.5432   -1.1499 C   0  0  0  0  0  0  0  0  0  0  0  0
   -0.8316    1.2351   -2.1290 O   0  0  0  0  0  0  0  0  0  0  0  0
    1.3230    0.1896   -0.6679 C   0  0  0  0  0  0  0  0  0  0  0  0
    2.4321    0.0376    0.3782 C   0  0  0  0  0  0  0  0  0  0  0  0
    3.8165    0.0530   -0.2758 C   0  0  0  0  0  0  0  0  0  0  0  0
    4.9210   -0.1232    0.7649 C   0  0  0  0  0  0  0  0  0  0  0  0
    6.2284   -0.1294    0.1195 N   0  0  0  0  0  0  0  0  0  0  0  0
   -1.2794   -1.1113    1.0935 H   0  0  0  0  0  0  0  0  0  0  0  0
   -0.1459    0.9618    0.7294 H   0  0  0  0  0  0  0  0  0  0  0  0
    1.4859    1.1228   -1.2232 H   0  0  0  0  0  0  0  0  0  0  0  0
    1.4033   -0.6180   -1.4082 H   0  0  0  0  0  0  0  0  0  0  0  0
    2.3070   -0.9020    0.9279 H   0  0  0  0  0  0  0  0  0  0  0  0
    2.3626    0.8539    1.1071 H   0  0  0  0  0  0  0  0  0  0  0  0
    3.8759   -0.7496   -1.0218 H   0  0  0  0  0  0  0  0  0  0  0  0
    3.9583    1.0013   -0.8097 H   0  0  0  0  0  0  0  0  0  0  0  0
    4.7812   -1.0629    1.3105 H   0  0  0  0  0  0  0  0  0  0  0  0
    4.8863    0.6939    1.4932 H   0  0  0  0  0  0  0  0  0  0  0  0
    6.0941   -0.0386   -0.8604 H   0  0  0  0  0  0  0  0  0  0  0  0
    6.7544    0.6358    0.4721 H   0  0  0  0  0  0  0  0  0  0  0  0
   -2.3533   -0.0005   -0.8854 N   0  0  0  0  0  0  0  0  0  0  0  0
   -3.4982    0.1882   -1.7469 C   0  0  2  0  0  0  0  0  0  0  0  0
   -4.7458    0.2081   -0.8736 C   0  0  0  0  0  0  0  0  0  0  0  0
   -4.8618   -0.4688    0.1459 O   0  0  0  0  0  0  0  0  0  0  0  0
   -3.5872   -0.9081   -2.7970 C   0  0  0  0  0  0  0  0  0  0  0  0
   -2.4828   -0.5687   -0.0535 H   0  0  0  0  0  0  0  0  0  0  0  0
   -3.3737    1.1639   -2.2291 H   0  0  0  0  0  0  0  0  0  0  0  0
   -3.7122   -1.8932   -2.3328 H   0  0  0  0  0  0  0  0  0  0  0  0
   -4.4387   -0.7479   -3.4667 H   0  0  0  0  0  0  0  0  0  0  0  0
   -2.6766   -0.9404   -3.4050 H   0  0  0  0  0  0  0  0  0  0  0  0
   -5.7311    1.0379   -1.3900 N   0  0  0  0  0  0  0  0  0  0  0  0
   -7.0245    1.1940   -0.7665 C   0  0  0  0  0  0  0  0  0  0  0  0
   -5.5342    1.5923   -2.2181 H   0  0  0  0  0  0  0  0  0  0  0  0
   -7.7329    0.4760   -1.2056 H   0  0  0  0  0  0  0  0  0  0  0  0
   -6.9356    1.0072    0.3138 H   0  0  0  0  0  0  0  0  0  0  0  0
   -7.3903    2.2180   -0.9327 H   0  0  0  0  0  0  0  0  0  0  0  0
  1  3  1  0  0  0  0
  1  7  1  0  0  0  0
  1  2  2  0  0  0  0
 39 40  1  0  0  0  0
 40 48  1  0  0  0  0
 40 41  2  0  0  0  0
  8  9  1  0  0  0  0
  9 17  1  0  0  0  0
  9 10  2  0  0  0  0
 18 19  1  0  0  0  0
 19 38  1  0  0  0  0
 19 20  2  0  0  0  0
 39 42  1  0  0  0  0
  8 11  1  0  0  0  0
 48 49  1  0  0  0  0
 22 23  1  0  0  0  0
 21 22  1  0  0  0  0
 23 24  1  0  0  0  0
 18 21  1  0  0  0  0
 24 25  1  0  0  0  0
 38 39  1  0  0  0  0
  7  8  1  0  0  0  0
 17 18  1  0  0  0  0
  3  4  1  0  0  0  0
  3  5  1  0  0  0  0
  3  6  1  0  0  0  0
 42 45  1  0  0  0  0
 42 46  1  0  0  0  0
 42 47  1  0  0  0  0
 11 14  1  0  0  0  0
 11 15  1  0  0  0  0
 11 16  1  0  0  0  0
 49 51  1  0  0  0  0
 49 52  1  0  0  0  0
 49 53  1  0  0  0  0
 22 30  1  0  0  0  0
 22 31  1  0  0  0  0
 23 32  1  0  0  0  0
 23 33  1  0  0  0  0
 21 28  1  0  0  0  0
 21 29  1  0  0  0  0
 24 34  1  0  0  0  0
 24 35  1  0  0  0  0
 39 44  1  0  0  0  0
  8 13  1  0  0  0  0
 18 27  1  0  0  0  0
 25 36  1  0  0  0  0
 25 37  1  0  0  0  0
 48 50  1  0  0  0  0
  7 12  1  0  0  0  0
 38 43  1  0  0  0  0
 17 26  1  0  0  0  0
M  END
$$$$

  -OEChem-05262214473D

 53 52  0     1  0  0  0  0  0999 V2000
   -1.0338   -5.6785    0.1476 C   0  0  0  0  0  0  0  0  0  0  0  0
   -2.0514   -5.7797    0.8227 O   0  0  0  0  0  0  0  0  0  0  0  0
   -0.6558   -6.7819   -0.7841 C   0  0  0  0  0  0  0  0  0  0  0  0
   -0.0111   -7.5354   -0.3038 H   0  0  0  0  0  0  0  0  0  0  0  0
   -1.5317   -7.3401   -1.1520 H   0  0  0  0  0  0  0  0  0  0  0  0
   -0.1109   -6.4687   -1.6890 H   0  0  0  0  0  0  0  0  0  0  0  0
   -0.1543   -4.6083    0.1480 N   0  0  0  0  0  0  0  0  0  0  0  0
   -0.3302   -3.4398    0.9696 C   0  0  2  0  0  0  0  0  0  0  0  0
    0.2328   -2.2439    0.2131 C   0  0  0  0  0  0  0  0  0  0  0  0
    1.2097   -2.3192   -0.5294 O   0  0  0  0  0  0  0  0  0  0  0  0
    0.3557   -3.6024    2.3171 C   0  0  0  0  0  0  0  0  0  0  0  0
    0.6584   -4.6506   -0.4643 H   0  0  0  0  0  0  0  0  0  0  0  0
   -1.4091   -3.3101    1.1082 H   0  0  0  0  0  0  0  0  0  0  0  0
    1.4375   -3.7336    2.1985 H   0  0  0  0  0  0  0  0  0  0  0  0
    0.1969   -2.7243    2.9517 H   0  0  0  0  0  0  0  0  0  0  0  0
   -0.0294   -4.4803    2.8470 H   0  0  0  0  0  0  0  0  0  0  0  0
   -0.4616   -1.0893    0.5050 N   0  0  0  0  0  0  0  0  0  0  0  0
   -0.0884    0.2050   -0.0621 C   0  0  2  0  0  0  0  0  0  0  0  0
   -1.1038    0.5432   -1.1499 C   0  0  0  0  0  0  0  0  0  0  0  0
   -0.7845    0.9977   -2.2467 O   0  0  0  0  0  0  0  0  0  0  0  0
    1.3230    0.1896   -0.6679 C   0  0  0  0  0  0  0  0  0  0  0  0
    2.4321    0.0376    0.3782 C   0  0  0  0  0  0  0  0  0  0  0  0
    3.8165    0.0530   -0.2758 C   0  0  0  0  0  0  0  0  0  0  0  0
    4.9210   -0.1232    0.7649 C   0  0  0  0  0  0  0  0  0  0  0  0
    6.2284   -0.1294    0.1195 N   0  0  0  0  0  0  0  0  0  0  0  0
   -1.2794   -1.1113    1.0935 H   0  0  0  0  0  0  0  0  0  0  0  0
   -0.1459    0.9618    0.7294 H   0  0  0  0  0  0  0  0  0  0  0  0
    1.4859    1.1228   -1.2232 H   0  0  0  0  0  0  0  0  0  0  0  0
    1.4033   -0.6180   -1.4082 H   0  0  0  0  0  0  0  0  0  0  0  0
    2.3070   -0.9020    0.9279 H   0  0  0  0  0  0  0  0  0  0  0  0
    2.3626    0.8539    1.1071 H   0  0  0  0  0  0  0  0  0  0  0  0
    3.8759   -0.7496   -1.0218 H   0  0  0  0  0  0  0  0  0  0  0  0
    3.9583    1.0013   -0.8097 H   0  0  0  0  0  0  0  0  0  0  0  0
    4.7812   -1.0629    1.3105 H   0  0  0  0  0  0  0  0  0  0  0  0
    4.8863    0.6939    1.4932 H   0  0  0  0  0  0  0  0  0  0  0  0
    6.0941   -0.0386   -0.8604 H   0  0  0  0  0  0  0  0  0  0  0  0
    6.7544    0.6358    0.4721 H   0  0  0  0  0  0  0  0  0  0  0  0
   -2.4077    0.2980   -0.7418 N   0  0  0  0  0  0  0  0  0  0  0  0
   -3.5603    0.5539   -1.5753 C   0  0  2  0  0  0  0  0  0  0  0  0
   -4.7165    0.9553   -0.6687 C   0  0  0  0  0  0  0  0  0  0  0  0
   -4.8768    0.4924    0.4587 O   0  0  0  0  0  0  0  0  0  0  0  0
   -3.9216   -0.6653   -2.4094 C   0  0  0  0  0  0  0  0  0  0  0  0
   -2.5756   -0.0884    0.1824 H   0  0  0  0  0  0  0  0  0  0  0  0
   -3.2985    1.3939   -2.2278 H   0  0  0  0  0  0  0  0  0  0  0  0
   -4.1869   -1.5172   -1.7728 H   0  0  0  0  0  0  0  0  0  0  0  0
   -4.7774   -0.4607   -3.0612 H   0  0  0  0  0  0  0  0  0  0  0  0
   -3.0788   -0.9705   -3.0389 H   0  0  0  0  0  0  0  0  0  0  0  0
   -5.5722    1.8588   -1.2833 N   0  0  0  0  0  0  0  0  0  0  0  0
   -6.7671    2.3590   -0.6447 C   0  0  0  0  0  0  0  0  0  0  0  0
   -5.3403    2.2197   -2.2040 H   0  0  0  0  0  0  0  0  0  0  0  0
   -7.6232    1.7252   -0.9197 H   0  0  0  0  0  0  0  0  0  0  0  0
   -6.6340    2.3416    0.4471 H   0  0  0  0  0  0  0  0  0  0  0  0
   -6.9544    3.3914   -0.9748 H   0  0  0  0  0  0  0  0  0  0  0  0
  1  3  1  0  0  0  0
  1  7  1  0  0  0  0
  1  2  2  0  0  0  0
 39 40  1  0  0  0  0
 40 48  1  0  0  0  0
 40 41  2  0  0  0  0
  8  9  1  0  0  0  0
  9 17  1  0  0  0  0
  9 10  2  0  0  0  0
 18 19  1  0  0  0  0
 19 38  1  0  0  0  0
 19 20  2  0  0  0  0
 39 42  1  0  0  0  0
  8 11  1  0  0  0  0
 48 49  1  0  0  0  0
 22 23  1  0  0  0  0
 21 22  1  0  0  0  0
 23 24  1  0  0  0  0
 18 21  1  0  0  0  0
 24 25  1  0  0  0  0
 38 39  1  0  0  0  0
  7  8  1  0  0  0  0
 17 18  1  0  0  0  0
  3  4  1  0  0  0  0
  3  5  1  0  0  0  0
  3  6  1  0  0  0  0
 42 45  1  0  0  0  0
 42 46  1  0  0  0  0
 42 47  1  0  0  0  0
 11 14  1  0  0  0  0
 11 15  1  0  0  0  0
 11 16  1  0  0  0  0
 49 51  1  0  0  0  0
 49 52  1  0  0  0  0
 49 53  1  0  0  0  0
 22 30  1  0  0  0  0
 22 31  1  0  0  0  0
 23 32  1  0  0  0  0
 23 33  1  0  0  0  0
 21 28  1  0  0  0  0
 21 29  1  0  0  0  0
 24 34  1  0  0  0  0
 24 35  1  0  0  0  0
 39 44  1  0  0  0  0
  8 13  1  0  0  0  0
 18 27  1  0  0  0  0
 25 36  1  0  0  0  0
 25 37  1  0  0  0  0
 48 50  1  0  0  0  0
  7 12  1  0  0  0  0
 38 43  1  0  0  0  0
 17 26  1  0  0  0  0
M  END
$$$$

  -OEChem-05262214473D

 53 52  0     1  0  0  0  0  0999 V2000
   -1.0338   -5.6785    0.1476 C   0  0  0  0  0  0  0  0  0  0  0  0
   -2.0514   -5.7797    0.8227 O   0  0  0  0  0  0  0  0  0  0  0  0
   -0.6558   -6.7819   -0.7841 C   0  0  0  0  0  0  0  0  0  0  0  0
   -0.0111   -7.5354   -0.3038 H   0  0  0  0  0  0  0  0  0  0  0  0
   -1.5317   -7.3401   -1.1520 H   0  0  0  0  0  0  0  0  0  0  0  0
   -0.1109   -6.4687   -1.6890 H   0  0  0  0  0  0  0  0  0  0  0  0
   -0.1543   -4.6083    0.1480 N   0  0  0  0  0  0  0  0  0  0  0  0
   -0.3302   -3.4398    0.9696 C   0  0  2  0  0  0  0  0  0  0  0  0
    0.2328   -2.2439    0.2131 C   0  0  0  0  0  0  0  0  0  0  0  0
    1.2097   -2.3192   -0.5294 O   0  0  0  0  0  0  0  0  0  0  0  0
    0.3557   -3.6024    2.3171 C   0  0  0  0  0  0  0  0  0  0  0  0
    0.6584   -4.6506   -0.4643 H   0  0  0  0  0  0  0  0  0  0  0  0
   -1.4091   -3.3101    1.1082 H   0  0  0  0  0  0  0  0  0  0  0  0
    1.4375   -3.7336    2.1985 H   0  0  0  0  0  0  0  0  0  0  0  0
    0.1969   -2.7243    2.9517 H   0  0  0  0  0  0  0  0  0  0  0  0
   -0.0294   -4.4803    2.8470 H   0  0  0  0  0  0  0  0  0  0  0  0
   -0.4616   -1.0893    0.5050 N   0  0  0  0  0  0  0  0  0  0  0  0
   -0.0884    0.2050   -0.0621 C   0  0  2  0  0  0  0  0  0  0  0  0
   -1.1038    0.5432   -1.1499 C   0  0  0  0  0  0  0  0  0  0  0  0
   -0.7897    0.7395   -2.3222 O   0  0  0  0  0  0  0  0  0  0  0  0
    1.3230    0.1896   -0.6679 C   0  0  0  0  0  0  0  0  0  0  0  0
    2.4321    0.0376    0.3782 C   0  0  0  0  0  0  0  0  0  0  0  0
    3.8165    0.0530   -0.2758 C   0  0  0  0  0  0  0  0  0  0  0  0
    4.9210   -0.1232    0.7649 C   0  0  0  0  0  0  0  0  0  0  0  0
    6.2284   -0.1294    0.1195 N   0  0  0  0  0  0  0  0  0  0  0  0
   -1.2794   -1.1113    1.0935 H   0  0  0  0  0  0  0  0  0  0  0  0
   -0.1459    0.9618    0.7294 H   0  0  0  0  0  0  0  0  0  0  0  0
    1.4859    1.1228   -1.2232 H   0  0  0  0  0  0  0  0  0  0  0  0
    1.4033   -0.6180   -1.4082 H   0  0  0  0  0  0  0  0  0  0  0  0
    2.3070   -0.9020    0.9279 H   0  0  0  0  0  0  0  0  0  0  0  0
    2.3626    0.8539    1.1071 H   0  0  0  0  0  0  0  0  0  0  0  0
    3.8759   -0.7496   -1.0218 H   0  0  0  0  0  0  0  0  0  0  0  0
    3.9583    1.0013   -0.8097 H   0  0  0  0  0  0  0  0  0  0  0  0
    4.7812   -1.0629    1.3105 H   0  0  0  0  0  0  0  0  0  0  0  0
    4.8863    0.6939    1.4932 H   0  0  0  0  0  0  0  0  0  0  0  0
    6.0941   -0.0386   -0.8604 H   0  0  0  0  0  0  0  0  0  0  0  0
    6.7544    0.6358    0.4721 H   0  0  0  0  0  0  0  0  0  0  0  0
   -2.3970    0.6212   -0.6514 N   0  0  0  0  0  0  0  0  0  0  0  0
   -3.5430    0.9481   -1.4689 C   0  0  2  0  0  0  0  0  0  0  0  0
   -4.5385    1.7069   -0.6012 C   0  0  0  0  0  0  0  0  0  0  0  0
   -4.6960    1.4774    0.5962 O   0  0  0  0  0  0  0  0  0  0  0  0
   -4.1776   -0.3022   -2.0576 C   0  0  0  0  0  0  0  0  0  0  0  0
   -2.5631    0.4333    0.3329 H   0  0  0  0  0  0  0  0  0  0  0  0
   -3.1834    1.6024   -2.2705 H   0  0  0  0  0  0  0  0  0  0  0  0
   -4.5439   -0.9701   -1.2694 H   0  0  0  0  0  0  0  0  0  0  0  0
   -5.0283   -0.0508   -2.6996 H   0  0  0  0  0  0  0  0  0  0  0  0
   -3.4518   -0.8623   -2.6570 H   0  0  0  0  0  0  0  0  0  0  0  0
   -5.2610    2.6407   -1.3307 N   0  0  0  0  0  0  0  0  0  0  0  0
   -6.2966    3.4577   -0.7424 C   0  0  0  0  0  0  0  0  0  0  0  0
   -5.0365    2.7924   -2.3096 H   0  0  0  0  0  0  0  0  0  0  0  0
   -7.2703    2.9608   -0.8650 H   0  0  0  0  0  0  0  0  0  0  0  0
   -6.0888    3.5978    0.3287 H   0  0  0  0  0  0  0  0  0  0  0  0
   -6.3193    4.4371   -1.2427 H   0  0  0  0  0  0  0  0  0  0  0  0
  1  3  1  0  0  0  0
  1  7  1  0  0  0  0
  1  2  2  0  0  0  0
 39 40  1  0  0  0  0
 40 48  1  0  0  0  0
 40 41  2  0  0  0  0
  8  9  1  0  0  0  0
  9 17  1  0  0  0  0
  9 10  2  0  0  0  0
 18 19  1  0  0  0  0
 19 38  1  0  0  0  0
 19 20  2  0  0  0  0
 39 42  1  0  0  0  0
  8 11  1  0  0  0  0
 48 49  1  0  0  0  0
 22 23  1  0  0  0  0
 21 22  1  0  0  0  0
 23 24  1  0  0  0  0
 18 21  1  0  0  0  0
 24 25  1  0  0  0  0
 38 39  1  0  0  0  0
  7  8  1  0  0  0  0
 17 18  1  0  0  0  0
  3  4  1  0  0  0  0
  3  5  1  0  0  0  0
  3  6  1  0  0  0  0
 42 45  1  0  0  0  0
 42 46  1  0  0  0  0
 42 47  1  0  0  0  0
 11 14  1  0  0  0  0
 11 15  1  0  0  0  0
 11 16  1  0  0  0  0
 49 51  1  0  0  0  0
 49 52  1  0  0  0  0
 49 53  1  0  0  0  0
 22 30  1  0  0  0  0
 22 31  1  0  0  0  0
 23 32  1  0  0  0  0
 23 33  1  0  0  0  0
 21 28  1  0  0  0  0
 21 29  1  0  0  0  0
 24 34  1  0  0  0  0
 24 35  1  0  0  0  0
 39 44  1  0  0  0  0
  8 13  1  0  0  0  0
 18 27  1  0  0  0  0
 25 36  1  0  0  0  0
 25 37  1  0  0  0  0
 48 50  1  0  0  0  0
  7 12  1  0  0  0  0
 38 43  1  0  0  0  0
 17 26  1  0  0  0  0
M  END
$$$$

  -OEChem-05262214473D

 53 52  0     1  0  0  0  0  0999 V2000
   -1.0338   -5.6785    0.1476 C   0  0  0  0  0  0  0  0  0  0  0  0
   -2.0514   -5.7797    0.8227 O   0  0  0  0  0  0  0  0  0  0  0  0
   -0.6558   -6.7819   -0.7841 C   0  0  0  0  0  0  0  0  0  0  0  0
   -0.0111   -7.5354   -0.3038 H   0  0  0  0  0  0  0  0  0  0  0  0
   -1.5317   -7.3401   -1.1520 H   0  0  0  0  0  0  0  0  0  0  0  0
   -0.1109   -6.4687   -1.6890 H   0  0  0  0  0  0  0  0  0  0  0  0
   -0.1543   -4.6083    0.1480 N   0  0  0  0  0  0  0  0  0  0  0  0
   -0.3302   -3.4398    0.9696 C   0  0  2  0  0  0  0  0  0  0  0  0
    0.2328   -2.2439    0.2131 C   0  0  0  0  0  0  0  0  0  0  0  0
    1.2097   -2.3192   -0.5294 O   0  0  0  0  0  0  0  0  0  0  0  0
    0.3557   -3.6024    2.3171 C   0  0  0  0  0  0  0  0  0  0  0  0
    0.6584   -4.6506   -0.4643 H   0  0  0  0  0  0  0  0  0  0  0  0
   -1.4091   -3.3101    1.1082 H   0  0  0  0  0  0  0  0  0  0  0  0
    1.4375   -3.7336    2.1985 H   0  0  0  0  0  0  0  0  0  0  0  0
    0.1969   -2.7243    2.9517 H   0  0  0  0  0  0  0  0  0  0  0  0
   -0.0294   -4.4803    2.8470 H   0  0  0  0  0  0  0  0  0  0  0  0
   -0.4616   -1.0893    0.5050 N   0  0  0  0  0  0  0  0  0  0  0  0
   -0.0884    0.2050   -0.0621 C   0  0  2  0  0  0  0  0  0  0  0  0
   -1.1038    0.5432   -1.1499 C   0  0  0  0  0  0  0  0  0  0  0  0
   -0.8466    0.4780   -2.3503 O   0  0  0  0  0  0  0  0  0  0  0  0
    1.3230    0.1896   -0.6679 C   0  0  0  0  0  0  0  0  0  0  0  0
    2.4321    0.0376    0.3782 C   0  0  0  0  0  0  0  0  0  0  0  0
    3.8165    0.0530   -0.2758 C   0  0  0  0  0  0  0  0  0  0  0  0
    4.9210   -0.1232    0.7649 C   0  0  0  0  0  0  0  0  0  0  0  0
    6.2284   -0.1294    0.1195 N   0  0  0  0  0  0  0  0  0  0  0  0
   -1.2794   -1.1113    1.0935 H   0  0  0  0  0  0  0  0  0  0  0  0
   -0.1459    0.9618    0.7294 H   0  0  0  0  0  0  0  0  0  0  0  0
    1.4859    1.1228   -1.2232 H   0  0  0  0  0  0  0  0  0  0  0  0
    1.4033   -0.6180   -1.4082 H   0  0  0  0  0  0  0  0  0  0  0  0
    2.3070   -0.9020    0.9279 H   0  0  0  0  0  0  0  0  0  0  0  0
    2.3626    0.8539    1.1071 H   0  0  0  0  0  0  0  0  0  0  0  0
    3.8759   -0.7496   -1.0218 H   0  0  0  0  0  0  0  0  0  0  0  0
    3.9583    1.0013   -0.8097 H   0  0  0  0  0  0  0  0  0  0  0  0
    4.7812   -1.0629    1.3105 H   0  0  0  0  0  0  0  0  0  0  0  0
    4.8863    0.6939    1.4932 H   0  0  0  0  0  0  0  0  0  0  0  0
    6.0941   -0.0386   -0.8604 H   0  0  0  0  0  0  0  0  0  0  0  0
    6.7544    0.6358    0.4721 H   0  0  0  0  0  0  0  0  0  0  0  0
   -2.3218    0.9469   -0.6203 N   0  0  0  0  0  0  0  0  0  0  0  0
   -3.4475    1.3441   -1.4350 C   0  0  2  0  0  0  0  0  0  0  0  0
   -4.2242    2.4116   -0.6756 C   0  0  0  0  0  0  0  0  0  0  0  0
   -4.3318    2.4193    0.5489 O   0  0  0  0  0  0  0  0  0  0  0  0
   -4.3377    0.1562   -1.7656 C   0  0  0  0  0  0  0  0  0  0  0  0
   -2.4461    0.9608    0.3876 H   0  0  0  0  0  0  0  0  0  0  0  0
   -3.0362    1.7753   -2.3542 H   0  0  0  0  0  0  0  0  0  0  0  0
   -4.7590   -0.2891   -0.8570 H   0  0  0  0  0  0  0  0  0  0  0  0
   -5.1743    0.4536   -2.4065 H   0  0  0  0  0  0  0  0  0  0  0  0
   -3.7703   -0.6233   -2.2854 H   0  0  0  0  0  0  0  0  0  0  0  0
   -4.8189    3.3304   -1.5289 N   0  0  0  0  0  0  0  0  0  0  0  0
   -5.6450    4.4154   -1.0530 C   0  0  0  0  0  0  0  0  0  0  0  0
   -4.6434    3.2713   -2.5277 H   0  0  0  0  0  0  0  0  0  0  0  0
   -6.6984    4.0987   -1.0451 H   0  0  0  0  0  0  0  0  0  0  0  0
   -5.3373    4.6902   -0.0333 H   0  0  0  0  0  0  0  0  0  0  0  0
   -5.5283    5.2839   -1.7179 H   0  0  0  0  0  0  0  0  0  0  0  0
  1  3  1  0  0  0  0
  1  7  1  0  0  0  0
  1  2  2  0  0  0  0
 39 40  1  0  0  0  0
 40 48  1  0  0  0  0
 40 41  2  0  0  0  0
  8  9  1  0  0  0  0
  9 17  1  0  0  0  0
  9 10  2  0  0  0  0
 18 19  1  0  0  0  0
 19 38  1  0  0  0  0
 19 20  2  0  0  0  0
 39 42  1  0  0  0  0
  8 11  1  0  0  0  0
 48 49  1  0  0  0  0
 22 23  1  0  0  0  0
 21 22  1  0  0  0  0
 23 24  1  0  0  0  0
 18 21  1  0  0  0  0
 24 25  1  0  0  0  0
 38 39  1  0  0  0  0
  7  8  1  0  0  0  0
 17 18  1  0  0  0  0
  3  4  1  0  0  0  0
  3  5  1  0  0  0  0
  3  6  1  0  0  0  0
 42 45  1  0  0  0  0
 42 46  1  0  0  0  0
 42 47  1  0  0  0  0
 11 14  1  0  0  0  0
 11 15  1  0  0  0  0
 11 16  1  0  0  0  0
 49 51  1  0  0  0  0
 49 52  1  0  0  0  0
 49 53  1  0  0  0  0
 22 30  1  0  0  0  0
 22 31  1  0  0  0  0
 23 32  1  0  0  0  0
 23 33  1  0  0  0  0
 21 28  1  0  0  0  0
 21 29  1  0  0  0  0
 24 34  1  0  0  0  0
 24 35  1  0  0  0  0
 39 44  1  0  0  0  0
  8 13  1  0  0  0  0
 18 27  1  0  0  0  0
 25 36  1  0  0  0  0
 25 37  1  0  0  0  0
 48 50  1  0  0  0  0
  7 12  1  0  0  0  0
 38 43  1  0  0  0  0
 17 26  1  0  0  0  0
M  END
$$$$

  -OEChem-05262214473D

 53 52  0     1  0  0  0  0  0999 V2000
   -1.0338   -5.6785    0.1476 C   0  0  0  0  0  0  0  0  0  0  0  0
   -2.0514   -5.7797    0.8227 O   0  0  0  0  0  0  0  0  0  0  0  0
   -0.6558   -6.7819   -0.7841 C   0  0  0  0  0  0  0  0  0  0  0  0
   -0.0111   -7.5354   -0.3038 H   0  0  0  0  0  0  0  0  0  0  0  0
   -1.5317   -7.3401   -1.1520 H   0  0  0  0  0  0  0  0  0  0  0  0
   -0.1109   -6.4687   -1.6890 H   0  0  0  0  0  0  0  0  0  0  0  0
   -0.1543   -4.6083    0.1480 N   0  0  0  0  0  0  0  0  0  0  0  0
   -0.3302   -3.4398    0.9696 C   0  0  2  0  0  0  0  0  0  0  0  0
    0.2328   -2.2439    0.2131 C   0  0  0  0  0  0  0  0  0  0  0  0
    1.2097   -2.3192   -0.5294 O   0  0  0  0  0  0  0  0  0  0  0  0
    0.3557   -3.6024    2.3171 C   0  0  0  0  0  0  0  0  0  0  0  0
    0.6584   -4.6506   -0.4643 H   0  0  0  0  0  0  0  0  0  0  0  0
   -1.4091   -3.3101    1.1082 H   0  0  0  0  0  0  0  0  0  0  0  0
    1.4375   -3.7336    2.1985 H   0  0  0  0  0  0  0  0  0  0  0  0
    0.1969   -2.7243    2.9517 H   0  0  0  0  0  0  0  0  0  0  0  0
   -0.0294   -4.4803    2.8470 H   0  0  0  0  0  0  0  0  0  0  0  0
   -0.4616   -1.0893    0.5050 N   0  0  0  0  0  0  0  0  0  0  0  0
   -0.0884    0.2050   -0.0621 C   0  0  2  0  0  0  0  0  0  0  0  0
   -1.1038    0.5432   -1.1499 C   0  0  0  0  0  0  0  0  0  0  0  0
   -0.9514    0.2311   -2.3292 O   0  0  0  0  0  0  0  0  0  0  0  0
    1.3230    0.1896   -0.6679 C   0  0  0  0  0  0  0  0  0  0  0  0
    2.4321    0.0376    0.3782 C   0  0  0  0  0  0  0  0  0  0  0  0
    3.8165    0.0530   -0.2758 C   0  0  0  0  0  0  0  0  0  0  0  0
    4.9210   -0.1232    0.7649 C   0  0  0  0  0  0  0  0  0  0  0  0
    6.2284   -0.1294    0.1195 N   0  0  0  0  0  0  0  0  0  0  0  0
   -1.2794   -1.1113    1.0935 H   0  0  0  0  0  0  0  0  0  0  0  0
   -0.1459    0.9618    0.7294 H   0  0  0  0  0  0  0  0  0  0  0  0
    1.4859    1.1228   -1.2232 H   0  0  0  0  0  0  0  0  0  0  0  0
    1.4033   -0.6180   -1.4082 H   0  0  0  0  0  0  0  0  0  0  0  0
    2.3070   -0.9020    0.9279 H   0  0  0  0  0  0  0  0  0  0  0  0
    2.3626    0.8539    1.1071 H   0  0  0  0  0  0  0  0  0  0  0  0
    3.8759   -0.7496   -1.0218 H   0  0  0  0  0  0  0  0  0  0  0  0
    3.9583    1.0013   -0.8097 H   0  0  0  0  0  0  0  0  0  0  0  0
    4.7812   -1.0629    1.3105 H   0  0  0  0  0  0  0  0  0  0  0  0
    4.8863    0.6939    1.4932 H   0  0  0  0  0  0  0  0  0  0  0  0
    6.0941   -0.0386   -0.8604 H   0  0  0  0  0  0  0  0  0  0  0  0
    6.7544    0.6358    0.4721 H   0  0  0  0  0  0  0  0  0  0  0  0
   -2.1873    1.2530   -0.6507 N   0  0  0  0  0  0  0  0  0  0  0  0
   -3.2802    1.7147   -1.4759 C   0  0  2  0  0  0  0  0  0  0  0  0
   -3.7947    3.0216   -0.8869 C   0  0  0  0  0  0  0  0  0  0  0  0
   -3.8089    3.2536    0.3202 O   0  0  0  0  0  0  0  0  0  0  0  0
   -4.3910    0.6789   -1.5534 C   0  0  0  0  0  0  0  0  0  0  0  0
   -2.2326    1.4582    0.3430 H   0  0  0  0  0  0  0  0  0  0  0  0
   -2.8669    1.9006   -2.4732 H   0  0  0  0  0  0  0  0  0  0  0  0
   -4.8174    0.4795   -0.5635 H   0  0  0  0  0  0  0  0  0  0  0  0
   -5.2055    1.0183   -2.2018 H   0  0  0  0  0  0  0  0  0  0  0  0
   -4.0125   -0.2696   -1.9494 H   0  0  0  0  0  0  0  0  0  0  0  0
   -4.2761    3.8809   -1.8646 N   0  0  0  0  0  0  0  0  0  0  0  0
   -4.8567    5.1667   -1.5553 C   0  0  0  0  0  0  0  0  0  0  0  0
   -4.1879    3.6238   -2.8433 H   0  0  0  0  0  0  0  0  0  0  0  0
   -5.9464    5.0612   -1.4480 H   0  0  0  0  0  0  0  0  0  0  0  0
   -4.4306    5.5445   -0.6142 H   0  0  0  0  0  0  0  0  0  0  0  0
   -4.6352    5.8740   -2.3681 H   0  0  0  0  0  0  0  0  0  0  0  0
  1  3  1  0  0  0  0
  1  7  1  0  0  0  0
  1  2  2  0  0  0  0
 39 40  1  0  0  0  0
 40 48  1  0  0  0  0
 40 41  2  0  0  0  0
  8  9  1  0  0  0  0
  9 17  1  0  0  0  0
  9 10  2  0  0  0  0
 18 19  1  0  0  0  0
 19 38  1  0  0  0  0
 19 20  2  0  0  0  0
 39 42  1  0  0  0  0
  8 11  1  0  0  0  0
 48 49  1  0  0  0  0
 22 23  1  0  0  0  0
 21 22  1  0  0  0  0
 23 24  1  0  0  0  0
 18 21  1  0  0  0  0
 24 25  1  0  0  0  0
 38 39  1  0  0  0  0
  7  8  1  0  0  0  0
 17 18  1  0  0  0  0
  3  4  1  0  0  0  0
  3  5  1  0  0  0  0
  3  6  1  0  0  0  0
 42 45  1  0  0  0  0
 42 46  1  0  0  0  0
 42 47  1  0  0  0  0
 11 14  1  0  0  0  0
 11 15  1  0  0  0  0
 11 16  1  0  0  0  0
 49 51  1  0  0  0  0
 49 52  1  0  0  0  0
 49 53  1  0  0  0  0
 22 30  1  0  0  0  0
 22 31  1  0  0  0  0
 23 32  1  0  0  0  0
 23 33  1  0  0  0  0
 21 28  1  0  0  0  0
 21 29  1  0  0  0  0
 24 34  1  0  0  0  0
 24 35  1  0  0  0  0
 39 44  1  0  0  0  0
  8 13  1  0  0  0  0
 18 27  1  0  0  0  0
 25 36  1  0  0  0  0
 25 37  1  0  0  0  0
 48 50  1  0  0  0  0
  7 12  1  0  0  0  0
 38 43  1  0  0  0  0
 17 26  1  0  0  0  0
M  END
$$$$

  -OEChem-05262214473D

 53 52  0     1  0  0  0  0  0999 V2000
   -1.0338   -5.6785    0.1476 C   0  0  0  0  0  0  0  0  0  0  0  0
   -2.0514   -5.7797    0.8227 O   0  0  0  0  0  0  0  0  0  0  0  0
   -0.6558   -6.7819   -0.7841 C   0  0  0  0  0  0  0  0  0  0  0  0
   -0.0111   -7.5354   -0.3038 H   0  0  0  0  0  0  0  0  0  0  0  0
   -1.5317   -7.3401   -1.1520 H   0  0  0  0  0  0  0  0  0  0  0  0
   -0.1109   -6.4687   -1.6890 H   0  0  0  0  0  0  0  0  0  0  0  0
   -0.1543   -4.6083    0.1480 N   0  0  0  0  0  0  0  0  0  0  0  0
   -0.3302   -3.4398    0.9696 C   0  0  2  0  0  0  0  0  0  0  0  0
    0.2328   -2.2439    0.2131 C   0  0  0  0  0  0  0  0  0  0  0  0
    1.2097   -2.3192   -0.5294 O   0  0  0  0  0  0  0  0  0  0  0  0
    0.3557   -3.6024    2.3171 C   0  0  0  0  0  0  0  0  0  0  0  0
    0.6584   -4.6506   -0.4643 H   0  0  0  0  0  0  0  0  0  0  0  0
   -1.4091   -3.3101    1.1082 H   0  0  0  0  0  0  0  0  0  0  0  0
    1.4375   -3.7336    2.1985 H   0  0  0  0  0  0  0  0  0  0  0  0
    0.1969   -2.7243    2.9517 H   0  0  0  0  0  0  0  0  0  0  0  0
   -0.0294   -4.4803    2.8470 H   0  0  0  0  0  0  0  0  0  0  0  0
   -0.4616   -1.0893    0.5050 N   0  0  0  0  0  0  0  0  0  0  0  0
   -0.0884    0.2050   -0.0621 C   0  0  2  0  0  0  0  0  0  0  0  0
   -1.1038    0.5432   -1.1499 C   0  0  0  0  0  0  0  0  0  0  0  0
   -1.0970    0.0155   -2.2603 O   0  0  0  0  0  0  0  0  0  0  0  0
    1.3230    0.1896   -0.6679 C   0  0  0  0  0  0  0  0  0  0  0  0
    2.4321    0.0376    0.3782 C   0  0  0  0  0  0  0  0  0  0  0  0
    3.8165    0.0530   -0.2758 C   0  0  0  0  0  0  0  0  0  0  0  0
    4.9210   -0.1232    0.7649 C   0  0  0  0  0  0  0  0  0  0  0  0
    6.2284   -0.1294    0.1195 N   0  0  0  0  0  0  0  0  0  0  0  0
   -1.2794   -1.1113    1.0935 H   0  0  0  0  0  0  0  0  0  0  0  0
   -0.1459    0.9618    0.7294 H   0  0  0  0  0  0  0  0  0  0  0  0
    1.4859    1.1228   -1.2232 H   0  0  0  0  0  0  0  0  0  0  0  0
    1.4033   -0.6180   -1.4082 H   0  0  0  0  0  0  0  0  0  0  0  0
    2.3070   -0.9020    0.9279 H   0  0  0  0  0  0  0  0  0  0  0  0
    2.3626    0.8539    1.1071 H   0  0  0  0  0  0  0  0  0  0  0  0
    3.8759   -0.7496   -1.0218 H   0  0  0  0  0  0  0  0  0  0  0  0
    3.9583    1.0013   -0.8097 H   0  0  0  0  0  0  0  0  0  0  0  0
    4.7812   -1.0629    1.3105 H   0  0  0  0  0  0  0  0  0  0  0  0
    4.8863    0.6939    1.4932 H   0  0  0  0  0  0  0  0  0  0  0  0
    6.0941   -0.0386   -0.8604 H   0  0  0  0  0  0  0  0  0  0  0  0
    6.7544    0.6358    0.4721 H   0  0  0  0  0  0  0  0  0  0  0  0
   -2.0026    1.5186   -0.7405 N   0  0  0  0  0  0  0  0  0  0  0  0
   -3.0526    2.0348   -1.5889 C   0  0  2  0  0  0  0  0  0  0  0  0
   -3.2795    3.4951   -1.2206 C   0  0  0  0  0  0  0  0  0  0  0  0
   -3.1631    3.9238   -0.0744 O   0  0  0  0  0  0  0  0  0  0  0  0
   -4.3339    1.2301   -1.4353 C   0  0  0  0  0  0  0  0  0  0  0  0
   -1.9372    1.8915    0.2019 H   0  0  0  0  0  0  0  0  0  0  0  0
   -2.6871    1.9700   -2.6195 H   0  0  0  0  0  0  0  0  0  0  0  0
   -4.7152    1.2832   -0.4091 H   0  0  0  0  0  0  0  0  0  0  0  0
   -5.1197    1.6047   -2.0997 H   0  0  0  0  0  0  0  0  0  0  0  0
   -4.1619    0.1746   -1.6719 H   0  0  0  0  0  0  0  0  0  0  0  0
   -3.6694    4.2547   -2.3148 N   0  0  0  0  0  0  0  0  0  0  0  0
   -3.9855    5.6605   -2.2151 C   0  0  0  0  0  0  0  0  0  0  0  0
   -3.7009    3.8259   -3.2350 H   0  0  0  0  0  0  0  0  0  0  0  0
   -5.0655    5.7828   -2.0459 H   0  0  0  0  0  0  0  0  0  0  0  0
   -3.4305    6.1023   -1.3744 H   0  0  0  0  0  0  0  0  0  0  0  0
   -3.7010    6.1673   -3.1490 H   0  0  0  0  0  0  0  0  0  0  0  0
  1  3  1  0  0  0  0
  1  7  1  0  0  0  0
  1  2  2  0  0  0  0
 39 40  1  0  0  0  0
 40 48  1  0  0  0  0
 40 41  2  0  0  0  0
  8  9  1  0  0  0  0
  9 17  1  0  0  0  0
  9 10  2  0  0  0  0
 18 19  1  0  0  0  0
 19 38  1  0  0  0  0
 19 20  2  0  0  0  0
 39 42  1  0  0  0  0
  8 11  1  0  0  0  0
 48 49  1  0  0  0  0
 22 23  1  0  0  0  0
 21 22  1  0  0  0  0
 23 24  1  0  0  0  0
 18 21  1  0  0  0  0
 24 25  1  0  0  0  0
 38 39  1  0  0  0  0
  7  8  1  0  0  0  0
 17 18  1  0  0  0  0
  3  4  1  0  0  0  0
  3  5  1  0  0  0  0
  3  6  1  0  0  0  0
 42 45  1  0  0  0  0
 42 46  1  0  0  0  0
 42 47  1  0  0  0  0
 11 14  1  0  0  0  0
 11 15  1  0  0  0  0
 11 16  1  0  0  0  0
 49 51  1  0  0  0  0
 49 52  1  0  0  0  0
 49 53  1  0  0  0  0
 22 30  1  0  0  0  0
 22 31  1  0  0  0  0
 23 32  1  0  0  0  0
 23 33  1  0  0  0  0
 21 28  1  0  0  0  0
 21 29  1  0  0  0  0
 24 34  1  0  0  0  0
 24 35  1  0  0  0  0
 39 44  1  0  0  0  0
  8 13  1  0  0  0  0
 18 27  1  0  0  0  0
 25 36  1  0  0  0  0
 25 37  1  0  0  0  0
 48 50  1  0  0  0  0
  7 12  1  0  0  0  0
 38 43  1  0  0  0  0
 17 26  1  0  0  0  0
M  END
$$$$

  -OEChem-05262214473D

 53 52  0     1  0  0  0  0  0999 V2000
   -1.0338   -5.6785    0.1476 C   0  0  0  0  0  0  0  0  0  0  0  0
   -2.0514   -5.7797    0.8227 O   0  0  0  0  0  0  0  0  0  0  0  0
   -0.6558   -6.7819   -0.7841 C   0  0  0  0  0  0  0  0  0  0  0  0
   -0.0111   -7.5354   -0.3038 H   0  0  0  0  0  0  0  0  0  0  0  0
   -1.5317   -7.3401   -1.1520 H   0  0  0  0  0  0  0  0  0  0  0  0
   -0.1109   -6.4687   -1.6890 H   0  0  0  0  0  0  0  0  0  0  0  0
   -0.1543   -4.6083    0.1480 N   0  0  0  0  0  0  0  0  0  0  0  0
   -0.3302   -3.4398    0.9696 C   0  0  2  0  0  0  0  0  0  0  0  0
    0.2328   -2.2439    0.2131 C   0  0  0  0  0  0  0  0  0  0  0  0
    1.2097   -2.3192   -0.5294 O   0  0  0  0  0  0  0  0  0  0  0  0
    0.3557   -3.6024    2.3171 C   0  0  0  0  0  0  0  0  0  0  0  0
    0.6584   -4.6506   -0.4643 H   0  0  0  0  0  0  0  0  0  0  0  0
   -1.4091   -3.3101    1.1082 H   0  0  0  0  0  0  0  0  0  0  0  0
    1.4375   -3.7336    2.1985 H   0  0  0  0  0  0  0  0  0  0  0  0
    0.1969   -2.7243    2.9517 H   0  0  0  0  0  0  0  0  0  0  0  0
   -0.0294   -4.4803    2.8470 H   0  0  0  0  0  0  0  0  0  0  0  0
   -0.4616   -1.0893    0.5050 N   0  0  0  0  0  0  0  0  0  0  0  0
   -0.0884    0.2050   -0.0621 C   0  0  2  0  0  0  0  0  0  0  0  0
   -1.1038    0.5432   -1.1499 C   0  0  0  0  0  0  0  0  0  0  0  0
   -1.2734   -0.1539   -2.1483 O   0  0  0  0  0  0  0  0  0  0  0  0
    1.3230    0.1896   -0.6679 C   0  0  0  0  0  0  0  0  0  0  0  0
    2.4321    0.0376    0.3782 C   0  0  0  0  0  0  0  0  0  0  0  0
    3.8165    0.0530   -0.2758 C   0  0  0  0  0  0  0  0  0  0  0  0
    4.9210   -0.1232    0.7649 C   0  0  0  0  0  0  0  0  0  0  0  0
    6.2284   -0.1294    0.1195 N   0  0  0  0  0  0  0  0  0  0  0  0
   -1.2794   -1.1113    1.0935 H   0  0  0  0  0  0  0  0  0  0  0  0
   -0.1459    0.9618    0.7294 H   0  0  0  0  0  0  0  0  0  0  0  0
    1.4859    1.1228   -1.2232 H   0  0  0  0  0  0  0  0  0  0  0  0
    1.4033   -0.6180   -1.4082 H   0  0  0  0  0  0  0  0  0  0  0  0
    2.3070   -0.9020    0.9279 H   0  0  0  0  0  0  0  0  0  0  0  0
    2.3626    0.8539    1.1071 H   0  0  0  0  0  0  0  0  0  0  0  0
    3.8759   -0.7496   -1.0218 H   0  0  0  0  0  0  0  0  0  0  0  0
    3.9583    1.0013   -0.8097 H   0  0  0  0  0  0  0  0  0  0  0  0
    4.7812   -1.0629    1.3105 H   0  0  0  0  0  0  0  0  0  0  0  0
    4.8863    0.6939    1.4932 H   0  0  0  0  0  0  0  0  0  0  0  0
    6.0941   -0.0386   -0.8604 H   0  0  0  0  0  0  0  0  0  0  0  0
    6.7544    0.6358    0.4721 H   0  0  0  0  0  0  0  0  0  0  0  0
   -1.7804    1.7256   -0.8836 N   0  0  0  0  0  0  0  0  0  0  0  0
   -2.7802    2.2826   -1.7662 C   0  0  2  0  0  0  0  0  0  0  0  0
   -2.7136    3.8000   -1.6541 C   0  0  0  0  0  0  0  0  0  0  0  0
   -2.4382    4.3839   -0.6081 O   0  0  0  0  0  0  0  0  0  0  0  0
   -4.1703    1.7724   -1.4195 C   0  0  0  0  0  0  0  0  0  0  0  0
   -1.5801    2.2313   -0.0259 H   0  0  0  0  0  0  0  0  0  0  0  0
   -2.5090    1.9786   -2.7831 H   0  0  0  0  0  0  0  0  0  0  0  0
   -4.4594    2.0672   -0.4042 H   0  0  0  0  0  0  0  0  0  0  0  0
   -4.9227    2.1729   -2.1069 H   0  0  0  0  0  0  0  0  0  0  0  0
   -4.2083    0.6790   -1.4717 H   0  0  0  0  0  0  0  0  0  0  0  0
   -3.0402    4.4263   -2.8488 N   0  0  0  0  0  0  0  0  0  0  0  0
   -3.0907    5.8631   -2.9874 C   0  0  0  0  0  0  0  0  0  0  0  0
   -3.2158    3.8639   -3.6762 H   0  0  0  0  0  0  0  0  0  0  0  0
   -4.1158    6.2144   -2.7984 H   0  0  0  0  0  0  0  0  0  0  0  0
   -2.4051    6.3256   -2.2622 H   0  0  0  0  0  0  0  0  0  0  0  0
   -2.7894    6.1437   -4.0074 H   0  0  0  0  0  0  0  0  0  0  0  0
  1  3  1  0  0  0  0
  1  7  1  0  0  0  0
  1  2  2  0  0  0  0
 39 40  1  0  0  0  0
 40 48  1  0  0  0  0
 40 41  2  0  0  0  0
  8  9  1  0  0  0  0
  9 17  1  0  0  0  0
  9 10  2  0  0  0  0
 18 19  1  0  0  0  0
 19 38  1  0  0  0  0
 19 20  2  0  0  0  0
 39 42  1  0  0  0  0
  8 11  1  0  0  0  0
 48 49  1  0  0  0  0
 22 23  1  0  0  0  0
 21 22  1  0  0  0  0
 23 24  1  0  0  0  0
 18 21  1  0  0  0  0
 24 25  1  0  0  0  0
 38 39  1  0  0  0  0
  7  8  1  0  0  0  0
 17 18  1  0  0  0  0
  3  4  1  0  0  0  0
  3  5  1  0  0  0  0
  3  6  1  0  0  0  0
 42 45  1  0  0  0  0
 42 46  1  0  0  0  0
 42 47  1  0  0  0  0
 11 14  1  0  0  0  0
 11 15  1  0  0  0  0
 11 16  1  0  0  0  0
 49 51  1  0  0  0  0
 49 52  1  0  0  0  0
 49 53  1  0  0  0  0
 22 30  1  0  0  0  0
 22 31  1  0  0  0  0
 23 32  1  0  0  0  0
 23 33  1  0  0  0  0
 21 28  1  0  0  0  0
 21 29  1  0  0  0  0
 24 34  1  0  0  0  0
 24 35  1  0  0  0  0
 39 44  1  0  0  0  0
  8 13  1  0  0  0  0
 18 27  1  0  0  0  0
 25 36  1  0  0  0  0
 25 37  1  0  0  0  0
 48 50  1  0  0  0  0
  7 12  1  0  0  0  0
 38 43  1  0  0  0  0
 17 26  1  0  0  0  0
M  END
$$$$

  -OEChem-05262214473D

 53 52  0     1  0  0  0  0  0999 V2000
   -1.0338   -5.6785    0.1476 C   0  0  0  0  0  0  0  0  0  0  0  0
   -2.0514   -5.7797    0.8227 O   0  0  0  0  0  0  0  0  0  0  0  0
   -0.6558   -6.7819   -0.7841 C   0  0  0  0  0  0  0  0  0  0  0  0
   -0.0111   -7.5354   -0.3038 H   0  0  0  0  0  0  0  0  0  0  0  0
   -1.5317   -7.3401   -1.1520 H   0  0  0  0  0  0  0  0  0  0  0  0
   -0.1109   -6.4687   -1.6890 H   0  0  0  0  0  0  0  0  0  0  0  0
   -0.1543   -4.6083    0.1480 N   0  0  0  0  0  0  0  0  0  0  0  0
   -0.3302   -3.4398    0.9696 C   0  0  2  0  0  0  0  0  0  0  0  0
    0.2328   -2.2439    0.2131 C   0  0  0  0  0  0  0  0  0  0  0  0
    1.2097   -2.3192   -0.5294 O   0  0  0  0  0  0  0  0  0  0  0  0
    0.3557   -3.6024    2.3171 C   0  0  0  0  0  0  0  0  0  0  0  0
    0.6584   -4.6506   -0.4643 H   0  0  0  0  0  0  0  0  0  0  0  0
   -1.4091   -3.3101    1.1082 H   0  0  0  0  0  0  0  0  0  0  0  0
    1.4375   -3.7336    2.1985 H   0  0  0  0  0  0  0  0  0  0  0  0
    0.1969   -2.7243    2.9517 H   0  0  0  0  0  0  0  0  0  0  0  0
   -0.0294   -4.4803    2.8470 H   0  0  0  0  0  0  0  0  0  0  0  0
   -0.4616   -1.0893    0.5050 N   0  0  0  0  0  0  0  0  0  0  0  0
   -0.0884    0.2050   -0.0621 C   0  0  2  0  0  0  0  0  0  0  0  0
   -1.1038    0.5432   -1.1499 C   0  0  0  0  0  0  0  0  0  0  0  0
   -1.4687   -0.2658   -2.0007 O   0  0  0  0  0  0  0  0  0  0  0  0
    1.3230    0.1896   -0.6679 C   0  0  0  0  0  0  0  0  0  0  0  0
    2.4321    0.0376    0.3782 C   0  0  0  0  0  0  0  0  0  0  0  0
    3.8165    0.0530   -0.2758 C   0  0  0  0  0  0  0  0  0  0  0  0
    4.9210   -0.1232    0.7649 C   0  0  0  0  0  0  0  0  0  0  0  0
    6.2284   -0.1294    0.1195 N   0  0  0  0  0  0  0  0  0  0  0  0
   -1.2794   -1.1113    1.0935 H   0  0  0  0  0  0  0  0  0  0  0  0
   -0.1459    0.9618    0.7294 H   0  0  0  0  0  0  0  0  0  0  0  0
    1.4859    1.1228   -1.2232 H   0  0  0  0  0  0  0  0  0  0  0  0
    1.4033   -0.6180   -1.4082 H   0  0  0  0  0  0  0  0  0  0  0  0
    2.3070   -0.9020    0.9279 H   0  0  0  0  0  0  0  0  0  0  0  0
    2.3626    0.8539    1.1071 H   0  0  0  0  0  0  0  0  0  0  0  0
    3.8759   -0.7496   -1.0218 H   0  0  0  0  0  0  0  0  0  0  0  0
    3.9583    1.0013   -0.8097 H   0  0  0  0  0  0  0  0  0  0  0  0
    4.7812   -1.0629    1.3105 H   0  0  0  0  0  0  0  0  0  0  0  0
    4.8863    0.6939    1.4932 H   0  0  0  0  0  0  0  0  0  0  0  0
    6.0941   -0.0386   -0.8604 H   0  0  0  0  0  0  0  0  0  0  0  0
    6.7544    0.6358    0.4721 H   0  0  0  0  0  0  0  0  0  0  0  0
   -1.5358    1.8599   -1.0702 N   0  0  0  0  0  0  0  0  0  0  0  0
   -2.4815    2.4411   -1.9957 C   0  0  2  0  0  0  0  0  0  0  0  0
   -2.1357    3.9154   -2.1578 C   0  0  0  0  0  0  0  0  0  0  0  0
   -1.6838    4.6027   -1.2443 O   0  0  0  0  0  0  0  0  0  0  0  0
   -3.9113    2.2687   -1.5070 C   0  0  0  0  0  0  0  0  0  0  0  0
   -1.1854    2.4544   -0.3249 H   0  0  0  0  0  0  0  0  0  0  0  0
   -2.3448    1.9259   -2.9528 H   0  0  0  0  0  0  0  0  0  0  0  0
   -4.0674    2.7782   -0.5491 H   0  0  0  0  0  0  0  0  0  0  0  0
   -4.6281    2.6842   -2.2230 H   0  0  0  0  0  0  0  0  0  0  0  0
   -4.1487    1.2092   -1.3625 H   0  0  0  0  0  0  0  0  0  0  0  0
   -2.4314    4.3840   -3.4302 N   0  0  0  0  0  0  0  0  0  0  0  0
   -2.2333    5.7607   -3.8196 C   0  0  0  0  0  0  0  0  0  0  0  0
   -2.7654    3.7350   -4.1366 H   0  0  0  0  0  0  0  0  0  0  0  0
   -3.1620    6.3264   -3.6539 H   0  0  0  0  0  0  0  0  0  0  0  0
   -1.4244    6.1993   -3.2169 H   0  0  0  0  0  0  0  0  0  0  0  0
   -1.9623    5.8049   -4.8848 H   0  0  0  0  0  0  0  0  0  0  0  0
  1  3  1  0  0  0  0
  1  7  1  0  0  0  0
  1  2  2  0  0  0  0
 39 40  1  0  0  0  0
 40 48  1  0  0  0  0
 40 41  2  0  0  0  0
  8  9  1  0  0  0  0
  9 17  1  0  0  0  0
  9 10  2  0  0  0  0
 18 19  1  0  0  0  0
 19 38  1  0  0  0  0
 19 20  2  0  0  0  0
 39 42  1  0  0  0  0
  8 11  1  0  0  0  0
 48 49  1  0  0  0  0
 22 23  1  0  0  0  0
 21 22  1  0  0  0  0
 23 24  1  0  0  0  0
 18 21  1  0  0  0  0
 24 25  1  0  0  0  0
 38 39  1  0  0  0  0
  7  8  1  0  0  0  0
 17 18  1  0  0  0  0
  3  4  1  0  0  0  0
  3  5  1  0  0  0  0
  3  6  1  0  0  0  0
 42 45  1  0  0  0  0
 42 46  1  0  0  0  0
 42 47  1  0  0  0  0
 11 14  1  0  0  0  0
 11 15  1  0  0  0  0
 11 16  1  0  0  0  0
 49 51  1  0  0  0  0
 49 52  1  0  0  0  0
 49 53  1  0  0  0  0
 22 30  1  0  0  0  0
 22 31  1  0  0  0  0
 23 32  1  0  0  0  0
 23 33  1  0  0  0  0
 21 28  1  0  0  0  0
 21 29  1  0  0  0  0
 24 34  1  0  0  0  0
 24 35  1  0  0  0  0
 39 44  1  0  0  0  0
  8 13  1  0  0  0  0
 18 27  1  0  0  0  0
 25 36  1  0  0  0  0
 25 37  1  0  0  0  0
 48 50  1  0  0  0  0
  7 12  1  0  0  0  0
 38 43  1  0  0  0  0
 17 26  1  0  0  0  0
M  END
$$$$

  -OEChem-05262214473D

 53 52  0     1  0  0  0  0  0999 V2000
   -1.0338   -5.6785    0.1476 C   0  0  0  0  0  0  0  0  0  0  0  0
   -2.0514   -5.7797    0.8227 O   0  0  0  0  0  0  0  0  0  0  0  0
   -0.6558   -6.7819   -0.7841 C   0  0  0  0  0  0  0  0  0  0  0  0
   -0.0111   -7.5354   -0.3038 H   0  0  0  0  0  0  0  0  0  0  0  0
   -1.5317   -7.3401   -1.1520 H   0  0  0  0  0  0  0  0  0  0  0  0
   -0.1109   -6.4687   -1.6890 H   0  0  0  0  0  0  0  0  0  0  0  0
   -0.1543   -4.6083    0.1480 N   0  0  0  0  0  0  0  0  0  0  0  0
   -0.3302   -3.4398    0.9696 C   0  0  2  0  0  0  0  0  0  0  0  0
    0.2328   -2.2439    0.2131 C   0  0  0  0  0  0  0  0  0  0  0  0
    1.2097   -2.3192   -0.5294 O   0  0  0  0  0  0  0  0  0  0  0  0
    0.3557   -3.6024    2.3171 C   0  0  0  0  0  0  0  0  0  0  0  0
    0.6584   -4.6506   -0.4643 H   0  0  0  0  0  0  0  0  0  0  0  0
   -1.4091   -3.3101    1.1082 H   0  0  0  0  0  0  0  0  0  0  0  0
    1.4375   -3.7336    2.1985 H   0  0  0  0  0  0  0  0  0  0  0  0
    0.1969   -2.7243    2.9517 H   0  0  0  0  0  0  0  0  0  0  0  0
   -0.0294   -4.4803    2.8470 H   0  0  0  0  0  0  0  0  0  0  0  0
   -0.4616   -1.0893    0.5050 N   0  0  0  0  0  0  0  0  0  0  0  0
   -0.0884    0.2050   -0.0621 C   0  0  2  0  0  0  0  0  0  0  0  0
   -1.1038    0.5432   -1.1499 C   0  0  0  0  0  0  0  0  0  0  0  0
   -1.6695   -0.3124   -1.8278 O   0  0  0  0  0  0  0  0  0  0  0  0
    1.3230    0.1896   -0.6679 C   0  0  0  0  0  0  0  0  0  0  0  0
    2.4321    0.0376    0.3782 C   0  0  0  0  0  0  0  0  0  0  0  0
    3.8165    0.0530   -0.2758 C   0  0  0  0  0  0  0  0  0  0  0  0
    4.9210   -0.1232    0.7649 C   0  0  0  0  0  0  0  0  0  0  0  0
    6.2284   -0.1294    0.1195 N   0  0  0  0  0  0  0  0  0  0  0  0
   -1.2794   -1.1113    1.0935 H   0  0  0  0  0  0  0  0  0  0  0  0
   -0.1459    0.9618    0.7294 H   0  0  0  0  0  0  0  0  0  0  0  0
    1.4859    1.1228   -1.2232 H   0  0  0  0  0  0  0  0  0  0  0  0
    1.4033   -0.6180   -1.4082 H   0  0  0  0  0  0  0  0  0  0  0  0
    2.3070   -0.9020    0.9279 H   0  0  0  0  0  0  0  0  0  0  0  0
    2.3626    0.8539    1.1071 H   0  0  0  0  0  0  0  0  0  0  0  0
    3.8759   -0.7496   -1.0218 H   0  0  0  0  0  0  0  0  0  0  0  0
    3.9583    1.0013   -0.8097 H   0  0  0  0  0  0  0  0  0  0  0  0
    4.7812   -1.0629    1.3105 H   0  0  0  0  0  0  0  0  0  0  0  0
    4.8863    0.6939    1.4932 H   0  0  0  0  0  0  0  0  0  0  0  0
    6.0941   -0.0386   -0.8604 H   0  0  0  0  0  0  0  0  0  0  0  0
    6.7544    0.6358    0.4721 H   0  0  0  0  0  0  0  0  0  0  0  0
   -1.2854    1.9124   -1.2876 N   0  0  0  0  0  0  0  0  0  0  0  0
   -2.1769    2.4996   -2.2619 C   0  0  2  0  0  0  0  0  0  0  0  0
   -1.5850    3.8335   -2.6973 C   0  0  0  0  0  0  0  0  0  0  0  0
   -0.9511    4.5654   -1.9399 O   0  0  0  0  0  0  0  0  0  0  0  0
   -3.5745    2.6853   -1.6919 C   0  0  0  0  0  0  0  0  0  0  0  0
   -0.7802    2.5456   -0.6748 H   0  0  0  0  0  0  0  0  0  0  0  0
   -2.2056    1.8155   -3.1170 H   0  0  0  0  0  0  0  0  0  0  0  0
   -3.5658    3.3676   -0.8341 H   0  0  0  0  0  0  0  0  0  0  0  0
   -4.2558    3.1037   -2.4401 H   0  0  0  0  0  0  0  0  0  0  0  0
   -3.9870    1.7292   -1.3519 H   0  0  0  0  0  0  0  0  0  0  0  0
   -1.8845    4.1307   -4.0195 N   0  0  0  0  0  0  0  0  0  0  0  0
   -1.4718    5.3602   -4.6550 C   0  0  0  0  0  0  0  0  0  0  0  0
   -2.3806    3.4482   -4.5850 H   0  0  0  0  0  0  0  0  0  0  0  0
   -2.2691    6.1113   -4.5543 H   0  0  0  0  0  0  0  0  0  0  0  0
   -0.5552    5.7319   -4.1736 H   0  0  0  0  0  0  0  0  0  0  0  0
   -1.2763    5.1740   -5.7214 H   0  0  0  0  0  0  0  0  0  0  0  0
  1  3  1  0  0  0  0
  1  7  1  0  0  0  0
  1  2  2  0  0  0  0
 39 40  1  0  0  0  0
 40 48  1  0  0  0  0
 40 41  2  0  0  0  0
  8  9  1  0  0  0  0
  9 17  1  0  0  0  0
  9 10  2  0  0  0  0
 18 19  1  0  0  0  0
 19 38  1  0  0  0  0
 19 20  2  0  0  0  0
 39 42  1  0  0  0  0
  8 11  1  0  0  0  0
 48 49  1  0  0  0  0
 22 23  1  0  0  0  0
 21 22  1  0  0  0  0
 23 24  1  0  0  0  0
 18 21  1  0  0  0  0
 24 25  1  0  0  0  0
 38 39  1  0  0  0  0
  7  8  1  0  0  0  0
 17 18  1  0  0  0  0
  3  4  1  0  0  0  0
  3  5  1  0  0  0  0
  3  6  1  0  0  0  0
 42 45  1  0  0  0  0
 42 46  1  0  0  0  0
 42 47  1  0  0  0  0
 11 14  1  0  0  0  0
 11 15  1  0  0  0  0
 11 16  1  0  0  0  0
 49 51  1  0  0  0  0
 49 52  1  0  0  0  0
 49 53  1  0  0  0  0
 22 30  1  0  0  0  0
 22 31  1  0  0  0  0
 23 32  1  0  0  0  0
 23 33  1  0  0  0  0
 21 28  1  0  0  0  0
 21 29  1  0  0  0  0
 24 34  1  0  0  0  0
 24 35  1  0  0  0  0
 39 44  1  0  0  0  0
  8 13  1  0  0  0  0
 18 27  1  0  0  0  0
 25 36  1  0  0  0  0
 25 37  1  0  0  0  0
 48 50  1  0  0  0  0
  7 12  1  0  0  0  0
 38 43  1  0  0  0  0
 17 26  1  0  0  0  0
M  END
$$$$

  -OEChem-05262214473D

 53 52  0     1  0  0  0  0  0999 V2000
   -1.0338   -5.6785    0.1476 C   0  0  0  0  0  0  0  0  0  0  0  0
   -2.0514   -5.7797    0.8227 O   0  0  0  0  0  0  0  0  0  0  0  0
   -0.6558   -6.7819   -0.7841 C   0  0  0  0  0  0  0  0  0  0  0  0
   -0.0111   -7.5354   -0.3038 H   0  0  0  0  0  0  0  0  0  0  0  0
   -1.5317   -7.3401   -1.1520 H   0  0  0  0  0  0  0  0  0  0  0  0
   -0.1109   -6.4687   -1.6890 H   0  0  0  0  0  0  0  0  0  0  0  0
   -0.1543   -4.6083    0.1480 N   0  0  0  0  0  0  0  0  0  0  0  0
   -0.3302   -3.4398    0.9696 C   0  0  2  0  0  0  0  0  0  0  0  0
    0.2328   -2.2439    0.2131 C   0  0  0  0  0  0  0  0  0  0  0  0
    1.2097   -2.3192   -0.5294 O   0  0  0  0  0  0  0  0  0  0  0  0
    0.3557   -3.6024    2.3171 C   0  0  0  0  0  0  0  0  0  0  0  0
    0.6584   -4.6506   -0.4643 H   0  0  0  0  0  0  0  0  0  0  0  0
   -1.4091   -3.3101    1.1082 H   0  0  0  0  0  0  0  0  0  0  0  0
    1.4375   -3.7336    2.1985 H   0  0  0  0  0  0  0  0  0  0  0  0
    0.1969   -2.7243    2.9517 H   0  0  0  0  0  0  0  0  0  0  0  0
   -0.0294   -4.4803    2.8470 H   0  0  0  0  0  0  0  0  0  0  0  0
   -0.4616   -1.0893    0.5050 N   0  0  0  0  0  0  0  0  0  0  0  0
   -0.0884    0.2050   -0.0621 C   0  0  2  0  0  0  0  0  0  0  0  0
   -1.1038    0.5432   -1.1499 C   0  0  0  0  0  0  0  0  0  0  0  0
   -1.8622   -0.2905   -1.6411 O   0  0  0  0  0  0  0  0  0  0  0  0
    1.3230    0.1896   -0.6679 C   0  0  0  0  0  0  0  0  0  0  0  0
    2.4321    0.0376    0.3782 C   0  0  0  0  0  0  0  0  0  0  0  0
    3.8165    0.0530   -0.2758 C   0  0  0  0  0  0  0  0  0  0  0  0
    4.9210   -0.1232    0.7649 C   0  0  0  0  0  0  0  0  0  0  0  0
    6.2284   -0.1294    0.1195 N   0  0  0  0  0  0  0  0  0  0  0  0
   -1.2794   -1.1113    1.0935 H   0  0  0  0  0  0  0  0  0  0  0  0
   -0.1459    0.9618    0.7294 H   0  0  0  0  0  0  0  0  0  0  0  0
    1.4859    1.1228   -1.2232 H   0  0  0  0  0  0  0  0  0  0  0  0
    1.4033   -0.6180   -1.4082 H   0  0  0  0  0  0  0  0  0  0  0  0
    2.3070   -0.9020    0.9279 H   0  0  0  0  0  0  0  0  0  0  0  0
    2.3626    0.8539    1.1071 H   0  0  0  0  0  0  0  0  0  0  0  0
    3.8759   -0.7496   -1.0218 H   0  0  0  0  0  0  0  0  0  0  0  0
    3.9583    1.0013   -0.8097 H   0  0  0  0  0  0  0  0  0  0  0  0
    4.7812   -1.0629    1.3105 H   0  0  0  0  0  0  0  0  0  0  0  0
    4.8863    0.6939    1.4932 H   0  0  0  0  0  0  0  0  0  0  0  0
    6.0941   -0.0386   -0.8604 H   0  0  0  0  0  0  0  0  0  0  0  0
    6.7544    0.6358    0.4721 H   0  0  0  0  0  0  0  0  0  0  0  0
   -1.0463    1.8795   -1.5210 N   0  0  0  0  0  0  0  0  0  0  0  0
   -1.8872    2.4540   -2.5465 C   0  0  2  0  0  0  0  0  0  0  0  0
   -1.0991    3.5599   -3.2360 C   0  0  0  0  0  0  0  0  0  0  0  0
   -0.2903    4.2743   -2.6473 O   0  0  0  0  0  0  0  0  0  0  0  0
   -3.1830    2.9937   -1.9615 C   0  0  0  0  0  0  0  0  0  0  0  0
   -0.3921    2.4986   -1.0517 H   0  0  0  0  0  0  0  0  0  0  0  0
   -2.1009    1.6549   -3.2647 H   0  0  0  0  0  0  0  0  0  0  0  0
   -2.9890    3.7954   -1.2396 H   0  0  0  0  0  0  0  0  0  0  0  0
   -3.8313    3.4028   -2.7434 H   0  0  0  0  0  0  0  0  0  0  0  0
   -3.7342    2.2035   -1.4404 H   0  0  0  0  0  0  0  0  0  0  0  0
   -1.4368    3.6837   -4.5764 N   0  0  0  0  0  0  0  0  0  0  0  0
   -0.8580    4.6891   -5.4367 C   0  0  0  0  0  0  0  0  0  0  0  0
   -2.0875    3.0229   -4.9908 H   0  0  0  0  0  0  0  0  0  0  0  0
   -1.4980    5.5837   -5.4382 H   0  0  0  0  0  0  0  0  0  0  0  0
    0.1433    4.9553   -5.0671 H   0  0  0  0  0  0  0  0  0  0  0  0
   -0.7780    4.2939   -6.4601 H   0  0  0  0  0  0  0  0  0  0  0  0
  1  3  1  0  0  0  0
  1  7  1  0  0  0  0
  1  2  2  0  0  0  0
 39 40  1  0  0  0  0
 40 48  1  0  0  0  0
 40 41  2  0  0  0  0
  8  9  1  0  0  0  0
  9 17  1  0  0  0  0
  9 10  2  0  0  0  0
 18 19  1  0  0  0  0
 19 38  1  0  0  0  0
 19 20  2  0  0  0  0
 39 42  1  0  0  0  0
  8 11  1  0  0  0  0
 48 49  1  0  0  0  0
 22 23  1  0  0  0  0
 21 22  1  0  0  0  0
 23 24  1  0  0  0  0
 18 21  1  0  0  0  0
 24 25  1  0  0  0  0
 38 39  1  0  0  0  0
  7  8  1  0  0  0  0
 17 18  1  0  0  0  0
  3  4  1  0  0  0  0
  3  5  1  0  0  0  0
  3  6  1  0  0  0  0
 42 45  1  0  0  0  0
 42 46  1  0  0  0  0
 42 47  1  0  0  0  0
 11 14  1  0  0  0  0
 11 15  1  0  0  0  0
 11 16  1  0  0  0  0
 49 51  1  0  0  0  0
 49 52  1  0  0  0  0
 49 53  1  0  0  0  0
 22 30  1  0  0  0  0
 22 31  1  0  0  0  0
 23 32  1  0  0  0  0
 23 33  1  0  0  0  0
 21 28  1  0  0  0  0
 21 29  1  0  0  0  0
 24 34  1  0  0  0  0
 24 35  1  0  0  0  0
 39 44  1  0  0  0  0
  8 13  1  0  0  0  0
 18 27  1  0  0  0  0
 25 36  1  0  0  0  0
 25 37  1  0  0  0  0
 48 50  1  0  0  0  0
  7 12  1  0  0  0  0
 38 43  1  0  0  0  0
 17 26  1  0  0  0  0
M  END
$$$$

  -OEChem-05262214473D

 53 52  0     1  0  0  0  0  0999 V2000
   -1.0338   -5.6785    0.1476 C   0  0  0  0  0  0  0  0  0  0  0  0
   -2.0514   -5.7797    0.8227 O   0  0  0  0  0  0  0  0  0  0  0  0
   -0.6558   -6.7819   -0.7841 C   0  0  0  0  0  0  0  0  0  0  0  0
   -0.0111   -7.5354   -0.3038 H   0  0  0  0  0  0  0  0  0  0  0  0
   -1.5317   -7.3401   -1.1520 H   0  0  0  0  0  0  0  0  0  0  0  0
   -0.1109   -6.4687   -1.6890 H   0  0  0  0  0  0  0  0  0  0  0  0
   -0.1543   -4.6083    0.1480 N   0  0  0  0  0  0  0  0  0  0  0  0
   -0.3302   -3.4398    0.9696 C   0  0  2  0  0  0  0  0  0  0  0  0
    0.2328   -2.2439    0.2131 C   0  0  0  0  0  0  0  0  0  0  0  0
    1.2097   -2.3192   -0.5294 O   0  0  0  0  0  0  0  0  0  0  0  0
    0.3557   -3.6024    2.3171 C   0  0  0  0  0  0  0  0  0  0  0  0
    0.6584   -4.6506   -0.4643 H   0  0  0  0  0  0  0  0  0  0  0  0
   -1.4091   -3.3101    1.1082 H   0  0  0  0  0  0  0  0  0  0  0  0
    1.4375   -3.7336    2.1985 H   0  0  0  0  0  0  0  0  0  0  0  0
    0.1969   -2.7243    2.9517 H   0  0  0  0  0  0  0  0  0  0  0  0
   -0.0294   -4.4803    2.8470 H   0  0  0  0  0  0  0  0  0  0  0  0
   -0.4616   -1.0893    0.5050 N   0  0  0  0  0  0  0  0  0  0  0  0
   -0.0884    0.2050   -0.0621 C   0  0  2  0  0  0  0  0  0  0  0  0
   -1.2806    0.7195   -0.8638 C   0  0  0  0  0  0  0  0  0  0  0  0
   -2.3298    0.0898   -0.9831 O   0  0  0  0  0  0  0  0  0  0  0  0
    1.1396    0.1060   -0.9795 C   0  0  0  0  0  0  0  0  0  0  0  0
    2.4332   -0.2291   -0.2299 C   0  0  0  0  0  0  0  0  0  0  0  0
    3.6274   -0.2913   -1.1861 C   0  0  0  0  0  0  0  0  0  0  0  0
    4.9127   -0.6496   -0.4420 C   0  0  0  0  0  0  0  0  0  0  0  0
    6.0320   -0.7267   -1.3731 N   0  0  0  0  0  0  0  0  0  0  0  0
   -1.2794   -1.1113    1.0935 H   0  0  0  0  0  0  0  0  0  0  0  0
    0.1165    0.9000    0.7611 H   0  0  0  0  0  0  0  0  0  0  0  0
    1.2727    1.0604   -1.5058 H   0  0  0  0  0  0  0  0  0  0  0  0
    0.9628   -0.6455   -1.7609 H   0  0  0  0  0  0  0  0  0  0  0  0
    2.3345   -1.1930    0.2820 H   0  0  0  0  0  0  0  0  0  0  0  0
    2.6188    0.5309    0.5385 H   0  0  0  0  0  0  0  0  0  0  0  0
    3.4297   -1.0354   -1.9679 H   0  0  0  0  0  0  0  0  0  0  0  0
    3.7466    0.6784   -1.6859 H   0  0  0  0  0  0  0  0  0  0  0  0
    4.7990   -1.6118    0.0693 H   0  0  0  0  0  0  0  0  0  0  0  0
    5.1320    0.1081    0.3177 H   0  0  0  0  0  0  0  0  0  0  0  0
    5.6906   -0.5479   -2.2885 H   0  0  0  0  0  0  0  0  0  0  0  0
    6.7037   -0.0434   -1.1114 H   0  0  0  0  0  0  0  0  0  0  0  0
   -1.0248    1.9528   -1.4471 N   0  0  0  0  0  0  0  0  0  0  0  0
   -1.9807    2.6506   -2.2767 C   0  0  2  0  0  0  0  0  0  0  0  0
   -1.2067    3.4355   -3.3276 C   0  0  0  0  0  0  0  0  0  0  0  0
   -0.1092    3.9449   -3.1109 O   0  0  0  0  0  0  0  0  0  0  0  0
   -2.8621    3.5730   -1.4492 C   0  0  0  0  0  0  0  0  0  0  0  0
   -0.1293    2.4039   -1.2851 H   0  0  0  0  0  0  0  0  0  0  0  0
   -2.5912    1.8851   -2.7680 H   0  0  0  0  0  0  0  0  0  0  0  0
   -2.2679    4.3467   -0.9493 H   0  0  0  0  0  0  0  0  0  0  0  0
   -3.6044    4.0793   -2.0751 H   0  0  0  0  0  0  0  0  0  0  0  0
   -3.3953    3.0112   -0.6747 H   0  0  0  0  0  0  0  0  0  0  0  0
   -1.9052    3.5368   -4.5226 N   0  0  0  0  0  0  0  0  0  0  0  0
   -1.4008    4.2692   -5.6607 C   0  0  0  0  0  0  0  0  0  0  0  0
   -2.7902    3.0495   -4.6270 H   0  0  0  0  0  0  0  0  0  0  0  0
   -1.7770    5.3024   -5.6285 H   0  0  0  0  0  0  0  0  0  0  0  0
   -0.3012    4.2784   -5.6327 H   0  0  0  0  0  0  0  0  0  0  0  0
   -1.7400    3.7845   -6.5881 H   0  0  0  0  0  0  0  0  0  0  0  0
  1  3  1  0  0  0  0
  1  7  1  0  0  0  0
  1  2  2  0  0  0  0
 39 40  1  0  0  0  0
 40 48  1  0  0  0  0
 40 41  2  0  0  0  0
  8  9  1  0  0  0  0
  9 17  1  0  0  0  0
  9 10  2  0  0  0  0
 18 19  1  0  0  0  0
 19 38  1  0  0  0  0
 19 20  2  0  0  0  0
 39 42  1  0  0  0  0
  8 11  1  0  0  0  0
 48 49  1  0  0  0  0
 22 23  1  0  0  0  0
 21 22  1  0  0  0  0
 23 24  1  0  0  0  0
 18 21  1  0  0  0  0
 24 25  1  0  0  0  0
 38 39  1  0  0  0  0
  7  8  1  0  0  0  0
 17 18  1  0  0  0  0
  3  4  1  0  0  0  0
  3  5  1  0  0  0  0
  3  6  1  0  0  0  0
 42 45  1  0  0  0  0
 42 46  1  0  0  0  0
 42 47  1  0  0  0  0
 11 14  1  0  0  0  0
 11 15  1  0  0  0  0
 11 16  1  0  0  0  0
 49 51  1  0  0  0  0
 49 52  1  0  0  0  0
 49 53  1  0  0  0  0
 22 30  1  0  0  0  0
 22 31  1  0  0  0  0
 23 32  1  0  0  0  0
 23 33  1  0  0  0  0
 21 28  1  0  0  0  0
 21 29  1  0  0  0  0
 24 34  1  0  0  0  0
 24 35  1  0  0  0  0
 39 44  1  0  0  0  0
  8 13  1  0  0  0  0
 18 27  1  0  0  0  0
 25 36  1  0  0  0  0
 25 37  1  0  0  0  0
 48 50  1  0  0  0  0
  7 12  1  0  0  0  0
 38 43  1  0  0  0  0
 17 26  1  0  0  0  0
M  END
$$$$

  -OEChem-05262214473D

 53 52  0     1  0  0  0  0  0999 V2000
   -1.0338   -5.6785    0.1476 C   0  0  0  0  0  0  0  0  0  0  0  0
   -2.0514   -5.7797    0.8227 O   0  0  0  0  0  0  0  0  0  0  0  0
   -0.6558   -6.7819   -0.7841 C   0  0  0  0  0  0  0  0  0  0  0  0
   -0.0111   -7.5354   -0.3038 H   0  0  0  0  0  0  0  0  0  0  0  0
   -1.5317   -7.3401   -1.1520 H   0  0  0  0  0  0  0  0  0  0  0  0
   -0.1109   -6.4687   -1.6890 H   0  0  0  0  0  0  0  0  0  0  0  0
   -0.1543   -4.6083    0.1480 N   0  0  0  0  0  0  0  0  0  0  0  0
   -0.3302   -3.4398    0.9696 C   0  0  2  0  0  0  0  0  0  0  0  0
    0.2328   -2.2439    0.2131 C   0  0  0  0  0  0  0  0  0  0  0  0
    1.2097   -2.3192   -0.5294 O   0  0  0  0  0  0  0  0  0  0  0  0
    0.3557   -3.6024    2.3171 C   0  0  0  0  0  0  0  0  0  0  0  0
    0.6584   -4.6506   -0.4643 H   0  0  0  0  0  0  0  0  0  0  0  0
   -1.4091   -3.3101    1.1082 H   0  0  0  0  0  0  0  0  0  0  0  0
    1.4375   -3.7336    2.1985 H   0  0  0  0  0  0  0  0  0  0  0  0
    0.1969   -2.7243    2.9517 H   0  0  0  0  0  0  0  0  0  0  0  0
   -0.0294   -4.4803    2.8470 H   0  0  0  0  0  0  0  0  0  0  0  0
   -0.4616   -1.0893    0.5050 N   0  0  0  0  0  0  0  0  0  0  0  0
   -0.0884    0.2050   -0.0621 C   0  0  2  0  0  0  0  0  0  0  0  0
   -1.2806    0.7195   -0.8638 C   0  0  0  0  0  0  0  0  0  0  0  0
   -2.4079    0.2375   -0.7721 O   0  0  0  0  0  0  0  0  0  0  0  0
    1.1396    0.1060   -0.9795 C   0  0  0  0  0  0  0  0  0  0  0  0
    2.4332   -0.2291   -0.2299 C   0  0  0  0  0  0  0  0  0  0  0  0
    3.6274   -0.2913   -1.1861 C   0  0  0  0  0  0  0  0  0  0  0  0
    4.9127   -0.6496   -0.4420 C   0  0  0  0  0  0  0  0  0  0  0  0
    6.0320   -0.7267   -1.3731 N   0  0  0  0  0  0  0  0  0  0  0  0
   -1.2794   -1.1113    1.0935 H   0  0  0  0  0  0  0  0  0  0  0  0
    0.1165    0.9000    0.7611 H   0  0  0  0  0  0  0  0  0  0  0  0
    1.2727    1.0604   -1.5058 H   0  0  0  0  0  0  0  0  0  0  0  0
    0.9628   -0.6455   -1.7609 H   0  0  0  0  0  0  0  0  0  0  0  0
    2.3345   -1.1930    0.2820 H   0  0  0  0  0  0  0  0  0  0  0  0
    2.6188    0.5309    0.5385 H   0  0  0  0  0  0  0  0  0  0  0  0
    3.4297   -1.0354   -1.9679 H   0  0  0  0  0  0  0  0  0  0  0  0
    3.7466    0.6784   -1.6859 H   0  0  0  0  0  0  0  0  0  0  0  0
    4.7990   -1.6118    0.0693 H   0  0  0  0  0  0  0  0  0  0  0  0
    5.1320    0.1081    0.3177 H   0  0  0  0  0  0  0  0  0  0  0  0
    5.6906   -0.5479   -2.2885 H   0  0  0  0  0  0  0  0  0  0  0  0
    6.7037   -0.0434   -1.1114 H   0  0  0  0  0  0  0  0  0  0  0  0
   -0.9306    1.7641   -1.7083 N   0  0  0  0  0  0  0  0  0  0  0  0
   -1.8692    2.4166   -2.5927 C   0  0  2  0  0  0  0  0  0  0  0  0
   -1.1122    2.8594   -3.8378 C   0  0  0  0  0  0  0  0  0  0  0  0
    0.0574    3.2369   -3.8130 O   0  0  0  0  0  0  0  0  0  0  0  0
   -2.5380    3.6013   -1.9131 C   0  0  0  0  0  0  0  0  0  0  0  0
    0.0266    2.1035   -1.7098 H   0  0  0  0  0  0  0  0  0  0  0  0
   -2.6186    1.6664   -2.8677 H   0  0  0  0  0  0  0  0  0  0  0  0
   -1.8028    4.3635   -1.6302 H   0  0  0  0  0  0  0  0  0  0  0  0
   -3.2695    4.0771   -2.5746 H   0  0  0  0  0  0  0  0  0  0  0  0
   -3.0570    3.2857   -1.0016 H   0  0  0  0  0  0  0  0  0  0  0  0
   -1.9095    2.8245   -4.9733 N   0  0  0  0  0  0  0  0  0  0  0  0
   -1.4340    3.2384   -6.2728 C   0  0  0  0  0  0  0  0  0  0  0  0
   -2.8552    2.4597   -4.9087 H   0  0  0  0  0  0  0  0  0  0  0  0
   -1.6707    4.3013   -6.4289 H   0  0  0  0  0  0  0  0  0  0  0  0
   -0.3450    3.0935   -6.3279 H   0  0  0  0  0  0  0  0  0  0  0  0
   -1.9241    2.6356   -7.0515 H   0  0  0  0  0  0  0  0  0  0  0  0
  1  3  1  0  0  0  0
  1  7  1  0  0  0  0
  1  2  2  0  0  0  0
 39 40  1  0  0  0  0
 40 48  1  0  0  0  0
 40 41  2  0  0  0  0
  8  9  1  0  0  0  0
  9 17  1  0  0  0  0
  9 10  2  0  0  0  0
 18 19  1  0  0  0  0
 19 38  1  0  0  0  0
 19 20  2  0  0  0  0
 39 42  1  0  0  0  0
  8 11  1  0  0  0  0
 48 49  1  0  0  0  0
 22 23  1  0  0  0  0
 21 22  1  0  0  0  0
 23 24  1  0  0  0  0
 18 21  1  0  0  0  0
 24 25  1  0  0  0  0
 38 39  1  0  0  0  0
  7  8  1  0  0  0  0
 17 18  1  0  0  0  0
  3  4  1  0  0  0  0
  3  5  1  0  0  0  0
  3  6  1  0  0  0  0
 42 45  1  0  0  0  0
 42 46  1  0  0  0  0
 42 47  1  0  0  0  0
 11 14  1  0  0  0  0
 11 15  1  0  0  0  0
 11 16  1  0  0  0  0
 49 51  1  0  0  0  0
 49 52  1  0  0  0  0
 49 53  1  0  0  0  0
 22 30  1  0  0  0  0
 22 31  1  0  0  0  0
 23 32  1  0  0  0  0
 23 33  1  0  0  0  0
 21 28  1  0  0  0  0
 21 29  1  0  0  0  0
 24 34  1  0  0  0  0
 24 35  1  0  0  0  0
 39 44  1  0  0  0  0
  8 13  1  0  0  0  0
 18 27  1  0  0  0  0
 25 36  1  0  0  0  0
 25 37  1  0  0  0  0
 48 50  1  0  0  0  0
  7 12  1  0  0  0  0
 38 43  1  0  0  0  0
 17 26  1  0  0  0  0
M  END
$$$$

  -OEChem-05262214473D

 53 52  0     1  0  0  0  0  0999 V2000
   -1.0338   -5.6785    0.1476 C   0  0  0  0  0  0  0  0  0  0  0  0
   -2.0514   -5.7797    0.8227 O   0  0  0  0  0  0  0  0  0  0  0  0
   -0.6558   -6.7819   -0.7841 C   0  0  0  0  0  0  0  0  0  0  0  0
   -0.0111   -7.5354   -0.3038 H   0  0  0  0  0  0  0  0  0  0  0  0
   -1.5317   -7.3401   -1.1520 H   0  0  0  0  0  0  0  0  0  0  0  0
   -0.1109   -6.4687   -1.6890 H   0  0  0  0  0  0  0  0  0  0  0  0
   -0.1543   -4.6083    0.1480 N   0  0  0  0  0  0  0  0  0  0  0  0
   -0.3302   -3.4398    0.9696 C   0  0  2  0  0  0  0  0  0  0  0  0
    0.2328   -2.2439    0.2131 C   0  0  0  0  0  0  0  0  0  0  0  0
    1.2097   -2.3192   -0.5294 O   0  0  0  0  0  0  0  0  0  0  0  0
    0.3557   -3.6024    2.3171 C   0  0  0  0  0  0  0  0  0  0  0  0
    0.6584   -4.6506   -0.4643 H   0  0  0  0  0  0  0  0  0  0  0  0
   -1.4091   -3.3101    1.1082 H   0  0  0  0  0  0  0  0  0  0  0  0
    1.4375   -3.7336    2.1985 H   0  0  0  0  0  0  0  0  0  0  0  0
    0.1969   -2.7243    2.9517 H   0  0  0  0  0  0  0  0  0  0  0  0
   -0.0294   -4.4803    2.8470 H   0  0  0  0  0  0  0  0  0  0  0  0
   -0.4616   -1.0893    0.5050 N   0  0  0  0  0  0  0  0  0  0  0  0
   -0.0884    0.2050   -0.0621 C   0  0  2  0  0  0  0  0  0  0  0  0
   -1.2806    0.7195   -0.8638 C   0  0  0  0  0  0  0  0  0  0  0  0
   -2.4448    0.4335   -0.5914 O   0  0  0  0  0  0  0  0  0  0  0  0
    1.1396    0.1060   -0.9795 C   0  0  0  0  0  0  0  0  0  0  0  0
    2.4332   -0.2291   -0.2299 C   0  0  0  0  0  0  0  0  0  0  0  0
    3.6274   -0.2913   -1.1861 C   0  0  0  0  0  0  0  0  0  0  0  0
    4.9127   -0.6496   -0.4420 C   0  0  0  0  0  0  0  0  0  0  0  0
    6.0320   -0.7267   -1.3731 N   0  0  0  0  0  0  0  0  0  0  0  0
   -1.2794   -1.1113    1.0935 H   0  0  0  0  0  0  0  0  0  0  0  0
    0.1165    0.9000    0.7611 H   0  0  0  0  0  0  0  0  0  0  0  0
    1.2727    1.0604   -1.5058 H   0  0  0  0  0  0  0  0  0  0  0  0
    0.9628   -0.6455   -1.7609 H   0  0  0  0  0  0  0  0  0  0  0  0
    2.3345   -1.1930    0.2820 H   0  0  0  0  0  0  0  0  0  0  0  0
    2.6188    0.5309    0.5385 H   0  0  0  0  0  0  0  0  0  0  0  0
    3.4297   -1.0354   -1.9679 H   0  0  0  0  0  0  0  0  0  0  0  0
    3.7466    0.6784   -1.6859 H   0  0  0  0  0  0  0  0  0  0  0  0
    4.7990   -1.6118    0.0693 H   0  0  0  0  0  0  0  0  0  0  0  0
    5.1320    0.1081    0.3177 H   0  0  0  0  0  0  0  0  0  0  0  0
    5.6906   -0.5479   -2.2885 H   0  0  0  0  0  0  0  0  0  0  0  0
    6.7037   -0.0434   -1.1114 H   0  0  0  0  0  0  0  0  0  0  0  0
   -0.8881    1.5161   -1.9306 N   0  0  0  0  0  0  0  0  0  0  0  0
   -1.8208    2.1115   -2.8603 C   0  0  2  0  0  0  0  0  0  0  0  0
   -1.1437    2.1870   -4.2224 C   0  0  0  0  0  0  0  0  0  0  0  0
    0.0608    2.3884   -4.3625 O   0  0  0  0  0  0  0  0  0  0  0  0
   -2.2615    3.4907   -2.3952 C   0  0  0  0  0  0  0  0  0  0  0  0
    0.0994    1.7063   -2.0729 H   0  0  0  0  0  0  0  0  0  0  0  0
   -2.6834    1.4386   -2.9174 H   0  0  0  0  0  0  0  0  0  0  0  0
   -1.4107    4.1788   -2.3318 H   0  0  0  0  0  0  0  0  0  0  0  0
   -2.9899    3.9284   -3.0858 H   0  0  0  0  0  0  0  0  0  0  0  0
   -2.7215    3.4386   -1.4024 H   0  0  0  0  0  0  0  0  0  0  0  0
   -2.0498    2.0460   -5.2642 N   0  0  0  0  0  0  0  0  0  0  0  0
   -1.6597    2.1236   -6.6526 C   0  0  0  0  0  0  0  0  0  0  0  0
   -3.0228    1.8419   -5.0560 H   0  0  0  0  0  0  0  0  0  0  0  0
   -1.7740    3.1580   -7.0089 H   0  0  0  0  0  0  0  0  0  0  0  0
   -0.6091    1.8143   -6.7560 H   0  0  0  0  0  0  0  0  0  0  0  0
   -2.2986    1.4572   -7.2507 H   0  0  0  0  0  0  0  0  0  0  0  0
  1  3  1  0  0  0  0
  1  7  1  0  0  0  0
  1  2  2  0  0  0  0
 39 40  1  0  0  0  0
 40 48  1  0  0  0  0
 40 41  2  0  0  0  0
  8  9  1  0  0  0  0
  9 17  1  0  0  0  0
  9 10  2  0  0  0  0
 18 19  1  0  0  0  0
 19 38  1  0  0  0  0
 19 20  2  0  0  0  0
 39 42  1  0  0  0  0
  8 11  1  0  0  0  0
 48 49  1  0  0  0  0
 22 23  1  0  0  0  0
 21 22  1  0  0  0  0
 23 24  1  0  0  0  0
 18 21  1  0  0  0  0
 24 25  1  0  0  0  0
 38 39  1  0  0  0  0
  7  8  1  0  0  0  0
 17 18  1  0  0  0  0
  3  4  1  0  0  0  0
  3  5  1  0  0  0  0
  3  6  1  0  0  0  0
 42 45  1  0  0  0  0
 42 46  1  0  0  0  0
 42 47  1  0  0  0  0
 11 14  1  0  0  0  0
 11 15  1  0  0  0  0
 11 16  1  0  0  0  0
 49 51  1  0  0  0  0
 49 52  1  0  0  0  0
 49 53  1  0  0  0  0
 22 30  1  0  0  0  0
 22 31  1  0  0  0  0
 23 32  1  0  0  0  0
 23 33  1  0  0  0  0
 21 28  1  0  0  0  0
 21 29  1  0  0  0  0
 24 34  1  0  0  0  0
 24 35  1  0  0  0  0
 39 44  1  0  0  0  0
  8 13  1  0  0  0  0
 18 27  1  0  0  0  0
 25 36  1  0  0  0  0
 25 37  1  0  0  0  0
 48 50  1  0  0  0  0
  7 12  1  0  0  0  0
 38 43  1  0  0  0  0
 17 26  1  0  0  0  0
M  END
$$$$

  -OEChem-05262214473D

 53 52  0     1  0  0  0  0  0999 V2000
   -1.0338   -5.6785    0.1476 C   0  0  0  0  0  0  0  0  0  0  0  0
   -2.0514   -5.7797    0.8227 O   0  0  0  0  0  0  0  0  0  0  0  0
   -0.6558   -6.7819   -0.7841 C   0  0  0  0  0  0  0  0  0  0  0  0
   -0.0111   -7.5354   -0.3038 H   0  0  0  0  0  0  0  0  0  0  0  0
   -1.5317   -7.3401   -1.1520 H   0  0  0  0  0  0  0  0  0  0  0  0
   -0.1109   -6.4687   -1.6890 H   0  0  0  0  0  0  0  0  0  0  0  0
   -0.1543   -4.6083    0.1480 N   0  0  0  0  0  0  0  0  0  0  0  0
   -0.3302   -3.4398    0.9696 C   0  0  2  0  0  0  0  0  0  0  0  0
    0.2328   -2.2439    0.2131 C   0  0  0  0  0  0  0  0  0  0  0  0
    1.2097   -2.3192   -0.5294 O   0  0  0  0  0  0  0  0  0  0  0  0
    0.3557   -3.6024    2.3171 C   0  0  0  0  0  0  0  0  0  0  0  0
    0.6584   -4.6506   -0.4643 H   0  0  0  0  0  0  0  0  0  0  0  0
   -1.4091   -3.3101    1.1082 H   0  0  0  0  0  0  0  0  0  0  0  0
    1.4375   -3.7336    2.1985 H   0  0  0  0  0  0  0  0  0  0  0  0
    0.1969   -2.7243    2.9517 H   0  0  0  0  0  0  0  0  0  0  0  0
   -0.0294   -4.4803    2.8470 H   0  0  0  0  0  0  0  0  0  0  0  0
   -0.4616   -1.0893    0.5050 N   0  0  0  0  0  0  0  0  0  0  0  0
   -0.0884    0.2050   -0.0621 C   0  0  2  0  0  0  0  0  0  0  0  0
   -1.2806    0.7195   -0.8638 C   0  0  0  0  0  0  0  0  0  0  0  0
   -2.4381    0.6643   -0.4533 O   0  0  0  0  0  0  0  0  0  0  0  0
    1.1396    0.1060   -0.9795 C   0  0  0  0  0  0  0  0  0  0  0  0
    2.4332   -0.2291   -0.2299 C   0  0  0  0  0  0  0  0  0  0  0  0
    3.6274   -0.2913   -1.1861 C   0  0  0  0  0  0  0  0  0  0  0  0
    4.9127   -0.6496   -0.4420 C   0  0  0  0  0  0  0  0  0  0  0  0
    6.0320   -0.7267   -1.3731 N   0  0  0  0  0  0  0  0  0  0  0  0
   -1.2794   -1.1113    1.0935 H   0  0  0  0  0  0  0  0  0  0  0  0
    0.1165    0.9000    0.7611 H   0  0  0  0  0  0  0  0  0  0  0  0
    1.2727    1.0604   -1.5058 H   0  0  0  0  0  0  0  0  0  0  0  0
    0.9628   -0.6455   -1.7609 H   0  0  0  0  0  0  0  0  0  0  0  0
    2.3345   -1.1930    0.2820 H   0  0  0  0  0  0  0  0  0  0  0  0
    2.6188    0.5309    0.5385 H   0  0  0  0  0  0  0  0  0  0  0  0
    3.4297   -1.0354   -1.9679 H   0  0  0  0  0  0  0  0  0  0  0  0
    3.7466    0.6784   -1.6859 H   0  0  0  0  0  0  0  0  0  0  0  0
    4.7990   -1.6118    0.0693 H   0  0  0  0  0  0  0  0  0  0  0  0
    5.1320    0.1081    0.3177 H   0  0  0  0  0  0  0  0  0  0  0  0
    5.6906   -0.5479   -2.2885 H   0  0  0  0  0  0  0  0  0  0  0  0
    6.7037   -0.0434   -1.1114 H   0  0  0  0  0  0  0  0  0  0  0  0
   -0.9001    1.2259   -2.0990 N   0  0  0  0  0  0  0  0  0  0  0  0
   -1.8390    1.7561   -3.0614 C   0  0  2  0  0  0  0  0  0  0  0  0
   -1.2992    1.4640   -4.4552 C   0  0  0  0  0  0  0  0  0  0  0  0
   -0.0992    1.4573   -4.7220 O   0  0  0  0  0  0  0  0  0  0  0  0
   -2.0516    3.2488   -2.8626 C   0  0  0  0  0  0  0  0  0  0  0  0
    0.0840    1.2393   -2.3497 H   0  0  0  0  0  0  0  0  0  0  0  0
   -2.7813    1.2174   -2.9137 H   0  0  0  0  0  0  0  0  0  0  0  0
   -1.1182    3.8052   -3.0065 H   0  0  0  0  0  0  0  0  0  0  0  0
   -2.7846    3.6433   -3.5740 H   0  0  0  0  0  0  0  0  0  0  0  0
   -2.4115    3.4597   -1.8498 H   0  0  0  0  0  0  0  0  0  0  0  0
   -2.3166    1.2542   -5.3755 N   0  0  0  0  0  0  0  0  0  0  0  0
   -2.0623    1.0005   -6.7744 C   0  0  0  0  0  0  0  0  0  0  0  0
   -3.2815    1.2382   -5.0587 H   0  0  0  0  0  0  0  0  0  0  0  0
   -2.0798    1.9504   -7.3290 H   0  0  0  0  0  0  0  0  0  0  0  0
   -1.0755    0.5280   -6.8878 H   0  0  0  0  0  0  0  0  0  0  0  0
   -2.8380    0.3296   -7.1721 H   0  0  0  0  0  0  0  0  0  0  0  0
  1  3  1  0  0  0  0
  1  7  1  0  0  0  0
  1  2  2  0  0  0  0
 39 40  1  0  0  0  0
 40 48  1  0  0  0  0
 40 41  2  0  0  0  0
  8  9  1  0  0  0  0
  9 17  1  0  0  0  0
  9 10  2  0  0  0  0
 18 19  1  0  0  0  0
 19 38  1  0  0  0  0
 19 20  2  0  0  0  0
 39 42  1  0  0  0  0
  8 11  1  0  0  0  0
 48 49  1  0  0  0  0
 22 23  1  0  0  0  0
 21 22  1  0  0  0  0
 23 24  1  0  0  0  0
 18 21  1  0  0  0  0
 24 25  1  0  0  0  0
 38 39  1  0  0  0  0
  7  8  1  0  0  0  0
 17 18  1  0  0  0  0
  3  4  1  0  0  0  0
  3  5  1  0  0  0  0
  3  6  1  0  0  0  0
 42 45  1  0  0  0  0
 42 46  1  0  0  0  0
 42 47  1  0  0  0  0
 11 14  1  0  0  0  0
 11 15  1  0  0  0  0
 11 16  1  0  0  0  0
 49 51  1  0  0  0  0
 49 52  1  0  0  0  0
 49 53  1  0  0  0  0
 22 30  1  0  0  0  0
 22 31  1  0  0  0  0
 23 32  1  0  0  0  0
 23 33  1  0  0  0  0
 21 28  1  0  0  0  0
 21 29  1  0  0  0  0
 24 34  1  0  0  0  0
 24 35  1  0  0  0  0
 39 44  1  0  0  0  0
  8 13  1  0  0  0  0
 18 27  1  0  0  0  0
 25 36  1  0  0  0  0
 25 37  1  0  0  0  0
 48 50  1  0  0  0  0
  7 12  1  0  0  0  0
 38 43  1  0  0  0  0
 17 26  1  0  0  0  0
M  END
$$$$

  -OEChem-05262214473D

 53 52  0     1  0  0  0  0  0999 V2000
   -1.0338   -5.6785    0.1476 C   0  0  0  0  0  0  0  0  0  0  0  0
   -2.0514   -5.7797    0.8227 O   0  0  0  0  0  0  0  0  0  0  0  0
   -0.6558   -6.7819   -0.7841 C   0  0  0  0  0  0  0  0  0  0  0  0
   -0.0111   -7.5354   -0.3038 H   0  0  0  0  0  0  0  0  0  0  0  0
   -1.5317   -7.3401   -1.1520 H   0  0  0  0  0  0  0  0  0  0  0  0
   -0.1109   -6.4687   -1.6890 H   0  0  0  0  0  0  0  0  0  0  0  0
   -0.1543   -4.6083    0.1480 N   0  0  0  0  0  0  0  0  0  0  0  0
   -0.3302   -3.4398    0.9696 C   0  0  2  0  0  0  0  0  0  0  0  0
    0.2328   -2.2439    0.2131 C   0  0  0  0  0  0  0  0  0  0  0  0
    1.2097   -2.3192   -0.5294 O   0  0  0  0  0  0  0  0  0  0  0  0
    0.3557   -3.6024    2.3171 C   0  0  0  0  0  0  0  0  0  0  0  0
    0.6584   -4.6506   -0.4643 H   0  0  0  0  0  0  0  0  0  0  0  0
   -1.4091   -3.3101    1.1082 H   0  0  0  0  0  0  0  0  0  0  0  0
    1.4375   -3.7336    2.1985 H   0  0  0  0  0  0  0  0  0  0  0  0
    0.1969   -2.7243    2.9517 H   0  0  0  0  0  0  0  0  0  0  0  0
   -0.0294   -4.4803    2.8470 H   0  0  0  0  0  0  0  0  0  0  0  0
   -0.4616   -1.0893    0.5050 N   0  0  0  0  0  0  0  0  0  0  0  0
   -0.0884    0.2050   -0.0621 C   0  0  2  0  0  0  0  0  0  0  0  0
   -1.2806    0.7195   -0.8638 C   0  0  0  0  0  0  0  0  0  0  0  0
   -2.3882    0.9143   -0.3671 O   0  0  0  0  0  0  0  0  0  0  0  0
    1.1396    0.1060   -0.9795 C   0  0  0  0  0  0  0  0  0  0  0  0
    2.4332   -0.2291   -0.2299 C   0  0  0  0  0  0  0  0  0  0  0  0
    3.6274   -0.2913   -1.1861 C   0  0  0  0  0  0  0  0  0  0  0  0
    4.9127   -0.6496   -0.4420 C   0  0  0  0  0  0  0  0  0  0  0  0
    6.0320   -0.7267   -1.3731 N   0  0  0  0  0  0  0  0  0  0  0  0
   -1.2794   -1.1113    1.0935 H   0  0  0  0  0  0  0  0  0  0  0  0
    0.1165    0.9000    0.7611 H   0  0  0  0  0  0  0  0  0  0  0  0
    1.2727    1.0604   -1.5058 H   0  0  0  0  0  0  0  0  0  0  0  0
    0.9628   -0.6455   -1.7609 H   0  0  0  0  0  0  0  0  0  0  0  0
    2.3345   -1.1930    0.2820 H   0  0  0  0  0  0  0  0  0  0  0  0
    2.6188    0.5309    0.5385 H   0  0  0  0  0  0  0  0  0  0  0  0
    3.4297   -1.0354   -1.9679 H   0  0  0  0  0  0  0  0  0  0  0  0
    3.7466    0.6784   -1.6859 H   0  0  0  0  0  0  0  0  0  0  0  0
    4.7990   -1.6118    0.0693 H   0  0  0  0  0  0  0  0  0  0  0  0
    5.1320    0.1081    0.3177 H   0  0  0  0  0  0  0  0  0  0  0  0
    5.6906   -0.5479   -2.2885 H   0  0  0  0  0  0  0  0  0  0  0  0
    6.7037   -0.0434   -1.1114 H   0  0  0  0  0  0  0  0  0  0  0  0
   -0.9659    0.9132   -2.2018 N   0  0  0  0  0  0  0  0  0  0  0  0
   -1.9224    1.3747   -3.1821 C   0  0  2  0  0  0  0  0  0  0  0  0
   -1.5679    0.7397   -4.5203 C   0  0  0  0  0  0  0  0  0  0  0  0
   -0.4118    0.5069   -4.8670 O   0  0  0  0  0  0  0  0  0  0  0  0
   -1.9225    2.8920   -3.2835 C   0  0  0  0  0  0  0  0  0  0  0  0
   -0.0185    0.7343   -2.5212 H   0  0  0  0  0  0  0  0  0  0  0  0
   -2.9057    1.0178   -2.8569 H   0  0  0  0  0  0  0  0  0  0  0  0
   -0.9454    3.2681   -3.6080 H   0  0  0  0  0  0  0  0  0  0  0  0
   -2.6676    3.2414   -4.0058 H   0  0  0  0  0  0  0  0  0  0  0  0
   -2.1483    3.3475   -2.3132 H   0  0  0  0  0  0  0  0  0  0  0  0
   -2.6916    0.5032   -5.2997 N   0  0  0  0  0  0  0  0  0  0  0  0
   -2.6146   -0.0541   -6.6299 C   0  0  0  0  0  0  0  0  0  0  0  0
   -3.6137    0.6897   -4.9166 H   0  0  0  0  0  0  0  0  0  0  0  0
   -2.5674    0.7608   -7.3672 H   0  0  0  0  0  0  0  0  0  0  0  0
   -1.7123   -0.6776   -6.7144 H   0  0  0  0  0  0  0  0  0  0  0  0
   -3.5054   -0.6704   -6.8212 H   0  0  0  0  0  0  0  0  0  0  0  0
  1  3  1  0  0  0  0
  1  7  1  0  0  0  0
  1  2  2  0  0  0  0
 39 40  1  0  0  0  0
 40 48  1  0  0  0  0
 40 41  2  0  0  0  0
  8  9  1  0  0  0  0
  9 17  1  0  0  0  0
  9 10  2  0  0  0  0
 18 19  1  0  0  0  0
 19 38  1  0  0  0  0
 19 20  2  0  0  0  0
 39 42  1  0  0  0  0
  8 11  1  0  0  0  0
 48 49  1  0  0  0  0
 22 23  1  0  0  0  0
 21 22  1  0  0  0  0
 23 24  1  0  0  0  0
 18 21  1  0  0  0  0
 24 25  1  0  0  0  0
 38 39  1  0  0  0  0
  7  8  1  0  0  0  0
 17 18  1  0  0  0  0
  3  4  1  0  0  0  0
  3  5  1  0  0  0  0
  3  6  1  0  0  0  0
 42 45  1  0  0  0  0
 42 46  1  0  0  0  0
 42 47  1  0  0  0  0
 11 14  1  0  0  0  0
 11 15  1  0  0  0  0
 11 16  1  0  0  0  0
 49 51  1  0  0  0  0
 49 52  1  0  0  0  0
 49 53  1  0  0  0  0
 22 30  1  0  0  0  0
 22 31  1  0  0  0  0
 23 32  1  0  0  0  0
 23 33  1  0  0  0  0
 21 28  1  0  0  0  0
 21 29  1  0  0  0  0
 24 34  1  0  0  0  0
 24 35  1  0  0  0  0
 39 44  1  0  0  0  0
  8 13  1  0  0  0  0
 18 27  1  0  0  0  0
 25 36  1  0  0  0  0
 25 37  1  0  0  0  0
 48 50  1  0  0  0  0
  7 12  1  0  0  0  0
 38 43  1  0  0  0  0
 17 26  1  0  0  0  0
M  END
$$$$

  -OEChem-05262214473D

 53 52  0     1  0  0  0  0  0999 V2000
   -1.0338   -5.6785    0.1476 C   0  0  0  0  0  0  0  0  0  0  0  0
   -2.0514   -5.7797    0.8227 O   0  0  0  0  0  0  0  0  0  0  0  0
   -0.6558   -6.7819   -0.7841 C   0  0  0  0  0  0  0  0  0  0  0  0
   -0.0111   -7.5354   -0.3038 H   0  0  0  0  0  0  0  0  0  0  0  0
   -1.5317   -7.3401   -1.1520 H   0  0  0  0  0  0  0  0  0  0  0  0
   -0.1109   -6.4687   -1.6890 H   0  0  0  0  0  0  0  0  0  0  0  0
   -0.1543   -4.6083    0.1480 N   0  0  0  0  0  0  0  0  0  0  0  0
   -0.3302   -3.4398    0.9696 C   0  0  2  0  0  0  0  0  0  0  0  0
    0.2328   -2.2439    0.2131 C   0  0  0  0  0  0  0  0  0  0  0  0
    1.2097   -2.3192   -0.5294 O   0  0  0  0  0  0  0  0  0  0  0  0
    0.3557   -3.6024    2.3171 C   0  0  0  0  0  0  0  0  0  0  0  0
    0.6584   -4.6506   -0.4643 H   0  0  0  0  0  0  0  0  0  0  0  0
   -1.4091   -3.3101    1.1082 H   0  0  0  0  0  0  0  0  0  0  0  0
    1.4375   -3.7336    2.1985 H   0  0  0  0  0  0  0  0  0  0  0  0
    0.1969   -2.7243    2.9517 H   0  0  0  0  0  0  0  0  0  0  0  0
   -0.0294   -4.4803    2.8470 H   0  0  0  0  0  0  0  0  0  0  0  0
   -0.4616   -1.0893    0.5050 N   0  0  0  0  0  0  0  0  0  0  0  0
   -0.0884    0.2050   -0.0621 C   0  0  2  0  0  0  0  0  0  0  0  0
   -1.2806    0.7195   -0.8638 C   0  0  0  0  0  0  0  0  0  0  0  0
   -2.2985    1.1664   -0.3388 O   0  0  0  0  0  0  0  0  0  0  0  0
    1.1396    0.1060   -0.9795 C   0  0  0  0  0  0  0  0  0  0  0  0
    2.4332   -0.2291   -0.2299 C   0  0  0  0  0  0  0  0  0  0  0  0
    3.6274   -0.2913   -1.1861 C   0  0  0  0  0  0  0  0  0  0  0  0
    4.9127   -0.6496   -0.4420 C   0  0  0  0  0  0  0  0  0  0  0  0
    6.0320   -0.7267   -1.3731 N   0  0  0  0  0  0  0  0  0  0  0  0
   -1.2794   -1.1113    1.0935 H   0  0  0  0  0  0  0  0  0  0  0  0
    0.1165    0.9000    0.7611 H   0  0  0  0  0  0  0  0  0  0  0  0
    1.2727    1.0604   -1.5058 H   0  0  0  0  0  0  0  0  0  0  0  0
    0.9628   -0.6455   -1.7609 H   0  0  0  0  0  0  0  0  0  0  0  0
    2.3345   -1.1930    0.2820 H   0  0  0  0  0  0  0  0  0  0  0  0
    2.6188    0.5309    0.5385 H   0  0  0  0  0  0  0  0  0  0  0  0
    3.4297   -1.0354   -1.9679 H   0  0  0  0  0  0  0  0  0  0  0  0
    3.7466    0.6784   -1.6859 H   0  0  0  0  0  0  0  0  0  0  0  0
    4.7990   -1.6118    0.0693 H   0  0  0  0  0  0  0  0  0  0  0  0
    5.1320    0.1081    0.3177 H   0  0  0  0  0  0  0  0  0  0  0  0
    5.6906   -0.5479   -2.2885 H   0  0  0  0  0  0  0  0  0  0  0  0
    6.7037   -0.0434   -1.1114 H   0  0  0  0  0  0  0  0  0  0  0  0
   -1.0809    0.5992   -2.2322 N   0  0  0  0  0  0  0  0  0  0  0  0
   -2.0653    0.9931   -3.2143 C   0  0  2  0  0  0  0  0  0  0  0  0
   -1.9317    0.0635   -4.4132 C   0  0  0  0  0  0  0  0  0  0  0  0
   -0.8556   -0.3979   -4.7876 O   0  0  0  0  0  0  0  0  0  0  0  0
   -1.8830    2.4448   -3.6292 C   0  0  0  0  0  0  0  0  0  0  0  0
   -0.2012    0.2258   -2.5759 H   0  0  0  0  0  0  0  0  0  0  0  0
   -3.0480    0.8533   -2.7508 H   0  0  0  0  0  0  0  0  0  0  0  0
   -0.9040    2.6043   -4.0956 H   0  0  0  0  0  0  0  0  0  0  0  0
   -2.6470    2.7499   -4.3518 H   0  0  0  0  0  0  0  0  0  0  0  0
   -1.9498    3.1095   -2.7611 H   0  0  0  0  0  0  0  0  0  0  0  0
   -3.1494   -0.1559   -5.0418 N   0  0  0  0  0  0  0  0  0  0  0  0
   -3.2789   -0.9685   -6.2288 C   0  0  0  0  0  0  0  0  0  0  0  0
   -3.9968    0.2338   -4.6395 H   0  0  0  0  0  0  0  0  0  0  0  0
   -3.2034   -0.3297   -7.1211 H   0  0  0  0  0  0  0  0  0  0  0  0
   -2.4763   -1.7205   -6.2475 H   0  0  0  0  0  0  0  0  0  0  0  0
   -4.2555   -1.4746   -6.2218 H   0  0  0  0  0  0  0  0  0  0  0  0
  1  3  1  0  0  0  0
  1  7  1  0  0  0  0
  1  2  2  0  0  0  0
 39 40  1  0  0  0  0
 40 48  1  0  0  0  0
 40 41  2  0  0  0  0
  8  9  1  0  0  0  0
  9 17  1  0  0  0  0
  9 10  2  0  0  0  0
 18 19  1  0  0  0  0
 19 38  1  0  0  0  0
 19 20  2  0  0  0  0
 39 42  1  0  0  0  0
  8 11  1  0  0  0  0
 48 49  1  0  0  0  0
 22 23  1  0  0  0  0
 21 22  1  0  0  0  0
 23 24  1  0  0  0  0
 18 21  1  0  0  0  0
 24 25  1  0  0  0  0
 38 39  1  0  0  0  0
  7  8  1  0  0  0  0
 17 18  1  0  0  0  0
  3  4  1  0  0  0  0
  3  5  1  0  0  0  0
  3  6  1  0  0  0  0
 42 45  1  0  0  0  0
 42 46  1  0  0  0  0
 42 47  1  0  0  0  0
 11 14  1  0  0  0  0
 11 15  1  0  0  0  0
 11 16  1  0  0  0  0
 49 51  1  0  0  0  0
 49 52  1  0  0  0  0
 49 53  1  0  0  0  0
 22 30  1  0  0  0  0
 22 31  1  0  0  0  0
 23 32  1  0  0  0  0
 23 33  1  0  0  0  0
 21 28  1  0  0  0  0
 21 29  1  0  0  0  0
 24 34  1  0  0  0  0
 24 35  1  0  0  0  0
 39 44  1  0  0  0  0
  8 13  1  0  0  0  0
 18 27  1  0  0  0  0
 25 36  1  0  0  0  0
 25 37  1  0  0  0  0
 48 50  1  0  0  0  0
  7 12  1  0  0  0  0
 38 43  1  0  0  0  0
 17 26  1  0  0  0  0
M  END
$$$$

  -OEChem-05262214473D

 53 52  0     1  0  0  0  0  0999 V2000
   -1.0338   -5.6785    0.1476 C   0  0  0  0  0  0  0  0  0  0  0  0
   -2.0514   -5.7797    0.8227 O   0  0  0  0  0  0  0  0  0  0  0  0
   -0.6558   -6.7819   -0.7841 C   0  0  0  0  0  0  0  0  0  0  0  0
   -0.0111   -7.5354   -0.3038 H   0  0  0  0  0  0  0  0  0  0  0  0
   -1.5317   -7.3401   -1.1520 H   0  0  0  0  0  0  0  0  0  0  0  0
   -0.1109   -6.4687   -1.6890 H   0  0  0  0  0  0  0  0  0  0  0  0
   -0.1543   -4.6083    0.1480 N   0  0  0  0  0  0  0  0  0  0  0  0
   -0.3302   -3.4398    0.9696 C   0  0  2  0  0  0  0  0  0  0  0  0
    0.2328   -2.2439    0.2131 C   0  0  0  0  0  0  0  0  0  0  0  0
    1.2097   -2.3192   -0.5294 O   0  0  0  0  0  0  0  0  0  0  0  0
    0.3557   -3.6024    2.3171 C   0  0  0  0  0  0  0  0  0  0  0  0
    0.6584   -4.6506   -0.4643 H   0  0  0  0  0  0  0  0  0  0  0  0
   -1.4091   -3.3101    1.1082 H   0  0  0  0  0  0  0  0  0  0  0  0
    1.4375   -3.7336    2.1985 H   0  0  0  0  0  0  0  0  0  0  0  0
    0.1969   -2.7243    2.9517 H   0  0  0  0  0  0  0  0  0  0  0  0
   -0.0294   -4.4803    2.8470 H   0  0  0  0  0  0  0  0  0  0  0  0
   -0.4616   -1.0893    0.5050 N   0  0  0  0  0  0  0  0  0  0  0  0
   -0.0884    0.2050   -0.0621 C   0  0  2  0  0  0  0  0  0  0  0  0
   -1.2806    0.7195   -0.8638 C   0  0  0  0  0  0  0  0  0  0  0  0
   -2.1751    1.4034   -0.3703 O   0  0  0  0  0  0  0  0  0  0  0  0
    1.1396    0.1060   -0.9795 C   0  0  0  0  0  0  0  0  0  0  0  0
    2.4332   -0.2291   -0.2299 C   0  0  0  0  0  0  0  0  0  0  0  0
    3.6274   -0.2913   -1.1861 C   0  0  0  0  0  0  0  0  0  0  0  0
    4.9127   -0.6496   -0.4420 C   0  0  0  0  0  0  0  0  0  0  0  0
    6.0320   -0.7267   -1.3731 N   0  0  0  0  0  0  0  0  0  0  0  0
   -1.2794   -1.1113    1.0935 H   0  0  0  0  0  0  0  0  0  0  0  0
    0.1165    0.9000    0.7611 H   0  0  0  0  0  0  0  0  0  0  0  0
    1.2727    1.0604   -1.5058 H   0  0  0  0  0  0  0  0  0  0  0  0
    0.9628   -0.6455   -1.7609 H   0  0  0  0  0  0  0  0  0  0  0  0
    2.3345   -1.1930    0.2820 H   0  0  0  0  0  0  0  0  0  0  0  0
    2.6188    0.5309    0.5385 H   0  0  0  0  0  0  0  0  0  0  0  0
    3.4297   -1.0354   -1.9679 H   0  0  0  0  0  0  0  0  0  0  0  0
    3.7466    0.6784   -1.6859 H   0  0  0  0  0  0  0  0  0  0  0  0
    4.7990   -1.6118    0.0693 H   0  0  0  0  0  0  0  0  0  0  0  0
    5.1320    0.1081    0.3177 H   0  0  0  0  0  0  0  0  0  0  0  0
    5.6906   -0.5479   -2.2885 H   0  0  0  0  0  0  0  0  0  0  0  0
    6.7037   -0.0434   -1.1114 H   0  0  0  0  0  0  0  0  0  0  0  0
   -1.2374    0.3055   -2.1880 N   0  0  0  0  0  0  0  0  0  0  0  0
   -2.2581    0.6375   -3.1558 C   0  0  2  0  0  0  0  0  0  0  0  0
   -2.3657   -0.5186   -4.1413 C   0  0  0  0  0  0  0  0  0  0  0  0
   -1.4003   -1.1955   -4.4893 O   0  0  0  0  0  0  0  0  0  0  0  0
   -1.9358    1.9375   -3.8761 C   0  0  0  0  0  0  0  0  0  0  0  0
   -0.4515   -0.2516   -2.5099 H   0  0  0  0  0  0  0  0  0  0  0  0
   -3.1986    0.7353   -2.6026 H   0  0  0  0  0  0  0  0  0  0  0  0
   -0.9968    1.8588   -4.4360 H   0  0  0  0  0  0  0  0  0  0  0  0
   -2.7241    2.2024   -4.5885 H   0  0  0  0  0  0  0  0  0  0  0  0
   -1.8294    2.7622   -3.1630 H   0  0  0  0  0  0  0  0  0  0  0  0
   -3.6588   -0.6782   -4.6195 N   0  0  0  0  0  0  0  0  0  0  0  0
   -4.0098   -1.6803   -5.5986 C   0  0  0  0  0  0  0  0  0  0  0  0
   -4.4047   -0.0985   -4.2462 H   0  0  0  0  0  0  0  0  0  0  0  0
   -3.9446   -1.2468   -6.6074 H   0  0  0  0  0  0  0  0  0  0  0  0
   -3.3153   -2.5296   -5.5190 H   0  0  0  0  0  0  0  0  0  0  0  0
   -5.0371   -2.0282   -5.4148 H   0  0  0  0  0  0  0  0  0  0  0  0
  1  3  1  0  0  0  0
  1  7  1  0  0  0  0
  1  2  2  0  0  0  0
 39 40  1  0  0  0  0
 40 48  1  0  0  0  0
 40 41  2  0  0  0  0
  8  9  1  0  0  0  0
  9 17  1  0  0  0  0
  9 10  2  0  0  0  0
 18 19  1  0  0  0  0
 19 38  1  0  0  0  0
 19 20  2  0  0  0  0
 39 42  1  0  0  0  0
  8 11  1  0  0  0  0
 48 49  1  0  0  0  0
 22 23  1  0  0  0  0
 21 22  1  0  0  0  0
 23 24  1  0  0  0  0
 18 21  1  0  0  0  0
 24 25  1  0  0  0  0
 38 39  1  0  0  0  0
  7  8  1  0  0  0  0
 17 18  1  0  0  0  0
  3  4  1  0  0  0  0
  3  5  1  0  0  0  0
  3  6  1  0  0  0  0
 42 45  1  0  0  0  0
 42 46  1  0  0  0  0
 42 47  1  0  0  0  0
 11 14  1  0  0  0  0
 11 15  1  0  0  0  0
 11 16  1  0  0  0  0
 49 51  1  0  0  0  0
 49 52  1  0  0  0  0
 49 53  1  0  0  0  0
 22 30  1  0  0  0  0
 22 31  1  0  0  0  0
 23 32  1  0  0  0  0
 23 33  1  0  0  0  0
 21 28  1  0  0  0  0
 21 29  1  0  0  0  0
 24 34  1  0  0  0  0
 24 35  1  0  0  0  0
 39 44  1  0  0  0  0
  8 13  1  0  0  0  0
 18 27  1  0  0  0  0
 25 36  1  0  0  0  0
 25 37  1  0  0  0  0
 48 50  1  0  0  0  0
  7 12  1  0  0  0  0
 38 43  1  0  0  0  0
 17 26  1  0  0  0  0
M  END
$$$$

  -OEChem-05262214473D

 53 52  0     1  0  0  0  0  0999 V2000
   -1.0338   -5.6785    0.1476 C   0  0  0  0  0  0  0  0  0  0  0  0
   -2.0514   -5.7797    0.8227 O   0  0  0  0  0  0  0  0  0  0  0  0
   -0.6558   -6.7819   -0.7841 C   0  0  0  0  0  0  0  0  0  0  0  0
   -0.0111   -7.5354   -0.3038 H   0  0  0  0  0  0  0  0  0  0  0  0
   -1.5317   -7.3401   -1.1520 H   0  0  0  0  0  0  0  0  0  0  0  0
   -0.1109   -6.4687   -1.6890 H   0  0  0  0  0  0  0  0  0  0  0  0
   -0.1543   -4.6083    0.1480 N   0  0  0  0  0  0  0  0  0  0  0  0
   -0.3302   -3.4398    0.9696 C   0  0  2  0  0  0  0  0  0  0  0  0
    0.2328   -2.2439    0.2131 C   0  0  0  0  0  0  0  0  0  0  0  0
    1.2097   -2.3192   -0.5294 O   0  0  0  0  0  0  0  0  0  0  0  0
    0.3557   -3.6024    2.3171 C   0  0  0  0  0  0  0  0  0  0  0  0
    0.6584   -4.6506   -0.4643 H   0  0  0  0  0  0  0  0  0  0  0  0
   -1.4091   -3.3101    1.1082 H   0  0  0  0  0  0  0  0  0  0  0  0
    1.4375   -3.7336    2.1985 H   0  0  0  0  0  0  0  0  0  0  0  0
    0.1969   -2.7243    2.9517 H   0  0  0  0  0  0  0  0  0  0  0  0
   -0.0294   -4.4803    2.8470 H   0  0  0  0  0  0  0  0  0  0  0  0
   -0.4616   -1.0893    0.5050 N   0  0  0  0  0  0  0  0  0  0  0  0
   -0.0884    0.2050   -0.0621 C   0  0  2  0  0  0  0  0  0  0  0  0
   -1.2806    0.7195   -0.8638 C   0  0  0  0  0  0  0  0  0  0  0  0
   -2.0263    1.6093   -0.4593 O   0  0  0  0  0  0  0  0  0  0  0  0
    1.1396    0.1060   -0.9795 C   0  0  0  0  0  0  0  0  0  0  0  0
    2.4332   -0.2291   -0.2299 C   0  0  0  0  0  0  0  0  0  0  0  0
    3.6274   -0.2913   -1.1861 C   0  0  0  0  0  0  0  0  0  0  0  0
    4.9127   -0.6496   -0.4420 C   0  0  0  0  0  0  0  0  0  0  0  0
    6.0320   -0.7267   -1.3731 N   0  0  0  0  0  0  0  0  0  0  0  0
   -1.2794   -1.1113    1.0935 H   0  0  0  0  0  0  0  0  0  0  0  0
    0.1165    0.9000    0.7611 H   0  0  0  0  0  0  0  0  0  0  0  0
    1.2727    1.0604   -1.5058 H   0  0  0  0  0  0  0  0  0  0  0  0
    0.9628   -0.6455   -1.7609 H   0  0  0  0  0  0  0  0  0  0  0  0
    2.3345   -1.1930    0.2820 H   0  0  0  0  0  0  0  0  0  0  0  0
    2.6188    0.5309    0.5385 H   0  0  0  0  0  0  0  0  0  0  0  0
    3.4297   -1.0354   -1.9679 H   0  0  0  0  0  0  0  0  0  0  0  0
    3.7466    0.6784   -1.6859 H   0  0  0  0  0  0  0  0  0  0  0  0
    4.7990   -1.6118    0.0693 H   0  0  0  0  0  0  0  0  0  0  0  0
    5.1320    0.1081    0.3177 H   0  0  0  0  0  0  0  0  0  0  0  0
    5.6906   -0.5479   -2.2885 H   0  0  0  0  0  0  0  0  0  0  0  0
    6.7037   -0.0434   -1.1114 H   0  0  0  0  0  0  0  0  0  0  0  0
   -1.4246    0.0520   -2.0723 N   0  0  0  0  0  0  0  0  0  0  0  0
   -2.4876    0.3321   -3.0106 C   0  0  2  0  0  0  0  0  0  0  0  0
   -2.8403   -0.9669   -3.7232 C   0  0  0  0  0  0  0  0  0  0  0  0
   -2.0090   -1.8315   -3.9923 O   0  0  0  0  0  0  0  0  0  0  0  0
   -2.0774    1.4048   -4.0074 C   0  0  0  0  0  0  0  0  0  0  0  0
   -0.7525   -0.6654   -2.3278 H   0  0  0  0  0  0  0  0  0  0  0  0
   -3.3471    0.6718   -2.4225 H   0  0  0  0  0  0  0  0  0  0  0  0
   -1.2175    1.0825   -4.6059 H   0  0  0  0  0  0  0  0  0  0  0  0
   -2.8937    1.6362   -4.6996 H   0  0  0  0  0  0  0  0  0  0  0  0
   -1.7955    2.3290   -3.4914 H   0  0  0  0  0  0  0  0  0  0  0  0
   -4.1849   -1.0280   -4.0616 N   0  0  0  0  0  0  0  0  0  0  0  0
   -4.7577   -2.1410   -4.7821 C   0  0  0  0  0  0  0  0  0  0  0  0
   -4.8095   -0.2845   -3.7635 H   0  0  0  0  0  0  0  0  0  0  0  0
   -4.7404   -1.9279   -5.8611 H   0  0  0  0  0  0  0  0  0  0  0  0
   -4.1722   -3.0497   -4.5785 H   0  0  0  0  0  0  0  0  0  0  0  0
   -5.7969   -2.2934   -4.4552 H   0  0  0  0  0  0  0  0  0  0  0  0
  1  3  1  0  0  0  0
  1  7  1  0  0  0  0
  1  2  2  0  0  0  0
 39 40  1  0  0  0  0
 40 48  1  0  0  0  0
 40 41  2  0  0  0  0
  8  9  1  0  0  0  0
  9 17  1  0  0  0  0
  9 10  2  0  0  0  0
 18 19  1  0  0  0  0
 19 38  1  0  0  0  0
 19 20  2  0  0  0  0
 39 42  1  0  0  0  0
  8 11  1  0  0  0  0
 48 49  1  0  0  0  0
 22 23  1  0  0  0  0
 21 22  1  0  0  0  0
 23 24  1  0  0  0  0
 18 21  1  0  0  0  0
 24 25  1  0  0  0  0
 38 39  1  0  0  0  0
  7  8  1  0  0  0  0
 17 18  1  0  0  0  0
  3  4  1  0  0  0  0
  3  5  1  0  0  0  0
  3  6  1  0  0  0  0
 42 45  1  0  0  0  0
 42 46  1  0  0  0  0
 42 47  1  0  0  0  0
 11 14  1  0  0  0  0
 11 15  1  0  0  0  0
 11 16  1  0  0  0  0
 49 51  1  0  0  0  0
 49 52  1  0  0  0  0
 49 53  1  0  0  0  0
 22 30  1  0  0  0  0
 22 31  1  0  0  0  0
 23 32  1  0  0  0  0
 23 33  1  0  0  0  0
 21 28  1  0  0  0  0
 21 29  1  0  0  0  0
 24 34  1  0  0  0  0
 24 35  1  0  0  0  0
 39 44  1  0  0  0  0
  8 13  1  0  0  0  0
 18 27  1  0  0  0  0
 25 36  1  0  0  0  0
 25 37  1  0  0  0  0
 48 50  1  0  0  0  0
  7 12  1  0  0  0  0
 38 43  1  0  0  0  0
 17 26  1  0  0  0  0
M  END
$$$$

  -OEChem-05262214473D

 53 52  0     1  0  0  0  0  0999 V2000
   -1.0338   -5.6785    0.1476 C   0  0  0  0  0  0  0  0  0  0  0  0
   -2.0514   -5.7797    0.8227 O   0  0  0  0  0  0  0  0  0  0  0  0
   -0.6558   -6.7819   -0.7841 C   0  0  0  0  0  0  0  0  0  0  0  0
   -0.0111   -7.5354   -0.3038 H   0  0  0  0  0  0  0  0  0  0  0  0
   -1.5317   -7.3401   -1.1520 H   0  0  0  0  0  0  0  0  0  0  0  0
   -0.1109   -6.4687   -1.6890 H   0  0  0  0  0  0  0  0  0  0  0  0
   -0.1543   -4.6083    0.1480 N   0  0  0  0  0  0  0  0  0  0  0  0
   -0.3302   -3.4398    0.9696 C   0  0  2  0  0  0  0  0  0  0  0  0
    0.2328   -2.2439    0.2131 C   0  0  0  0  0  0  0  0  0  0  0  0
    1.2097   -2.3192   -0.5294 O   0  0  0  0  0  0  0  0  0  0  0  0
    0.3557   -3.6024    2.3171 C   0  0  0  0  0  0  0  0  0  0  0  0
    0.6584   -4.6506   -0.4643 H   0  0  0  0  0  0  0  0  0  0  0  0
   -1.4091   -3.3101    1.1082 H   0  0  0  0  0  0  0  0  0  0  0  0
    1.4375   -3.7336    2.1985 H   0  0  0  0  0  0  0  0  0  0  0  0
    0.1969   -2.7243    2.9517 H   0  0  0  0  0  0  0  0  0  0  0  0
   -0.0294   -4.4803    2.8470 H   0  0  0  0  0  0  0  0  0  0  0  0
   -0.4616   -1.0893    0.5050 N   0  0  0  0  0  0  0  0  0  0  0  0
   -0.0884    0.2050   -0.0621 C   0  0  2  0  0  0  0  0  0  0  0  0
   -1.2806    0.7195   -0.8638 C   0  0  0  0  0  0  0  0  0  0  0  0
   -1.8625    1.7698   -0.6000 O   0  0  0  0  0  0  0  0  0  0  0  0
    1.1396    0.1060   -0.9795 C   0  0  0  0  0  0  0  0  0  0  0  0
    2.4332   -0.2291   -0.2299 C   0  0  0  0  0  0  0  0  0  0  0  0
    3.6274   -0.2913   -1.1861 C   0  0  0  0  0  0  0  0  0  0  0  0
    4.9127   -0.6496   -0.4420 C   0  0  0  0  0  0  0  0  0  0  0  0
    6.0320   -0.7267   -1.3731 N   0  0  0  0  0  0  0  0  0  0  0  0
   -1.2794   -1.1113    1.0935 H   0  0  0  0  0  0  0  0  0  0  0  0
    0.1165    0.9000    0.7611 H   0  0  0  0  0  0  0  0  0  0  0  0
    1.2727    1.0604   -1.5058 H   0  0  0  0  0  0  0  0  0  0  0  0
    0.9628   -0.6455   -1.7609 H   0  0  0  0  0  0  0  0  0  0  0  0
    2.3345   -1.1930    0.2820 H   0  0  0  0  0  0  0  0  0  0  0  0
    2.6188    0.5309    0.5385 H   0  0  0  0  0  0  0  0  0  0  0  0
    3.4297   -1.0354   -1.9679 H   0  0  0  0  0  0  0  0  0  0  0  0
    3.7466    0.6784   -1.6859 H   0  0  0  0  0  0  0  0  0  0  0  0
    4.7990   -1.6118    0.0693 H   0  0  0  0  0  0  0  0  0  0  0  0
    5.1320    0.1081    0.3177 H   0  0  0  0  0  0  0  0  0  0  0  0
    5.6906   -0.5479   -2.2885 H   0  0  0  0  0  0  0  0  0  0  0  0
    6.7037   -0.0434   -1.1114 H   0  0  0  0  0  0  0  0  0  0  0  0
   -1.6298   -0.1441   -1.8930 N   0  0  0  0  0  0  0  0  0  0  0  0
   -2.7381    0.0976   -2.7885 C   0  0  2  0  0  0  0  0  0  0  0  0
   -3.3232   -1.2508   -3.1872 C   0  0  0  0  0  0  0  0  0  0  0  0
   -2.6400   -2.2625   -3.3306 O   0  0  0  0  0  0  0  0  0  0  0  0
   -2.2980    0.8829   -4.0142 C   0  0  0  0  0  0  0  0  0  0  0  0
   -1.0836   -0.9873   -2.0420 H   0  0  0  0  0  0  0  0  0  0  0  0
   -3.4835    0.6670   -2.2227 H   0  0  0  0  0  0  0  0  0  0  0  0
   -1.5510    0.3283   -4.5938 H   0  0  0  0  0  0  0  0  0  0  0  0
   -3.1441    1.0899   -4.6777 H   0  0  0  0  0  0  0  0  0  0  0  0
   -1.8502    1.8396   -3.7241 H   0  0  0  0  0  0  0  0  0  0  0  0
   -4.6920   -1.1815   -3.4061 N   0  0  0  0  0  0  0  0  0  0  0  0
   -5.4715   -2.3192   -3.8350 C   0  0  0  0  0  0  0  0  0  0  0  0
   -5.1837   -0.3115   -3.2244 H   0  0  0  0  0  0  0  0  0  0  0  0
   -5.5366   -2.3268   -4.9331 H   0  0  0  0  0  0  0  0  0  0  0  0
   -4.9886   -3.2454   -3.4901 H   0  0  0  0  0  0  0  0  0  0  0  0
   -6.4831   -2.2523   -3.4083 H   0  0  0  0  0  0  0  0  0  0  0  0
  1  3  1  0  0  0  0
  1  7  1  0  0  0  0
  1  2  2  0  0  0  0
 39 40  1  0  0  0  0
 40 48  1  0  0  0  0
 40 41  2  0  0  0  0
  8  9  1  0  0  0  0
  9 17  1  0  0  0  0
  9 10  2  0  0  0  0
 18 19  1  0  0  0  0
 19 38  1  0  0  0  0
 19 20  2  0  0  0  0
 39 42  1  0  0  0  0
  8 11  1  0  0  0  0
 48 49  1  0  0  0  0
 22 23  1  0  0  0  0
 21 22  1  0  0  0  0
 23 24  1  0  0  0  0
 18 21  1  0  0  0  0
 24 25  1  0  0  0  0
 38 39  1  0  0  0  0
  7  8  1  0  0  0  0
 17 18  1  0  0  0  0
  3  4  1  0  0  0  0
  3  5  1  0  0  0  0
  3  6  1  0  0  0  0
 42 45  1  0  0  0  0
 42 46  1  0  0  0  0
 42 47  1  0  0  0  0
 11 14  1  0  0  0  0
 11 15  1  0  0  0  0
 11 16  1  0  0  0  0
 49 51  1  0  0  0  0
 49 52  1  0  0  0  0
 49 53  1  0  0  0  0
 22 30  1  0  0  0  0
 22 31  1  0  0  0  0
 23 32  1  0  0  0  0
 23 33  1  0  0  0  0
 21 28  1  0  0  0  0
 21 29  1  0  0  0  0
 24 34  1  0  0  0  0
 24 35  1  0  0  0  0
 39 44  1  0  0  0  0
  8 13  1  0  0  0  0
 18 27  1  0  0  0  0
 25 36  1  0  0  0  0
 25 37  1  0  0  0  0
 48 50  1  0  0  0  0
  7 12  1  0  0  0  0
 38 43  1  0  0  0  0
 17 26  1  0  0  0  0
M  END
$$$$

  -OEChem-05262214473D

 53 52  0     1  0  0  0  0  0999 V2000
   -1.0338   -5.6785    0.1476 C   0  0  0  0  0  0  0  0  0  0  0  0
   -2.0514   -5.7797    0.8227 O   0  0  0  0  0  0  0  0  0  0  0  0
   -0.6558   -6.7819   -0.7841 C   0  0  0  0  0  0  0  0  0  0  0  0
   -0.0111   -7.5354   -0.3038 H   0  0  0  0  0  0  0  0  0  0  0  0
   -1.5317   -7.3401   -1.1520 H   0  0  0  0  0  0  0  0  0  0  0  0
   -0.1109   -6.4687   -1.6890 H   0  0  0  0  0  0  0  0  0  0  0  0
   -0.1543   -4.6083    0.1480 N   0  0  0  0  0  0  0  0  0  0  0  0
   -0.3302   -3.4398    0.9696 C   0  0  2  0  0  0  0  0  0  0  0  0
    0.2328   -2.2439    0.2131 C   0  0  0  0  0  0  0  0  0  0  0  0
    1.2097   -2.3192   -0.5294 O   0  0  0  0  0  0  0  0  0  0  0  0
    0.3557   -3.6024    2.3171 C   0  0  0  0  0  0  0  0  0  0  0  0
    0.6584   -4.6506   -0.4643 H   0  0  0  0  0  0  0  0  0  0  0  0
   -1.4091   -3.3101    1.1082 H   0  0  0  0  0  0  0  0  0  0  0  0
    1.4375   -3.7336    2.1985 H   0  0  0  0  0  0  0  0  0  0  0  0
    0.1969   -2.7243    2.9517 H   0  0  0  0  0  0  0  0  0  0  0  0
   -0.0294   -4.4803    2.8470 H   0  0  0  0  0  0  0  0  0  0  0  0
   -0.4616   -1.0893    0.5050 N   0  0  0  0  0  0  0  0  0  0  0  0
   -0.0884    0.2050   -0.0621 C   0  0  2  0  0  0  0  0  0  0  0  0
   -1.2806    0.7195   -0.8638 C   0  0  0  0  0  0  0  0  0  0  0  0
   -1.6947    1.8742   -0.7826 O   0  0  0  0  0  0  0  0  0  0  0  0
    1.1396    0.1060   -0.9795 C   0  0  0  0  0  0  0  0  0  0  0  0
    2.4332   -0.2291   -0.2299 C   0  0  0  0  0  0  0  0  0  0  0  0
    3.6274   -0.2913   -1.1861 C   0  0  0  0  0  0  0  0  0  0  0  0
    4.9127   -0.6496   -0.4420 C   0  0  0  0  0  0  0  0  0  0  0  0
    6.0320   -0.7267   -1.3731 N   0  0  0  0  0  0  0  0  0  0  0  0
   -1.2794   -1.1113    1.0935 H   0  0  0  0  0  0  0  0  0  0  0  0
    0.1165    0.9000    0.7611 H   0  0  0  0  0  0  0  0  0  0  0  0
    1.2727    1.0604   -1.5058 H   0  0  0  0  0  0  0  0  0  0  0  0
    0.9628   -0.6455   -1.7609 H   0  0  0  0  0  0  0  0  0  0  0  0
    2.3345   -1.1930    0.2820 H   0  0  0  0  0  0  0  0  0  0  0  0
    2.6188    0.5309    0.5385 H   0  0  0  0  0  0  0  0  0  0  0  0
    3.4297   -1.0354   -1.9679 H   0  0  0  0  0  0  0  0  0  0  0  0
    3.7466    0.6784   -1.6859 H   0  0  0  0  0  0  0  0  0  0  0  0
    4.7990   -1.6118    0.0693 H   0  0  0  0  0  0  0  0  0  0  0  0
    5.1320    0.1081    0.3177 H   0  0  0  0  0  0  0  0  0  0  0  0
    5.6906   -0.5479   -2.2885 H   0  0  0  0  0  0  0  0  0  0  0  0
    6.7037   -0.0434   -1.1114 H   0  0  0  0  0  0  0  0  0  0  0  0
   -1.8390   -0.2692   -1.6622 N   0  0  0  0  0  0  0  0  0  0  0  0
   -2.9925   -0.0499   -2.5048 C   0  0  2  0  0  0  0  0  0  0  0  0
   -3.7816   -1.3509   -2.5700 C   0  0  0  0  0  0  0  0  0  0  0  0
   -3.2504   -2.4593   -2.5492 O   0  0  0  0  0  0  0  0  0  0  0  0
   -2.5826    0.4075   -3.8960 C   0  0  0  0  0  0  0  0  0  0  0  0
   -1.4222   -1.1954   -1.6720 H   0  0  0  0  0  0  0  0  0  0  0  0
   -3.5985    0.7213   -2.0169 H   0  0  0  0  0  0  0  0  0  0  0  0
   -1.9747   -0.3524   -4.4005 H   0  0  0  0  0  0  0  0  0  0  0  0
   -3.4584    0.6007   -4.5242 H   0  0  0  0  0  0  0  0  0  0  0  0
   -1.9900    1.3272   -3.8450 H   0  0  0  0  0  0  0  0  0  0  0  0
   -5.1455   -1.1283   -2.6976 N   0  0  0  0  0  0  0  0  0  0  0  0
   -6.1025   -2.2028   -2.8219 C   0  0  0  0  0  0  0  0  0  0  0  0
   -5.5018   -0.1776   -2.6655 H   0  0  0  0  0  0  0  0  0  0  0  0
   -6.2789   -2.4161   -3.8865 H   0  0  0  0  0  0  0  0  0  0  0  0
   -5.7088   -3.1034   -2.3280 H   0  0  0  0  0  0  0  0  0  0  0  0
   -7.0491   -1.9076   -2.3455 H   0  0  0  0  0  0  0  0  0  0  0  0
  1  3  1  0  0  0  0
  1  7  1  0  0  0  0
  1  2  2  0  0  0  0
 39 40  1  0  0  0  0
 40 48  1  0  0  0  0
 40 41  2  0  0  0  0
  8  9  1  0  0  0  0
  9 17  1  0  0  0  0
  9 10  2  0  0  0  0
 18 19  1  0  0  0  0
 19 38  1  0  0  0  0
 19 20  2  0  0  0  0
 39 42  1  0  0  0  0
  8 11  1  0  0  0  0
 48 49  1  0  0  0  0
 22 23  1  0  0  0  0
 21 22  1  0  0  0  0
 23 24  1  0  0  0  0
 18 21  1  0  0  0  0
 24 25  1  0  0  0  0
 38 39  1  0  0  0  0
  7  8  1  0  0  0  0
 17 18  1  0  0  0  0
  3  4  1  0  0  0  0
  3  5  1  0  0  0  0
  3  6  1  0  0  0  0
 42 45  1  0  0  0  0
 42 46  1  0  0  0  0
 42 47  1  0  0  0  0
 11 14  1  0  0  0  0
 11 15  1  0  0  0  0
 11 16  1  0  0  0  0
 49 51  1  0  0  0  0
 49 52  1  0  0  0  0
 49 53  1  0  0  0  0
 22 30  1  0  0  0  0
 22 31  1  0  0  0  0
 23 32  1  0  0  0  0
 23 33  1  0  0  0  0
 21 28  1  0  0  0  0
 21 29  1  0  0  0  0
 24 34  1  0  0  0  0
 24 35  1  0  0  0  0
 39 44  1  0  0  0  0
  8 13  1  0  0  0  0
 18 27  1  0  0  0  0
 25 36  1  0  0  0  0
 25 37  1  0  0  0  0
 48 50  1  0  0  0  0
  7 12  1  0  0  0  0
 38 43  1  0  0  0  0
 17 26  1  0  0  0  0
M  END
$$$$

  -OEChem-05262214473D

 53 52  0     1  0  0  0  0  0999 V2000
   -1.0338   -5.6785    0.1476 C   0  0  0  0  0  0  0  0  0  0  0  0
   -2.0514   -5.7797    0.8227 O   0  0  0  0  0  0  0  0  0  0  0  0
   -0.6558   -6.7819   -0.7841 C   0  0  0  0  0  0  0  0  0  0  0  0
   -0.0111   -7.5354   -0.3038 H   0  0  0  0  0  0  0  0  0  0  0  0
   -1.5317   -7.3401   -1.1520 H   0  0  0  0  0  0  0  0  0  0  0  0
   -0.1109   -6.4687   -1.6890 H   0  0  0  0  0  0  0  0  0  0  0  0
   -0.1543   -4.6083    0.1480 N   0  0  0  0  0  0  0  0  0  0  0  0
   -0.3302   -3.4398    0.9696 C   0  0  2  0  0  0  0  0  0  0  0  0
    0.2328   -2.2439    0.2131 C   0  0  0  0  0  0  0  0  0  0  0  0
    1.2097   -2.3192   -0.5294 O   0  0  0  0  0  0  0  0  0  0  0  0
    0.3557   -3.6024    2.3171 C   0  0  0  0  0  0  0  0  0  0  0  0
    0.6584   -4.6506   -0.4643 H   0  0  0  0  0  0  0  0  0  0  0  0
   -1.4091   -3.3101    1.1082 H   0  0  0  0  0  0  0  0  0  0  0  0
    1.4375   -3.7336    2.1985 H   0  0  0  0  0  0  0  0  0  0  0  0
    0.1969   -2.7243    2.9517 H   0  0  0  0  0  0  0  0  0  0  0  0
   -0.0294   -4.4803    2.8470 H   0  0  0  0  0  0  0  0  0  0  0  0
   -0.4616   -1.0893    0.5050 N   0  0  0  0  0  0  0  0  0  0  0  0
   -0.0884    0.2050   -0.0621 C   0  0  2  0  0  0  0  0  0  0  0  0
   -1.2806    0.7195   -0.8638 C   0  0  0  0  0  0  0  0  0  0  0  0
   -1.5343    1.9153   -0.9947 O   0  0  0  0  0  0  0  0  0  0  0  0
    1.1396    0.1060   -0.9795 C   0  0  0  0  0  0  0  0  0  0  0  0
    2.4332   -0.2291   -0.2299 C   0  0  0  0  0  0  0  0  0  0  0  0
    3.6274   -0.2913   -1.1861 C   0  0  0  0  0  0  0  0  0  0  0  0
    4.9127   -0.6496   -0.4420 C   0  0  0  0  0  0  0  0  0  0  0  0
    6.0320   -0.7267   -1.3731 N   0  0  0  0  0  0  0  0  0  0  0  0
   -1.2794   -1.1113    1.0935 H   0  0  0  0  0  0  0  0  0  0  0  0
    0.1165    0.9000    0.7611 H   0  0  0  0  0  0  0  0  0  0  0  0
    1.2727    1.0604   -1.5058 H   0  0  0  0  0  0  0  0  0  0  0  0
    0.9628   -0.6455   -1.7609 H   0  0  0  0  0  0  0  0  0  0  0  0
    2.3345   -1.1930    0.2820 H   0  0  0  0  0  0  0  0  0  0  0  0
    2.6188    0.5309    0.5385 H   0  0  0  0  0  0  0  0  0  0  0  0
    3.4297   -1.0354   -1.9679 H   0  0  0  0  0  0  0  0  0  0  0  0
    3.7466    0.6784   -1.6859 H   0  0  0  0  0  0  0  0  0  0  0  0
    4.7990   -1.6118    0.0693 H   0  0  0  0  0  0  0  0  0  0  0  0
    5.1320    0.1081    0.3177 H   0  0  0  0  0  0  0  0  0  0  0  0
    5.6906   -0.5479   -2.2885 H   0  0  0  0  0  0  0  0  0  0  0  0
    6.7037   -0.0434   -1.1114 H   0  0  0  0  0  0  0  0  0  0  0  0
   -2.0380   -0.3151   -1.3957 N   0  0  0  0  0  0  0  0  0  0  0  0
   -3.2337   -0.1004   -2.1787 C   0  0  2  0  0  0  0  0  0  0  0  0
   -4.1840   -1.2606   -1.9135 C   0  0  0  0  0  0  0  0  0  0  0  0
   -3.7986   -2.4084   -1.7013 O   0  0  0  0  0  0  0  0  0  0  0  0
   -2.9119    0.0108   -3.6608 C   0  0  0  0  0  0  0  0  0  0  0  0
   -1.7454   -1.2756   -1.2429 H   0  0  0  0  0  0  0  0  0  0  0  0
   -3.6842    0.8311   -1.8190 H   0  0  0  0  0  0  0  0  0  0  0  0
   -2.4597   -0.9132   -4.0392 H   0  0  0  0  0  0  0  0  0  0  0  0
   -3.8152    0.2019   -4.2496 H   0  0  0  0  0  0  0  0  0  0  0  0
   -2.2052    0.8269   -3.8461 H   0  0  0  0  0  0  0  0  0  0  0  0
   -5.5145   -0.8720   -1.9844 N   0  0  0  0  0  0  0  0  0  0  0  0
   -6.6079   -1.7997   -1.8118 C   0  0  0  0  0  0  0  0  0  0  0  0
   -5.7420    0.1079   -2.1250 H   0  0  0  0  0  0  0  0  0  0  0  0
   -6.9168   -2.1898   -2.7928 H   0  0  0  0  0  0  0  0  0  0  0  0
   -6.2837   -2.6333   -1.1714 H   0  0  0  0  0  0  0  0  0  0  0  0
   -7.4561   -1.2828   -1.3393 H   0  0  0  0  0  0  0  0  0  0  0  0
  1  3  1  0  0  0  0
  1  7  1  0  0  0  0
  1  2  2  0  0  0  0
 39 40  1  0  0  0  0
 40 48  1  0  0  0  0
 40 41  2  0  0  0  0
  8  9  1  0  0  0  0
  9 17  1  0  0  0  0
  9 10  2  0  0  0  0
 18 19  1  0  0  0  0
 19 38  1  0  0  0  0
 19 20  2  0  0  0  0
 39 42  1  0  0  0  0
  8 11  1  0  0  0  0
 48 49  1  0  0  0  0
 22 23  1  0  0  0  0
 21 22  1  0  0  0  0
 23 24  1  0  0  0  0
 18 21  1  0  0  0  0
 24 25  1  0  0  0  0
 38 39  1  0  0  0  0
  7  8  1  0  0  0  0
 17 18  1  0  0  0  0
  3  4  1  0  0  0  0
  3  5  1  0  0  0  0
  3  6  1  0  0  0  0
 42 45  1  0  0  0  0
 42 46  1  0  0  0  0
 42 47  1  0  0  0  0
 11 14  1  0  0  0  0
 11 15  1  0  0  0  0
 11 16  1  0  0  0  0
 49 51  1  0  0  0  0
 49 52  1  0  0  0  0
 49 53  1  0  0  0  0
 22 30  1  0  0  0  0
 22 31  1  0  0  0  0
 23 32  1  0  0  0  0
 23 33  1  0  0  0  0
 21 28  1  0  0  0  0
 21 29  1  0  0  0  0
 24 34  1  0  0  0  0
 24 35  1  0  0  0  0
 39 44  1  0  0  0  0
  8 13  1  0  0  0  0
 18 27  1  0  0  0  0
 25 36  1  0  0  0  0
 25 37  1  0  0  0  0
 48 50  1  0  0  0  0
  7 12  1  0  0  0  0
 38 43  1  0  0  0  0
 17 26  1  0  0  0  0
M  END
$$$$

  -OEChem-05262214473D

 53 52  0     1  0  0  0  0  0999 V2000
   -1.0338   -5.6785    0.1476 C   0  0  0  0  0  0  0  0  0  0  0  0
   -2.0514   -5.7797    0.8227 O   0  0  0  0  0  0  0  0  0  0  0  0
   -0.6558   -6.7819   -0.7841 C   0  0  0  0  0  0  0  0  0  0  0  0
   -0.0111   -7.5354   -0.3038 H   0  0  0  0  0  0  0  0  0  0  0  0
   -1.5317   -7.3401   -1.1520 H   0  0  0  0  0  0  0  0  0  0  0  0
   -0.1109   -6.4687   -1.6890 H   0  0  0  0  0  0  0  0  0  0  0  0
   -0.1543   -4.6083    0.1480 N   0  0  0  0  0  0  0  0  0  0  0  0
   -0.3302   -3.4398    0.9696 C   0  0  2  0  0  0  0  0  0  0  0  0
    0.2328   -2.2439    0.2131 C   0  0  0  0  0  0  0  0  0  0  0  0
    1.2097   -2.3192   -0.5294 O   0  0  0  0  0  0  0  0  0  0  0  0
    0.3557   -3.6024    2.3171 C   0  0  0  0  0  0  0  0  0  0  0  0
    0.6584   -4.6506   -0.4643 H   0  0  0  0  0  0  0  0  0  0  0  0
   -1.4091   -3.3101    1.1082 H   0  0  0  0  0  0  0  0  0  0  0  0
    1.4375   -3.7336    2.1985 H   0  0  0  0  0  0  0  0  0  0  0  0
    0.1969   -2.7243    2.9517 H   0  0  0  0  0  0  0  0  0  0  0  0
   -0.0294   -4.4803    2.8470 H   0  0  0  0  0  0  0  0  0  0  0  0
   -0.4616   -1.0893    0.5050 N   0  0  0  0  0  0  0  0  0  0  0  0
   -0.0884    0.2050   -0.0621 C   0  0  2  0  0  0  0  0  0  0  0  0
   -1.2806    0.7195   -0.8638 C   0  0  0  0  0  0  0  0  0  0  0  0
   -1.3923    1.8903   -1.2219 O   0  0  0  0  0  0  0  0  0  0  0  0
    1.1396    0.1060   -0.9795 C   0  0  0  0  0  0  0  0  0  0  0  0
    2.4332   -0.2291   -0.2299 C   0  0  0  0  0  0  0  0  0  0  0  0
    3.6274   -0.2913   -1.1861 C   0  0  0  0  0  0  0  0  0  0  0  0
    4.9127   -0.6496   -0.4420 C   0  0  0  0  0  0  0  0  0  0  0  0
    6.0320   -0.7267   -1.3731 N   0  0  0  0  0  0  0  0  0  0  0  0
   -1.2794   -1.1113    1.0935 H   0  0  0  0  0  0  0  0  0  0  0  0
    0.1165    0.9000    0.7611 H   0  0  0  0  0  0  0  0  0  0  0  0
    1.2727    1.0604   -1.5058 H   0  0  0  0  0  0  0  0  0  0  0  0
    0.9628   -0.6455   -1.7609 H   0  0  0  0  0  0  0  0  0  0  0  0
    2.3345   -1.1930    0.2820 H   0  0  0  0  0  0  0  0  0  0  0  0
    2.6188    0.5309    0.5385 H   0  0  0  0  0  0  0  0  0  0  0  0
    3.4297   -1.0354   -1.9679 H   0  0  0  0  0  0  0  0  0  0  0  0
    3.7466    0.6784   -1.6859 H   0  0  0  0  0  0  0  0  0  0  0  0
    4.7990   -1.6118    0.0693 H   0  0  0  0  0  0  0  0  0  0  0  0
    5.1320    0.1081    0.3177 H   0  0  0  0  0  0  0  0  0  0  0  0
    5.6906   -0.5479   -2.2885 H   0  0  0  0  0  0  0  0  0  0  0  0
    6.7037   -0.0434   -1.1114 H   0  0  0  0  0  0  0  0  0  0  0  0
   -2.2131   -0.2784   -1.1117 N   0  0  0  0  0  0  0  0  0  0  0  0
   -3.4450   -0.0505   -1.8324 C   0  0  2  0  0  0  0  0  0  0  0  0
   -4.5032   -0.9858   -1.2626 C   0  0  0  0  0  0  0  0  0  0  0  0
   -4.2472   -2.1132   -0.8449 O   0  0  0  0  0  0  0  0  0  0  0  0
   -3.2634   -0.2800   -3.3247 C   0  0  0  0  0  0  0  0  0  0  0  0
   -2.0309   -1.2223   -0.7841 H   0  0  0  0  0  0  0  0  0  0  0  0
   -3.7348    0.9887   -1.6426 H   0  0  0  0  0  0  0  0  0  0  0  0
   -2.9728   -1.3158   -3.5345 H   0  0  0  0  0  0  0  0  0  0  0  0
   -4.1900   -0.0793   -3.8726 H   0  0  0  0  0  0  0  0  0  0  0  0
   -2.4811    0.3726   -3.7271 H   0  0  0  0  0  0  0  0  0  0  0  0
   -5.7738   -0.4301   -1.3151 N   0  0  0  0  0  0  0  0  0  0  0  0
   -6.9531   -1.1374   -0.8735 C   0  0  0  0  0  0  0  0  0  0  0  0
   -5.8882    0.5256   -1.6397 H   0  0  0  0  0  0  0  0  0  0  0  0
   -7.4067   -1.6634   -1.7265 H   0  0  0  0  0  0  0  0  0  0  0  0
   -6.6742   -1.8672   -0.0991 H   0  0  0  0  0  0  0  0  0  0  0  0
   -7.6765   -0.4204   -0.4582 H   0  0  0  0  0  0  0  0  0  0  0  0
  1  3  1  0  0  0  0
  1  7  1  0  0  0  0
  1  2  2  0  0  0  0
 39 40  1  0  0  0  0
 40 48  1  0  0  0  0
 40 41  2  0  0  0  0
  8  9  1  0  0  0  0
  9 17  1  0  0  0  0
  9 10  2  0  0  0  0
 18 19  1  0  0  0  0
 19 38  1  0  0  0  0
 19 20  2  0  0  0  0
 39 42  1  0  0  0  0
  8 11  1  0  0  0  0
 48 49  1  0  0  0  0
 22 23  1  0  0  0  0
 21 22  1  0  0  0  0
 23 24  1  0  0  0  0
 18 21  1  0  0  0  0
 24 25  1  0  0  0  0
 38 39  1  0  0  0  0
  7  8  1  0  0  0  0
 17 18  1  0  0  0  0
  3  4  1  0  0  0  0
  3  5  1  0  0  0  0
  3  6  1  0  0  0  0
 42 45  1  0  0  0  0
 42 46  1  0  0  0  0
 42 47  1  0  0  0  0
 11 14  1  0  0  0  0
 11 15  1  0  0  0  0
 11 16  1  0  0  0  0
 49 51  1  0  0  0  0
 49 52  1  0  0  0  0
 49 53  1  0  0  0  0
 22 30  1  0  0  0  0
 22 31  1  0  0  0  0
 23 32  1  0  0  0  0
 23 33  1  0  0  0  0
 21 28  1  0  0  0  0
 21 29  1  0  0  0  0
 24 34  1  0  0  0  0
 24 35  1  0  0  0  0
 39 44  1  0  0  0  0
  8 13  1  0  0  0  0
 18 27  1  0  0  0  0
 25 36  1  0  0  0  0
 25 37  1  0  0  0  0
 48 50  1  0  0  0  0
  7 12  1  0  0  0  0
 38 43  1  0  0  0  0
 17 26  1  0  0  0  0
M  END
$$$$

  -OEChem-05262214473D

 53 52  0     1  0  0  0  0  0999 V2000
   -1.0338   -5.6785    0.1476 C   0  0  0  0  0  0  0  0  0  0  0  0
   -2.0514   -5.7797    0.8227 O   0  0  0  0  0  0  0  0  0  0  0  0
   -0.6558   -6.7819   -0.7841 C   0  0  0  0  0  0  0  0  0  0  0  0
   -0.0111   -7.5354   -0.3038 H   0  0  0  0  0  0  0  0  0  0  0  0
   -1.5317   -7.3401   -1.1520 H   0  0  0  0  0  0  0  0  0  0  0  0
   -0.1109   -6.4687   -1.6890 H   0  0  0  0  0  0  0  0  0  0  0  0
   -0.1543   -4.6083    0.1480 N   0  0  0  0  0  0  0  0  0  0  0  0
   -0.3302   -3.4398    0.9696 C   0  0  2  0  0  0  0  0  0  0  0  0
    0.2328   -2.2439    0.2131 C   0  0  0  0  0  0  0  0  0  0  0  0
    1.2097   -2.3192   -0.5294 O   0  0  0  0  0  0  0  0  0  0  0  0
    0.3557   -3.6024    2.3171 C   0  0  0  0  0  0  0  0  0  0  0  0
    0.6584   -4.6506   -0.4643 H   0  0  0  0  0  0  0  0  0  0  0  0
   -1.4091   -3.3101    1.1082 H   0  0  0  0  0  0  0  0  0  0  0  0
    1.4375   -3.7336    2.1985 H   0  0  0  0  0  0  0  0  0  0  0  0
    0.1969   -2.7243    2.9517 H   0  0  0  0  0  0  0  0  0  0  0  0
   -0.0294   -4.4803    2.8470 H   0  0  0  0  0  0  0  0  0  0  0  0
   -0.4616   -1.0893    0.5050 N   0  0  0  0  0  0  0  0  0  0  0  0
   -0.0884    0.2050   -0.0621 C   0  0  2  0  0  0  0  0  0  0  0  0
   -1.2806    0.7195   -0.8638 C   0  0  0  0  0  0  0  0  0  0  0  0
   -1.2783    1.8009   -1.4487 O   0  0  0  0  0  0  0  0  0  0  0  0
    1.1396    0.1060   -0.9795 C   0  0  0  0  0  0  0  0  0  0  0  0
    2.4332   -0.2291   -0.2299 C   0  0  0  0  0  0  0  0  0  0  0  0
    3.6274   -0.2913   -1.1861 C   0  0  0  0  0  0  0  0  0  0  0  0
    4.9127   -0.6496   -0.4420 C   0  0  0  0  0  0  0  0  0  0  0  0
    6.0320   -0.7267   -1.3731 N   0  0  0  0  0  0  0  0  0  0  0  0
   -1.2794   -1.1113    1.0935 H   0  0  0  0  0  0  0  0  0  0  0  0
    0.1165    0.9000    0.7611 H   0  0  0  0  0  0  0  0  0  0  0  0
    1.2727    1.0604   -1.5058 H   0  0  0  0  0  0  0  0  0  0  0  0
    0.9628   -0.6455   -1.7609 H   0  0  0  0  0  0  0  0  0  0  0  0
    2.3345   -1.1930    0.2820 H   0  0  0  0  0  0  0  0  0  0  0  0
    2.6188    0.5309    0.5385 H   0  0  0  0  0  0  0  0  0  0  0  0
    3.4297   -1.0354   -1.9679 H   0  0  0  0  0  0  0  0  0  0  0  0
    3.7466    0.6784   -1.6859 H   0  0  0  0  0  0  0  0  0  0  0  0
    4.7990   -1.6118    0.0693 H   0  0  0  0  0  0  0  0  0  0  0  0
    5.1320    0.1081    0.3177 H   0  0  0  0  0  0  0  0  0  0  0  0
    5.6906   -0.5479   -2.2885 H   0  0  0  0  0  0  0  0  0  0  0  0
    6.7037   -0.0434   -1.1114 H   0  0  0  0  0  0  0  0  0  0  0  0
   -2.3526   -0.1617   -0.8294 N   0  0  0  0  0  0  0  0  0  0  0  0
   -3.6121    0.0965   -1.4896 C   0  0  2  0  0  0  0  0  0  0  0  0
   -4.7174   -0.5454   -0.6615 C   0  0  0  0  0  0  0  0  0  0  0  0
   -4.5656   -1.5940   -0.0381 O   0  0  0  0  0  0  0  0  0  0  0  0
   -3.6132   -0.4451   -2.9106 C   0  0  0  0  0  0  0  0  0  0  0  0
   -2.2595   -1.0393   -0.3267 H   0  0  0  0  0  0  0  0  0  0  0  0
   -3.7469    1.1836   -1.4996 H   0  0  0  0  0  0  0  0  0  0  0  0
   -3.4792   -1.5330   -2.9208 H   0  0  0  0  0  0  0  0  0  0  0  0
   -4.5574   -0.2237   -3.4189 H   0  0  0  0  0  0  0  0  0  0  0  0
   -2.7991   -0.0045   -3.4963 H   0  0  0  0  0  0  0  0  0  0  0  0
   -5.9059    0.1674   -0.7354 N   0  0  0  0  0  0  0  0  0  0  0  0
   -7.1146   -0.2610   -0.0710 C   0  0  0  0  0  0  0  0  0  0  0  0
   -5.9301    1.0472   -1.2426 H   0  0  0  0  0  0  0  0  0  0  0  0
   -7.7153   -0.8727   -0.7602 H   0  0  0  0  0  0  0  0  0  0  0  0
   -6.8537   -0.8572    0.8158 H   0  0  0  0  0  0  0  0  0  0  0  0
   -7.6953    0.6207    0.2377 H   0  0  0  0  0  0  0  0  0  0  0  0
  1  3  1  0  0  0  0
  1  7  1  0  0  0  0
  1  2  2  0  0  0  0
 39 40  1  0  0  0  0
 40 48  1  0  0  0  0
 40 41  2  0  0  0  0
  8  9  1  0  0  0  0
  9 17  1  0  0  0  0
  9 10  2  0  0  0  0
 18 19  1  0  0  0  0
 19 38  1  0  0  0  0
 19 20  2  0  0  0  0
 39 42  1  0  0  0  0
  8 11  1  0  0  0  0
 48 49  1  0  0  0  0
 22 23  1  0  0  0  0
 21 22  1  0  0  0  0
 23 24  1  0  0  0  0
 18 21  1  0  0  0  0
 24 25  1  0  0  0  0
 38 39  1  0  0  0  0
  7  8  1  0  0  0  0
 17 18  1  0  0  0  0
  3  4  1  0  0  0  0
  3  5  1  0  0  0  0
  3  6  1  0  0  0  0
 42 45  1  0  0  0  0
 42 46  1  0  0  0  0
 42 47  1  0  0  0  0
 11 14  1  0  0  0  0
 11 15  1  0  0  0  0
 11 16  1  0  0  0  0
 49 51  1  0  0  0  0
 49 52  1  0  0  0  0
 49 53  1  0  0  0  0
 22 30  1  0  0  0  0
 22 31  1  0  0  0  0
 23 32  1  0  0  0  0
 23 33  1  0  0  0  0
 21 28  1  0  0  0  0
 21 29  1  0  0  0  0
 24 34  1  0  0  0  0
 24 35  1  0  0  0  0
 39 44  1  0  0  0  0
  8 13  1  0  0  0  0
 18 27  1  0  0  0  0
 25 36  1  0  0  0  0
 25 37  1  0  0  0  0
 48 50  1  0  0  0  0
  7 12  1  0  0  0  0
 38 43  1  0  0  0  0
 17 26  1  0  0  0  0
M  END
$$$$

  -OEChem-05262214473D

 53 52  0     1  0  0  0  0  0999 V2000
   -1.0338   -5.6785    0.1476 C   0  0  0  0  0  0  0  0  0  0  0  0
   -2.0514   -5.7797    0.8227 O   0  0  0  0  0  0  0  0  0  0  0  0
   -0.6558   -6.7819   -0.7841 C   0  0  0  0  0  0  0  0  0  0  0  0
   -0.0111   -7.5354   -0.3038 H   0  0  0  0  0  0  0  0  0  0  0  0
   -1.5317   -7.3401   -1.1520 H   0  0  0  0  0  0  0  0  0  0  0  0
   -0.1109   -6.4687   -1.6890 H   0  0  0  0  0  0  0  0  0  0  0  0
   -0.1543   -4.6083    0.1480 N   0  0  0  0  0  0  0  0  0  0  0  0
   -0.3302   -3.4398    0.9696 C   0  0  2  0  0  0  0  0  0  0  0  0
    0.2328   -2.2439    0.2131 C   0  0  0  0  0  0  0  0  0  0  0  0
    1.2097   -2.3192   -0.5294 O   0  0  0  0  0  0  0  0  0  0  0  0
    0.3557   -3.6024    2.3171 C   0  0  0  0  0  0  0  0  0  0  0  0
    0.6584   -4.6506   -0.4643 H   0  0  0  0  0  0  0  0  0  0  0  0
   -1.4091   -3.3101    1.1082 H   0  0  0  0  0  0  0  0  0  0  0  0
    1.4375   -3.7336    2.1985 H   0  0  0  0  0  0  0  0  0  0  0  0
    0.1969   -2.7243    2.9517 H   0  0  0  0  0  0  0  0  0  0  0  0
   -0.0294   -4.4803    2.8470 H   0  0  0  0  0  0  0  0  0  0  0  0
   -0.4616   -1.0893    0.5050 N   0  0  0  0  0  0  0  0  0  0  0  0
   -0.0884    0.2050   -0.0621 C   0  0  2  0  0  0  0  0  0  0  0  0
   -1.2806    0.7195   -0.8638 C   0  0  0  0  0  0  0  0  0  0  0  0
   -1.2002    1.6532   -1.6596 O   0  0  0  0  0  0  0  0  0  0  0  0
    1.1396    0.1060   -0.9795 C   0  0  0  0  0  0  0  0  0  0  0  0
    2.4332   -0.2291   -0.2299 C   0  0  0  0  0  0  0  0  0  0  0  0
    3.6274   -0.2913   -1.1861 C   0  0  0  0  0  0  0  0  0  0  0  0
    4.9127   -0.6496   -0.4420 C   0  0  0  0  0  0  0  0  0  0  0  0
    6.0320   -0.7267   -1.3731 N   0  0  0  0  0  0  0  0  0  0  0  0
   -1.2794   -1.1113    1.0935 H   0  0  0  0  0  0  0  0  0  0  0  0
    0.1165    0.9000    0.7611 H   0  0  0  0  0  0  0  0  0  0  0  0
    1.2727    1.0604   -1.5058 H   0  0  0  0  0  0  0  0  0  0  0  0
    0.9628   -0.6455   -1.7609 H   0  0  0  0  0  0  0  0  0  0  0  0
    2.3345   -1.1930    0.2820 H   0  0  0  0  0  0  0  0  0  0  0  0
    2.6188    0.5309    0.5385 H   0  0  0  0  0  0  0  0  0  0  0  0
    3.4297   -1.0354   -1.9679 H   0  0  0  0  0  0  0  0  0  0  0  0
    3.7466    0.6784   -1.6859 H   0  0  0  0  0  0  0  0  0  0  0  0
    4.7990   -1.6118    0.0693 H   0  0  0  0  0  0  0  0  0  0  0  0
    5.1320    0.1081    0.3177 H   0  0  0  0  0  0  0  0  0  0  0  0
    5.6906   -0.5479   -2.2885 H   0  0  0  0  0  0  0  0  0  0  0  0
    6.7037   -0.0434   -1.1114 H   0  0  0  0  0  0  0  0  0  0  0  0
   -2.4468    0.0271   -0.5683 N   0  0  0  0  0  0  0  0  0  0  0  0
   -3.7236    0.3305   -1.1736 C   0  0  2  0  0  0  0  0  0  0  0  0
   -4.8119    0.0306   -0.1513 C   0  0  0  0  0  0  0  0  0  0  0  0
   -4.7322   -0.8859    0.6639 O   0  0  0  0  0  0  0  0  0  0  0  0
   -3.9373   -0.4734   -2.4467 C   0  0  0  0  0  0  0  0  0  0  0  0
   -2.4155   -0.7389    0.0980 H   0  0  0  0  0  0  0  0  0  0  0  0
   -3.7196    1.4023   -1.3999 H   0  0  0  0  0  0  0  0  0  0  0  0
   -3.9443   -1.5498   -2.2400 H   0  0  0  0  0  0  0  0  0  0  0  0
   -4.8924   -0.2214   -2.9194 H   0  0  0  0  0  0  0  0  0  0  0  0
   -3.1374   -0.2790   -3.1693 H   0  0  0  0  0  0  0  0  0  0  0  0
   -5.9016    0.8797   -0.2848 N   0  0  0  0  0  0  0  0  0  0  0  0
   -7.0814    0.7697    0.5410 C   0  0  0  0  0  0  0  0  0  0  0  0
   -5.8651    1.6369   -0.9608 H   0  0  0  0  0  0  0  0  0  0  0  0
   -7.8216    0.1284    0.0402 H   0  0  0  0  0  0  0  0  0  0  0  0
   -6.8099    0.3277    1.5110 H   0  0  0  0  0  0  0  0  0  0  0  0
   -7.5112    1.7696    0.7011 H   0  0  0  0  0  0  0  0  0  0  0  0
  1  3  1  0  0  0  0
  1  7  1  0  0  0  0
  1  2  2  0  0  0  0
 39 40  1  0  0  0  0
 40 48  1  0  0  0  0
 40 41  2  0  0  0  0
  8  9  1  0  0  0  0
  9 17  1  0  0  0  0
  9 10  2  0  0  0  0
 18 19  1  0  0  0  0
 19 38  1  0  0  0  0
 19 20  2  0  0  0  0
 39 42  1  0  0  0  0
  8 11  1  0  0  0  0
 48 49  1  0  0  0  0
 22 23  1  0  0  0  0
 21 22  1  0  0  0  0
 23 24  1  0  0  0  0
 18 21  1  0  0  0  0
 24 25  1  0  0  0  0
 38 39  1  0  0  0  0
  7  8  1  0  0  0  0
 17 18  1  0  0  0  0
  3  4  1  0  0  0  0
  3  5  1  0  0  0  0
  3  6  1  0  0  0  0
 42 45  1  0  0  0  0
 42 46  1  0  0  0  0
 42 47  1  0  0  0  0
 11 14  1  0  0  0  0
 11 15  1  0  0  0  0
 11 16  1  0  0  0  0
 49 51  1  0  0  0  0
 49 52  1  0  0  0  0
 49 53  1  0  0  0  0
 22 30  1  0  0  0  0
 22 31  1  0  0  0  0
 23 32  1  0  0  0  0
 23 33  1  0  0  0  0
 21 28  1  0  0  0  0
 21 29  1  0  0  0  0
 24 34  1  0  0  0  0
 24 35  1  0  0  0  0
 39 44  1  0  0  0  0
  8 13  1  0  0  0  0
 18 27  1  0  0  0  0
 25 36  1  0  0  0  0
 25 37  1  0  0  0  0
 48 50  1  0  0  0  0
  7 12  1  0  0  0  0
 38 43  1  0  0  0  0
 17 26  1  0  0  0  0
M  END
$$$$

  -OEChem-05262214473D

 53 52  0     1  0  0  0  0  0999 V2000
   -1.0338   -5.6785    0.1476 C   0  0  0  0  0  0  0  0  0  0  0  0
   -2.0514   -5.7797    0.8227 O   0  0  0  0  0  0  0  0  0  0  0  0
   -0.6558   -6.7819   -0.7841 C   0  0  0  0  0  0  0  0  0  0  0  0
   -0.0111   -7.5354   -0.3038 H   0  0  0  0  0  0  0  0  0  0  0  0
   -1.5317   -7.3401   -1.1520 H   0  0  0  0  0  0  0  0  0  0  0  0
   -0.1109   -6.4687   -1.6890 H   0  0  0  0  0  0  0  0  0  0  0  0
   -0.1543   -4.6083    0.1480 N   0  0  0  0  0  0  0  0  0  0  0  0
   -0.3302   -3.4398    0.9696 C   0  0  2  0  0  0  0  0  0  0  0  0
    0.2328   -2.2439    0.2131 C   0  0  0  0  0  0  0  0  0  0  0  0
    1.2097   -2.3192   -0.5294 O   0  0  0  0  0  0  0  0  0  0  0  0
    0.3557   -3.6024    2.3171 C   0  0  0  0  0  0  0  0  0  0  0  0
    0.6584   -4.6506   -0.4643 H   0  0  0  0  0  0  0  0  0  0  0  0
   -1.4091   -3.3101    1.1082 H   0  0  0  0  0  0  0  0  0  0  0  0
    1.4375   -3.7336    2.1985 H   0  0  0  0  0  0  0  0  0  0  0  0
    0.1969   -2.7243    2.9517 H   0  0  0  0  0  0  0  0  0  0  0  0
   -0.0294   -4.4803    2.8470 H   0  0  0  0  0  0  0  0  0  0  0  0
   -0.4616   -1.0893    0.5050 N   0  0  0  0  0  0  0  0  0  0  0  0
   -0.0884    0.2050   -0.0621 C   0  0  2  0  0  0  0  0  0  0  0  0
   -1.2806    0.7195   -0.8638 C   0  0  0  0  0  0  0  0  0  0  0  0
   -1.1633    1.4572   -1.8403 O   0  0  0  0  0  0  0  0  0  0  0  0
    1.1396    0.1060   -0.9795 C   0  0  0  0  0  0  0  0  0  0  0  0
    2.4332   -0.2291   -0.2299 C   0  0  0  0  0  0  0  0  0  0  0  0
    3.6274   -0.2913   -1.1861 C   0  0  0  0  0  0  0  0  0  0  0  0
    4.9127   -0.6496   -0.4420 C   0  0  0  0  0  0  0  0  0  0  0  0
    6.0320   -0.7267   -1.3731 N   0  0  0  0  0  0  0  0  0  0  0  0
   -1.2794   -1.1113    1.0935 H   0  0  0  0  0  0  0  0  0  0  0  0
    0.1165    0.9000    0.7611 H   0  0  0  0  0  0  0  0  0  0  0  0
    1.2727    1.0604   -1.5058 H   0  0  0  0  0  0  0  0  0  0  0  0
    0.9628   -0.6455   -1.7609 H   0  0  0  0  0  0  0  0  0  0  0  0
    2.3345   -1.1930    0.2820 H   0  0  0  0  0  0  0  0  0  0  0  0
    2.6188    0.5309    0.5385 H   0  0  0  0  0  0  0  0  0  0  0  0
    3.4297   -1.0354   -1.9679 H   0  0  0  0  0  0  0  0  0  0  0  0
    3.7466    0.6784   -1.6859 H   0  0  0  0  0  0  0  0  0  0  0  0
    4.7990   -1.6118    0.0693 H   0  0  0  0  0  0  0  0  0  0  0  0
    5.1320    0.1081    0.3177 H   0  0  0  0  0  0  0  0  0  0  0  0
    5.6906   -0.5479   -2.2885 H   0  0  0  0  0  0  0  0  0  0  0  0
    6.7037   -0.0434   -1.1114 H   0  0  0  0  0  0  0  0  0  0  0  0
   -2.4893    0.2750   -0.3459 N   0  0  0  0  0  0  0  0  0  0  0  0
   -3.7719    0.6356   -0.9060 C   0  0  2  0  0  0  0  0  0  0  0  0
   -4.7804    0.7030    0.2333 C   0  0  0  0  0  0  0  0  0  0  0  0
   -4.7356   -0.0374    1.2134 O   0  0  0  0  0  0  0  0  0  0  0  0
   -4.2138   -0.3628   -1.9647 C   0  0  0  0  0  0  0  0  0  0  0  0
   -2.4883   -0.3417    0.4611 H   0  0  0  0  0  0  0  0  0  0  0  0
   -3.6547    1.6301   -1.3502 H   0  0  0  0  0  0  0  0  0  0  0  0
   -4.3365   -1.3651   -1.5383 H   0  0  0  0  0  0  0  0  0  0  0  0
   -5.1720   -0.0727   -2.4082 H   0  0  0  0  0  0  0  0  0  0  0  0
   -3.4729   -0.4319   -2.7685 H   0  0  0  0  0  0  0  0  0  0  0  0
   -5.7612    1.6583    0.0061 N   0  0  0  0  0  0  0  0  0  0  0  0
   -6.8558    1.8846    0.9209 C   0  0  0  0  0  0  0  0  0  0  0  0
   -5.6976    2.2547   -0.8136 H   0  0  0  0  0  0  0  0  0  0  0  0
   -7.7183    1.2718    0.6202 H   0  0  0  0  0  0  0  0  0  0  0  0
   -6.5459    1.6069    1.9391 H   0  0  0  0  0  0  0  0  0  0  0  0
   -7.1367    2.9480    0.9003 H   0  0  0  0  0  0  0  0  0  0  0  0
  1  3  1  0  0  0  0
  1  7  1  0  0  0  0
  1  2  2  0  0  0  0
 39 40  1  0  0  0  0
 40 48  1  0  0  0  0
 40 41  2  0  0  0  0
  8  9  1  0  0  0  0
  9 17  1  0  0  0  0
  9 10  2  0  0  0  0
 18 19  1  0  0  0  0
 19 38  1  0  0  0  0
 19 20  2  0  0  0  0
 39 42  1  0  0  0  0
  8 11  1  0  0  0  0
 48 49  1  0  0  0  0
 22 23  1  0  0  0  0
 21 22  1  0  0  0  0
 23 24  1  0  0  0  0
 18 21  1  0  0  0  0
 24 25  1  0  0  0  0
 38 39  1  0  0  0  0
  7  8  1  0  0  0  0
 17 18  1  0  0  0  0
  3  4  1  0  0  0  0
  3  5  1  0  0  0  0
  3  6  1  0  0  0  0
 42 45  1  0  0  0  0
 42 46  1  0  0  0  0
 42 47  1  0  0  0  0
 11 14  1  0  0  0  0
 11 15  1  0  0  0  0
 11 16  1  0  0  0  0
 49 51  1  0  0  0  0
 49 52  1  0  0  0  0
 49 53  1  0  0  0  0
 22 30  1  0  0  0  0
 22 31  1  0  0  0  0
 23 32  1  0  0  0  0
 23 33  1  0  0  0  0
 21 28  1  0  0  0  0
 21 29  1  0  0  0  0
 24 34  1  0  0  0  0
 24 35  1  0  0  0  0
 39 44  1  0  0  0  0
  8 13  1  0  0  0  0
 18 27  1  0  0  0  0
 25 36  1  0  0  0  0
 25 37  1  0  0  0  0
 48 50  1  0  0  0  0
  7 12  1  0  0  0  0
 38 43  1  0  0  0  0
 17 26  1  0  0  0  0
M  END
$$$$

  -OEChem-05262214473D

 53 52  0     1  0  0  0  0  0999 V2000
   -1.0338   -5.6785    0.1476 C   0  0  0  0  0  0  0  0  0  0  0  0
   -2.0514   -5.7797    0.8227 O   0  0  0  0  0  0  0  0  0  0  0  0
   -0.6558   -6.7819   -0.7841 C   0  0  0  0  0  0  0  0  0  0  0  0
   -0.0111   -7.5354   -0.3038 H   0  0  0  0  0  0  0  0  0  0  0  0
   -1.5317   -7.3401   -1.1520 H   0  0  0  0  0  0  0  0  0  0  0  0
   -0.1109   -6.4687   -1.6890 H   0  0  0  0  0  0  0  0  0  0  0  0
   -0.1543   -4.6083    0.1480 N   0  0  0  0  0  0  0  0  0  0  0  0
   -0.3302   -3.4398    0.9696 C   0  0  2  0  0  0  0  0  0  0  0  0
    0.2328   -2.2439    0.2131 C   0  0  0  0  0  0  0  0  0  0  0  0
    1.2097   -2.3192   -0.5294 O   0  0  0  0  0  0  0  0  0  0  0  0
    0.3557   -3.6024    2.3171 C   0  0  0  0  0  0  0  0  0  0  0  0
    0.6584   -4.6506   -0.4643 H   0  0  0  0  0  0  0  0  0  0  0  0
   -1.4091   -3.3101    1.1082 H   0  0  0  0  0  0  0  0  0  0  0  0
    1.4375   -3.7336    2.1985 H   0  0  0  0  0  0  0  0  0  0  0  0
    0.1969   -2.7243    2.9517 H   0  0  0  0  0  0  0  0  0  0  0  0
   -0.0294   -4.4803    2.8470 H   0  0  0  0  0  0  0  0  0  0  0  0
   -0.4616   -1.0893    0.5050 N   0  0  0  0  0  0  0  0  0  0  0  0
   -0.0884    0.2050   -0.0621 C   0  0  2  0  0  0  0  0  0  0  0  0
   -1.2806    0.7195   -0.8638 C   0  0  0  0  0  0  0  0  0  0  0  0
   -1.1700    1.2264   -1.9784 O   0  0  0  0  0  0  0  0  0  0  0  0
    1.1396    0.1060   -0.9795 C   0  0  0  0  0  0  0  0  0  0  0  0
    2.4332   -0.2291   -0.2299 C   0  0  0  0  0  0  0  0  0  0  0  0
    3.6274   -0.2913   -1.1861 C   0  0  0  0  0  0  0  0  0  0  0  0
    4.9127   -0.6496   -0.4420 C   0  0  0  0  0  0  0  0  0  0  0  0
    6.0320   -0.7267   -1.3731 N   0  0  0  0  0  0  0  0  0  0  0  0
   -1.2794   -1.1113    1.0935 H   0  0  0  0  0  0  0  0  0  0  0  0
    0.1165    0.9000    0.7611 H   0  0  0  0  0  0  0  0  0  0  0  0
    1.2727    1.0604   -1.5058 H   0  0  0  0  0  0  0  0  0  0  0  0
    0.9628   -0.6455   -1.7609 H   0  0  0  0  0  0  0  0  0  0  0  0
    2.3345   -1.1930    0.2820 H   0  0  0  0  0  0  0  0  0  0  0  0
    2.6188    0.5309    0.5385 H   0  0  0  0  0  0  0  0  0  0  0  0
    3.4297   -1.0354   -1.9679 H   0  0  0  0  0  0  0  0  0  0  0  0
    3.7466    0.6784   -1.6859 H   0  0  0  0  0  0  0  0  0  0  0  0
    4.7990   -1.6118    0.0693 H   0  0  0  0  0  0  0  0  0  0  0  0
    5.1320    0.1081    0.3177 H   0  0  0  0  0  0  0  0  0  0  0  0
    5.6906   -0.5479   -2.2885 H   0  0  0  0  0  0  0  0  0  0  0  0
    6.7037   -0.0434   -1.1114 H   0  0  0  0  0  0  0  0  0  0  0  0
   -2.4773    0.5652   -0.1776 N   0  0  0  0  0  0  0  0  0  0  0  0
   -3.7537    0.9910   -0.7050 C   0  0  2  0  0  0  0  0  0  0  0  0
   -4.6249    1.4261    0.4660 C   0  0  0  0  0  0  0  0  0  0  0  0
   -4.5756    0.8937    1.5729 O   0  0  0  0  0  0  0  0  0  0  0  0
   -4.4237   -0.1209   -1.4972 C   0  0  0  0  0  0  0  0  0  0  0  0
   -2.4729    0.1254    0.7379 H   0  0  0  0  0  0  0  0  0  0  0  0
   -3.5568    1.8513   -1.3539 H   0  0  0  0  0  0  0  0  0  0  0  0
   -4.6289   -0.9915   -0.8637 H   0  0  0  0  0  0  0  0  0  0  0  0
   -5.3773    0.2123   -1.9200 H   0  0  0  0  0  0  0  0  0  0  0  0
   -3.7829   -0.4530   -2.3211 H   0  0  0  0  0  0  0  0  0  0  0  0
   -5.4945    2.4500    0.1174 N   0  0  0  0  0  0  0  0  0  0  0  0
   -6.4531    3.0077    1.0427 C   0  0  0  0  0  0  0  0  0  0  0  0
   -5.4389    2.8584   -0.8109 H   0  0  0  0  0  0  0  0  0  0  0  0
   -7.4125    2.4794    0.9403 H   0  0  0  0  0  0  0  0  0  0  0  0
   -6.0795    2.8931    2.0709 H   0  0  0  0  0  0  0  0  0  0  0  0
   -6.5973    4.0756    0.8218 H   0  0  0  0  0  0  0  0  0  0  0  0
  1  3  1  0  0  0  0
  1  7  1  0  0  0  0
  1  2  2  0  0  0  0
 39 40  1  0  0  0  0
 40 48  1  0  0  0  0
 40 41  2  0  0  0  0
  8  9  1  0  0  0  0
  9 17  1  0  0  0  0
  9 10  2  0  0  0  0
 18 19  1  0  0  0  0
 19 38  1  0  0  0  0
 19 20  2  0  0  0  0
 39 42  1  0  0  0  0
  8 11  1  0  0  0  0
 48 49  1  0  0  0  0
 22 23  1  0  0  0  0
 21 22  1  0  0  0  0
 23 24  1  0  0  0  0
 18 21  1  0  0  0  0
 24 25  1  0  0  0  0
 38 39  1  0  0  0  0
  7  8  1  0  0  0  0
 17 18  1  0  0  0  0
  3  4  1  0  0  0  0
  3  5  1  0  0  0  0
  3  6  1  0  0  0  0
 42 45  1  0  0  0  0
 42 46  1  0  0  0  0
 42 47  1  0  0  0  0
 11 14  1  0  0  0  0
 11 15  1  0  0  0  0
 11 16  1  0  0  0  0
 49 51  1  0  0  0  0
 49 52  1  0  0  0  0
 49 53  1  0  0  0  0
 22 30  1  0  0  0  0
 22 31  1  0  0  0  0
 23 32  1  0  0  0  0
 23 33  1  0  0  0  0
 21 28  1  0  0  0  0
 21 29  1  0  0  0  0
 24 34  1  0  0  0  0
 24 35  1  0  0  0  0
 39 44  1  0  0  0  0
  8 13  1  0  0  0  0
 18 27  1  0  0  0  0
 25 36  1  0  0  0  0
 25 37  1  0  0  0  0
 48 50  1  0  0  0  0
  7 12  1  0  0  0  0
 38 43  1  0  0  0  0
 17 26  1  0  0  0  0
M  END
$$$$

  -OEChem-05262214473D

 53 52  0     1  0  0  0  0  0999 V2000
   -1.0338   -5.6785    0.1476 C   0  0  0  0  0  0  0  0  0  0  0  0
   -2.0514   -5.7797    0.8227 O   0  0  0  0  0  0  0  0  0  0  0  0
   -0.6558   -6.7819   -0.7841 C   0  0  0  0  0  0  0  0  0  0  0  0
   -0.0111   -7.5354   -0.3038 H   0  0  0  0  0  0  0  0  0  0  0  0
   -1.5317   -7.3401   -1.1520 H   0  0  0  0  0  0  0  0  0  0  0  0
   -0.1109   -6.4687   -1.6890 H   0  0  0  0  0  0  0  0  0  0  0  0
   -0.1543   -4.6083    0.1480 N   0  0  0  0  0  0  0  0  0  0  0  0
   -0.3302   -3.4398    0.9696 C   0  0  2  0  0  0  0  0  0  0  0  0
    0.2328   -2.2439    0.2131 C   0  0  0  0  0  0  0  0  0  0  0  0
    1.2097   -2.3192   -0.5294 O   0  0  0  0  0  0  0  0  0  0  0  0
    0.3557   -3.6024    2.3171 C   0  0  0  0  0  0  0  0  0  0  0  0
    0.6584   -4.6506   -0.4643 H   0  0  0  0  0  0  0  0  0  0  0  0
   -1.4091   -3.3101    1.1082 H   0  0  0  0  0  0  0  0  0  0  0  0
    1.4375   -3.7336    2.1985 H   0  0  0  0  0  0  0  0  0  0  0  0
    0.1969   -2.7243    2.9517 H   0  0  0  0  0  0  0  0  0  0  0  0
   -0.0294   -4.4803    2.8470 H   0  0  0  0  0  0  0  0  0  0  0  0
   -0.4616   -1.0893    0.5050 N   0  0  0  0  0  0  0  0  0  0  0  0
   -0.0884    0.2050   -0.0621 C   0  0  2  0  0  0  0  0  0  0  0  0
   -1.2806    0.7195   -0.8638 C   0  0  0  0  0  0  0  0  0  0  0  0
   -1.2199    0.9764   -2.0646 O   0  0  0  0  0  0  0  0  0  0  0  0
    1.1396    0.1060   -0.9795 C   0  0  0  0  0  0  0  0  0  0  0  0
    2.4332   -0.2291   -0.2299 C   0  0  0  0  0  0  0  0  0  0  0  0
    3.6274   -0.2913   -1.1861 C   0  0  0  0  0  0  0  0  0  0  0  0
    4.9127   -0.6496   -0.4420 C   0  0  0  0  0  0  0  0  0  0  0  0
    6.0320   -0.7267   -1.3731 N   0  0  0  0  0  0  0  0  0  0  0  0
   -1.2794   -1.1113    1.0935 H   0  0  0  0  0  0  0  0  0  0  0  0
    0.1165    0.9000    0.7611 H   0  0  0  0  0  0  0  0  0  0  0  0
    1.2727    1.0604   -1.5058 H   0  0  0  0  0  0  0  0  0  0  0  0
    0.9628   -0.6455   -1.7609 H   0  0  0  0  0  0  0  0  0  0  0  0
    2.3345   -1.1930    0.2820 H   0  0  0  0  0  0  0  0  0  0  0  0
    2.6188    0.5309    0.5385 H   0  0  0  0  0  0  0  0  0  0  0  0
    3.4297   -1.0354   -1.9679 H   0  0  0  0  0  0  0  0  0  0  0  0
    3.7466    0.6784   -1.6859 H   0  0  0  0  0  0  0  0  0  0  0  0
    4.7990   -1.6118    0.0693 H   0  0  0  0  0  0  0  0  0  0  0  0
    5.1320    0.1081    0.3177 H   0  0  0  0  0  0  0  0  0  0  0  0
    5.6906   -0.5479   -2.2885 H   0  0  0  0  0  0  0  0  0  0  0  0
    6.7037   -0.0434   -1.1114 H   0  0  0  0  0  0  0  0  0  0  0  0
   -2.4115    0.8780   -0.0747 N   0  0  0  0  0  0  0  0  0  0  0  0
   -3.6703    1.3724   -0.5842 C   0  0  2  0  0  0  0  0  0  0  0  0
   -4.3562    2.1503    0.5311 C   0  0  0  0  0  0  0  0  0  0  0  0
   -4.2630    1.8441    1.7179 O   0  0  0  0  0  0  0  0  0  0  0  0
   -4.5528    0.2359   -1.0764 C   0  0  0  0  0  0  0  0  0  0  0  0
   -2.3704    0.6303    0.9094 H   0  0  0  0  0  0  0  0  0  0  0  0
   -3.4324    2.0509   -1.4107 H   0  0  0  0  0  0  0  0  0  0  0  0
   -4.8017   -0.4544   -0.2621 H   0  0  0  0  0  0  0  0  0  0  0  0
   -5.4942    0.6143   -1.4882 H   0  0  0  0  0  0  0  0  0  0  0  0
   -4.0461   -0.3408   -1.8577 H   0  0  0  0  0  0  0  0  0  0  0  0
   -5.1194    3.2011    0.0416 N   0  0  0  0  0  0  0  0  0  0  0  0
   -5.9008    4.0623    0.8981 C   0  0  0  0  0  0  0  0  0  0  0  0
   -5.1067    3.4070   -0.9530 H   0  0  0  0  0  0  0  0  0  0  0  0
   -6.9249    3.6689    0.9785 H   0  0  0  0  0  0  0  0  0  0  0  0
   -5.4426    4.0988    1.8975 H   0  0  0  0  0  0  0  0  0  0  0  0
   -5.9299    5.0755    0.4709 H   0  0  0  0  0  0  0  0  0  0  0  0
  1  3  1  0  0  0  0
  1  7  1  0  0  0  0
  1  2  2  0  0  0  0
 39 40  1  0  0  0  0
 40 48  1  0  0  0  0
 40 41  2  0  0  0  0
  8  9  1  0  0  0  0
  9 17  1  0  0  0  0
  9 10  2  0  0  0  0
 18 19  1  0  0  0  0
 19 38  1  0  0  0  0
 19 20  2  0  0  0  0
 39 42  1  0  0  0  0
  8 11  1  0  0  0  0
 48 49  1  0  0  0  0
 22 23  1  0  0  0  0
 21 22  1  0  0  0  0
 23 24  1  0  0  0  0
 18 21  1  0  0  0  0
 24 25  1  0  0  0  0
 38 39  1  0  0  0  0
  7  8  1  0  0  0  0
 17 18  1  0  0  0  0
  3  4  1  0  0  0  0
  3  5  1  0  0  0  0
  3  6  1  0  0  0  0
 42 45  1  0  0  0  0
 42 46  1  0  0  0  0
 42 47  1  0  0  0  0
 11 14  1  0  0  0  0
 11 15  1  0  0  0  0
 11 16  1  0  0  0  0
 49 51  1  0  0  0  0
 49 52  1  0  0  0  0
 49 53  1  0  0  0  0
 22 30  1  0  0  0  0
 22 31  1  0  0  0  0
 23 32  1  0  0  0  0
 23 33  1  0  0  0  0
 21 28  1  0  0  0  0
 21 29  1  0  0  0  0
 24 34  1  0  0  0  0
 24 35  1  0  0  0  0
 39 44  1  0  0  0  0
  8 13  1  0  0  0  0
 18 27  1  0  0  0  0
 25 36  1  0  0  0  0
 25 37  1  0  0  0  0
 48 50  1  0  0  0  0
  7 12  1  0  0  0  0
 38 43  1  0  0  0  0
 17 26  1  0  0  0  0
M  END
$$$$

  -OEChem-05262214473D

 53 52  0     1  0  0  0  0  0999 V2000
   -1.0338   -5.6785    0.1476 C   0  0  0  0  0  0  0  0  0  0  0  0
   -2.0514   -5.7797    0.8227 O   0  0  0  0  0  0  0  0  0  0  0  0
   -0.6558   -6.7819   -0.7841 C   0  0  0  0  0  0  0  0  0  0  0  0
   -0.0111   -7.5354   -0.3038 H   0  0  0  0  0  0  0  0  0  0  0  0
   -1.5317   -7.3401   -1.1520 H   0  0  0  0  0  0  0  0  0  0  0  0
   -0.1109   -6.4687   -1.6890 H   0  0  0  0  0  0  0  0  0  0  0  0
   -0.1543   -4.6083    0.1480 N   0  0  0  0  0  0  0  0  0  0  0  0
   -0.3302   -3.4398    0.9696 C   0  0  2  0  0  0  0  0  0  0  0  0
    0.2328   -2.2439    0.2131 C   0  0  0  0  0  0  0  0  0  0  0  0
    1.2097   -2.3192   -0.5294 O   0  0  0  0  0  0  0  0  0  0  0  0
    0.3557   -3.6024    2.3171 C   0  0  0  0  0  0  0  0  0  0  0  0
    0.6584   -4.6506   -0.4643 H   0  0  0  0  0  0  0  0  0  0  0  0
   -1.4091   -3.3101    1.1082 H   0  0  0  0  0  0  0  0  0  0  0  0
    1.4375   -3.7336    2.1985 H   0  0  0  0  0  0  0  0  0  0  0  0
    0.1969   -2.7243    2.9517 H   0  0  0  0  0  0  0  0  0  0  0  0
   -0.0294   -4.4803    2.8470 H   0  0  0  0  0  0  0  0  0  0  0  0
   -0.4616   -1.0893    0.5050 N   0  0  0  0  0  0  0  0  0  0  0  0
   -0.0884    0.2050   -0.0621 C   0  0  2  0  0  0  0  0  0  0  0  0
   -1.2806    0.7195   -0.8638 C   0  0  0  0  0  0  0  0  0  0  0  0
   -1.3096    0.7243   -2.0929 O   0  0  0  0  0  0  0  0  0  0  0  0
    1.1396    0.1060   -0.9795 C   0  0  0  0  0  0  0  0  0  0  0  0
    2.4332   -0.2291   -0.2299 C   0  0  0  0  0  0  0  0  0  0  0  0
    3.6274   -0.2913   -1.1861 C   0  0  0  0  0  0  0  0  0  0  0  0
    4.9127   -0.6496   -0.4420 C   0  0  0  0  0  0  0  0  0  0  0  0
    6.0320   -0.7267   -1.3731 N   0  0  0  0  0  0  0  0  0  0  0  0
   -1.2794   -1.1113    1.0935 H   0  0  0  0  0  0  0  0  0  0  0  0
    0.1165    0.9000    0.7611 H   0  0  0  0  0  0  0  0  0  0  0  0
    1.2727    1.0604   -1.5058 H   0  0  0  0  0  0  0  0  0  0  0  0
    0.9628   -0.6455   -1.7609 H   0  0  0  0  0  0  0  0  0  0  0  0
    2.3345   -1.1930    0.2820 H   0  0  0  0  0  0  0  0  0  0  0  0
    2.6188    0.5309    0.5385 H   0  0  0  0  0  0  0  0  0  0  0  0
    3.4297   -1.0354   -1.9679 H   0  0  0  0  0  0  0  0  0  0  0  0
    3.7466    0.6784   -1.6859 H   0  0  0  0  0  0  0  0  0  0  0  0
    4.7990   -1.6118    0.0693 H   0  0  0  0  0  0  0  0  0  0  0  0
    5.1320    0.1081    0.3177 H   0  0  0  0  0  0  0  0  0  0  0  0
    5.6906   -0.5479   -2.2885 H   0  0  0  0  0  0  0  0  0  0  0  0
    6.7037   -0.0434   -1.1114 H   0  0  0  0  0  0  0  0  0  0  0  0
   -2.2965    1.1919   -0.0443 N   0  0  0  0  0  0  0  0  0  0  0  0
   -3.5274    1.7539   -0.5520 C   0  0  2  0  0  0  0  0  0  0  0  0
   -3.9924    2.8266    0.4241 C   0  0  0  0  0  0  0  0  0  0  0  0
   -3.8192    2.7489    1.6386 O   0  0  0  0  0  0  0  0  0  0  0  0
   -4.5923    0.6831   -0.7307 C   0  0  0  0  0  0  0  0  0  0  0  0
   -2.1877    1.1388    0.9641 H   0  0  0  0  0  0  0  0  0  0  0  0
   -3.2901    2.2154   -1.5168 H   0  0  0  0  0  0  0  0  0  0  0  0
   -4.8432    0.2094    0.2255 H   0  0  0  0  0  0  0  0  0  0  0  0
   -5.5149    1.1057   -1.1422 H   0  0  0  0  0  0  0  0  0  0  0  0
   -4.2446   -0.1028   -1.4098 H   0  0  0  0  0  0  0  0  0  0  0  0
   -4.6616    3.8602   -0.2163 N   0  0  0  0  0  0  0  0  0  0  0  0
   -5.2365    4.9767    0.4970 C   0  0  0  0  0  0  0  0  0  0  0  0
   -4.7236    3.8629   -1.2301 H   0  0  0  0  0  0  0  0  0  0  0  0
   -6.2889    4.7594    0.7324 H   0  0  0  0  0  0  0  0  0  0  0  0
   -4.6786    5.1417    1.4306 H   0  0  0  0  0  0  0  0  0  0  0  0
   -5.1798    5.8797   -0.1285 H   0  0  0  0  0  0  0  0  0  0  0  0
  1  3  1  0  0  0  0
  1  7  1  0  0  0  0
  1  2  2  0  0  0  0
 39 40  1  0  0  0  0
 40 48  1  0  0  0  0
 40 41  2  0  0  0  0
  8  9  1  0  0  0  0
  9 17  1  0  0  0  0
  9 10  2  0  0  0  0
 18 19  1  0  0  0  0
 19 38  1  0  0  0  0
 19 20  2  0  0  0  0
 39 42  1  0  0  0  0
  8 11  1  0  0  0  0
 48 49  1  0  0  0  0
 22 23  1  0  0  0  0
 21 22  1  0  0  0  0
 23 24  1  0  0  0  0
 18 21  1  0  0  0  0
 24 25  1  0  0  0  0
 38 39  1  0  0  0  0
  7  8  1  0  0  0  0
 17 18  1  0  0  0  0
  3  4  1  0  0  0  0
  3  5  1  0  0  0  0
  3  6  1  0  0  0  0
 42 45  1  0  0  0  0
 42 46  1  0  0  0  0
 42 47  1  0  0  0  0
 11 14  1  0  0  0  0
 11 15  1  0  0  0  0
 11 16  1  0  0  0  0
 49 51  1  0  0  0  0
 49 52  1  0  0  0  0
 49 53  1  0  0  0  0
 22 30  1  0  0  0  0
 22 31  1  0  0  0  0
 23 32  1  0  0  0  0
 23 33  1  0  0  0  0
 21 28  1  0  0  0  0
 21 29  1  0  0  0  0
 24 34  1  0  0  0  0
 24 35  1  0  0  0  0
 39 44  1  0  0  0  0
  8 13  1  0  0  0  0
 18 27  1  0  0  0  0
 25 36  1  0  0  0  0
 25 37  1  0  0  0  0
 48 50  1  0  0  0  0
  7 12  1  0  0  0  0
 38 43  1  0  0  0  0
 17 26  1  0  0  0  0
M  END
$$$$

  -OEChem-05262214473D

 53 52  0     1  0  0  0  0  0999 V2000
   -1.0338   -5.6785    0.1476 C   0  0  0  0  0  0  0  0  0  0  0  0
   -2.0514   -5.7797    0.8227 O   0  0  0  0  0  0  0  0  0  0  0  0
   -0.6558   -6.7819   -0.7841 C   0  0  0  0  0  0  0  0  0  0  0  0
   -0.0111   -7.5354   -0.3038 H   0  0  0  0  0  0  0  0  0  0  0  0
   -1.5317   -7.3401   -1.1520 H   0  0  0  0  0  0  0  0  0  0  0  0
   -0.1109   -6.4687   -1.6890 H   0  0  0  0  0  0  0  0  0  0  0  0
   -0.1543   -4.6083    0.1480 N   0  0  0  0  0  0  0  0  0  0  0  0
   -0.3302   -3.4398    0.9696 C   0  0  2  0  0  0  0  0  0  0  0  0
    0.2328   -2.2439    0.2131 C   0  0  0  0  0  0  0  0  0  0  0  0
    1.2097   -2.3192   -0.5294 O   0  0  0  0  0  0  0  0  0  0  0  0
    0.3557   -3.6024    2.3171 C   0  0  0  0  0  0  0  0  0  0  0  0
    0.6584   -4.6506   -0.4643 H   0  0  0  0  0  0  0  0  0  0  0  0
   -1.4091   -3.3101    1.1082 H   0  0  0  0  0  0  0  0  0  0  0  0
    1.4375   -3.7336    2.1985 H   0  0  0  0  0  0  0  0  0  0  0  0
    0.1969   -2.7243    2.9517 H   0  0  0  0  0  0  0  0  0  0  0  0
   -0.0294   -4.4803    2.8470 H   0  0  0  0  0  0  0  0  0  0  0  0
   -0.4616   -1.0893    0.5050 N   0  0  0  0  0  0  0  0  0  0  0  0
   -0.0884    0.2050   -0.0621 C   0  0  2  0  0  0  0  0  0  0  0  0
   -1.2806    0.7195   -0.8638 C   0  0  0  0  0  0  0  0  0  0  0  0
   -1.4331    0.4873   -2.0615 O   0  0  0  0  0  0  0  0  0  0  0  0
    1.1396    0.1060   -0.9795 C   0  0  0  0  0  0  0  0  0  0  0  0
    2.4332   -0.2291   -0.2299 C   0  0  0  0  0  0  0  0  0  0  0  0
    3.6274   -0.2913   -1.1861 C   0  0  0  0  0  0  0  0  0  0  0  0
    4.9127   -0.6496   -0.4420 C   0  0  0  0  0  0  0  0  0  0  0  0
    6.0320   -0.7267   -1.3731 N   0  0  0  0  0  0  0  0  0  0  0  0
   -1.2794   -1.1113    1.0935 H   0  0  0  0  0  0  0  0  0  0  0  0
    0.1165    0.9000    0.7611 H   0  0  0  0  0  0  0  0  0  0  0  0
    1.2727    1.0604   -1.5058 H   0  0  0  0  0  0  0  0  0  0  0  0
    0.9628   -0.6455   -1.7609 H   0  0  0  0  0  0  0  0  0  0  0  0
    2.3345   -1.1930    0.2820 H   0  0  0  0  0  0  0  0  0  0  0  0
    2.6188    0.5309    0.5385 H   0  0  0  0  0  0  0  0  0  0  0  0
    3.4297   -1.0354   -1.9679 H   0  0  0  0  0  0  0  0  0  0  0  0
    3.7466    0.6784   -1.6859 H   0  0  0  0  0  0  0  0  0  0  0  0
    4.7990   -1.6118    0.0693 H   0  0  0  0  0  0  0  0  0  0  0  0
    5.1320    0.1081    0.3177 H   0  0  0  0  0  0  0  0  0  0  0  0
    5.6906   -0.5479   -2.2885 H   0  0  0  0  0  0  0  0  0  0  0  0
    6.7037   -0.0434   -1.1114 H   0  0  0  0  0  0  0  0  0  0  0  0
   -2.1400    1.4857   -0.0885 N   0  0  0  0  0  0  0  0  0  0  0  0
   -3.3346    2.1095   -0.6105 C   0  0  2  0  0  0  0  0  0  0  0  0
   -3.5584    3.4087    0.1522 C   0  0  0  0  0  0  0  0  0  0  0  0
   -3.2745    3.5464    1.3402 O   0  0  0  0  0  0  0  0  0  0  0  0
   -4.5395    1.1904   -0.4837 C   0  0  0  0  0  0  0  0  0  0  0  0
   -1.9374    1.6162    0.8981 H   0  0  0  0  0  0  0  0  0  0  0  0
   -3.1396    2.3334   -1.6650 H   0  0  0  0  0  0  0  0  0  0  0  0
   -4.7504    0.9549    0.5658 H   0  0  0  0  0  0  0  0  0  0  0  0
   -5.4378    1.6532   -0.9055 H   0  0  0  0  0  0  0  0  0  0  0  0
   -4.3650    0.2445   -1.0079 H   0  0  0  0  0  0  0  0  0  0  0  0
   -4.1523    4.3824   -0.6385 N   0  0  0  0  0  0  0  0  0  0  0  0
   -4.5056    5.6885   -0.1332 C   0  0  0  0  0  0  0  0  0  0  0  0
   -4.3157    4.1951   -1.6234 H   0  0  0  0  0  0  0  0  0  0  0  0
   -5.5477    5.6765    0.2187 H   0  0  0  0  0  0  0  0  0  0  0  0
   -3.8396    5.9508    0.7021 H   0  0  0  0  0  0  0  0  0  0  0  0
   -4.3982    6.4333   -0.9355 H   0  0  0  0  0  0  0  0  0  0  0  0
  1  3  1  0  0  0  0
  1  7  1  0  0  0  0
  1  2  2  0  0  0  0
 39 40  1  0  0  0  0
 40 48  1  0  0  0  0
 40 41  2  0  0  0  0
  8  9  1  0  0  0  0
  9 17  1  0  0  0  0
  9 10  2  0  0  0  0
 18 19  1  0  0  0  0
 19 38  1  0  0  0  0
 19 20  2  0  0  0  0
 39 42  1  0  0  0  0
  8 11  1  0  0  0  0
 48 49  1  0  0  0  0
 22 23  1  0  0  0  0
 21 22  1  0  0  0  0
 23 24  1  0  0  0  0
 18 21  1  0  0  0  0
 24 25  1  0  0  0  0
 38 39  1  0  0  0  0
  7  8  1  0  0  0  0
 17 18  1  0  0  0  0
  3  4  1  0  0  0  0
  3  5  1  0  0  0  0
  3  6  1  0  0  0  0
 42 45  1  0  0  0  0
 42 46  1  0  0  0  0
 42 47  1  0  0  0  0
 11 14  1  0  0  0  0
 11 15  1  0  0  0  0
 11 16  1  0  0  0  0
 49 51  1  0  0  0  0
 49 52  1  0  0  0  0
 49 53  1  0  0  0  0
 22 30  1  0  0  0  0
 22 31  1  0  0  0  0
 23 32  1  0  0  0  0
 23 33  1  0  0  0  0
 21 28  1  0  0  0  0
 21 29  1  0  0  0  0
 24 34  1  0  0  0  0
 24 35  1  0  0  0  0
 39 44  1  0  0  0  0
  8 13  1  0  0  0  0
 18 27  1  0  0  0  0
 25 36  1  0  0  0  0
 25 37  1  0  0  0  0
 48 50  1  0  0  0  0
  7 12  1  0  0  0  0
 38 43  1  0  0  0  0
 17 26  1  0  0  0  0
M  END
$$$$

  -OEChem-05262214473D

 53 52  0     1  0  0  0  0  0999 V2000
   -1.0338   -5.6785    0.1476 C   0  0  0  0  0  0  0  0  0  0  0  0
   -2.0514   -5.7797    0.8227 O   0  0  0  0  0  0  0  0  0  0  0  0
   -0.6558   -6.7819   -0.7841 C   0  0  0  0  0  0  0  0  0  0  0  0
   -0.0111   -7.5354   -0.3038 H   0  0  0  0  0  0  0  0  0  0  0  0
   -1.5317   -7.3401   -1.1520 H   0  0  0  0  0  0  0  0  0  0  0  0
   -0.1109   -6.4687   -1.6890 H   0  0  0  0  0  0  0  0  0  0  0  0
   -0.1543   -4.6083    0.1480 N   0  0  0  0  0  0  0  0  0  0  0  0
   -0.3302   -3.4398    0.9696 C   0  0  2  0  0  0  0  0  0  0  0  0
    0.2328   -2.2439    0.2131 C   0  0  0  0  0  0  0  0  0  0  0  0
    1.2097   -2.3192   -0.5294 O   0  0  0  0  0  0  0  0  0  0  0  0
    0.3557   -3.6024    2.3171 C   0  0  0  0  0  0  0  0  0  0  0  0
    0.6584   -4.6506   -0.4643 H   0  0  0  0  0  0  0  0  0  0  0  0
   -1.4091   -3.3101    1.1082 H   0  0  0  0  0  0  0  0  0  0  0  0
    1.4375   -3.7336    2.1985 H   0  0  0  0  0  0  0  0  0  0  0  0
    0.1969   -2.7243    2.9517 H   0  0  0  0  0  0  0  0  0  0  0  0
   -0.0294   -4.4803    2.8470 H   0  0  0  0  0  0  0  0  0  0  0  0
   -0.4616   -1.0893    0.5050 N   0  0  0  0  0  0  0  0  0  0  0  0
   -0.0884    0.2050   -0.0621 C   0  0  2  0  0  0  0  0  0  0  0  0
   -1.2806    0.7195   -0.8638 C   0  0  0  0  0  0  0  0  0  0  0  0
   -1.5818    0.2815   -1.9724 O   0  0  0  0  0  0  0  0  0  0  0  0
    1.1396    0.1060   -0.9795 C   0  0  0  0  0  0  0  0  0  0  0  0
    2.4332   -0.2291   -0.2299 C   0  0  0  0  0  0  0  0  0  0  0  0
    3.6274   -0.2913   -1.1861 C   0  0  0  0  0  0  0  0  0  0  0  0
    4.9127   -0.6496   -0.4420 C   0  0  0  0  0  0  0  0  0  0  0  0
    6.0320   -0.7267   -1.3731 N   0  0  0  0  0  0  0  0  0  0  0  0
   -1.2794   -1.1113    1.0935 H   0  0  0  0  0  0  0  0  0  0  0  0
    0.1165    0.9000    0.7611 H   0  0  0  0  0  0  0  0  0  0  0  0
    1.2727    1.0604   -1.5058 H   0  0  0  0  0  0  0  0  0  0  0  0
    0.9628   -0.6455   -1.7609 H   0  0  0  0  0  0  0  0  0  0  0  0
    2.3345   -1.1930    0.2820 H   0  0  0  0  0  0  0  0  0  0  0  0
    2.6188    0.5309    0.5385 H   0  0  0  0  0  0  0  0  0  0  0  0
    3.4297   -1.0354   -1.9679 H   0  0  0  0  0  0  0  0  0  0  0  0
    3.7466    0.6784   -1.6859 H   0  0  0  0  0  0  0  0  0  0  0  0
    4.7990   -1.6118    0.0693 H   0  0  0  0  0  0  0  0  0  0  0  0
    5.1320    0.1081    0.3177 H   0  0  0  0  0  0  0  0  0  0  0  0
    5.6906   -0.5479   -2.2885 H   0  0  0  0  0  0  0  0  0  0  0  0
    6.7037   -0.0434   -1.1114 H   0  0  0  0  0  0  0  0  0  0  0  0
   -1.9528    1.7392   -0.2042 N   0  0  0  0  0  0  0  0  0  0  0  0
   -3.1052    2.4150   -0.7557 C   0  0  2  0  0  0  0  0  0  0  0  0
   -3.0838    3.8569   -0.2660 C   0  0  0  0  0  0  0  0  0  0  0  0
   -2.6658    4.1824    0.8433 O   0  0  0  0  0  0  0  0  0  0  0  0
   -4.3979    1.7231   -0.3524 C   0  0  0  0  0  0  0  0  0  0  0  0
   -1.6364    2.0300    0.7160 H   0  0  0  0  0  0  0  0  0  0  0  0
   -2.9910    2.3969   -1.8451 H   0  0  0  0  0  0  0  0  0  0  0  0
   -4.5297    1.7312    0.7357 H   0  0  0  0  0  0  0  0  0  0  0  0
   -5.2682    2.2194   -0.7944 H   0  0  0  0  0  0  0  0  0  0  0  0
   -4.3990    0.6777   -0.6795 H   0  0  0  0  0  0  0  0  0  0  0  0
   -3.6261    4.7322   -1.1965 N   0  0  0  0  0  0  0  0  0  0  0  0
   -3.7577    6.1492   -0.9497 C   0  0  0  0  0  0  0  0  0  0  0  0
   -3.9109    4.3811   -2.1061 H   0  0  0  0  0  0  0  0  0  0  0  0
   -4.7519    6.3576   -0.5276 H   0  0  0  0  0  0  0  0  0  0  0  0
   -2.9827    6.4709   -0.2384 H   0  0  0  0  0  0  0  0  0  0  0  0
   -3.6384    6.6985   -1.8952 H   0  0  0  0  0  0  0  0  0  0  0  0
  1  3  1  0  0  0  0
  1  7  1  0  0  0  0
  1  2  2  0  0  0  0
 39 40  1  0  0  0  0
 40 48  1  0  0  0  0
 40 41  2  0  0  0  0
  8  9  1  0  0  0  0
  9 17  1  0  0  0  0
  9 10  2  0  0  0  0
 18 19  1  0  0  0  0
 19 38  1  0  0  0  0
 19 20  2  0  0  0  0
 39 42  1  0  0  0  0
  8 11  1  0  0  0  0
 48 49  1  0  0  0  0
 22 23  1  0  0  0  0
 21 22  1  0  0  0  0
 23 24  1  0  0  0  0
 18 21  1  0  0  0  0
 24 25  1  0  0  0  0
 38 39  1  0  0  0  0
  7  8  1  0  0  0  0
 17 18  1  0  0  0  0
  3  4  1  0  0  0  0
  3  5  1  0  0  0  0
  3  6  1  0  0  0  0
 42 45  1  0  0  0  0
 42 46  1  0  0  0  0
 42 47  1  0  0  0  0
 11 14  1  0  0  0  0
 11 15  1  0  0  0  0
 11 16  1  0  0  0  0
 49 51  1  0  0  0  0
 49 52  1  0  0  0  0
 49 53  1  0  0  0  0
 22 30  1  0  0  0  0
 22 31  1  0  0  0  0
 23 32  1  0  0  0  0
 23 33  1  0  0  0  0
 21 28  1  0  0  0  0
 21 29  1  0  0  0  0
 24 34  1  0  0  0  0
 24 35  1  0  0  0  0
 39 44  1  0  0  0  0
  8 13  1  0  0  0  0
 18 27  1  0  0  0  0
 25 36  1  0  0  0  0
 25 37  1  0  0  0  0
 48 50  1  0  0  0  0
  7 12  1  0  0  0  0
 38 43  1  0  0  0  0
 17 26  1  0  0  0  0
M  END
$$$$

  -OEChem-05262214473D

 53 52  0     1  0  0  0  0  0999 V2000
   -1.0338   -5.6785    0.1476 C   0  0  0  0  0  0  0  0  0  0  0  0
   -2.0514   -5.7797    0.8227 O   0  0  0  0  0  0  0  0  0  0  0  0
   -0.6558   -6.7819   -0.7841 C   0  0  0  0  0  0  0  0  0  0  0  0
   -0.0111   -7.5354   -0.3038 H   0  0  0  0  0  0  0  0  0  0  0  0
   -1.5317   -7.3401   -1.1520 H   0  0  0  0  0  0  0  0  0  0  0  0
   -0.1109   -6.4687   -1.6890 H   0  0  0  0  0  0  0  0  0  0  0  0
   -0.1543   -4.6083    0.1480 N   0  0  0  0  0  0  0  0  0  0  0  0
   -0.3302   -3.4398    0.9696 C   0  0  2  0  0  0  0  0  0  0  0  0
    0.2328   -2.2439    0.2131 C   0  0  0  0  0  0  0  0  0  0  0  0
    1.2097   -2.3192   -0.5294 O   0  0  0  0  0  0  0  0  0  0  0  0
    0.3557   -3.6024    2.3171 C   0  0  0  0  0  0  0  0  0  0  0  0
    0.6584   -4.6506   -0.4643 H   0  0  0  0  0  0  0  0  0  0  0  0
   -1.4091   -3.3101    1.1082 H   0  0  0  0  0  0  0  0  0  0  0  0
    1.4375   -3.7336    2.1985 H   0  0  0  0  0  0  0  0  0  0  0  0
    0.1969   -2.7243    2.9517 H   0  0  0  0  0  0  0  0  0  0  0  0
   -0.0294   -4.4803    2.8470 H   0  0  0  0  0  0  0  0  0  0  0  0
   -0.4616   -1.0893    0.5050 N   0  0  0  0  0  0  0  0  0  0  0  0
   -0.0884    0.2050   -0.0621 C   0  0  2  0  0  0  0  0  0  0  0  0
   -1.2806    0.7195   -0.8638 C   0  0  0  0  0  0  0  0  0  0  0  0
   -1.7456    0.1209   -1.8318 O   0  0  0  0  0  0  0  0  0  0  0  0
    1.1396    0.1060   -0.9795 C   0  0  0  0  0  0  0  0  0  0  0  0
    2.4332   -0.2291   -0.2299 C   0  0  0  0  0  0  0  0  0  0  0  0
    3.6274   -0.2913   -1.1861 C   0  0  0  0  0  0  0  0  0  0  0  0
    4.9127   -0.6496   -0.4420 C   0  0  0  0  0  0  0  0  0  0  0  0
    6.0320   -0.7267   -1.3731 N   0  0  0  0  0  0  0  0  0  0  0  0
   -1.2794   -1.1113    1.0935 H   0  0  0  0  0  0  0  0  0  0  0  0
    0.1165    0.9000    0.7611 H   0  0  0  0  0  0  0  0  0  0  0  0
    1.2727    1.0604   -1.5058 H   0  0  0  0  0  0  0  0  0  0  0  0
    0.9628   -0.6455   -1.7609 H   0  0  0  0  0  0  0  0  0  0  0  0
    2.3345   -1.1930    0.2820 H   0  0  0  0  0  0  0  0  0  0  0  0
    2.6188    0.5309    0.5385 H   0  0  0  0  0  0  0  0  0  0  0  0
    3.4297   -1.0354   -1.9679 H   0  0  0  0  0  0  0  0  0  0  0  0
    3.7466    0.6784   -1.6859 H   0  0  0  0  0  0  0  0  0  0  0  0
    4.7990   -1.6118    0.0693 H   0  0  0  0  0  0  0  0  0  0  0  0
    5.1320    0.1081    0.3177 H   0  0  0  0  0  0  0  0  0  0  0  0
    5.6906   -0.5479   -2.2885 H   0  0  0  0  0  0  0  0  0  0  0  0
    6.7037   -0.0434   -1.1114 H   0  0  0  0  0  0  0  0  0  0  0  0
   -1.7476    1.9352   -0.3836 N   0  0  0  0  0  0  0  0  0  0  0  0
   -2.8547    2.6495   -0.9778 C   0  0  2  0  0  0  0  0  0  0  0  0
   -2.6008    4.1408   -0.8019 C   0  0  0  0  0  0  0  0  0  0  0  0
   -2.0348    4.6135    0.1815 O   0  0  0  0  0  0  0  0  0  0  0  0
   -4.1773    2.2449   -0.3456 C   0  0  0  0  0  0  0  0  0  0  0  0
   -1.3053    2.3519    0.4302 H   0  0  0  0  0  0  0  0  0  0  0  0
   -2.8546    2.4017   -2.0449 H   0  0  0  0  0  0  0  0  0  0  0  0
   -4.1961    2.4854    0.7236 H   0  0  0  0  0  0  0  0  0  0  0  0
   -5.0177    2.7657   -0.8163 H   0  0  0  0  0  0  0  0  0  0  0  0
   -4.3442    1.1671   -0.4469 H   0  0  0  0  0  0  0  0  0  0  0  0
   -3.1190    4.8858   -1.8520 N   0  0  0  0  0  0  0  0  0  0  0  0
   -3.0439    6.3274   -1.8967 C   0  0  0  0  0  0  0  0  0  0  0  0
   -3.5367    4.4081   -2.6452 H   0  0  0  0  0  0  0  0  0  0  0  0
   -3.9557    6.7565   -1.4556 H   0  0  0  0  0  0  0  0  0  0  0  0
   -2.1664    6.6666   -1.3268 H   0  0  0  0  0  0  0  0  0  0  0  0
   -2.9522    6.6574   -2.9421 H   0  0  0  0  0  0  0  0  0  0  0  0
  1  3  1  0  0  0  0
  1  7  1  0  0  0  0
  1  2  2  0  0  0  0
 39 40  1  0  0  0  0
 40 48  1  0  0  0  0
 40 41  2  0  0  0  0
  8  9  1  0  0  0  0
  9 17  1  0  0  0  0
  9 10  2  0  0  0  0
 18 19  1  0  0  0  0
 19 38  1  0  0  0  0
 19 20  2  0  0  0  0
 39 42  1  0  0  0  0
  8 11  1  0  0  0  0
 48 49  1  0  0  0  0
 22 23  1  0  0  0  0
 21 22  1  0  0  0  0
 23 24  1  0  0  0  0
 18 21  1  0  0  0  0
 24 25  1  0  0  0  0
 38 39  1  0  0  0  0
  7  8  1  0  0  0  0
 17 18  1  0  0  0  0
  3  4  1  0  0  0  0
  3  5  1  0  0  0  0
  3  6  1  0  0  0  0
 42 45  1  0  0  0  0
 42 46  1  0  0  0  0
 42 47  1  0  0  0  0
 11 14  1  0  0  0  0
 11 15  1  0  0  0  0
 11 16  1  0  0  0  0
 49 51  1  0  0  0  0
 49 52  1  0  0  0  0
 49 53  1  0  0  0  0
 22 30  1  0  0  0  0
 22 31  1  0  0  0  0
 23 32  1  0  0  0  0
 23 33  1  0  0  0  0
 21 28  1  0  0  0  0
 21 29  1  0  0  0  0
 24 34  1  0  0  0  0
 24 35  1  0  0  0  0
 39 44  1  0  0  0  0
  8 13  1  0  0  0  0
 18 27  1  0  0  0  0
 25 36  1  0  0  0  0
 25 37  1  0  0  0  0
 48 50  1  0  0  0  0
  7 12  1  0  0  0  0
 38 43  1  0  0  0  0
 17 26  1  0  0  0  0
M  END
$$$$

  -OEChem-05262214473D

 53 52  0     1  0  0  0  0  0999 V2000
   -1.0338   -5.6785    0.1476 C   0  0  0  0  0  0  0  0  0  0  0  0
   -2.0514   -5.7797    0.8227 O   0  0  0  0  0  0  0  0  0  0  0  0
   -0.6558   -6.7819   -0.7841 C   0  0  0  0  0  0  0  0  0  0  0  0
   -0.0111   -7.5354   -0.3038 H   0  0  0  0  0  0  0  0  0  0  0  0
   -1.5317   -7.3401   -1.1520 H   0  0  0  0  0  0  0  0  0  0  0  0
   -0.1109   -6.4687   -1.6890 H   0  0  0  0  0  0  0  0  0  0  0  0
   -0.1543   -4.6083    0.1480 N   0  0  0  0  0  0  0  0  0  0  0  0
   -0.3302   -3.4398    0.9696 C   0  0  2  0  0  0  0  0  0  0  0  0
    0.2328   -2.2439    0.2131 C   0  0  0  0  0  0  0  0  0  0  0  0
    1.2097   -2.3192   -0.5294 O   0  0  0  0  0  0  0  0  0  0  0  0
    0.3557   -3.6024    2.3171 C   0  0  0  0  0  0  0  0  0  0  0  0
    0.6584   -4.6506   -0.4643 H   0  0  0  0  0  0  0  0  0  0  0  0
   -1.4091   -3.3101    1.1082 H   0  0  0  0  0  0  0  0  0  0  0  0
    1.4375   -3.7336    2.1985 H   0  0  0  0  0  0  0  0  0  0  0  0
    0.1969   -2.7243    2.9517 H   0  0  0  0  0  0  0  0  0  0  0  0
   -0.0294   -4.4803    2.8470 H   0  0  0  0  0  0  0  0  0  0  0  0
   -0.4616   -1.0893    0.5050 N   0  0  0  0  0  0  0  0  0  0  0  0
   -0.0884    0.2050   -0.0621 C   0  0  2  0  0  0  0  0  0  0  0  0
   -1.2806    0.7195   -0.8638 C   0  0  0  0  0  0  0  0  0  0  0  0
   -1.9135    0.0165   -1.6492 O   0  0  0  0  0  0  0  0  0  0  0  0
    1.1396    0.1060   -0.9795 C   0  0  0  0  0  0  0  0  0  0  0  0
    2.4332   -0.2291   -0.2299 C   0  0  0  0  0  0  0  0  0  0  0  0
    3.6274   -0.2913   -1.1861 C   0  0  0  0  0  0  0  0  0  0  0  0
    4.9127   -0.6496   -0.4420 C   0  0  0  0  0  0  0  0  0  0  0  0
    6.0320   -0.7267   -1.3731 N   0  0  0  0  0  0  0  0  0  0  0  0
   -1.2794   -1.1113    1.0935 H   0  0  0  0  0  0  0  0  0  0  0  0
    0.1165    0.9000    0.7611 H   0  0  0  0  0  0  0  0  0  0  0  0
    1.2727    1.0604   -1.5058 H   0  0  0  0  0  0  0  0  0  0  0  0
    0.9628   -0.6455   -1.7609 H   0  0  0  0  0  0  0  0  0  0  0  0
    2.3345   -1.1930    0.2820 H   0  0  0  0  0  0  0  0  0  0  0  0
    2.6188    0.5309    0.5385 H   0  0  0  0  0  0  0  0  0  0  0  0
    3.4297   -1.0354   -1.9679 H   0  0  0  0  0  0  0  0  0  0  0  0
    3.7466    0.6784   -1.6859 H   0  0  0  0  0  0  0  0  0  0  0  0
    4.7990   -1.6118    0.0693 H   0  0  0  0  0  0  0  0  0  0  0  0
    5.1320    0.1081    0.3177 H   0  0  0  0  0  0  0  0  0  0  0  0
    5.6906   -0.5479   -2.2885 H   0  0  0  0  0  0  0  0  0  0  0  0
    6.7037   -0.0434   -1.1114 H   0  0  0  0  0  0  0  0  0  0  0  0
   -1.5384    2.0604   -0.6144 N   0  0  0  0  0  0  0  0  0  0  0  0
   -2.6002    2.7970   -1.2615 C   0  0  2  0  0  0  0  0  0  0  0  0
   -2.1425    4.2410   -1.4192 C   0  0  0  0  0  0  0  0  0  0  0  0
   -1.4244    4.8103   -0.5999 O   0  0  0  0  0  0  0  0  0  0  0  0
   -3.8927    2.7204   -0.4638 C   0  0  0  0  0  0  0  0  0  0  0  0
   -0.9666    2.5600    0.0602 H   0  0  0  0  0  0  0  0  0  0  0  0
   -2.7396    2.3474   -2.2507 H   0  0  0  0  0  0  0  0  0  0  0  0
   -3.7724    3.1661    0.5303 H   0  0  0  0  0  0  0  0  0  0  0  0
   -4.7034    3.2550   -0.9698 H   0  0  0  0  0  0  0  0  0  0  0  0
   -4.2045    1.6795   -0.3259 H   0  0  0  0  0  0  0  0  0  0  0  0
   -2.6655    4.8326   -2.5605 N   0  0  0  0  0  0  0  0  0  0  0  0
   -2.4129    6.2110   -2.9099 C   0  0  0  0  0  0  0  0  0  0  0  0
   -3.2186    4.2743   -3.2041 H   0  0  0  0  0  0  0  0  0  0  0  0
   -3.2134    6.8458   -2.5022 H   0  0  0  0  0  0  0  0  0  0  0  0
   -1.4462    6.5246   -2.4889 H   0  0  0  0  0  0  0  0  0  0  0  0
   -2.3862    6.3127   -4.0048 H   0  0  0  0  0  0  0  0  0  0  0  0
  1  3  1  0  0  0  0
  1  7  1  0  0  0  0
  1  2  2  0  0  0  0
 39 40  1  0  0  0  0
 40 48  1  0  0  0  0
 40 41  2  0  0  0  0
  8  9  1  0  0  0  0
  9 17  1  0  0  0  0
  9 10  2  0  0  0  0
 18 19  1  0  0  0  0
 19 38  1  0  0  0  0
 19 20  2  0  0  0  0
 39 42  1  0  0  0  0
  8 11  1  0  0  0  0
 48 49  1  0  0  0  0
 22 23  1  0  0  0  0
 21 22  1  0  0  0  0
 23 24  1  0  0  0  0
 18 21  1  0  0  0  0
 24 25  1  0  0  0  0
 38 39  1  0  0  0  0
  7  8  1  0  0  0  0
 17 18  1  0  0  0  0
  3  4  1  0  0  0  0
  3  5  1  0  0  0  0
  3  6  1  0  0  0  0
 42 45  1  0  0  0  0
 42 46  1  0  0  0  0
 42 47  1  0  0  0  0
 11 14  1  0  0  0  0
 11 15  1  0  0  0  0
 11 16  1  0  0  0  0
 49 51  1  0  0  0  0
 49 52  1  0  0  0  0
 49 53  1  0  0  0  0
 22 30  1  0  0  0  0
 22 31  1  0  0  0  0
 23 32  1  0  0  0  0
 23 33  1  0  0  0  0
 21 28  1  0  0  0  0
 21 29  1  0  0  0  0
 24 34  1  0  0  0  0
 24 35  1  0  0  0  0
 39 44  1  0  0  0  0
  8 13  1  0  0  0  0
 18 27  1  0  0  0  0
 25 36  1  0  0  0  0
 25 37  1  0  0  0  0
 48 50  1  0  0  0  0
  7 12  1  0  0  0  0
 38 43  1  0  0  0  0
 17 26  1  0  0  0  0
M  END
$$$$

  -OEChem-05262214473D

 53 52  0     1  0  0  0  0  0999 V2000
   -1.0338   -5.6785    0.1476 C   0  0  0  0  0  0  0  0  0  0  0  0
   -2.0514   -5.7797    0.8227 O   0  0  0  0  0  0  0  0  0  0  0  0
   -0.6558   -6.7819   -0.7841 C   0  0  0  0  0  0  0  0  0  0  0  0
   -0.0111   -7.5354   -0.3038 H   0  0  0  0  0  0  0  0  0  0  0  0
   -1.5317   -7.3401   -1.1520 H   0  0  0  0  0  0  0  0  0  0  0  0
   -0.1109   -6.4687   -1.6890 H   0  0  0  0  0  0  0  0  0  0  0  0
   -0.1543   -4.6083    0.1480 N   0  0  0  0  0  0  0  0  0  0  0  0
   -0.3302   -3.4398    0.9696 C   0  0  2  0  0  0  0  0  0  0  0  0
    0.2328   -2.2439    0.2131 C   0  0  0  0  0  0  0  0  0  0  0  0
    1.2097   -2.3192   -0.5294 O   0  0  0  0  0  0  0  0  0  0  0  0
    0.3557   -3.6024    2.3171 C   0  0  0  0  0  0  0  0  0  0  0  0
    0.6584   -4.6506   -0.4643 H   0  0  0  0  0  0  0  0  0  0  0  0
   -1.4091   -3.3101    1.1082 H   0  0  0  0  0  0  0  0  0  0  0  0
    1.4375   -3.7336    2.1985 H   0  0  0  0  0  0  0  0  0  0  0  0
    0.1969   -2.7243    2.9517 H   0  0  0  0  0  0  0  0  0  0  0  0
   -0.0294   -4.4803    2.8470 H   0  0  0  0  0  0  0  0  0  0  0  0
   -0.4616   -1.0893    0.5050 N   0  0  0  0  0  0  0  0  0  0  0  0
   -0.0884    0.2050   -0.0621 C   0  0  2  0  0  0  0  0  0  0  0  0
   -1.2806    0.7195   -0.8638 C   0  0  0  0  0  0  0  0  0  0  0  0
   -2.0738   -0.0246   -1.4370 O   0  0  0  0  0  0  0  0  0  0  0  0
    1.1396    0.1060   -0.9795 C   0  0  0  0  0  0  0  0  0  0  0  0
    2.4332   -0.2291   -0.2299 C   0  0  0  0  0  0  0  0  0  0  0  0
    3.6274   -0.2913   -1.1861 C   0  0  0  0  0  0  0  0  0  0  0  0
    4.9127   -0.6496   -0.4420 C   0  0  0  0  0  0  0  0  0  0  0  0
    6.0320   -0.7267   -1.3731 N   0  0  0  0  0  0  0  0  0  0  0  0
   -1.2794   -1.1113    1.0935 H   0  0  0  0  0  0  0  0  0  0  0  0
    0.1165    0.9000    0.7611 H   0  0  0  0  0  0  0  0  0  0  0  0
    1.2727    1.0604   -1.5058 H   0  0  0  0  0  0  0  0  0  0  0  0
    0.9628   -0.6455   -1.7609 H   0  0  0  0  0  0  0  0  0  0  0  0
    2.3345   -1.1930    0.2820 H   0  0  0  0  0  0  0  0  0  0  0  0
    2.6188    0.5309    0.5385 H   0  0  0  0  0  0  0  0  0  0  0  0
    3.4297   -1.0354   -1.9679 H   0  0  0  0  0  0  0  0  0  0  0  0
    3.7466    0.6784   -1.6859 H   0  0  0  0  0  0  0  0  0  0  0  0
    4.7990   -1.6118    0.0693 H   0  0  0  0  0  0  0  0  0  0  0  0
    5.1320    0.1081    0.3177 H   0  0  0  0  0  0  0  0  0  0  0  0
    5.6906   -0.5479   -2.2885 H   0  0  0  0  0  0  0  0  0  0  0  0
    6.7037   -0.0434   -1.1114 H   0  0  0  0  0  0  0  0  0  0  0  0
   -1.3394    2.1062   -0.8809 N   0  0  0  0  0  0  0  0  0  0  0  0
   -2.3591    2.8475   -1.5877 C   0  0  2  0  0  0  0  0  0  0  0  0
   -1.7401    4.1506   -2.0756 C   0  0  0  0  0  0  0  0  0  0  0  0
   -0.8762    4.7594   -1.4477 O   0  0  0  0  0  0  0  0  0  0  0  0
   -3.5634    3.1171   -0.6990 C   0  0  0  0  0  0  0  0  0  0  0  0
   -0.6435    2.6402   -0.3689 H   0  0  0  0  0  0  0  0  0  0  0  0
   -2.6539    2.2376   -2.4486 H   0  0  0  0  0  0  0  0  0  0  0  0
   -3.2875    3.7268    0.1690 H   0  0  0  0  0  0  0  0  0  0  0  0
   -4.3467    3.6537   -1.2444 H   0  0  0  0  0  0  0  0  0  0  0  0
   -3.9893    2.1798   -0.3249 H   0  0  0  0  0  0  0  0  0  0  0  0
   -2.2965    4.5763   -3.2737 N   0  0  0  0  0  0  0  0  0  0  0  0
   -1.9075    5.8079   -3.9200 C   0  0  0  0  0  0  0  0  0  0  0  0
   -2.9783    3.9888   -3.7446 H   0  0  0  0  0  0  0  0  0  0  0  0
   -2.5755    6.6196   -3.5959 H   0  0  0  0  0  0  0  0  0  0  0  0
   -0.8712    6.0545   -3.6455 H   0  0  0  0  0  0  0  0  0  0  0  0
   -1.9792    5.6879   -5.0110 H   0  0  0  0  0  0  0  0  0  0  0  0
  1  3  1  0  0  0  0
  1  7  1  0  0  0  0
  1  2  2  0  0  0  0
 39 40  1  0  0  0  0
 40 48  1  0  0  0  0
 40 41  2  0  0  0  0
  8  9  1  0  0  0  0
  9 17  1  0  0  0  0
  9 10  2  0  0  0  0
 18 19  1  0  0  0  0
 19 38  1  0  0  0  0
 19 20  2  0  0  0  0
 39 42  1  0  0  0  0
  8 11  1  0  0  0  0
 48 49  1  0  0  0  0
 22 23  1  0  0  0  0
 21 22  1  0  0  0  0
 23 24  1  0  0  0  0
 18 21  1  0  0  0  0
 24 25  1  0  0  0  0
 38 39  1  0  0  0  0
  7  8  1  0  0  0  0
 17 18  1  0  0  0  0
  3  4  1  0  0  0  0
  3  5  1  0  0  0  0
  3  6  1  0  0  0  0
 42 45  1  0  0  0  0
 42 46  1  0  0  0  0
 42 47  1  0  0  0  0
 11 14  1  0  0  0  0
 11 15  1  0  0  0  0
 11 16  1  0  0  0  0
 49 51  1  0  0  0  0
 49 52  1  0  0  0  0
 49 53  1  0  0  0  0
 22 30  1  0  0  0  0
 22 31  1  0  0  0  0
 23 32  1  0  0  0  0
 23 33  1  0  0  0  0
 21 28  1  0  0  0  0
 21 29  1  0  0  0  0
 24 34  1  0  0  0  0
 24 35  1  0  0  0  0
 39 44  1  0  0  0  0
  8 13  1  0  0  0  0
 18 27  1  0  0  0  0
 25 36  1  0  0  0  0
 25 37  1  0  0  0  0
 48 50  1  0  0  0  0
  7 12  1  0  0  0  0
 38 43  1  0  0  0  0
 17 26  1  0  0  0  0
M  END
$$$$

  -OEChem-05262214473D

 53 52  0     1  0  0  0  0  0999 V2000
   -1.0338   -5.6785    0.1476 C   0  0  0  0  0  0  0  0  0  0  0  0
   -2.0514   -5.7797    0.8227 O   0  0  0  0  0  0  0  0  0  0  0  0
   -0.6558   -6.7819   -0.7841 C   0  0  0  0  0  0  0  0  0  0  0  0
   -0.0111   -7.5354   -0.3038 H   0  0  0  0  0  0  0  0  0  0  0  0
   -1.5317   -7.3401   -1.1520 H   0  0  0  0  0  0  0  0  0  0  0  0
   -0.1109   -6.4687   -1.6890 H   0  0  0  0  0  0  0  0  0  0  0  0
   -0.1543   -4.6083    0.1480 N   0  0  0  0  0  0  0  0  0  0  0  0
   -0.3302   -3.4398    0.9696 C   0  0  2  0  0  0  0  0  0  0  0  0
    0.2328   -2.2439    0.2131 C   0  0  0  0  0  0  0  0  0  0  0  0
    1.2097   -2.3192   -0.5294 O   0  0  0  0  0  0  0  0  0  0  0  0
    0.3557   -3.6024    2.3171 C   0  0  0  0  0  0  0  0  0  0  0  0
    0.6584   -4.6506   -0.4643 H   0  0  0  0  0  0  0  0  0  0  0  0
   -1.4091   -3.3101    1.1082 H   0  0  0  0  0  0  0  0  0  0  0  0
    1.4375   -3.7336    2.1985 H   0  0  0  0  0  0  0  0  0  0  0  0
    0.1969   -2.7243    2.9517 H   0  0  0  0  0  0  0  0  0  0  0  0
   -0.0294   -4.4803    2.8470 H   0  0  0  0  0  0  0  0  0  0  0  0
   -0.4616   -1.0893    0.5050 N   0  0  0  0  0  0  0  0  0  0  0  0
   -0.0884    0.2050   -0.0621 C   0  0  2  0  0  0  0  0  0  0  0  0
   -1.2806    0.7195   -0.8638 C   0  0  0  0  0  0  0  0  0  0  0  0
   -2.2158    0.0004   -1.2098 O   0  0  0  0  0  0  0  0  0  0  0  0
    1.1396    0.1060   -0.9795 C   0  0  0  0  0  0  0  0  0  0  0  0
    2.4332   -0.2291   -0.2299 C   0  0  0  0  0  0  0  0  0  0  0  0
    3.6274   -0.2913   -1.1861 C   0  0  0  0  0  0  0  0  0  0  0  0
    4.9127   -0.6496   -0.4420 C   0  0  0  0  0  0  0  0  0  0  0  0
    6.0320   -0.7267   -1.3731 N   0  0  0  0  0  0  0  0  0  0  0  0
   -1.2794   -1.1113    1.0935 H   0  0  0  0  0  0  0  0  0  0  0  0
    0.1165    0.9000    0.7611 H   0  0  0  0  0  0  0  0  0  0  0  0
    1.2727    1.0604   -1.5058 H   0  0  0  0  0  0  0  0  0  0  0  0
    0.9628   -0.6455   -1.7609 H   0  0  0  0  0  0  0  0  0  0  0  0
    2.3345   -1.1930    0.2820 H   0  0  0  0  0  0  0  0  0  0  0  0
    2.6188    0.5309    0.5385 H   0  0  0  0  0  0  0  0  0  0  0  0
    3.4297   -1.0354   -1.9679 H   0  0  0  0  0  0  0  0  0  0  0  0
    3.7466    0.6784   -1.6859 H   0  0  0  0  0  0  0  0  0  0  0  0
    4.7990   -1.6118    0.0693 H   0  0  0  0  0  0  0  0  0  0  0  0
    5.1320    0.1081    0.3177 H   0  0  0  0  0  0  0  0  0  0  0  0
    5.6906   -0.5479   -2.2885 H   0  0  0  0  0  0  0  0  0  0  0  0
    6.7037   -0.0434   -1.1114 H   0  0  0  0  0  0  0  0  0  0  0  0
   -1.1642    2.0695   -1.1649 N   0  0  0  0  0  0  0  0  0  0  0  0
   -2.1478    2.7975   -1.9339 C   0  0  2  0  0  0  0  0  0  0  0  0
   -1.4209    3.8759   -2.7266 C   0  0  0  0  0  0  0  0  0  0  0  0
   -0.4276    4.4642   -2.3042 O   0  0  0  0  0  0  0  0  0  0  0  0
   -3.2119    3.4079   -1.0351 C   0  0  0  0  0  0  0  0  0  0  0  0
   -0.3579    2.5869   -0.8277 H   0  0  0  0  0  0  0  0  0  0  0  0
   -2.6033    2.0800   -2.6250 H   0  0  0  0  0  0  0  0  0  0  0  0
   -2.7743    4.1295   -0.3356 H   0  0  0  0  0  0  0  0  0  0  0  0
   -3.9718    3.9349   -1.6214 H   0  0  0  0  0  0  0  0  0  0  0  0
   -3.7133    2.6340   -0.4438 H   0  0  0  0  0  0  0  0  0  0  0  0
   -2.0372    4.1343   -3.9429 N   0  0  0  0  0  0  0  0  0  0  0  0
   -1.5623    5.1456   -4.8582 C   0  0  0  0  0  0  0  0  0  0  0  0
   -2.8322    3.5710   -4.2299 H   0  0  0  0  0  0  0  0  0  0  0  0
   -2.0856    6.0931   -4.6622 H   0  0  0  0  0  0  0  0  0  0  0  0
   -0.4807    5.2883   -4.7178 H   0  0  0  0  0  0  0  0  0  0  0  0
   -1.7587    4.8255   -5.8921 H   0  0  0  0  0  0  0  0  0  0  0  0
  1  3  1  0  0  0  0
  1  7  1  0  0  0  0
  1  2  2  0  0  0  0
 39 40  1  0  0  0  0
 40 48  1  0  0  0  0
 40 41  2  0  0  0  0
  8  9  1  0  0  0  0
  9 17  1  0  0  0  0
  9 10  2  0  0  0  0
 18 19  1  0  0  0  0
 19 38  1  0  0  0  0
 19 20  2  0  0  0  0
 39 42  1  0  0  0  0
  8 11  1  0  0  0  0
 48 49  1  0  0  0  0
 22 23  1  0  0  0  0
 21 22  1  0  0  0  0
 23 24  1  0  0  0  0
 18 21  1  0  0  0  0
 24 25  1  0  0  0  0
 38 39  1  0  0  0  0
  7  8  1  0  0  0  0
 17 18  1  0  0  0  0
  3  4  1  0  0  0  0
  3  5  1  0  0  0  0
  3  6  1  0  0  0  0
 42 45  1  0  0  0  0
 42 46  1  0  0  0  0
 42 47  1  0  0  0  0
 11 14  1  0  0  0  0
 11 15  1  0  0  0  0
 11 16  1  0  0  0  0
 49 51  1  0  0  0  0
 49 52  1  0  0  0  0
 49 53  1  0  0  0  0
 22 30  1  0  0  0  0
 22 31  1  0  0  0  0
 23 32  1  0  0  0  0
 23 33  1  0  0  0  0
 21 28  1  0  0  0  0
 21 29  1  0  0  0  0
 24 34  1  0  0  0  0
 24 35  1  0  0  0  0
 39 44  1  0  0  0  0
  8 13  1  0  0  0  0
 18 27  1  0  0  0  0
 25 36  1  0  0  0  0
 25 37  1  0  0  0  0
 48 50  1  0  0  0  0
  7 12  1  0  0  0  0
 38 43  1  0  0  0  0
 17 26  1  0  0  0  0
M  END
$$$$

  -OEChem-05262214473D

 53 52  0     1  0  0  0  0  0999 V2000
   -1.0338   -5.6785    0.1476 C   0  0  0  0  0  0  0  0  0  0  0  0
   -2.0514   -5.7797    0.8227 O   0  0  0  0  0  0  0  0  0  0  0  0
   -0.6558   -6.7819   -0.7841 C   0  0  0  0  0  0  0  0  0  0  0  0
   -0.0111   -7.5354   -0.3038 H   0  0  0  0  0  0  0  0  0  0  0  0
   -1.5317   -7.3401   -1.1520 H   0  0  0  0  0  0  0  0  0  0  0  0
   -0.1109   -6.4687   -1.6890 H   0  0  0  0  0  0  0  0  0  0  0  0
   -0.1543   -4.6083    0.1480 N   0  0  0  0  0  0  0  0  0  0  0  0
   -0.3302   -3.4398    0.9696 C   0  0  2  0  0  0  0  0  0  0  0  0
    0.2328   -2.2439    0.2131 C   0  0  0  0  0  0  0  0  0  0  0  0
    1.2097   -2.3192   -0.5294 O   0  0  0  0  0  0  0  0  0  0  0  0
    0.3557   -3.6024    2.3171 C   0  0  0  0  0  0  0  0  0  0  0  0
    0.6584   -4.6506   -0.4643 H   0  0  0  0  0  0  0  0  0  0  0  0
   -1.4091   -3.3101    1.1082 H   0  0  0  0  0  0  0  0  0  0  0  0
    1.4375   -3.7336    2.1985 H   0  0  0  0  0  0  0  0  0  0  0  0
    0.1969   -2.7243    2.9517 H   0  0  0  0  0  0  0  0  0  0  0  0
   -0.0294   -4.4803    2.8470 H   0  0  0  0  0  0  0  0  0  0  0  0
   -0.4616   -1.0893    0.5050 N   0  0  0  0  0  0  0  0  0  0  0  0
   -0.0884    0.2050   -0.0621 C   0  0  2  0  0  0  0  0  0  0  0  0
   -1.3680    0.8886   -0.5354 C   0  0  0  0  0  0  0  0  0  0  0  0
   -2.4788    0.3701   -0.4414 O   0  0  0  0  0  0  0  0  0  0  0  0
    0.8826    0.0643   -1.2439 C   0  0  0  0  0  0  0  0  0  0  0  0
    2.2680   -0.4466   -0.8351 C   0  0  0  0  0  0  0  0  0  0  0  0
    3.2015   -0.5447   -2.0448 C   0  0  0  0  0  0  0  0  0  0  0  0
    4.5752   -1.0774   -1.6406 C   0  0  0  0  0  0  0  0  0  0  0  0
    5.4403   -1.1853   -2.8093 N   0  0  0  0  0  0  0  0  0  0  0  0
   -1.2794   -1.1113    1.0935 H   0  0  0  0  0  0  0  0  0  0  0  0
    0.3710    0.8119    0.7274 H   0  0  0  0  0  0  0  0  0  0  0  0
    0.9958    1.0402   -1.7341 H   0  0  0  0  0  0  0  0  0  0  0  0
    0.4537   -0.6046   -2.0025 H   0  0  0  0  0  0  0  0  0  0  0  0
    2.1839   -1.4341   -0.3675 H   0  0  0  0  0  0  0  0  0  0  0  0
    2.7034    0.2308   -0.0908 H   0  0  0  0  0  0  0  0  0  0  0  0
    2.7531   -1.2042   -2.7985 H   0  0  0  0  0  0  0  0  0  0  0  0
    3.3090    0.4457   -2.5051 H   0  0  0  0  0  0  0  0  0  0  0  0
    4.4766   -2.0618   -1.1701 H   0  0  0  0  0  0  0  0  0  0  0  0
    5.0410   -0.4047   -0.9127 H   0  0  0  0  0  0  0  0  0  0  0  0
    4.9223   -0.9050   -3.6091 H   0  0  0  0  0  0  0  0  0  0  0  0
    6.2235   -0.5896   -2.6743 H   0  0  0  0  0  0  0  0  0  0  0  0
   -1.1188    2.1346   -1.0942 N   0  0  0  0  0  0  0  0  0  0  0  0
   -2.1561    2.9803   -1.6395 C   0  0  2  0  0  0  0  0  0  0  0  0
   -1.5593    3.7695   -2.7973 C   0  0  0  0  0  0  0  0  0  0  0  0
   -0.3927    4.1566   -2.8144 O   0  0  0  0  0  0  0  0  0  0  0  0
   -2.7229    3.9134   -0.5808 C   0  0  0  0  0  0  0  0  0  0  0  0
   -0.1665    2.4867   -1.1206 H   0  0  0  0  0  0  0  0  0  0  0  0
   -2.9409    2.3154   -2.0162 H   0  0  0  0  0  0  0  0  0  0  0  0
   -1.9511    4.5873   -0.1915 H   0  0  0  0  0  0  0  0  0  0  0  0
   -3.5281    4.5334   -0.9883 H   0  0  0  0  0  0  0  0  0  0  0  0
   -3.1249    3.3449    0.2648 H   0  0  0  0  0  0  0  0  0  0  0  0
   -2.4944    4.0278   -3.7898 N   0  0  0  0  0  0  0  0  0  0  0  0
   -2.1839    4.7966   -4.9724 C   0  0  0  0  0  0  0  0  0  0  0  0
   -3.4275    3.6342   -3.7118 H   0  0  0  0  0  0  0  0  0  0  0  0
   -2.4291    5.8546   -4.7974 H   0  0  0  0  0  0  0  0  0  0  0  0
   -1.1120    4.7016   -5.2004 H   0  0  0  0  0  0  0  0  0  0  0  0
   -2.7741    4.4190   -5.8204 H   0  0  0  0  0  0  0  0  0  0  0  0
  1  3  1  0  0  0  0
  1  7  1  0  0  0  0
  1  2  2  0  0  0  0
 39 40  1  0  0  0  0
 40 48  1  0  0  0  0
 40 41  2  0  0  0  0
  8  9  1  0  0  0  0
  9 17  1  0  0  0  0
  9 10  2  0  0  0  0
 18 19  1  0  0  0  0
 19 38  1  0  0  0  0
 19 20  2  0  0  0  0
 39 42  1  0  0  0  0
  8 11  1  0  0  0  0
 48 49  1  0  0  0  0
 22 23  1  0  0  0  0
 21 22  1  0  0  0  0
 23 24  1  0  0  0  0
 18 21  1  0  0  0  0
 24 25  1  0  0  0  0
 38 39  1  0  0  0  0
  7  8  1  0  0  0  0
 17 18  1  0  0  0  0
  3  4  1  0  0  0  0
  3  5  1  0  0  0  0
  3  6  1  0  0  0  0
 42 45  1  0  0  0  0
 42 46  1  0  0  0  0
 42 47  1  0  0  0  0
 11 14  1  0  0  0  0
 11 15  1  0  0  0  0
 11 16  1  0  0  0  0
 49 51  1  0  0  0  0
 49 52  1  0  0  0  0
 49 53  1  0  0  0  0
 22 30  1  0  0  0  0
 22 31  1  0  0  0  0
 23 32  1  0  0  0  0
 23 33  1  0  0  0  0
 21 28  1  0  0  0  0
 21 29  1  0  0  0  0
 24 34  1  0  0  0  0
 24 35  1  0  0  0  0
 39 44  1  0  0  0  0
  8 13  1  0  0  0  0
 18 27  1  0  0  0  0
 25 36  1  0  0  0  0
 25 37  1  0  0  0  0
 48 50  1  0  0  0  0
  7 12  1  0  0  0  0
 38 43  1  0  0  0  0
 17 26  1  0  0  0  0
M  END
$$$$

  -OEChem-05262214473D

 53 52  0     1  0  0  0  0  0999 V2000
   -1.0338   -5.6785    0.1476 C   0  0  0  0  0  0  0  0  0  0  0  0
   -2.0514   -5.7797    0.8227 O   0  0  0  0  0  0  0  0  0  0  0  0
   -0.6558   -6.7819   -0.7841 C   0  0  0  0  0  0  0  0  0  0  0  0
   -0.0111   -7.5354   -0.3038 H   0  0  0  0  0  0  0  0  0  0  0  0
   -1.5317   -7.3401   -1.1520 H   0  0  0  0  0  0  0  0  0  0  0  0
   -0.1109   -6.4687   -1.6890 H   0  0  0  0  0  0  0  0  0  0  0  0
   -0.1543   -4.6083    0.1480 N   0  0  0  0  0  0  0  0  0  0  0  0
   -0.3302   -3.4398    0.9696 C   0  0  2  0  0  0  0  0  0  0  0  0
    0.2328   -2.2439    0.2131 C   0  0  0  0  0  0  0  0  0  0  0  0
    1.2097   -2.3192   -0.5294 O   0  0  0  0  0  0  0  0  0  0  0  0
    0.3557   -3.6024    2.3171 C   0  0  0  0  0  0  0  0  0  0  0  0
    0.6584   -4.6506   -0.4643 H   0  0  0  0  0  0  0  0  0  0  0  0
   -1.4091   -3.3101    1.1082 H   0  0  0  0  0  0  0  0  0  0  0  0
    1.4375   -3.7336    2.1985 H   0  0  0  0  0  0  0  0  0  0  0  0
    0.1969   -2.7243    2.9517 H   0  0  0  0  0  0  0  0  0  0  0  0
   -0.0294   -4.4803    2.8470 H   0  0  0  0  0  0  0  0  0  0  0  0
   -0.4616   -1.0893    0.5050 N   0  0  0  0  0  0  0  0  0  0  0  0
   -0.0884    0.2050   -0.0621 C   0  0  2  0  0  0  0  0  0  0  0  0
   -1.3680    0.8886   -0.5354 C   0  0  0  0  0  0  0  0  0  0  0  0
   -2.4908    0.5076   -0.2103 O   0  0  0  0  0  0  0  0  0  0  0  0
    0.8826    0.0643   -1.2439 C   0  0  0  0  0  0  0  0  0  0  0  0
    2.2680   -0.4466   -0.8351 C   0  0  0  0  0  0  0  0  0  0  0  0
    3.2015   -0.5447   -2.0448 C   0  0  0  0  0  0  0  0  0  0  0  0
    4.5752   -1.0774   -1.6406 C   0  0  0  0  0  0  0  0  0  0  0  0
    5.4403   -1.1853   -2.8093 N   0  0  0  0  0  0  0  0  0  0  0  0
   -1.2794   -1.1113    1.0935 H   0  0  0  0  0  0  0  0  0  0  0  0
    0.3710    0.8119    0.7274 H   0  0  0  0  0  0  0  0  0  0  0  0
    0.9958    1.0402   -1.7341 H   0  0  0  0  0  0  0  0  0  0  0  0
    0.4537   -0.6046   -2.0025 H   0  0  0  0  0  0  0  0  0  0  0  0
    2.1839   -1.4341   -0.3675 H   0  0  0  0  0  0  0  0  0  0  0  0
    2.7034    0.2308   -0.0908 H   0  0  0  0  0  0  0  0  0  0  0  0
    2.7531   -1.2042   -2.7985 H   0  0  0  0  0  0  0  0  0  0  0  0
    3.3090    0.4457   -2.5051 H   0  0  0  0  0  0  0  0  0  0  0  0
    4.4766   -2.0618   -1.1701 H   0  0  0  0  0  0  0  0  0  0  0  0
    5.0410   -0.4047   -0.9127 H   0  0  0  0  0  0  0  0  0  0  0  0
    4.9223   -0.9050   -3.6091 H   0  0  0  0  0  0  0  0  0  0  0  0
    6.2235   -0.5896   -2.6743 H   0  0  0  0  0  0  0  0  0  0  0  0
   -1.1070    1.9588   -1.3800 N   0  0  0  0  0  0  0  0  0  0  0  0
   -2.1448    2.7623   -1.9850 C   0  0  2  0  0  0  0  0  0  0  0  0
   -1.6452    3.2286   -3.3461 C   0  0  0  0  0  0  0  0  0  0  0  0
   -0.4665    3.4930   -3.5734 O   0  0  0  0  0  0  0  0  0  0  0  0
   -2.5108    3.9474   -1.1051 C   0  0  0  0  0  0  0  0  0  0  0  0
   -0.1438    2.2071   -1.5856 H   0  0  0  0  0  0  0  0  0  0  0  0
   -3.0136    2.1085   -2.1186 H   0  0  0  0  0  0  0  0  0  0  0  0
   -1.6527    4.6138   -0.9599 H   0  0  0  0  0  0  0  0  0  0  0  0
   -3.3169    4.5390   -1.5514 H   0  0  0  0  0  0  0  0  0  0  0  0
   -2.8415    3.6113   -0.1164 H   0  0  0  0  0  0  0  0  0  0  0  0
   -2.6773    3.3562   -4.2651 N   0  0  0  0  0  0  0  0  0  0  0  0
   -2.4657    3.8241   -5.6151 C   0  0  0  0  0  0  0  0  0  0  0  0
   -3.6178    3.0767   -4.0023 H   0  0  0  0  0  0  0  0  0  0  0  0
   -2.6152    4.9132   -5.6539 H   0  0  0  0  0  0  0  0  0  0  0  0
   -1.4395    3.5835   -5.9298 H   0  0  0  0  0  0  0  0  0  0  0  0
   -3.1812    3.3317   -6.2900 H   0  0  0  0  0  0  0  0  0  0  0  0
  1  3  1  0  0  0  0
  1  7  1  0  0  0  0
  1  2  2  0  0  0  0
 39 40  1  0  0  0  0
 40 48  1  0  0  0  0
 40 41  2  0  0  0  0
  8  9  1  0  0  0  0
  9 17  1  0  0  0  0
  9 10  2  0  0  0  0
 18 19  1  0  0  0  0
 19 38  1  0  0  0  0
 19 20  2  0  0  0  0
 39 42  1  0  0  0  0
  8 11  1  0  0  0  0
 48 49  1  0  0  0  0
 22 23  1  0  0  0  0
 21 22  1  0  0  0  0
 23 24  1  0  0  0  0
 18 21  1  0  0  0  0
 24 25  1  0  0  0  0
 38 39  1  0  0  0  0
  7  8  1  0  0  0  0
 17 18  1  0  0  0  0
  3  4  1  0  0  0  0
  3  5  1  0  0  0  0
  3  6  1  0  0  0  0
 42 45  1  0  0  0  0
 42 46  1  0  0  0  0
 42 47  1  0  0  0  0
 11 14  1  0  0  0  0
 11 15  1  0  0  0  0
 11 16  1  0  0  0  0
 49 51  1  0  0  0  0
 49 52  1  0  0  0  0
 49 53  1  0  0  0  0
 22 30  1  0  0  0  0
 22 31  1  0  0  0  0
 23 32  1  0  0  0  0
 23 33  1  0  0  0  0
 21 28  1  0  0  0  0
 21 29  1  0  0  0  0
 24 34  1  0  0  0  0
 24 35  1  0  0  0  0
 39 44  1  0  0  0  0
  8 13  1  0  0  0  0
 18 27  1  0  0  0  0
 25 36  1  0  0  0  0
 25 37  1  0  0  0  0
 48 50  1  0  0  0  0
  7 12  1  0  0  0  0
 38 43  1  0  0  0  0
 17 26  1  0  0  0  0
M  END
$$$$

  -OEChem-05262214473D

 53 52  0     1  0  0  0  0  0999 V2000
   -1.0338   -5.6785    0.1476 C   0  0  0  0  0  0  0  0  0  0  0  0
   -2.0514   -5.7797    0.8227 O   0  0  0  0  0  0  0  0  0  0  0  0
   -0.6558   -6.7819   -0.7841 C   0  0  0  0  0  0  0  0  0  0  0  0
   -0.0111   -7.5354   -0.3038 H   0  0  0  0  0  0  0  0  0  0  0  0
   -1.5317   -7.3401   -1.1520 H   0  0  0  0  0  0  0  0  0  0  0  0
   -0.1109   -6.4687   -1.6890 H   0  0  0  0  0  0  0  0  0  0  0  0
   -0.1543   -4.6083    0.1480 N   0  0  0  0  0  0  0  0  0  0  0  0
   -0.3302   -3.4398    0.9696 C   0  0  2  0  0  0  0  0  0  0  0  0
    0.2328   -2.2439    0.2131 C   0  0  0  0  0  0  0  0  0  0  0  0
    1.2097   -2.3192   -0.5294 O   0  0  0  0  0  0  0  0  0  0  0  0
    0.3557   -3.6024    2.3171 C   0  0  0  0  0  0  0  0  0  0  0  0
    0.6584   -4.6506   -0.4643 H   0  0  0  0  0  0  0  0  0  0  0  0
   -1.4091   -3.3101    1.1082 H   0  0  0  0  0  0  0  0  0  0  0  0
    1.4375   -3.7336    2.1985 H   0  0  0  0  0  0  0  0  0  0  0  0
    0.1969   -2.7243    2.9517 H   0  0  0  0  0  0  0  0  0  0  0  0
   -0.0294   -4.4803    2.8470 H   0  0  0  0  0  0  0  0  0  0  0  0
   -0.4616   -1.0893    0.5050 N   0  0  0  0  0  0  0  0  0  0  0  0
   -0.0884    0.2050   -0.0621 C   0  0  2  0  0  0  0  0  0  0  0  0
   -1.3680    0.8886   -0.5354 C   0  0  0  0  0  0  0  0  0  0  0  0
   -2.4646    0.6915   -0.0156 O   0  0  0  0  0  0  0  0  0  0  0  0
    0.8826    0.0643   -1.2439 C   0  0  0  0  0  0  0  0  0  0  0  0
    2.2680   -0.4466   -0.8351 C   0  0  0  0  0  0  0  0  0  0  0  0
    3.2015   -0.5447   -2.0448 C   0  0  0  0  0  0  0  0  0  0  0  0
    4.5752   -1.0774   -1.6406 C   0  0  0  0  0  0  0  0  0  0  0  0
    5.4403   -1.1853   -2.8093 N   0  0  0  0  0  0  0  0  0  0  0  0
   -1.2794   -1.1113    1.0935 H   0  0  0  0  0  0  0  0  0  0  0  0
    0.3710    0.8119    0.7274 H   0  0  0  0  0  0  0  0  0  0  0  0
    0.9958    1.0402   -1.7341 H   0  0  0  0  0  0  0  0  0  0  0  0
    0.4537   -0.6046   -2.0025 H   0  0  0  0  0  0  0  0  0  0  0  0
    2.1839   -1.4341   -0.3675 H   0  0  0  0  0  0  0  0  0  0  0  0
    2.7034    0.2308   -0.0908 H   0  0  0  0  0  0  0  0  0  0  0  0
    2.7531   -1.2042   -2.7985 H   0  0  0  0  0  0  0  0  0  0  0  0
    3.3090    0.4457   -2.5051 H   0  0  0  0  0  0  0  0  0  0  0  0
    4.4766   -2.0618   -1.1701 H   0  0  0  0  0  0  0  0  0  0  0  0
    5.0410   -0.4047   -0.9127 H   0  0  0  0  0  0  0  0  0  0  0  0
    4.9223   -0.9050   -3.6091 H   0  0  0  0  0  0  0  0  0  0  0  0
    6.2235   -0.5896   -2.6743 H   0  0  0  0  0  0  0  0  0  0  0  0
   -1.1428    1.7260   -1.6192 N   0  0  0  0  0  0  0  0  0  0  0  0
   -2.1914    2.4758   -2.2727 C   0  0  2  0  0  0  0  0  0  0  0  0
   -1.8353    2.5939   -3.7488 C   0  0  0  0  0  0  0  0  0  0  0  0
   -0.6790    2.6931   -4.1540 O   0  0  0  0  0  0  0  0  0  0  0  0
   -2.3639    3.8495   -1.6435 C   0  0  0  0  0  0  0  0  0  0  0  0
   -0.1983    1.8343   -1.9767 H   0  0  0  0  0  0  0  0  0  0  0  0
   -3.1122    1.8923   -2.1641 H   0  0  0  0  0  0  0  0  0  0  0  0
   -1.4515    4.4487   -1.7425 H   0  0  0  0  0  0  0  0  0  0  0  0
   -3.1777    4.4052   -2.1210 H   0  0  0  0  0  0  0  0  0  0  0  0
   -2.5907    3.7633   -0.5754 H   0  0  0  0  0  0  0  0  0  0  0  0
   -2.9630    2.6190   -4.5573 N   0  0  0  0  0  0  0  0  0  0  0  0
   -2.8905    2.7679   -5.9921 C   0  0  0  0  0  0  0  0  0  0  0  0
   -3.8801    2.4905   -4.1399 H   0  0  0  0  0  0  0  0  0  0  0  0
   -2.9698    3.8330   -6.2552 H   0  0  0  0  0  0  0  0  0  0  0  0
   -1.9302    2.3715   -6.3536 H   0  0  0  0  0  0  0  0  0  0  0  0
   -3.7162    2.2122   -6.4604 H   0  0  0  0  0  0  0  0  0  0  0  0
  1  3  1  0  0  0  0
  1  7  1  0  0  0  0
  1  2  2  0  0  0  0
 39 40  1  0  0  0  0
 40 48  1  0  0  0  0
 40 41  2  0  0  0  0
  8  9  1  0  0  0  0
  9 17  1  0  0  0  0
  9 10  2  0  0  0  0
 18 19  1  0  0  0  0
 19 38  1  0  0  0  0
 19 20  2  0  0  0  0
 39 42  1  0  0  0  0
  8 11  1  0  0  0  0
 48 49  1  0  0  0  0
 22 23  1  0  0  0  0
 21 22  1  0  0  0  0
 23 24  1  0  0  0  0
 18 21  1  0  0  0  0
 24 25  1  0  0  0  0
 38 39  1  0  0  0  0
  7  8  1  0  0  0  0
 17 18  1  0  0  0  0
  3  4  1  0  0  0  0
  3  5  1  0  0  0  0
  3  6  1  0  0  0  0
 42 45  1  0  0  0  0
 42 46  1  0  0  0  0
 42 47  1  0  0  0  0
 11 14  1  0  0  0  0
 11 15  1  0  0  0  0
 11 16  1  0  0  0  0
 49 51  1  0  0  0  0
 49 52  1  0  0  0  0
 49 53  1  0  0  0  0
 22 30  1  0  0  0  0
 22 31  1  0  0  0  0
 23 32  1  0  0  0  0
 23 33  1  0  0  0  0
 21 28  1  0  0  0  0
 21 29  1  0  0  0  0
 24 34  1  0  0  0  0
 24 35  1  0  0  0  0
 39 44  1  0  0  0  0
  8 13  1  0  0  0  0
 18 27  1  0  0  0  0
 25 36  1  0  0  0  0
 25 37  1  0  0  0  0
 48 50  1  0  0  0  0
  7 12  1  0  0  0  0
 38 43  1  0  0  0  0
 17 26  1  0  0  0  0
M  END
$$$$

  -OEChem-05262214473D

 53 52  0     1  0  0  0  0  0999 V2000
   -1.0338   -5.6785    0.1476 C   0  0  0  0  0  0  0  0  0  0  0  0
   -2.0514   -5.7797    0.8227 O   0  0  0  0  0  0  0  0  0  0  0  0
   -0.6558   -6.7819   -0.7841 C   0  0  0  0  0  0  0  0  0  0  0  0
   -0.0111   -7.5354   -0.3038 H   0  0  0  0  0  0  0  0  0  0  0  0
   -1.5317   -7.3401   -1.1520 H   0  0  0  0  0  0  0  0  0  0  0  0
   -0.1109   -6.4687   -1.6890 H   0  0  0  0  0  0  0  0  0  0  0  0
   -0.1543   -4.6083    0.1480 N   0  0  0  0  0  0  0  0  0  0  0  0
   -0.3302   -3.4398    0.9696 C   0  0  2  0  0  0  0  0  0  0  0  0
    0.2328   -2.2439    0.2131 C   0  0  0  0  0  0  0  0  0  0  0  0
    1.2097   -2.3192   -0.5294 O   0  0  0  0  0  0  0  0  0  0  0  0
    0.3557   -3.6024    2.3171 C   0  0  0  0  0  0  0  0  0  0  0  0
    0.6584   -4.6506   -0.4643 H   0  0  0  0  0  0  0  0  0  0  0  0
   -1.4091   -3.3101    1.1082 H   0  0  0  0  0  0  0  0  0  0  0  0
    1.4375   -3.7336    2.1985 H   0  0  0  0  0  0  0  0  0  0  0  0
    0.1969   -2.7243    2.9517 H   0  0  0  0  0  0  0  0  0  0  0  0
   -0.0294   -4.4803    2.8470 H   0  0  0  0  0  0  0  0  0  0  0  0
   -0.4616   -1.0893    0.5050 N   0  0  0  0  0  0  0  0  0  0  0  0
   -0.0884    0.2050   -0.0621 C   0  0  2  0  0  0  0  0  0  0  0  0
   -1.3680    0.8886   -0.5354 C   0  0  0  0  0  0  0  0  0  0  0  0
   -2.4020    0.9092    0.1295 O   0  0  0  0  0  0  0  0  0  0  0  0
    0.8826    0.0643   -1.2439 C   0  0  0  0  0  0  0  0  0  0  0  0
    2.2680   -0.4466   -0.8351 C   0  0  0  0  0  0  0  0  0  0  0  0
    3.2015   -0.5447   -2.0448 C   0  0  0  0  0  0  0  0  0  0  0  0
    4.5752   -1.0774   -1.6406 C   0  0  0  0  0  0  0  0  0  0  0  0
    5.4403   -1.1853   -2.8093 N   0  0  0  0  0  0  0  0  0  0  0  0
   -1.2794   -1.1113    1.0935 H   0  0  0  0  0  0  0  0  0  0  0  0
    0.3710    0.8119    0.7274 H   0  0  0  0  0  0  0  0  0  0  0  0
    0.9958    1.0402   -1.7341 H   0  0  0  0  0  0  0  0  0  0  0  0
    0.4537   -0.6046   -2.0025 H   0  0  0  0  0  0  0  0  0  0  0  0
    2.1839   -1.4341   -0.3675 H   0  0  0  0  0  0  0  0  0  0  0  0
    2.7034    0.2308   -0.0908 H   0  0  0  0  0  0  0  0  0  0  0  0
    2.7531   -1.2042   -2.7985 H   0  0  0  0  0  0  0  0  0  0  0  0
    3.3090    0.4457   -2.5051 H   0  0  0  0  0  0  0  0  0  0  0  0
    4.4766   -2.0618   -1.1701 H   0  0  0  0  0  0  0  0  0  0  0  0
    5.0410   -0.4047   -0.9127 H   0  0  0  0  0  0  0  0  0  0  0  0
    4.9223   -0.9050   -3.6091 H   0  0  0  0  0  0  0  0  0  0  0  0
    6.2235   -0.5896   -2.6743 H   0  0  0  0  0  0  0  0  0  0  0  0
   -1.2239    1.4521   -1.7957 N   0  0  0  0  0  0  0  0  0  0  0  0
   -2.2928    2.1403   -2.4830 C   0  0  2  0  0  0  0  0  0  0  0  0
   -2.1165    1.9088   -3.9779 C   0  0  0  0  0  0  0  0  0  0  0  0
   -1.0158    1.8116   -4.5165 O   0  0  0  0  0  0  0  0  0  0  0  0
   -2.2924    3.6263   -2.1594 C   0  0  0  0  0  0  0  0  0  0  0  0
   -0.3262    1.3936   -2.2673 H   0  0  0  0  0  0  0  0  0  0  0  0
   -3.2301    1.6815   -2.1498 H   0  0  0  0  0  0  0  0  0  0  0  0
   -1.3611    4.1033   -2.4859 H   0  0  0  0  0  0  0  0  0  0  0  0
   -3.1200    4.1413   -2.6583 H   0  0  0  0  0  0  0  0  0  0  0  0
   -2.3893    3.7902   -1.0807 H   0  0  0  0  0  0  0  0  0  0  0  0
   -3.3321    1.8665   -4.6464 N   0  0  0  0  0  0  0  0  0  0  0  0
   -3.4293    1.6999   -6.0778 C   0  0  0  0  0  0  0  0  0  0  0  0
   -4.1965    1.9154   -4.1152 H   0  0  0  0  0  0  0  0  0  0  0  0
   -3.4688    2.6875   -6.5605 H   0  0  0  0  0  0  0  0  0  0  0  0
   -2.5505    1.1482   -6.4431 H   0  0  0  0  0  0  0  0  0  0  0  0
   -4.3426    1.1367   -6.3201 H   0  0  0  0  0  0  0  0  0  0  0  0
  1  3  1  0  0  0  0
  1  7  1  0  0  0  0
  1  2  2  0  0  0  0
 39 40  1  0  0  0  0
 40 48  1  0  0  0  0
 40 41  2  0  0  0  0
  8  9  1  0  0  0  0
  9 17  1  0  0  0  0
  9 10  2  0  0  0  0
 18 19  1  0  0  0  0
 19 38  1  0  0  0  0
 19 20  2  0  0  0  0
 39 42  1  0  0  0  0
  8 11  1  0  0  0  0
 48 49  1  0  0  0  0
 22 23  1  0  0  0  0
 21 22  1  0  0  0  0
 23 24  1  0  0  0  0
 18 21  1  0  0  0  0
 24 25  1  0  0  0  0
 38 39  1  0  0  0  0
  7  8  1  0  0  0  0
 17 18  1  0  0  0  0
  3  4  1  0  0  0  0
  3  5  1  0  0  0  0
  3  6  1  0  0  0  0
 42 45  1  0  0  0  0
 42 46  1  0  0  0  0
 42 47  1  0  0  0  0
 11 14  1  0  0  0  0
 11 15  1  0  0  0  0
 11 16  1  0  0  0  0
 49 51  1  0  0  0  0
 49 52  1  0  0  0  0
 49 53  1  0  0  0  0
 22 30  1  0  0  0  0
 22 31  1  0  0  0  0
 23 32  1  0  0  0  0
 23 33  1  0  0  0  0
 21 28  1  0  0  0  0
 21 29  1  0  0  0  0
 24 34  1  0  0  0  0
 24 35  1  0  0  0  0
 39 44  1  0  0  0  0
  8 13  1  0  0  0  0
 18 27  1  0  0  0  0
 25 36  1  0  0  0  0
 25 37  1  0  0  0  0
 48 50  1  0  0  0  0
  7 12  1  0  0  0  0
 38 43  1  0  0  0  0
 17 26  1  0  0  0  0
M  END
$$$$

  -OEChem-05262214473D

 53 52  0     1  0  0  0  0  0999 V2000
   -1.0338   -5.6785    0.1476 C   0  0  0  0  0  0  0  0  0  0  0  0
   -2.0514   -5.7797    0.8227 O   0  0  0  0  0  0  0  0  0  0  0  0
   -0.6558   -6.7819   -0.7841 C   0  0  0  0  0  0  0  0  0  0  0  0
   -0.0111   -7.5354   -0.3038 H   0  0  0  0  0  0  0  0  0  0  0  0
   -1.5317   -7.3401   -1.1520 H   0  0  0  0  0  0  0  0  0  0  0  0
   -0.1109   -6.4687   -1.6890 H   0  0  0  0  0  0  0  0  0  0  0  0
   -0.1543   -4.6083    0.1480 N   0  0  0  0  0  0  0  0  0  0  0  0
   -0.3302   -3.4398    0.9696 C   0  0  2  0  0  0  0  0  0  0  0  0
    0.2328   -2.2439    0.2131 C   0  0  0  0  0  0  0  0  0  0  0  0
    1.2097   -2.3192   -0.5294 O   0  0  0  0  0  0  0  0  0  0  0  0
    0.3557   -3.6024    2.3171 C   0  0  0  0  0  0  0  0  0  0  0  0
    0.6584   -4.6506   -0.4643 H   0  0  0  0  0  0  0  0  0  0  0  0
   -1.4091   -3.3101    1.1082 H   0  0  0  0  0  0  0  0  0  0  0  0
    1.4375   -3.7336    2.1985 H   0  0  0  0  0  0  0  0  0  0  0  0
    0.1969   -2.7243    2.9517 H   0  0  0  0  0  0  0  0  0  0  0  0
   -0.0294   -4.4803    2.8470 H   0  0  0  0  0  0  0  0  0  0  0  0
   -0.4616   -1.0893    0.5050 N   0  0  0  0  0  0  0  0  0  0  0  0
   -0.0884    0.2050   -0.0621 C   0  0  2  0  0  0  0  0  0  0  0  0
   -1.3680    0.8886   -0.5354 C   0  0  0  0  0  0  0  0  0  0  0  0
   -2.3071    1.1460    0.2152 O   0  0  0  0  0  0  0  0  0  0  0  0
    0.8826    0.0643   -1.2439 C   0  0  0  0  0  0  0  0  0  0  0  0
    2.2680   -0.4466   -0.8351 C   0  0  0  0  0  0  0  0  0  0  0  0
    3.2015   -0.5447   -2.0448 C   0  0  0  0  0  0  0  0  0  0  0  0
    4.5752   -1.0774   -1.6406 C   0  0  0  0  0  0  0  0  0  0  0  0
    5.4403   -1.1853   -2.8093 N   0  0  0  0  0  0  0  0  0  0  0  0
   -1.2794   -1.1113    1.0935 H   0  0  0  0  0  0  0  0  0  0  0  0
    0.3710    0.8119    0.7274 H   0  0  0  0  0  0  0  0  0  0  0  0
    0.9958    1.0402   -1.7341 H   0  0  0  0  0  0  0  0  0  0  0  0
    0.4537   -0.6046   -2.0025 H   0  0  0  0  0  0  0  0  0  0  0  0
    2.1839   -1.4341   -0.3675 H   0  0  0  0  0  0  0  0  0  0  0  0
    2.7034    0.2308   -0.0908 H   0  0  0  0  0  0  0  0  0  0  0  0
    2.7531   -1.2042   -2.7985 H   0  0  0  0  0  0  0  0  0  0  0  0
    3.3090    0.4457   -2.5051 H   0  0  0  0  0  0  0  0  0  0  0  0
    4.4766   -2.0618   -1.1701 H   0  0  0  0  0  0  0  0  0  0  0  0
    5.0410   -0.4047   -0.9127 H   0  0  0  0  0  0  0  0  0  0  0  0
    4.9223   -0.9050   -3.6091 H   0  0  0  0  0  0  0  0  0  0  0  0
    6.2235   -0.5896   -2.6743 H   0  0  0  0  0  0  0  0  0  0  0  0
   -1.3446    1.1558   -1.8973 N   0  0  0  0  0  0  0  0  0  0  0  0
   -2.4421    1.7788   -2.6016 C   0  0  2  0  0  0  0  0  0  0  0  0
   -2.4698    1.2198   -4.0180 C   0  0  0  0  0  0  0  0  0  0  0  0
   -1.4539    0.9085   -4.6363 O   0  0  0  0  0  0  0  0  0  0  0  0
   -2.3010    3.2930   -2.6175 C   0  0  0  0  0  0  0  0  0  0  0  0
   -0.5188    0.9152   -2.4375 H   0  0  0  0  0  0  0  0  0  0  0  0
   -3.3592    1.4904   -2.0766 H   0  0  0  0  0  0  0  0  0  0  0  0
   -1.3877    3.6010   -3.1395 H   0  0  0  0  0  0  0  0  0  0  0  0
   -3.1478    3.7650   -3.1266 H   0  0  0  0  0  0  0  0  0  0  0  0
   -2.2513    3.6905   -1.5981 H   0  0  0  0  0  0  0  0  0  0  0  0
   -3.7593    1.1498   -4.5264 N   0  0  0  0  0  0  0  0  0  0  0  0
   -4.0454    0.6930   -5.8663 C   0  0  0  0  0  0  0  0  0  0  0  0
   -4.5453    1.3907   -3.9298 H   0  0  0  0  0  0  0  0  0  0  0  0
   -4.0781    1.5549   -6.5490 H   0  0  0  0  0  0  0  0  0  0  0  0
   -3.2583   -0.0030   -6.1921 H   0  0  0  0  0  0  0  0  0  0  0  0
   -5.0177    0.1787   -5.8785 H   0  0  0  0  0  0  0  0  0  0  0  0
  1  3  1  0  0  0  0
  1  7  1  0  0  0  0
  1  2  2  0  0  0  0
 39 40  1  0  0  0  0
 40 48  1  0  0  0  0
 40 41  2  0  0  0  0
  8  9  1  0  0  0  0
  9 17  1  0  0  0  0
  9 10  2  0  0  0  0
 18 19  1  0  0  0  0
 19 38  1  0  0  0  0
 19 20  2  0  0  0  0
 39 42  1  0  0  0  0
  8 11  1  0  0  0  0
 48 49  1  0  0  0  0
 22 23  1  0  0  0  0
 21 22  1  0  0  0  0
 23 24  1  0  0  0  0
 18 21  1  0  0  0  0
 24 25  1  0  0  0  0
 38 39  1  0  0  0  0
  7  8  1  0  0  0  0
 17 18  1  0  0  0  0
  3  4  1  0  0  0  0
  3  5  1  0  0  0  0
  3  6  1  0  0  0  0
 42 45  1  0  0  0  0
 42 46  1  0  0  0  0
 42 47  1  0  0  0  0
 11 14  1  0  0  0  0
 11 15  1  0  0  0  0
 11 16  1  0  0  0  0
 49 51  1  0  0  0  0
 49 52  1  0  0  0  0
 49 53  1  0  0  0  0
 22 30  1  0  0  0  0
 22 31  1  0  0  0  0
 23 32  1  0  0  0  0
 23 33  1  0  0  0  0
 21 28  1  0  0  0  0
 21 29  1  0  0  0  0
 24 34  1  0  0  0  0
 24 35  1  0  0  0  0
 39 44  1  0  0  0  0
  8 13  1  0  0  0  0
 18 27  1  0  0  0  0
 25 36  1  0  0  0  0
 25 37  1  0  0  0  0
 48 50  1  0  0  0  0
  7 12  1  0  0  0  0
 38 43  1  0  0  0  0
 17 26  1  0  0  0  0
M  END
$$$$

  -OEChem-05262214473D

 53 52  0     1  0  0  0  0  0999 V2000
   -1.0338   -5.6785    0.1476 C   0  0  0  0  0  0  0  0  0  0  0  0
   -2.0514   -5.7797    0.8227 O   0  0  0  0  0  0  0  0  0  0  0  0
   -0.6558   -6.7819   -0.7841 C   0  0  0  0  0  0  0  0  0  0  0  0
   -0.0111   -7.5354   -0.3038 H   0  0  0  0  0  0  0  0  0  0  0  0
   -1.5317   -7.3401   -1.1520 H   0  0  0  0  0  0  0  0  0  0  0  0
   -0.1109   -6.4687   -1.6890 H   0  0  0  0  0  0  0  0  0  0  0  0
   -0.1543   -4.6083    0.1480 N   0  0  0  0  0  0  0  0  0  0  0  0
   -0.3302   -3.4398    0.9696 C   0  0  2  0  0  0  0  0  0  0  0  0
    0.2328   -2.2439    0.2131 C   0  0  0  0  0  0  0  0  0  0  0  0
    1.2097   -2.3192   -0.5294 O   0  0  0  0  0  0  0  0  0  0  0  0
    0.3557   -3.6024    2.3171 C   0  0  0  0  0  0  0  0  0  0  0  0
    0.6584   -4.6506   -0.4643 H   0  0  0  0  0  0  0  0  0  0  0  0
   -1.4091   -3.3101    1.1082 H   0  0  0  0  0  0  0  0  0  0  0  0
    1.4375   -3.7336    2.1985 H   0  0  0  0  0  0  0  0  0  0  0  0
    0.1969   -2.7243    2.9517 H   0  0  0  0  0  0  0  0  0  0  0  0
   -0.0294   -4.4803    2.8470 H   0  0  0  0  0  0  0  0  0  0  0  0
   -0.4616   -1.0893    0.5050 N   0  0  0  0  0  0  0  0  0  0  0  0
   -0.0884    0.2050   -0.0621 C   0  0  2  0  0  0  0  0  0  0  0  0
   -1.3680    0.8886   -0.5354 C   0  0  0  0  0  0  0  0  0  0  0  0
   -2.1866    1.3858    0.2355 O   0  0  0  0  0  0  0  0  0  0  0  0
    0.8826    0.0643   -1.2439 C   0  0  0  0  0  0  0  0  0  0  0  0
    2.2680   -0.4466   -0.8351 C   0  0  0  0  0  0  0  0  0  0  0  0
    3.2015   -0.5447   -2.0448 C   0  0  0  0  0  0  0  0  0  0  0  0
    4.5752   -1.0774   -1.6406 C   0  0  0  0  0  0  0  0  0  0  0  0
    5.4403   -1.1853   -2.8093 N   0  0  0  0  0  0  0  0  0  0  0  0
   -1.2794   -1.1113    1.0935 H   0  0  0  0  0  0  0  0  0  0  0  0
    0.3710    0.8119    0.7274 H   0  0  0  0  0  0  0  0  0  0  0  0
    0.9958    1.0402   -1.7341 H   0  0  0  0  0  0  0  0  0  0  0  0
    0.4537   -0.6046   -2.0025 H   0  0  0  0  0  0  0  0  0  0  0  0
    2.1839   -1.4341   -0.3675 H   0  0  0  0  0  0  0  0  0  0  0  0
    2.7034    0.2308   -0.0908 H   0  0  0  0  0  0  0  0  0  0  0  0
    2.7531   -1.2042   -2.7985 H   0  0  0  0  0  0  0  0  0  0  0  0
    3.3090    0.4457   -2.5051 H   0  0  0  0  0  0  0  0  0  0  0  0
    4.4766   -2.0618   -1.1701 H   0  0  0  0  0  0  0  0  0  0  0  0
    5.0410   -0.4047   -0.9127 H   0  0  0  0  0  0  0  0  0  0  0  0
    4.9223   -0.9050   -3.6091 H   0  0  0  0  0  0  0  0  0  0  0  0
    6.2235   -0.5896   -2.6743 H   0  0  0  0  0  0  0  0  0  0  0  0
   -1.4968    0.8572   -1.9171 N   0  0  0  0  0  0  0  0  0  0  0  0
   -2.6290    1.4159   -2.6204 C   0  0  2  0  0  0  0  0  0  0  0  0
   -2.8709    0.5739   -3.8662 C   0  0  0  0  0  0  0  0  0  0  0  0
   -1.9635    0.0453   -4.5052 O   0  0  0  0  0  0  0  0  0  0  0  0
   -2.3892    2.8722   -2.9867 C   0  0  0  0  0  0  0  0  0  0  0  0
   -0.7630    0.4317   -2.4758 H   0  0  0  0  0  0  0  0  0  0  0  0
   -3.4908    1.3322   -1.9494 H   0  0  0  0  0  0  0  0  0  0  0  0
   -1.5295    2.9760   -3.6587 H   0  0  0  0  0  0  0  0  0  0  0  0
   -3.2591    3.3022   -3.4942 H   0  0  0  0  0  0  0  0  0  0  0  0
   -2.1860    3.4707   -2.0921 H   0  0  0  0  0  0  0  0  0  0  0  0
   -4.2155    0.5180   -4.2054 N   0  0  0  0  0  0  0  0  0  0  0  0
   -4.6968   -0.1843   -5.3721 C   0  0  0  0  0  0  0  0  0  0  0  0
   -4.9029    0.9520   -3.5964 H   0  0  0  0  0  0  0  0  0  0  0  0
   -4.7562    0.5123   -6.2214 H   0  0  0  0  0  0  0  0  0  0  0  0
   -4.0053   -1.0037   -5.6178 H   0  0  0  0  0  0  0  0  0  0  0  0
   -5.6954   -0.5966   -5.1657 H   0  0  0  0  0  0  0  0  0  0  0  0
  1  3  1  0  0  0  0
  1  7  1  0  0  0  0
  1  2  2  0  0  0  0
 39 40  1  0  0  0  0
 40 48  1  0  0  0  0
 40 41  2  0  0  0  0
  8  9  1  0  0  0  0
  9 17  1  0  0  0  0
  9 10  2  0  0  0  0
 18 19  1  0  0  0  0
 19 38  1  0  0  0  0
 19 20  2  0  0  0  0
 39 42  1  0  0  0  0
  8 11  1  0  0  0  0
 48 49  1  0  0  0  0
 22 23  1  0  0  0  0
 21 22  1  0  0  0  0
 23 24  1  0  0  0  0
 18 21  1  0  0  0  0
 24 25  1  0  0  0  0
 38 39  1  0  0  0  0
  7  8  1  0  0  0  0
 17 18  1  0  0  0  0
  3  4  1  0  0  0  0
  3  5  1  0  0  0  0
  3  6  1  0  0  0  0
 42 45  1  0  0  0  0
 42 46  1  0  0  0  0
 42 47  1  0  0  0  0
 11 14  1  0  0  0  0
 11 15  1  0  0  0  0
 11 16  1  0  0  0  0
 49 51  1  0  0  0  0
 49 52  1  0  0  0  0
 49 53  1  0  0  0  0
 22 30  1  0  0  0  0
 22 31  1  0  0  0  0
 23 32  1  0  0  0  0
 23 33  1  0  0  0  0
 21 28  1  0  0  0  0
 21 29  1  0  0  0  0
 24 34  1  0  0  0  0
 24 35  1  0  0  0  0
 39 44  1  0  0  0  0
  8 13  1  0  0  0  0
 18 27  1  0  0  0  0
 25 36  1  0  0  0  0
 25 37  1  0  0  0  0
 48 50  1  0  0  0  0
  7 12  1  0  0  0  0
 38 43  1  0  0  0  0
 17 26  1  0  0  0  0
M  END
$$$$

  -OEChem-05262214473D

 53 52  0     1  0  0  0  0  0999 V2000
   -1.0338   -5.6785    0.1476 C   0  0  0  0  0  0  0  0  0  0  0  0
   -2.0514   -5.7797    0.8227 O   0  0  0  0  0  0  0  0  0  0  0  0
   -0.6558   -6.7819   -0.7841 C   0  0  0  0  0  0  0  0  0  0  0  0
   -0.0111   -7.5354   -0.3038 H   0  0  0  0  0  0  0  0  0  0  0  0
   -1.5317   -7.3401   -1.1520 H   0  0  0  0  0  0  0  0  0  0  0  0
   -0.1109   -6.4687   -1.6890 H   0  0  0  0  0  0  0  0  0  0  0  0
   -0.1543   -4.6083    0.1480 N   0  0  0  0  0  0  0  0  0  0  0  0
   -0.3302   -3.4398    0.9696 C   0  0  2  0  0  0  0  0  0  0  0  0
    0.2328   -2.2439    0.2131 C   0  0  0  0  0  0  0  0  0  0  0  0
    1.2097   -2.3192   -0.5294 O   0  0  0  0  0  0  0  0  0  0  0  0
    0.3557   -3.6024    2.3171 C   0  0  0  0  0  0  0  0  0  0  0  0
    0.6584   -4.6506   -0.4643 H   0  0  0  0  0  0  0  0  0  0  0  0
   -1.4091   -3.3101    1.1082 H   0  0  0  0  0  0  0  0  0  0  0  0
    1.4375   -3.7336    2.1985 H   0  0  0  0  0  0  0  0  0  0  0  0
    0.1969   -2.7243    2.9517 H   0  0  0  0  0  0  0  0  0  0  0  0
   -0.0294   -4.4803    2.8470 H   0  0  0  0  0  0  0  0  0  0  0  0
   -0.4616   -1.0893    0.5050 N   0  0  0  0  0  0  0  0  0  0  0  0
   -0.0884    0.2050   -0.0621 C   0  0  2  0  0  0  0  0  0  0  0  0
   -1.3680    0.8886   -0.5354 C   0  0  0  0  0  0  0  0  0  0  0  0
   -2.0486    1.6121    0.1892 O   0  0  0  0  0  0  0  0  0  0  0  0
    0.8826    0.0643   -1.2439 C   0  0  0  0  0  0  0  0  0  0  0  0
    2.2680   -0.4466   -0.8351 C   0  0  0  0  0  0  0  0  0  0  0  0
    3.2015   -0.5447   -2.0448 C   0  0  0  0  0  0  0  0  0  0  0  0
    4.5752   -1.0774   -1.6406 C   0  0  0  0  0  0  0  0  0  0  0  0
    5.4403   -1.1853   -2.8093 N   0  0  0  0  0  0  0  0  0  0  0  0
   -1.2794   -1.1113    1.0935 H   0  0  0  0  0  0  0  0  0  0  0  0
    0.3710    0.8119    0.7274 H   0  0  0  0  0  0  0  0  0  0  0  0
    0.9958    1.0402   -1.7341 H   0  0  0  0  0  0  0  0  0  0  0  0
    0.4537   -0.6046   -2.0025 H   0  0  0  0  0  0  0  0  0  0  0  0
    2.1839   -1.4341   -0.3675 H   0  0  0  0  0  0  0  0  0  0  0  0
    2.7034    0.2308   -0.0908 H   0  0  0  0  0  0  0  0  0  0  0  0
    2.7531   -1.2042   -2.7985 H   0  0  0  0  0  0  0  0  0  0  0  0
    3.3090    0.4457   -2.5051 H   0  0  0  0  0  0  0  0  0  0  0  0
    4.4766   -2.0618   -1.1701 H   0  0  0  0  0  0  0  0  0  0  0  0
    5.0410   -0.4047   -0.9127 H   0  0  0  0  0  0  0  0  0  0  0  0
    4.9223   -0.9050   -3.6091 H   0  0  0  0  0  0  0  0  0  0  0  0
    6.2235   -0.5896   -2.6743 H   0  0  0  0  0  0  0  0  0  0  0  0
   -1.6700    0.5767   -1.8538 N   0  0  0  0  0  0  0  0  0  0  0  0
   -2.8409    1.0762   -2.5381 C   0  0  2  0  0  0  0  0  0  0  0  0
   -3.2926    0.0152   -3.5330 C   0  0  0  0  0  0  0  0  0  0  0  0
   -2.5098   -0.7191   -4.1322 O   0  0  0  0  0  0  0  0  0  0  0  0
   -2.5510    2.3928   -3.2418 C   0  0  0  0  0  0  0  0  0  0  0  0
   -1.0421   -0.0241   -2.3794 H   0  0  0  0  0  0  0  0  0  0  0  0
   -3.6159    1.2174   -1.7769 H   0  0  0  0  0  0  0  0  0  0  0  0
   -1.7768    2.2711   -4.0082 H   0  0  0  0  0  0  0  0  0  0  0  0
   -3.4464    2.7843   -3.7358 H   0  0  0  0  0  0  0  0  0  0  0  0
   -2.1977    3.1460   -2.5293 H   0  0  0  0  0  0  0  0  0  0  0  0
   -4.6697    0.0139   -3.7053 N   0  0  0  0  0  0  0  0  0  0  0  0
   -5.3391   -0.8721   -4.6288 C   0  0  0  0  0  0  0  0  0  0  0  0
   -5.2449    0.6294   -3.1377 H   0  0  0  0  0  0  0  0  0  0  0  0
   -5.4569   -0.3693   -5.6000 H   0  0  0  0  0  0  0  0  0  0  0  0
   -4.7406   -1.7858   -4.7592 H   0  0  0  0  0  0  0  0  0  0  0  0
   -6.3297   -1.1365   -4.2304 H   0  0  0  0  0  0  0  0  0  0  0  0
  1  3  1  0  0  0  0
  1  7  1  0  0  0  0
  1  2  2  0  0  0  0
 39 40  1  0  0  0  0
 40 48  1  0  0  0  0
 40 41  2  0  0  0  0
  8  9  1  0  0  0  0
  9 17  1  0  0  0  0
  9 10  2  0  0  0  0
 18 19  1  0  0  0  0
 19 38  1  0  0  0  0
 19 20  2  0  0  0  0
 39 42  1  0  0  0  0
  8 11  1  0  0  0  0
 48 49  1  0  0  0  0
 22 23  1  0  0  0  0
 21 22  1  0  0  0  0
 23 24  1  0  0  0  0
 18 21  1  0  0  0  0
 24 25  1  0  0  0  0
 38 39  1  0  0  0  0
  7  8  1  0  0  0  0
 17 18  1  0  0  0  0
  3  4  1  0  0  0  0
  3  5  1  0  0  0  0
  3  6  1  0  0  0  0
 42 45  1  0  0  0  0
 42 46  1  0  0  0  0
 42 47  1  0  0  0  0
 11 14  1  0  0  0  0
 11 15  1  0  0  0  0
 11 16  1  0  0  0  0
 49 51  1  0  0  0  0
 49 52  1  0  0  0  0
 49 53  1  0  0  0  0
 22 30  1  0  0  0  0
 22 31  1  0  0  0  0
 23 32  1  0  0  0  0
 23 33  1  0  0  0  0
 21 28  1  0  0  0  0
 21 29  1  0  0  0  0
 24 34  1  0  0  0  0
 24 35  1  0  0  0  0
 39 44  1  0  0  0  0
  8 13  1  0  0  0  0
 18 27  1  0  0  0  0
 25 36  1  0  0  0  0
 25 37  1  0  0  0  0
 48 50  1  0  0  0  0
  7 12  1  0  0  0  0
 38 43  1  0  0  0  0
 17 26  1  0  0  0  0
M  END
$$$$

  -OEChem-05262214473D

 53 52  0     1  0  0  0  0  0999 V2000
   -1.0338   -5.6785    0.1476 C   0  0  0  0  0  0  0  0  0  0  0  0
   -2.0514   -5.7797    0.8227 O   0  0  0  0  0  0  0  0  0  0  0  0
   -0.6558   -6.7819   -0.7841 C   0  0  0  0  0  0  0  0  0  0  0  0
   -0.0111   -7.5354   -0.3038 H   0  0  0  0  0  0  0  0  0  0  0  0
   -1.5317   -7.3401   -1.1520 H   0  0  0  0  0  0  0  0  0  0  0  0
   -0.1109   -6.4687   -1.6890 H   0  0  0  0  0  0  0  0  0  0  0  0
   -0.1543   -4.6083    0.1480 N   0  0  0  0  0  0  0  0  0  0  0  0
   -0.3302   -3.4398    0.9696 C   0  0  2  0  0  0  0  0  0  0  0  0
    0.2328   -2.2439    0.2131 C   0  0  0  0  0  0  0  0  0  0  0  0
    1.2097   -2.3192   -0.5294 O   0  0  0  0  0  0  0  0  0  0  0  0
    0.3557   -3.6024    2.3171 C   0  0  0  0  0  0  0  0  0  0  0  0
    0.6584   -4.6506   -0.4643 H   0  0  0  0  0  0  0  0  0  0  0  0
   -1.4091   -3.3101    1.1082 H   0  0  0  0  0  0  0  0  0  0  0  0
    1.4375   -3.7336    2.1985 H   0  0  0  0  0  0  0  0  0  0  0  0
    0.1969   -2.7243    2.9517 H   0  0  0  0  0  0  0  0  0  0  0  0
   -0.0294   -4.4803    2.8470 H   0  0  0  0  0  0  0  0  0  0  0  0
   -0.4616   -1.0893    0.5050 N   0  0  0  0  0  0  0  0  0  0  0  0
   -0.0884    0.2050   -0.0621 C   0  0  2  0  0  0  0  0  0  0  0  0
   -1.3680    0.8886   -0.5354 C   0  0  0  0  0  0  0  0  0  0  0  0
   -1.9025    1.8095    0.0793 O   0  0  0  0  0  0  0  0  0  0  0  0
    0.8826    0.0643   -1.2439 C   0  0  0  0  0  0  0  0  0  0  0  0
    2.2680   -0.4466   -0.8351 C   0  0  0  0  0  0  0  0  0  0  0  0
    3.2015   -0.5447   -2.0448 C   0  0  0  0  0  0  0  0  0  0  0  0
    4.5752   -1.0774   -1.6406 C   0  0  0  0  0  0  0  0  0  0  0  0
    5.4403   -1.1853   -2.8093 N   0  0  0  0  0  0  0  0  0  0  0  0
   -1.2794   -1.1113    1.0935 H   0  0  0  0  0  0  0  0  0  0  0  0
    0.3710    0.8119    0.7274 H   0  0  0  0  0  0  0  0  0  0  0  0
    0.9958    1.0402   -1.7341 H   0  0  0  0  0  0  0  0  0  0  0  0
    0.4537   -0.6046   -2.0025 H   0  0  0  0  0  0  0  0  0  0  0  0
    2.1839   -1.4341   -0.3675 H   0  0  0  0  0  0  0  0  0  0  0  0
    2.7034    0.2308   -0.0908 H   0  0  0  0  0  0  0  0  0  0  0  0
    2.7531   -1.2042   -2.7985 H   0  0  0  0  0  0  0  0  0  0  0  0
    3.3090    0.4457   -2.5051 H   0  0  0  0  0  0  0  0  0  0  0  0
    4.4766   -2.0618   -1.1701 H   0  0  0  0  0  0  0  0  0  0  0  0
    5.0410   -0.4047   -0.9127 H   0  0  0  0  0  0  0  0  0  0  0  0
    4.9223   -0.9050   -3.6091 H   0  0  0  0  0  0  0  0  0  0  0  0
    6.2235   -0.5896   -2.6743 H   0  0  0  0  0  0  0  0  0  0  0  0
   -1.8525    0.3334   -1.7117 N   0  0  0  0  0  0  0  0  0  0  0  0
   -3.0633    0.7830   -2.3603 C   0  0  2  0  0  0  0  0  0  0  0  0
   -3.7062   -0.4183   -3.0409 C   0  0  0  0  0  0  0  0  0  0  0  0
   -3.0556   -1.3326   -3.5426 O   0  0  0  0  0  0  0  0  0  0  0  0
   -2.7753    1.8874   -3.3654 C   0  0  0  0  0  0  0  0  0  0  0  0
   -1.3371   -0.4211   -2.1551 H   0  0  0  0  0  0  0  0  0  0  0  0
   -3.7259    1.1541   -1.5709 H   0  0  0  0  0  0  0  0  0  0  0  0
   -2.1127    1.5342   -4.1640 H   0  0  0  0  0  0  0  0  0  0  0  0
   -3.6968    2.2466   -3.8351 H   0  0  0  0  0  0  0  0  0  0  0  0
   -2.2859    2.7385   -2.8796 H   0  0  0  0  0  0  0  0  0  0  0  0
   -5.0909   -0.3279   -3.0601 N   0  0  0  0  0  0  0  0  0  0  0  0
   -5.9285   -1.3236   -3.6871 C   0  0  0  0  0  0  0  0  0  0  0  0
   -5.5479    0.4448   -2.5850 H   0  0  0  0  0  0  0  0  0  0  0  0
   -6.1324   -1.0298   -4.7273 H   0  0  0  0  0  0  0  0  0  0  0  0
   -5.4140   -2.2958   -3.6749 H   0  0  0  0  0  0  0  0  0  0  0  0
   -6.8773   -1.4040   -3.1362 H   0  0  0  0  0  0  0  0  0  0  0  0
  1  3  1  0  0  0  0
  1  7  1  0  0  0  0
  1  2  2  0  0  0  0
 39 40  1  0  0  0  0
 40 48  1  0  0  0  0
 40 41  2  0  0  0  0
  8  9  1  0  0  0  0
  9 17  1  0  0  0  0
  9 10  2  0  0  0  0
 18 19  1  0  0  0  0
 19 38  1  0  0  0  0
 19 20  2  0  0  0  0
 39 42  1  0  0  0  0
  8 11  1  0  0  0  0
 48 49  1  0  0  0  0
 22 23  1  0  0  0  0
 21 22  1  0  0  0  0
 23 24  1  0  0  0  0
 18 21  1  0  0  0  0
 24 25  1  0  0  0  0
 38 39  1  0  0  0  0
  7  8  1  0  0  0  0
 17 18  1  0  0  0  0
  3  4  1  0  0  0  0
  3  5  1  0  0  0  0
  3  6  1  0  0  0  0
 42 45  1  0  0  0  0
 42 46  1  0  0  0  0
 42 47  1  0  0  0  0
 11 14  1  0  0  0  0
 11 15  1  0  0  0  0
 11 16  1  0  0  0  0
 49 51  1  0  0  0  0
 49 52  1  0  0  0  0
 49 53  1  0  0  0  0
 22 30  1  0  0  0  0
 22 31  1  0  0  0  0
 23 32  1  0  0  0  0
 23 33  1  0  0  0  0
 21 28  1  0  0  0  0
 21 29  1  0  0  0  0
 24 34  1  0  0  0  0
 24 35  1  0  0  0  0
 39 44  1  0  0  0  0
  8 13  1  0  0  0  0
 18 27  1  0  0  0  0
 25 36  1  0  0  0  0
 25 37  1  0  0  0  0
 48 50  1  0  0  0  0
  7 12  1  0  0  0  0
 38 43  1  0  0  0  0
 17 26  1  0  0  0  0
M  END
$$$$

  -OEChem-05262214473D

 53 52  0     1  0  0  0  0  0999 V2000
   -1.0338   -5.6785    0.1476 C   0  0  0  0  0  0  0  0  0  0  0  0
   -2.0514   -5.7797    0.8227 O   0  0  0  0  0  0  0  0  0  0  0  0
   -0.6558   -6.7819   -0.7841 C   0  0  0  0  0  0  0  0  0  0  0  0
   -0.0111   -7.5354   -0.3038 H   0  0  0  0  0  0  0  0  0  0  0  0
   -1.5317   -7.3401   -1.1520 H   0  0  0  0  0  0  0  0  0  0  0  0
   -0.1109   -6.4687   -1.6890 H   0  0  0  0  0  0  0  0  0  0  0  0
   -0.1543   -4.6083    0.1480 N   0  0  0  0  0  0  0  0  0  0  0  0
   -0.3302   -3.4398    0.9696 C   0  0  2  0  0  0  0  0  0  0  0  0
    0.2328   -2.2439    0.2131 C   0  0  0  0  0  0  0  0  0  0  0  0
    1.2097   -2.3192   -0.5294 O   0  0  0  0  0  0  0  0  0  0  0  0
    0.3557   -3.6024    2.3171 C   0  0  0  0  0  0  0  0  0  0  0  0
    0.6584   -4.6506   -0.4643 H   0  0  0  0  0  0  0  0  0  0  0  0
   -1.4091   -3.3101    1.1082 H   0  0  0  0  0  0  0  0  0  0  0  0
    1.4375   -3.7336    2.1985 H   0  0  0  0  0  0  0  0  0  0  0  0
    0.1969   -2.7243    2.9517 H   0  0  0  0  0  0  0  0  0  0  0  0
   -0.0294   -4.4803    2.8470 H   0  0  0  0  0  0  0  0  0  0  0  0
   -0.4616   -1.0893    0.5050 N   0  0  0  0  0  0  0  0  0  0  0  0
   -0.0884    0.2050   -0.0621 C   0  0  2  0  0  0  0  0  0  0  0  0
   -1.3680    0.8886   -0.5354 C   0  0  0  0  0  0  0  0  0  0  0  0
   -1.7582    1.9647   -0.0867 O   0  0  0  0  0  0  0  0  0  0  0  0
    0.8826    0.0643   -1.2439 C   0  0  0  0  0  0  0  0  0  0  0  0
    2.2680   -0.4466   -0.8351 C   0  0  0  0  0  0  0  0  0  0  0  0
    3.2015   -0.5447   -2.0448 C   0  0  0  0  0  0  0  0  0  0  0  0
    4.5752   -1.0774   -1.6406 C   0  0  0  0  0  0  0  0  0  0  0  0
    5.4403   -1.1853   -2.8093 N   0  0  0  0  0  0  0  0  0  0  0  0
   -1.2794   -1.1113    1.0935 H   0  0  0  0  0  0  0  0  0  0  0  0
    0.3710    0.8119    0.7274 H   0  0  0  0  0  0  0  0  0  0  0  0
    0.9958    1.0402   -1.7341 H   0  0  0  0  0  0  0  0  0  0  0  0
    0.4537   -0.6046   -2.0025 H   0  0  0  0  0  0  0  0  0  0  0  0
    2.1839   -1.4341   -0.3675 H   0  0  0  0  0  0  0  0  0  0  0  0
    2.7034    0.2308   -0.0908 H   0  0  0  0  0  0  0  0  0  0  0  0
    2.7531   -1.2042   -2.7985 H   0  0  0  0  0  0  0  0  0  0  0  0
    3.3090    0.4457   -2.5051 H   0  0  0  0  0  0  0  0  0  0  0  0
    4.4766   -2.0618   -1.1701 H   0  0  0  0  0  0  0  0  0  0  0  0
    5.0410   -0.4047   -0.9127 H   0  0  0  0  0  0  0  0  0  0  0  0
    4.9223   -0.9050   -3.6091 H   0  0  0  0  0  0  0  0  0  0  0  0
    6.2235   -0.5896   -2.6743 H   0  0  0  0  0  0  0  0  0  0  0  0
   -2.0319    0.1439   -1.5005 N   0  0  0  0  0  0  0  0  0  0  0  0
   -3.2810    0.5562   -2.0992 C   0  0  2  0  0  0  0  0  0  0  0  0
   -4.0834   -0.6970   -2.4236 C   0  0  0  0  0  0  0  0  0  0  0  0
   -3.5636   -1.7535   -2.7767 O   0  0  0  0  0  0  0  0  0  0  0  0
   -3.0468    1.3903   -3.3490 C   0  0  0  0  0  0  0  0  0  0  0  0
   -1.6279   -0.7322   -1.8181 H   0  0  0  0  0  0  0  0  0  0  0  0
   -3.8134    1.1465   -1.3454 H   0  0  0  0  0  0  0  0  0  0  0  0
   -2.5145    0.8156   -4.1157 H   0  0  0  0  0  0  0  0  0  0  0  0
   -3.9935    1.7258   -3.7853 H   0  0  0  0  0  0  0  0  0  0  0  0
   -2.4443    2.2758   -3.1194 H   0  0  0  0  0  0  0  0  0  0  0  0
   -5.4504   -0.4843   -2.3140 N   0  0  0  0  0  0  0  0  0  0  0  0
   -6.4250   -1.5080   -2.6111 C   0  0  0  0  0  0  0  0  0  0  0  0
   -5.7914    0.4108   -1.9759 H   0  0  0  0  0  0  0  0  0  0  0  0
   -6.7368   -1.4241   -3.6626 H   0  0  0  0  0  0  0  0  0  0  0  0
   -5.9797   -2.4990   -2.4389 H   0  0  0  0  0  0  0  0  0  0  0  0
   -7.3008   -1.3810   -1.9578 H   0  0  0  0  0  0  0  0  0  0  0  0
  1  3  1  0  0  0  0
  1  7  1  0  0  0  0
  1  2  2  0  0  0  0
 39 40  1  0  0  0  0
 40 48  1  0  0  0  0
 40 41  2  0  0  0  0
  8  9  1  0  0  0  0
  9 17  1  0  0  0  0
  9 10  2  0  0  0  0
 18 19  1  0  0  0  0
 19 38  1  0  0  0  0
 19 20  2  0  0  0  0
 39 42  1  0  0  0  0
  8 11  1  0  0  0  0
 48 49  1  0  0  0  0
 22 23  1  0  0  0  0
 21 22  1  0  0  0  0
 23 24  1  0  0  0  0
 18 21  1  0  0  0  0
 24 25  1  0  0  0  0
 38 39  1  0  0  0  0
  7  8  1  0  0  0  0
 17 18  1  0  0  0  0
  3  4  1  0  0  0  0
  3  5  1  0  0  0  0
  3  6  1  0  0  0  0
 42 45  1  0  0  0  0
 42 46  1  0  0  0  0
 42 47  1  0  0  0  0
 11 14  1  0  0  0  0
 11 15  1  0  0  0  0
 11 16  1  0  0  0  0
 49 51  1  0  0  0  0
 49 52  1  0  0  0  0
 49 53  1  0  0  0  0
 22 30  1  0  0  0  0
 22 31  1  0  0  0  0
 23 32  1  0  0  0  0
 23 33  1  0  0  0  0
 21 28  1  0  0  0  0
 21 29  1  0  0  0  0
 24 34  1  0  0  0  0
 24 35  1  0  0  0  0
 39 44  1  0  0  0  0
  8 13  1  0  0  0  0
 18 27  1  0  0  0  0
 25 36  1  0  0  0  0
 25 37  1  0  0  0  0
 48 50  1  0  0  0  0
  7 12  1  0  0  0  0
 38 43  1  0  0  0  0
 17 26  1  0  0  0  0
M  END
$$$$

  -OEChem-05262214473D

 53 52  0     1  0  0  0  0  0999 V2000
   -1.0338   -5.6785    0.1476 C   0  0  0  0  0  0  0  0  0  0  0  0
   -2.0514   -5.7797    0.8227 O   0  0  0  0  0  0  0  0  0  0  0  0
   -0.6558   -6.7819   -0.7841 C   0  0  0  0  0  0  0  0  0  0  0  0
   -0.0111   -7.5354   -0.3038 H   0  0  0  0  0  0  0  0  0  0  0  0
   -1.5317   -7.3401   -1.1520 H   0  0  0  0  0  0  0  0  0  0  0  0
   -0.1109   -6.4687   -1.6890 H   0  0  0  0  0  0  0  0  0  0  0  0
   -0.1543   -4.6083    0.1480 N   0  0  0  0  0  0  0  0  0  0  0  0
   -0.3302   -3.4398    0.9696 C   0  0  2  0  0  0  0  0  0  0  0  0
    0.2328   -2.2439    0.2131 C   0  0  0  0  0  0  0  0  0  0  0  0
    1.2097   -2.3192   -0.5294 O   0  0  0  0  0  0  0  0  0  0  0  0
    0.3557   -3.6024    2.3171 C   0  0  0  0  0  0  0  0  0  0  0  0
    0.6584   -4.6506   -0.4643 H   0  0  0  0  0  0  0  0  0  0  0  0
   -1.4091   -3.3101    1.1082 H   0  0  0  0  0  0  0  0  0  0  0  0
    1.4375   -3.7336    2.1985 H   0  0  0  0  0  0  0  0  0  0  0  0
    0.1969   -2.7243    2.9517 H   0  0  0  0  0  0  0  0  0  0  0  0
   -0.0294   -4.4803    2.8470 H   0  0  0  0  0  0  0  0  0  0  0  0
   -0.4616   -1.0893    0.5050 N   0  0  0  0  0  0  0  0  0  0  0  0
   -0.0884    0.2050   -0.0621 C   0  0  2  0  0  0  0  0  0  0  0  0
   -1.3680    0.8886   -0.5354 C   0  0  0  0  0  0  0  0  0  0  0  0
   -1.6257    2.0669   -0.2973 O   0  0  0  0  0  0  0  0  0  0  0  0
    0.8826    0.0643   -1.2439 C   0  0  0  0  0  0  0  0  0  0  0  0
    2.2680   -0.4466   -0.8351 C   0  0  0  0  0  0  0  0  0  0  0  0
    3.2015   -0.5447   -2.0448 C   0  0  0  0  0  0  0  0  0  0  0  0
    4.5752   -1.0774   -1.6406 C   0  0  0  0  0  0  0  0  0  0  0  0
    5.4403   -1.1853   -2.8093 N   0  0  0  0  0  0  0  0  0  0  0  0
   -1.2794   -1.1113    1.0935 H   0  0  0  0  0  0  0  0  0  0  0  0
    0.3710    0.8119    0.7274 H   0  0  0  0  0  0  0  0  0  0  0  0
    0.9958    1.0402   -1.7341 H   0  0  0  0  0  0  0  0  0  0  0  0
    0.4537   -0.6046   -2.0025 H   0  0  0  0  0  0  0  0  0  0  0  0
    2.1839   -1.4341   -0.3675 H   0  0  0  0  0  0  0  0  0  0  0  0
    2.7034    0.2308   -0.0908 H   0  0  0  0  0  0  0  0  0  0  0  0
    2.7531   -1.2042   -2.7985 H   0  0  0  0  0  0  0  0  0  0  0  0
    3.3090    0.4457   -2.5051 H   0  0  0  0  0  0  0  0  0  0  0  0
    4.4766   -2.0618   -1.1701 H   0  0  0  0  0  0  0  0  0  0  0  0
    5.0410   -0.4047   -0.9127 H   0  0  0  0  0  0  0  0  0  0  0  0
    4.9223   -0.9050   -3.6091 H   0  0  0  0  0  0  0  0  0  0  0  0
    6.2235   -0.5896   -2.6743 H   0  0  0  0  0  0  0  0  0  0  0  0
   -2.1959    0.0210   -1.2345 N   0  0  0  0  0  0  0  0  0  0  0  0
   -3.4792    0.4113   -1.7725 C   0  0  2  0  0  0  0  0  0  0  0  0
   -4.3985   -0.8020   -1.7230 C   0  0  0  0  0  0  0  0  0  0  0  0
   -3.9994   -1.9531   -1.8867 O   0  0  0  0  0  0  0  0  0  0  0  0
   -3.3471    0.9355   -3.1939 C   0  0  0  0  0  0  0  0  0  0  0  0
   -1.8947   -0.9362   -1.3913 H   0  0  0  0  0  0  0  0  0  0  0  0
   -3.8723    1.1951   -1.1158 H   0  0  0  0  0  0  0  0  0  0  0  0
   -2.9546    0.1642   -3.8665 H   0  0  0  0  0  0  0  0  0  0  0  0
   -4.3160    1.2574   -3.5898 H   0  0  0  0  0  0  0  0  0  0  0  0
   -2.6623    1.7896   -3.2322 H   0  0  0  0  0  0  0  0  0  0  0  0
   -5.7237   -0.4446   -1.5176 N   0  0  0  0  0  0  0  0  0  0  0  0
   -6.7946   -1.4128   -1.4742 C   0  0  0  0  0  0  0  0  0  0  0  0
   -5.9586    0.5296   -1.3519 H   0  0  0  0  0  0  0  0  0  0  0  0
   -7.2288   -1.5253   -2.4786 H   0  0  0  0  0  0  0  0  0  0  0  0
   -6.3992   -2.3817   -1.1352 H   0  0  0  0  0  0  0  0  0  0  0  0
   -7.5714   -1.0690   -0.7754 H   0  0  0  0  0  0  0  0  0  0  0  0
  1  3  1  0  0  0  0
  1  7  1  0  0  0  0
  1  2  2  0  0  0  0
 39 40  1  0  0  0  0
 40 48  1  0  0  0  0
 40 41  2  0  0  0  0
  8  9  1  0  0  0  0
  9 17  1  0  0  0  0
  9 10  2  0  0  0  0
 18 19  1  0  0  0  0
 19 38  1  0  0  0  0
 19 20  2  0  0  0  0
 39 42  1  0  0  0  0
  8 11  1  0  0  0  0
 48 49  1  0  0  0  0
 22 23  1  0  0  0  0
 21 22  1  0  0  0  0
 23 24  1  0  0  0  0
 18 21  1  0  0  0  0
 24 25  1  0  0  0  0
 38 39  1  0  0  0  0
  7  8  1  0  0  0  0
 17 18  1  0  0  0  0
  3  4  1  0  0  0  0
  3  5  1  0  0  0  0
  3  6  1  0  0  0  0
 42 45  1  0  0  0  0
 42 46  1  0  0  0  0
 42 47  1  0  0  0  0
 11 14  1  0  0  0  0
 11 15  1  0  0  0  0
 11 16  1  0  0  0  0
 49 51  1  0  0  0  0
 49 52  1  0  0  0  0
 49 53  1  0  0  0  0
 22 30  1  0  0  0  0
 22 31  1  0  0  0  0
 23 32  1  0  0  0  0
 23 33  1  0  0  0  0
 21 28  1  0  0  0  0
 21 29  1  0  0  0  0
 24 34  1  0  0  0  0
 24 35  1  0  0  0  0
 39 44  1  0  0  0  0
  8 13  1  0  0  0  0
 18 27  1  0  0  0  0
 25 36  1  0  0  0  0
 25 37  1  0  0  0  0
 48 50  1  0  0  0  0
  7 12  1  0  0  0  0
 38 43  1  0  0  0  0
 17 26  1  0  0  0  0
M  END
$$$$

  -OEChem-05262214473D

 53 52  0     1  0  0  0  0  0999 V2000
   -1.0338   -5.6785    0.1476 C   0  0  0  0  0  0  0  0  0  0  0  0
   -2.0514   -5.7797    0.8227 O   0  0  0  0  0  0  0  0  0  0  0  0
   -0.6558   -6.7819   -0.7841 C   0  0  0  0  0  0  0  0  0  0  0  0
   -0.0111   -7.5354   -0.3038 H   0  0  0  0  0  0  0  0  0  0  0  0
   -1.5317   -7.3401   -1.1520 H   0  0  0  0  0  0  0  0  0  0  0  0
   -0.1109   -6.4687   -1.6890 H   0  0  0  0  0  0  0  0  0  0  0  0
   -0.1543   -4.6083    0.1480 N   0  0  0  0  0  0  0  0  0  0  0  0
   -0.3302   -3.4398    0.9696 C   0  0  2  0  0  0  0  0  0  0  0  0
    0.2328   -2.2439    0.2131 C   0  0  0  0  0  0  0  0  0  0  0  0
    1.2097   -2.3192   -0.5294 O   0  0  0  0  0  0  0  0  0  0  0  0
    0.3557   -3.6024    2.3171 C   0  0  0  0  0  0  0  0  0  0  0  0
    0.6584   -4.6506   -0.4643 H   0  0  0  0  0  0  0  0  0  0  0  0
   -1.4091   -3.3101    1.1082 H   0  0  0  0  0  0  0  0  0  0  0  0
    1.4375   -3.7336    2.1985 H   0  0  0  0  0  0  0  0  0  0  0  0
    0.1969   -2.7243    2.9517 H   0  0  0  0  0  0  0  0  0  0  0  0
   -0.0294   -4.4803    2.8470 H   0  0  0  0  0  0  0  0  0  0  0  0
   -0.4616   -1.0893    0.5050 N   0  0  0  0  0  0  0  0  0  0  0  0
   -0.0884    0.2050   -0.0621 C   0  0  2  0  0  0  0  0  0  0  0  0
   -1.3680    0.8886   -0.5354 C   0  0  0  0  0  0  0  0  0  0  0  0
   -1.5139    2.1093   -0.5384 O   0  0  0  0  0  0  0  0  0  0  0  0
    0.8826    0.0643   -1.2439 C   0  0  0  0  0  0  0  0  0  0  0  0
    2.2680   -0.4466   -0.8351 C   0  0  0  0  0  0  0  0  0  0  0  0
    3.2015   -0.5447   -2.0448 C   0  0  0  0  0  0  0  0  0  0  0  0
    4.5752   -1.0774   -1.6406 C   0  0  0  0  0  0  0  0  0  0  0  0
    5.4403   -1.1853   -2.8093 N   0  0  0  0  0  0  0  0  0  0  0  0
   -1.2794   -1.1113    1.0935 H   0  0  0  0  0  0  0  0  0  0  0  0
    0.3710    0.8119    0.7274 H   0  0  0  0  0  0  0  0  0  0  0  0
    0.9958    1.0402   -1.7341 H   0  0  0  0  0  0  0  0  0  0  0  0
    0.4537   -0.6046   -2.0025 H   0  0  0  0  0  0  0  0  0  0  0  0
    2.1839   -1.4341   -0.3675 H   0  0  0  0  0  0  0  0  0  0  0  0
    2.7034    0.2308   -0.0908 H   0  0  0  0  0  0  0  0  0  0  0  0
    2.7531   -1.2042   -2.7985 H   0  0  0  0  0  0  0  0  0  0  0  0
    3.3090    0.4457   -2.5051 H   0  0  0  0  0  0  0  0  0  0  0  0
    4.4766   -2.0618   -1.1701 H   0  0  0  0  0  0  0  0  0  0  0  0
    5.0410   -0.4047   -0.9127 H   0  0  0  0  0  0  0  0  0  0  0  0
    4.9223   -0.9050   -3.6091 H   0  0  0  0  0  0  0  0  0  0  0  0
    6.2235   -0.5896   -2.6743 H   0  0  0  0  0  0  0  0  0  0  0  0
   -2.3333   -0.0267   -0.9319 N   0  0  0  0  0  0  0  0  0  0  0  0
   -3.6445    0.3581   -1.4025 C   0  0  2  0  0  0  0  0  0  0  0  0
   -4.6301   -0.7260   -0.9871 C   0  0  0  0  0  0  0  0  0  0  0  0
   -4.3331   -1.9177   -0.9331 O   0  0  0  0  0  0  0  0  0  0  0  0
   -3.6557    0.5540   -2.9105 C   0  0  0  0  0  0  0  0  0  0  0  0
   -2.1193   -1.0192   -0.9039 H   0  0  0  0  0  0  0  0  0  0  0  0
   -3.8988    1.2965   -0.8978 H   0  0  0  0  0  0  0  0  0  0  0  0
   -3.4032   -0.3757   -3.4334 H   0  0  0  0  0  0  0  0  0  0  0  0
   -4.6425    0.8732   -3.2618 H   0  0  0  0  0  0  0  0  0  0  0  0
   -2.9250    1.3130   -3.2104 H   0  0  0  0  0  0  0  0  0  0  0  0
   -5.8922   -0.2115   -0.7253 N   0  0  0  0  0  0  0  0  0  0  0  0
   -7.0121   -1.0444   -0.3539 C   0  0  0  0  0  0  0  0  0  0  0  0
   -6.0383    0.7933   -0.7556 H   0  0  0  0  0  0  0  0  0  0  0  0
   -7.5749   -1.3267   -1.2559 H   0  0  0  0  0  0  0  0  0  0  0  0
   -6.6438   -1.9517    0.1472 H   0  0  0  0  0  0  0  0  0  0  0  0
   -7.6707   -0.4894    0.3303 H   0  0  0  0  0  0  0  0  0  0  0  0
  1  3  1  0  0  0  0
  1  7  1  0  0  0  0
  1  2  2  0  0  0  0
 39 40  1  0  0  0  0
 40 48  1  0  0  0  0
 40 41  2  0  0  0  0
  8  9  1  0  0  0  0
  9 17  1  0  0  0  0
  9 10  2  0  0  0  0
 18 19  1  0  0  0  0
 19 38  1  0  0  0  0
 19 20  2  0  0  0  0
 39 42  1  0  0  0  0
  8 11  1  0  0  0  0
 48 49  1  0  0  0  0
 22 23  1  0  0  0  0
 21 22  1  0  0  0  0
 23 24  1  0  0  0  0
 18 21  1  0  0  0  0
 24 25  1  0  0  0  0
 38 39  1  0  0  0  0
  7  8  1  0  0  0  0
 17 18  1  0  0  0  0
  3  4  1  0  0  0  0
  3  5  1  0  0  0  0
  3  6  1  0  0  0  0
 42 45  1  0  0  0  0
 42 46  1  0  0  0  0
 42 47  1  0  0  0  0
 11 14  1  0  0  0  0
 11 15  1  0  0  0  0
 11 16  1  0  0  0  0
 49 51  1  0  0  0  0
 49 52  1  0  0  0  0
 49 53  1  0  0  0  0
 22 30  1  0  0  0  0
 22 31  1  0  0  0  0
 23 32  1  0  0  0  0
 23 33  1  0  0  0  0
 21 28  1  0  0  0  0
 21 29  1  0  0  0  0
 24 34  1  0  0  0  0
 24 35  1  0  0  0  0
 39 44  1  0  0  0  0
  8 13  1  0  0  0  0
 18 27  1  0  0  0  0
 25 36  1  0  0  0  0
 25 37  1  0  0  0  0
 48 50  1  0  0  0  0
  7 12  1  0  0  0  0
 38 43  1  0  0  0  0
 17 26  1  0  0  0  0
M  END
$$$$

  -OEChem-05262214473D

 53 52  0     1  0  0  0  0  0999 V2000
   -1.0338   -5.6785    0.1476 C   0  0  0  0  0  0  0  0  0  0  0  0
   -2.0514   -5.7797    0.8227 O   0  0  0  0  0  0  0  0  0  0  0  0
   -0.6558   -6.7819   -0.7841 C   0  0  0  0  0  0  0  0  0  0  0  0
   -0.0111   -7.5354   -0.3038 H   0  0  0  0  0  0  0  0  0  0  0  0
   -1.5317   -7.3401   -1.1520 H   0  0  0  0  0  0  0  0  0  0  0  0
   -0.1109   -6.4687   -1.6890 H   0  0  0  0  0  0  0  0  0  0  0  0
   -0.1543   -4.6083    0.1480 N   0  0  0  0  0  0  0  0  0  0  0  0
   -0.3302   -3.4398    0.9696 C   0  0  2  0  0  0  0  0  0  0  0  0
    0.2328   -2.2439    0.2131 C   0  0  0  0  0  0  0  0  0  0  0  0
    1.2097   -2.3192   -0.5294 O   0  0  0  0  0  0  0  0  0  0  0  0
    0.3557   -3.6024    2.3171 C   0  0  0  0  0  0  0  0  0  0  0  0
    0.6584   -4.6506   -0.4643 H   0  0  0  0  0  0  0  0  0  0  0  0
   -1.4091   -3.3101    1.1082 H   0  0  0  0  0  0  0  0  0  0  0  0
    1.4375   -3.7336    2.1985 H   0  0  0  0  0  0  0  0  0  0  0  0
    0.1969   -2.7243    2.9517 H   0  0  0  0  0  0  0  0  0  0  0  0
   -0.0294   -4.4803    2.8470 H   0  0  0  0  0  0  0  0  0  0  0  0
   -0.4616   -1.0893    0.5050 N   0  0  0  0  0  0  0  0  0  0  0  0
   -0.0884    0.2050   -0.0621 C   0  0  2  0  0  0  0  0  0  0  0  0
   -1.3680    0.8886   -0.5354 C   0  0  0  0  0  0  0  0  0  0  0  0
   -1.4304    2.0890   -0.7934 O   0  0  0  0  0  0  0  0  0  0  0  0
    0.8826    0.0643   -1.2439 C   0  0  0  0  0  0  0  0  0  0  0  0
    2.2680   -0.4466   -0.8351 C   0  0  0  0  0  0  0  0  0  0  0  0
    3.2015   -0.5447   -2.0448 C   0  0  0  0  0  0  0  0  0  0  0  0
    4.5752   -1.0774   -1.6406 C   0  0  0  0  0  0  0  0  0  0  0  0
    5.4403   -1.1853   -2.8093 N   0  0  0  0  0  0  0  0  0  0  0  0
   -1.2794   -1.1113    1.0935 H   0  0  0  0  0  0  0  0  0  0  0  0
    0.3710    0.8119    0.7274 H   0  0  0  0  0  0  0  0  0  0  0  0
    0.9958    1.0402   -1.7341 H   0  0  0  0  0  0  0  0  0  0  0  0
    0.4537   -0.6046   -2.0025 H   0  0  0  0  0  0  0  0  0  0  0  0
    2.1839   -1.4341   -0.3675 H   0  0  0  0  0  0  0  0  0  0  0  0
    2.7034    0.2308   -0.0908 H   0  0  0  0  0  0  0  0  0  0  0  0
    2.7531   -1.2042   -2.7985 H   0  0  0  0  0  0  0  0  0  0  0  0
    3.3090    0.4457   -2.5051 H   0  0  0  0  0  0  0  0  0  0  0  0
    4.4766   -2.0618   -1.1701 H   0  0  0  0  0  0  0  0  0  0  0  0
    5.0410   -0.4047   -0.9127 H   0  0  0  0  0  0  0  0  0  0  0  0
    4.9223   -0.9050   -3.6091 H   0  0  0  0  0  0  0  0  0  0  0  0
    6.2235   -0.5896   -2.6743 H   0  0  0  0  0  0  0  0  0  0  0  0
   -2.4348    0.0038   -0.6134 N   0  0  0  0  0  0  0  0  0  0  0  0
   -3.7655    0.4003   -1.0144 C   0  0  2  0  0  0  0  0  0  0  0  0
   -4.7624   -0.4744   -0.2658 C   0  0  0  0  0  0  0  0  0  0  0  0
   -4.5421   -1.6497    0.0190 O   0  0  0  0  0  0  0  0  0  0  0  0
   -3.9515    0.2718   -2.5182 C   0  0  0  0  0  0  0  0  0  0  0  0
   -2.2864   -0.9755   -0.3890 H   0  0  0  0  0  0  0  0  0  0  0  0
   -3.8909    1.4440   -0.7061 H   0  0  0  0  0  0  0  0  0  0  0  0
   -3.8295   -0.7671   -2.8458 H   0  0  0  0  0  0  0  0  0  0  0  0
   -4.9506    0.5996   -2.8239 H   0  0  0  0  0  0  0  0  0  0  0  0
   -3.2145    0.8784   -3.0554 H   0  0  0  0  0  0  0  0  0  0  0  0
   -5.9444    0.1992    0.0089 N   0  0  0  0  0  0  0  0  0  0  0  0
   -7.0628   -0.4280    0.6735 C   0  0  0  0  0  0  0  0  0  0  0  0
   -6.0250    1.1837   -0.2277 H   0  0  0  0  0  0  0  0  0  0  0  0
   -7.7515   -0.8417   -0.0778 H   0  0  0  0  0  0  0  0  0  0  0  0
   -6.6969   -1.2385    1.3210 H   0  0  0  0  0  0  0  0  0  0  0  0
   -7.5919    0.3185    1.2841 H   0  0  0  0  0  0  0  0  0  0  0  0
  1  3  1  0  0  0  0
  1  7  1  0  0  0  0
  1  2  2  0  0  0  0
 39 40  1  0  0  0  0
 40 48  1  0  0  0  0
 40 41  2  0  0  0  0
  8  9  1  0  0  0  0
  9 17  1  0  0  0  0
  9 10  2  0  0  0  0
 18 19  1  0  0  0  0
 19 38  1  0  0  0  0
 19 20  2  0  0  0  0
 39 42  1  0  0  0  0
  8 11  1  0  0  0  0
 48 49  1  0  0  0  0
 22 23  1  0  0  0  0
 21 22  1  0  0  0  0
 23 24  1  0  0  0  0
 18 21  1  0  0  0  0
 24 25  1  0  0  0  0
 38 39  1  0  0  0  0
  7  8  1  0  0  0  0
 17 18  1  0  0  0  0
  3  4  1  0  0  0  0
  3  5  1  0  0  0  0
  3  6  1  0  0  0  0
 42 45  1  0  0  0  0
 42 46  1  0  0  0  0
 42 47  1  0  0  0  0
 11 14  1  0  0  0  0
 11 15  1  0  0  0  0
 11 16  1  0  0  0  0
 49 51  1  0  0  0  0
 49 52  1  0  0  0  0
 49 53  1  0  0  0  0
 22 30  1  0  0  0  0
 22 31  1  0  0  0  0
 23 32  1  0  0  0  0
 23 33  1  0  0  0  0
 21 28  1  0  0  0  0
 21 29  1  0  0  0  0
 24 34  1  0  0  0  0
 24 35  1  0  0  0  0
 39 44  1  0  0  0  0
  8 13  1  0  0  0  0
 18 27  1  0  0  0  0
 25 36  1  0  0  0  0
 25 37  1  0  0  0  0
 48 50  1  0  0  0  0
  7 12  1  0  0  0  0
 38 43  1  0  0  0  0
 17 26  1  0  0  0  0
M  END
$$$$

  -OEChem-05262214473D

 53 52  0     1  0  0  0  0  0999 V2000
   -1.0338   -5.6785    0.1476 C   0  0  0  0  0  0  0  0  0  0  0  0
   -2.0514   -5.7797    0.8227 O   0  0  0  0  0  0  0  0  0  0  0  0
   -0.6558   -6.7819   -0.7841 C   0  0  0  0  0  0  0  0  0  0  0  0
   -0.0111   -7.5354   -0.3038 H   0  0  0  0  0  0  0  0  0  0  0  0
   -1.5317   -7.3401   -1.1520 H   0  0  0  0  0  0  0  0  0  0  0  0
   -0.1109   -6.4687   -1.6890 H   0  0  0  0  0  0  0  0  0  0  0  0
   -0.1543   -4.6083    0.1480 N   0  0  0  0  0  0  0  0  0  0  0  0
   -0.3302   -3.4398    0.9696 C   0  0  2  0  0  0  0  0  0  0  0  0
    0.2328   -2.2439    0.2131 C   0  0  0  0  0  0  0  0  0  0  0  0
    1.2097   -2.3192   -0.5294 O   0  0  0  0  0  0  0  0  0  0  0  0
    0.3557   -3.6024    2.3171 C   0  0  0  0  0  0  0  0  0  0  0  0
    0.6584   -4.6506   -0.4643 H   0  0  0  0  0  0  0  0  0  0  0  0
   -1.4091   -3.3101    1.1082 H   0  0  0  0  0  0  0  0  0  0  0  0
    1.4375   -3.7336    2.1985 H   0  0  0  0  0  0  0  0  0  0  0  0
    0.1969   -2.7243    2.9517 H   0  0  0  0  0  0  0  0  0  0  0  0
   -0.0294   -4.4803    2.8470 H   0  0  0  0  0  0  0  0  0  0  0  0
   -0.4616   -1.0893    0.5050 N   0  0  0  0  0  0  0  0  0  0  0  0
   -0.0884    0.2050   -0.0621 C   0  0  2  0  0  0  0  0  0  0  0  0
   -1.3680    0.8886   -0.5354 C   0  0  0  0  0  0  0  0  0  0  0  0
   -1.3810    2.0074   -1.0450 O   0  0  0  0  0  0  0  0  0  0  0  0
    0.8826    0.0643   -1.2439 C   0  0  0  0  0  0  0  0  0  0  0  0
    2.2680   -0.4466   -0.8351 C   0  0  0  0  0  0  0  0  0  0  0  0
    3.2015   -0.5447   -2.0448 C   0  0  0  0  0  0  0  0  0  0  0  0
    4.5752   -1.0774   -1.6406 C   0  0  0  0  0  0  0  0  0  0  0  0
    5.4403   -1.1853   -2.8093 N   0  0  0  0  0  0  0  0  0  0  0  0
   -1.2794   -1.1113    1.0935 H   0  0  0  0  0  0  0  0  0  0  0  0
    0.3710    0.8119    0.7274 H   0  0  0  0  0  0  0  0  0  0  0  0
    0.9958    1.0402   -1.7341 H   0  0  0  0  0  0  0  0  0  0  0  0
    0.4537   -0.6046   -2.0025 H   0  0  0  0  0  0  0  0  0  0  0  0
    2.1839   -1.4341   -0.3675 H   0  0  0  0  0  0  0  0  0  0  0  0
    2.7034    0.2308   -0.0908 H   0  0  0  0  0  0  0  0  0  0  0  0
    2.7531   -1.2042   -2.7985 H   0  0  0  0  0  0  0  0  0  0  0  0
    3.3090    0.4457   -2.5051 H   0  0  0  0  0  0  0  0  0  0  0  0
    4.4766   -2.0618   -1.1701 H   0  0  0  0  0  0  0  0  0  0  0  0
    5.0410   -0.4047   -0.9127 H   0  0  0  0  0  0  0  0  0  0  0  0
    4.9223   -0.9050   -3.6091 H   0  0  0  0  0  0  0  0  0  0  0  0
    6.2235   -0.5896   -2.6743 H   0  0  0  0  0  0  0  0  0  0  0  0
   -2.4934    0.1107   -0.3006 N   0  0  0  0  0  0  0  0  0  0  0  0
   -3.8339    0.5351   -0.6346 C   0  0  2  0  0  0  0  0  0  0  0  0
   -4.7864   -0.0641    0.3916 C   0  0  0  0  0  0  0  0  0  0  0  0
   -4.6121   -1.1675    0.9047 O   0  0  0  0  0  0  0  0  0  0  0  0
   -4.2145    0.1081   -2.0438 C   0  0  0  0  0  0  0  0  0  0  0  0
   -2.3847   -0.8082    0.1182 H   0  0  0  0  0  0  0  0  0  0  0  0
   -3.8492    1.6274   -0.5539 H   0  0  0  0  0  0  0  0  0  0  0  0
   -4.2047   -0.9834   -2.1440 H   0  0  0  0  0  0  0  0  0  0  0  0
   -5.2195    0.4550   -2.3057 H   0  0  0  0  0  0  0  0  0  0  0  0
   -3.5110    0.5155   -2.7778 H   0  0  0  0  0  0  0  0  0  0  0  0
   -5.8767    0.7594    0.6350 N   0  0  0  0  0  0  0  0  0  0  0  0
   -6.9432    0.3945    1.5380 C   0  0  0  0  0  0  0  0  0  0  0  0
   -5.9196    1.6744    0.1961 H   0  0  0  0  0  0  0  0  0  0  0  0
   -7.7466   -0.1033    0.9753 H   0  0  0  0  0  0  0  0  0  0  0  0
   -6.5548   -0.2905    2.3061 H   0  0  0  0  0  0  0  0  0  0  0  0
   -7.3404    1.2996    2.0209 H   0  0  0  0  0  0  0  0  0  0  0  0
  1  3  1  0  0  0  0
  1  7  1  0  0  0  0
  1  2  2  0  0  0  0
 39 40  1  0  0  0  0
 40 48  1  0  0  0  0
 40 41  2  0  0  0  0
  8  9  1  0  0  0  0
  9 17  1  0  0  0  0
  9 10  2  0  0  0  0
 18 19  1  0  0  0  0
 19 38  1  0  0  0  0
 19 20  2  0  0  0  0
 39 42  1  0  0  0  0
  8 11  1  0  0  0  0
 48 49  1  0  0  0  0
 22 23  1  0  0  0  0
 21 22  1  0  0  0  0
 23 24  1  0  0  0  0
 18 21  1  0  0  0  0
 24 25  1  0  0  0  0
 38 39  1  0  0  0  0
  7  8  1  0  0  0  0
 17 18  1  0  0  0  0
  3  4  1  0  0  0  0
  3  5  1  0  0  0  0
  3  6  1  0  0  0  0
 42 45  1  0  0  0  0
 42 46  1  0  0  0  0
 42 47  1  0  0  0  0
 11 14  1  0  0  0  0
 11 15  1  0  0  0  0
 11 16  1  0  0  0  0
 49 51  1  0  0  0  0
 49 52  1  0  0  0  0
 49 53  1  0  0  0  0
 22 30  1  0  0  0  0
 22 31  1  0  0  0  0
 23 32  1  0  0  0  0
 23 33  1  0  0  0  0
 21 28  1  0  0  0  0
 21 29  1  0  0  0  0
 24 34  1  0  0  0  0
 24 35  1  0  0  0  0
 39 44  1  0  0  0  0
  8 13  1  0  0  0  0
 18 27  1  0  0  0  0
 25 36  1  0  0  0  0
 25 37  1  0  0  0  0
 48 50  1  0  0  0  0
  7 12  1  0  0  0  0
 38 43  1  0  0  0  0
 17 26  1  0  0  0  0
M  END
$$$$

  -OEChem-05262214473D

 53 52  0     1  0  0  0  0  0999 V2000
   -1.0338   -5.6785    0.1476 C   0  0  0  0  0  0  0  0  0  0  0  0
   -2.0514   -5.7797    0.8227 O   0  0  0  0  0  0  0  0  0  0  0  0
   -0.6558   -6.7819   -0.7841 C   0  0  0  0  0  0  0  0  0  0  0  0
   -0.0111   -7.5354   -0.3038 H   0  0  0  0  0  0  0  0  0  0  0  0
   -1.5317   -7.3401   -1.1520 H   0  0  0  0  0  0  0  0  0  0  0  0
   -0.1109   -6.4687   -1.6890 H   0  0  0  0  0  0  0  0  0  0  0  0
   -0.1543   -4.6083    0.1480 N   0  0  0  0  0  0  0  0  0  0  0  0
   -0.3302   -3.4398    0.9696 C   0  0  2  0  0  0  0  0  0  0  0  0
    0.2328   -2.2439    0.2131 C   0  0  0  0  0  0  0  0  0  0  0  0
    1.2097   -2.3192   -0.5294 O   0  0  0  0  0  0  0  0  0  0  0  0
    0.3557   -3.6024    2.3171 C   0  0  0  0  0  0  0  0  0  0  0  0
    0.6584   -4.6506   -0.4643 H   0  0  0  0  0  0  0  0  0  0  0  0
   -1.4091   -3.3101    1.1082 H   0  0  0  0  0  0  0  0  0  0  0  0
    1.4375   -3.7336    2.1985 H   0  0  0  0  0  0  0  0  0  0  0  0
    0.1969   -2.7243    2.9517 H   0  0  0  0  0  0  0  0  0  0  0  0
   -0.0294   -4.4803    2.8470 H   0  0  0  0  0  0  0  0  0  0  0  0
   -0.4616   -1.0893    0.5050 N   0  0  0  0  0  0  0  0  0  0  0  0
   -0.0884    0.2050   -0.0621 C   0  0  2  0  0  0  0  0  0  0  0  0
   -1.3680    0.8886   -0.5354 C   0  0  0  0  0  0  0  0  0  0  0  0
   -1.3690    1.8699   -1.2760 O   0  0  0  0  0  0  0  0  0  0  0  0
    0.8826    0.0643   -1.2439 C   0  0  0  0  0  0  0  0  0  0  0  0
    2.2680   -0.4466   -0.8351 C   0  0  0  0  0  0  0  0  0  0  0  0
    3.2015   -0.5447   -2.0448 C   0  0  0  0  0  0  0  0  0  0  0  0
    4.5752   -1.0774   -1.6406 C   0  0  0  0  0  0  0  0  0  0  0  0
    5.4403   -1.1853   -2.8093 N   0  0  0  0  0  0  0  0  0  0  0  0
   -1.2794   -1.1113    1.0935 H   0  0  0  0  0  0  0  0  0  0  0  0
    0.3710    0.8119    0.7274 H   0  0  0  0  0  0  0  0  0  0  0  0
    0.9958    1.0402   -1.7341 H   0  0  0  0  0  0  0  0  0  0  0  0
    0.4537   -0.6046   -2.0025 H   0  0  0  0  0  0  0  0  0  0  0  0
    2.1839   -1.4341   -0.3675 H   0  0  0  0  0  0  0  0  0  0  0  0
    2.7034    0.2308   -0.0908 H   0  0  0  0  0  0  0  0  0  0  0  0
    2.7531   -1.2042   -2.7985 H   0  0  0  0  0  0  0  0  0  0  0  0
    3.3090    0.4457   -2.5051 H   0  0  0  0  0  0  0  0  0  0  0  0
    4.4766   -2.0618   -1.1701 H   0  0  0  0  0  0  0  0  0  0  0  0
    5.0410   -0.4047   -0.9127 H   0  0  0  0  0  0  0  0  0  0  0  0
    4.9223   -0.9050   -3.6091 H   0  0  0  0  0  0  0  0  0  0  0  0
    6.2235   -0.5896   -2.6743 H   0  0  0  0  0  0  0  0  0  0  0  0
   -2.5052    0.2864   -0.0148 N   0  0  0  0  0  0  0  0  0  0  0  0
   -3.8452    0.7531   -0.2892 C   0  0  2  0  0  0  0  0  0  0  0  0
   -4.7004    0.4768    0.9404 C   0  0  0  0  0  0  0  0  0  0  0  0
   -4.5383   -0.5039    1.6637 O   0  0  0  0  0  0  0  0  0  0  0  0
   -4.4266    0.0740   -1.5194 C   0  0  0  0  0  0  0  0  0  0  0  0
   -2.4073   -0.5286    0.5833 H   0  0  0  0  0  0  0  0  0  0  0  0
   -3.7766    1.8343   -0.4515 H   0  0  0  0  0  0  0  0  0  0  0  0
   -4.5031   -1.0099   -1.3755 H   0  0  0  0  0  0  0  0  0  0  0  0
   -5.4307    0.4494   -1.7426 H   0  0  0  0  0  0  0  0  0  0  0  0
   -3.7943    0.2490   -2.3966 H   0  0  0  0  0  0  0  0  0  0  0  0
   -5.6937    1.4310    1.1104 N   0  0  0  0  0  0  0  0  0  0  0  0
   -6.6614    1.3670    2.1807 C   0  0  0  0  0  0  0  0  0  0  0  0
   -5.7293    2.2319    0.4866 H   0  0  0  0  0  0  0  0  0  0  0  0
   -7.5605    0.8380    1.8317 H   0  0  0  0  0  0  0  0  0  0  0  0
   -6.2273    0.8276    3.0355 H   0  0  0  0  0  0  0  0  0  0  0  0
   -6.9332    2.3869    2.4905 H   0  0  0  0  0  0  0  0  0  0  0  0
  1  3  1  0  0  0  0
  1  7  1  0  0  0  0
  1  2  2  0  0  0  0
 39 40  1  0  0  0  0
 40 48  1  0  0  0  0
 40 41  2  0  0  0  0
  8  9  1  0  0  0  0
  9 17  1  0  0  0  0
  9 10  2  0  0  0  0
 18 19  1  0  0  0  0
 19 38  1  0  0  0  0
 19 20  2  0  0  0  0
 39 42  1  0  0  0  0
  8 11  1  0  0  0  0
 48 49  1  0  0  0  0
 22 23  1  0  0  0  0
 21 22  1  0  0  0  0
 23 24  1  0  0  0  0
 18 21  1  0  0  0  0
 24 25  1  0  0  0  0
 38 39  1  0  0  0  0
  7  8  1  0  0  0  0
 17 18  1  0  0  0  0
  3  4  1  0  0  0  0
  3  5  1  0  0  0  0
  3  6  1  0  0  0  0
 42 45  1  0  0  0  0
 42 46  1  0  0  0  0
 42 47  1  0  0  0  0
 11 14  1  0  0  0  0
 11 15  1  0  0  0  0
 11 16  1  0  0  0  0
 49 51  1  0  0  0  0
 49 52  1  0  0  0  0
 49 53  1  0  0  0  0
 22 30  1  0  0  0  0
 22 31  1  0  0  0  0
 23 32  1  0  0  0  0
 23 33  1  0  0  0  0
 21 28  1  0  0  0  0
 21 29  1  0  0  0  0
 24 34  1  0  0  0  0
 24 35  1  0  0  0  0
 39 44  1  0  0  0  0
  8 13  1  0  0  0  0
 18 27  1  0  0  0  0
 25 36  1  0  0  0  0
 25 37  1  0  0  0  0
 48 50  1  0  0  0  0
  7 12  1  0  0  0  0
 38 43  1  0  0  0  0
 17 26  1  0  0  0  0
M  END
$$$$

  -OEChem-05262214473D

 53 52  0     1  0  0  0  0  0999 V2000
   -1.0338   -5.6785    0.1476 C   0  0  0  0  0  0  0  0  0  0  0  0
   -2.0514   -5.7797    0.8227 O   0  0  0  0  0  0  0  0  0  0  0  0
   -0.6558   -6.7819   -0.7841 C   0  0  0  0  0  0  0  0  0  0  0  0
   -0.0111   -7.5354   -0.3038 H   0  0  0  0  0  0  0  0  0  0  0  0
   -1.5317   -7.3401   -1.1520 H   0  0  0  0  0  0  0  0  0  0  0  0
   -0.1109   -6.4687   -1.6890 H   0  0  0  0  0  0  0  0  0  0  0  0
   -0.1543   -4.6083    0.1480 N   0  0  0  0  0  0  0  0  0  0  0  0
   -0.3302   -3.4398    0.9696 C   0  0  2  0  0  0  0  0  0  0  0  0
    0.2328   -2.2439    0.2131 C   0  0  0  0  0  0  0  0  0  0  0  0
    1.2097   -2.3192   -0.5294 O   0  0  0  0  0  0  0  0  0  0  0  0
    0.3557   -3.6024    2.3171 C   0  0  0  0  0  0  0  0  0  0  0  0
    0.6584   -4.6506   -0.4643 H   0  0  0  0  0  0  0  0  0  0  0  0
   -1.4091   -3.3101    1.1082 H   0  0  0  0  0  0  0  0  0  0  0  0
    1.4375   -3.7336    2.1985 H   0  0  0  0  0  0  0  0  0  0  0  0
    0.1969   -2.7243    2.9517 H   0  0  0  0  0  0  0  0  0  0  0  0
   -0.0294   -4.4803    2.8470 H   0  0  0  0  0  0  0  0  0  0  0  0
   -0.4616   -1.0893    0.5050 N   0  0  0  0  0  0  0  0  0  0  0  0
   -0.0884    0.2050   -0.0621 C   0  0  2  0  0  0  0  0  0  0  0  0
   -1.3680    0.8886   -0.5354 C   0  0  0  0  0  0  0  0  0  0  0  0
   -1.3952    1.6860   -1.4707 O   0  0  0  0  0  0  0  0  0  0  0  0
    0.8826    0.0643   -1.2439 C   0  0  0  0  0  0  0  0  0  0  0  0
    2.2680   -0.4466   -0.8351 C   0  0  0  0  0  0  0  0  0  0  0  0
    3.2015   -0.5447   -2.0448 C   0  0  0  0  0  0  0  0  0  0  0  0
    4.5752   -1.0774   -1.6406 C   0  0  0  0  0  0  0  0  0  0  0  0
    5.4403   -1.1853   -2.8093 N   0  0  0  0  0  0  0  0  0  0  0  0
   -1.2794   -1.1113    1.0935 H   0  0  0  0  0  0  0  0  0  0  0  0
    0.3710    0.8119    0.7274 H   0  0  0  0  0  0  0  0  0  0  0  0
    0.9958    1.0402   -1.7341 H   0  0  0  0  0  0  0  0  0  0  0  0
    0.4537   -0.6046   -2.0025 H   0  0  0  0  0  0  0  0  0  0  0  0
    2.1839   -1.4341   -0.3675 H   0  0  0  0  0  0  0  0  0  0  0  0
    2.7034    0.2308   -0.0908 H   0  0  0  0  0  0  0  0  0  0  0  0
    2.7531   -1.2042   -2.7985 H   0  0  0  0  0  0  0  0  0  0  0  0
    3.3090    0.4457   -2.5051 H   0  0  0  0  0  0  0  0  0  0  0  0
    4.4766   -2.0618   -1.1701 H   0  0  0  0  0  0  0  0  0  0  0  0
    5.0410   -0.4047   -0.9127 H   0  0  0  0  0  0  0  0  0  0  0  0
    4.9223   -0.9050   -3.6091 H   0  0  0  0  0  0  0  0  0  0  0  0
    6.2235   -0.5896   -2.6743 H   0  0  0  0  0  0  0  0  0  0  0  0
   -2.4694    0.5192    0.2245 N   0  0  0  0  0  0  0  0  0  0  0  0
   -3.7986    1.0396   -0.0014 C   0  0  2  0  0  0  0  0  0  0  0  0
   -4.5104    1.1114    1.3431 C   0  0  0  0  0  0  0  0  0  0  0  0
   -4.3258    0.2960    2.2442 O   0  0  0  0  0  0  0  0  0  0  0  0
   -4.5734    0.1719   -0.9810 C   0  0  0  0  0  0  0  0  0  0  0  0
   -2.3528   -0.1558    0.9744 H   0  0  0  0  0  0  0  0  0  0  0  0
   -3.6779    2.0505   -0.4059 H   0  0  0  0  0  0  0  0  0  0  0  0
   -4.7043   -0.8448   -0.5929 H   0  0  0  0  0  0  0  0  0  0  0  0
   -5.5699    0.5832   -1.1730 H   0  0  0  0  0  0  0  0  0  0  0  0
   -4.0452    0.0971   -1.9376 H   0  0  0  0  0  0  0  0  0  0  0  0
   -5.4080    2.1682    1.4026 N   0  0  0  0  0  0  0  0  0  0  0  0
   -6.2366    2.4232    2.5577 C   0  0  0  0  0  0  0  0  0  0  0  0
   -5.4670    2.8182    0.6242 H   0  0  0  0  0  0  0  0  0  0  0  0
   -7.2058    1.9182    2.4331 H   0  0  0  0  0  0  0  0  0  0  0  0
   -5.7367    2.0396    3.4593 H   0  0  0  0  0  0  0  0  0  0  0  0
   -6.3983    3.5064    2.6609 H   0  0  0  0  0  0  0  0  0  0  0  0
  1  3  1  0  0  0  0
  1  7  1  0  0  0  0
  1  2  2  0  0  0  0
 39 40  1  0  0  0  0
 40 48  1  0  0  0  0
 40 41  2  0  0  0  0
  8  9  1  0  0  0  0
  9 17  1  0  0  0  0
  9 10  2  0  0  0  0
 18 19  1  0  0  0  0
 19 38  1  0  0  0  0
 19 20  2  0  0  0  0
 39 42  1  0  0  0  0
  8 11  1  0  0  0  0
 48 49  1  0  0  0  0
 22 23  1  0  0  0  0
 21 22  1  0  0  0  0
 23 24  1  0  0  0  0
 18 21  1  0  0  0  0
 24 25  1  0  0  0  0
 38 39  1  0  0  0  0
  7  8  1  0  0  0  0
 17 18  1  0  0  0  0
  3  4  1  0  0  0  0
  3  5  1  0  0  0  0
  3  6  1  0  0  0  0
 42 45  1  0  0  0  0
 42 46  1  0  0  0  0
 42 47  1  0  0  0  0
 11 14  1  0  0  0  0
 11 15  1  0  0  0  0
 11 16  1  0  0  0  0
 49 51  1  0  0  0  0
 49 52  1  0  0  0  0
 49 53  1  0  0  0  0
 22 30  1  0  0  0  0
 22 31  1  0  0  0  0
 23 32  1  0  0  0  0
 23 33  1  0  0  0  0
 21 28  1  0  0  0  0
 21 29  1  0  0  0  0
 24 34  1  0  0  0  0
 24 35  1  0  0  0  0
 39 44  1  0  0  0  0
  8 13  1  0  0  0  0
 18 27  1  0  0  0  0
 25 36  1  0  0  0  0
 25 37  1  0  0  0  0
 48 50  1  0  0  0  0
  7 12  1  0  0  0  0
 38 43  1  0  0  0  0
 17 26  1  0  0  0  0
M  END
$$$$

  -OEChem-05262214473D

 53 52  0     1  0  0  0  0  0999 V2000
   -1.0338   -5.6785    0.1476 C   0  0  0  0  0  0  0  0  0  0  0  0
   -2.0514   -5.7797    0.8227 O   0  0  0  0  0  0  0  0  0  0  0  0
   -0.6558   -6.7819   -0.7841 C   0  0  0  0  0  0  0  0  0  0  0  0
   -0.0111   -7.5354   -0.3038 H   0  0  0  0  0  0  0  0  0  0  0  0
   -1.5317   -7.3401   -1.1520 H   0  0  0  0  0  0  0  0  0  0  0  0
   -0.1109   -6.4687   -1.6890 H   0  0  0  0  0  0  0  0  0  0  0  0
   -0.1543   -4.6083    0.1480 N   0  0  0  0  0  0  0  0  0  0  0  0
   -0.3302   -3.4398    0.9696 C   0  0  2  0  0  0  0  0  0  0  0  0
    0.2328   -2.2439    0.2131 C   0  0  0  0  0  0  0  0  0  0  0  0
    1.2097   -2.3192   -0.5294 O   0  0  0  0  0  0  0  0  0  0  0  0
    0.3557   -3.6024    2.3171 C   0  0  0  0  0  0  0  0  0  0  0  0
    0.6584   -4.6506   -0.4643 H   0  0  0  0  0  0  0  0  0  0  0  0
   -1.4091   -3.3101    1.1082 H   0  0  0  0  0  0  0  0  0  0  0  0
    1.4375   -3.7336    2.1985 H   0  0  0  0  0  0  0  0  0  0  0  0
    0.1969   -2.7243    2.9517 H   0  0  0  0  0  0  0  0  0  0  0  0
   -0.0294   -4.4803    2.8470 H   0  0  0  0  0  0  0  0  0  0  0  0
   -0.4616   -1.0893    0.5050 N   0  0  0  0  0  0  0  0  0  0  0  0
   -0.0884    0.2050   -0.0621 C   0  0  2  0  0  0  0  0  0  0  0  0
   -1.3680    0.8886   -0.5354 C   0  0  0  0  0  0  0  0  0  0  0  0
   -1.4579    1.4683   -1.6158 O   0  0  0  0  0  0  0  0  0  0  0  0
    0.8826    0.0643   -1.2439 C   0  0  0  0  0  0  0  0  0  0  0  0
    2.2680   -0.4466   -0.8351 C   0  0  0  0  0  0  0  0  0  0  0  0
    3.2015   -0.5447   -2.0448 C   0  0  0  0  0  0  0  0  0  0  0  0
    4.5752   -1.0774   -1.6406 C   0  0  0  0  0  0  0  0  0  0  0  0
    5.4403   -1.1853   -2.8093 N   0  0  0  0  0  0  0  0  0  0  0  0
   -1.2794   -1.1113    1.0935 H   0  0  0  0  0  0  0  0  0  0  0  0
    0.3710    0.8119    0.7274 H   0  0  0  0  0  0  0  0  0  0  0  0
    0.9958    1.0402   -1.7341 H   0  0  0  0  0  0  0  0  0  0  0  0
    0.4537   -0.6046   -2.0025 H   0  0  0  0  0  0  0  0  0  0  0  0
    2.1839   -1.4341   -0.3675 H   0  0  0  0  0  0  0  0  0  0  0  0
    2.7034    0.2308   -0.0908 H   0  0  0  0  0  0  0  0  0  0  0  0
    2.7531   -1.2042   -2.7985 H   0  0  0  0  0  0  0  0  0  0  0  0
    3.3090    0.4457   -2.5051 H   0  0  0  0  0  0  0  0  0  0  0  0
    4.4766   -2.0618   -1.1701 H   0  0  0  0  0  0  0  0  0  0  0  0
    5.0410   -0.4047   -0.9127 H   0  0  0  0  0  0  0  0  0  0  0  0
    4.9223   -0.9050   -3.6091 H   0  0  0  0  0  0  0  0  0  0  0  0
    6.2235   -0.5896   -2.6743 H   0  0  0  0  0  0  0  0  0  0  0  0
   -2.3883    0.7931    0.4010 N   0  0  0  0  0  0  0  0  0  0  0  0
   -3.6972    1.3750    0.2089 C   0  0  2  0  0  0  0  0  0  0  0  0
   -4.2291    1.7966    1.5723 C   0  0  0  0  0  0  0  0  0  0  0  0
   -3.9890    1.1775    2.6067 O   0  0  0  0  0  0  0  0  0  0  0  0
   -4.6450    0.3951   -0.4651 C   0  0  0  0  0  0  0  0  0  0  0  0
   -2.2249    0.2848    1.2650 H   0  0  0  0  0  0  0  0  0  0  0  0
   -3.5600    2.2613   -0.4202 H   0  0  0  0  0  0  0  0  0  0  0  0
   -4.7947   -0.4994    0.1505 H   0  0  0  0  0  0  0  0  0  0  0  0
   -5.6276    0.8472   -0.6357 H   0  0  0  0  0  0  0  0  0  0  0  0
   -4.2465    0.0701   -1.4323 H   0  0  0  0  0  0  0  0  0  0  0  0
   -5.0390    2.9208    1.4917 N   0  0  0  0  0  0  0  0  0  0  0  0
   -5.6978    3.4912    2.6434 C   0  0  0  0  0  0  0  0  0  0  0  0
   -5.1507    3.3933    0.5995 H   0  0  0  0  0  0  0  0  0  0  0  0
   -6.7069    3.0637    2.7384 H   0  0  0  0  0  0  0  0  0  0  0  0
   -5.1163    3.2629    3.5488 H   0  0  0  0  0  0  0  0  0  0  0  0
   -5.7719    4.5818    2.5206 H   0  0  0  0  0  0  0  0  0  0  0  0
  1  3  1  0  0  0  0
  1  7  1  0  0  0  0
  1  2  2  0  0  0  0
 39 40  1  0  0  0  0
 40 48  1  0  0  0  0
 40 41  2  0  0  0  0
  8  9  1  0  0  0  0
  9 17  1  0  0  0  0
  9 10  2  0  0  0  0
 18 19  1  0  0  0  0
 19 38  1  0  0  0  0
 19 20  2  0  0  0  0
 39 42  1  0  0  0  0
  8 11  1  0  0  0  0
 48 49  1  0  0  0  0
 22 23  1  0  0  0  0
 21 22  1  0  0  0  0
 23 24  1  0  0  0  0
 18 21  1  0  0  0  0
 24 25  1  0  0  0  0
 38 39  1  0  0  0  0
  7  8  1  0  0  0  0
 17 18  1  0  0  0  0
  3  4  1  0  0  0  0
  3  5  1  0  0  0  0
  3  6  1  0  0  0  0
 42 45  1  0  0  0  0
 42 46  1  0  0  0  0
 42 47  1  0  0  0  0
 11 14  1  0  0  0  0
 11 15  1  0  0  0  0
 11 16  1  0  0  0  0
 49 51  1  0  0  0  0
 49 52  1  0  0  0  0
 49 53  1  0  0  0  0
 22 30  1  0  0  0  0
 22 31  1  0  0  0  0
 23 32  1  0  0  0  0
 23 33  1  0  0  0  0
 21 28  1  0  0  0  0
 21 29  1  0  0  0  0
 24 34  1  0  0  0  0
 24 35  1  0  0  0  0
 39 44  1  0  0  0  0
  8 13  1  0  0  0  0
 18 27  1  0  0  0  0
 25 36  1  0  0  0  0
 25 37  1  0  0  0  0
 48 50  1  0  0  0  0
  7 12  1  0  0  0  0
 38 43  1  0  0  0  0
 17 26  1  0  0  0  0
M  END
$$$$

  -OEChem-05262214473D

 53 52  0     1  0  0  0  0  0999 V2000
   -1.0338   -5.6785    0.1476 C   0  0  0  0  0  0  0  0  0  0  0  0
   -2.0514   -5.7797    0.8227 O   0  0  0  0  0  0  0  0  0  0  0  0
   -0.6558   -6.7819   -0.7841 C   0  0  0  0  0  0  0  0  0  0  0  0
   -0.0111   -7.5354   -0.3038 H   0  0  0  0  0  0  0  0  0  0  0  0
   -1.5317   -7.3401   -1.1520 H   0  0  0  0  0  0  0  0  0  0  0  0
   -0.1109   -6.4687   -1.6890 H   0  0  0  0  0  0  0  0  0  0  0  0
   -0.1543   -4.6083    0.1480 N   0  0  0  0  0  0  0  0  0  0  0  0
   -0.3302   -3.4398    0.9696 C   0  0  2  0  0  0  0  0  0  0  0  0
    0.2328   -2.2439    0.2131 C   0  0  0  0  0  0  0  0  0  0  0  0
    1.2097   -2.3192   -0.5294 O   0  0  0  0  0  0  0  0  0  0  0  0
    0.3557   -3.6024    2.3171 C   0  0  0  0  0  0  0  0  0  0  0  0
    0.6584   -4.6506   -0.4643 H   0  0  0  0  0  0  0  0  0  0  0  0
   -1.4091   -3.3101    1.1082 H   0  0  0  0  0  0  0  0  0  0  0  0
    1.4375   -3.7336    2.1985 H   0  0  0  0  0  0  0  0  0  0  0  0
    0.1969   -2.7243    2.9517 H   0  0  0  0  0  0  0  0  0  0  0  0
   -0.0294   -4.4803    2.8470 H   0  0  0  0  0  0  0  0  0  0  0  0
   -0.4616   -1.0893    0.5050 N   0  0  0  0  0  0  0  0  0  0  0  0
   -0.0884    0.2050   -0.0621 C   0  0  2  0  0  0  0  0  0  0  0  0
   -1.3680    0.8886   -0.5354 C   0  0  0  0  0  0  0  0  0  0  0  0
   -1.5527    1.2315   -1.7015 O   0  0  0  0  0  0  0  0  0  0  0  0
    0.8826    0.0643   -1.2439 C   0  0  0  0  0  0  0  0  0  0  0  0
    2.2680   -0.4466   -0.8351 C   0  0  0  0  0  0  0  0  0  0  0  0
    3.2015   -0.5447   -2.0448 C   0  0  0  0  0  0  0  0  0  0  0  0
    4.5752   -1.0774   -1.6406 C   0  0  0  0  0  0  0  0  0  0  0  0
    5.4403   -1.1853   -2.8093 N   0  0  0  0  0  0  0  0  0  0  0  0
   -1.2794   -1.1113    1.0935 H   0  0  0  0  0  0  0  0  0  0  0  0
    0.3710    0.8119    0.7274 H   0  0  0  0  0  0  0  0  0  0  0  0
    0.9958    1.0402   -1.7341 H   0  0  0  0  0  0  0  0  0  0  0  0
    0.4537   -0.6046   -2.0025 H   0  0  0  0  0  0  0  0  0  0  0  0
    2.1839   -1.4341   -0.3675 H   0  0  0  0  0  0  0  0  0  0  0  0
    2.7034    0.2308   -0.0908 H   0  0  0  0  0  0  0  0  0  0  0  0
    2.7531   -1.2042   -2.7985 H   0  0  0  0  0  0  0  0  0  0  0  0
    3.3090    0.4457   -2.5051 H   0  0  0  0  0  0  0  0  0  0  0  0
    4.4766   -2.0618   -1.1701 H   0  0  0  0  0  0  0  0  0  0  0  0
    5.0410   -0.4047   -0.9127 H   0  0  0  0  0  0  0  0  0  0  0  0
    4.9223   -0.9050   -3.6091 H   0  0  0  0  0  0  0  0  0  0  0  0
    6.2235   -0.5896   -2.6743 H   0  0  0  0  0  0  0  0  0  0  0  0
   -2.2676    1.0894    0.5025 N   0  0  0  0  0  0  0  0  0  0  0  0
   -3.5479    1.7366    0.3275 C   0  0  2  0  0  0  0  0  0  0  0  0
   -3.8759    2.4856    1.6123 C   0  0  0  0  0  0  0  0  0  0  0  0
   -3.5508    2.0806    2.7265 O   0  0  0  0  0  0  0  0  0  0  0  0
   -4.6364    0.7285   -0.0070 C   0  0  0  0  0  0  0  0  0  0  0  0
   -2.0323    0.7632    1.4352 H   0  0  0  0  0  0  0  0  0  0  0  0
   -3.4309    2.4523   -0.4935 H   0  0  0  0  0  0  0  0  0  0  0  0
   -4.7681    0.0030    0.8040 H   0  0  0  0  0  0  0  0  0  0  0  0
   -5.5999    1.2234   -0.1674 H   0  0  0  0  0  0  0  0  0  0  0  0
   -4.3846    0.1699   -0.9149 H   0  0  0  0  0  0  0  0  0  0  0  0
   -4.6118    3.6374    1.3716 N   0  0  0  0  0  0  0  0  0  0  0  0
   -5.0817    4.4981    2.4320 C   0  0  0  0  0  0  0  0  0  0  0  0
   -4.8018    3.9180    0.4141 H   0  0  0  0  0  0  0  0  0  0  0  0
   -6.0976    4.1963    2.7268 H   0  0  0  0  0  0  0  0  0  0  0  0
   -4.4085    4.4141    3.2978 H   0  0  0  0  0  0  0  0  0  0  0  0
   -5.0968    5.5398    2.0789 H   0  0  0  0  0  0  0  0  0  0  0  0
  1  3  1  0  0  0  0
  1  7  1  0  0  0  0
  1  2  2  0  0  0  0
 39 40  1  0  0  0  0
 40 48  1  0  0  0  0
 40 41  2  0  0  0  0
  8  9  1  0  0  0  0
  9 17  1  0  0  0  0
  9 10  2  0  0  0  0
 18 19  1  0  0  0  0
 19 38  1  0  0  0  0
 19 20  2  0  0  0  0
 39 42  1  0  0  0  0
  8 11  1  0  0  0  0
 48 49  1  0  0  0  0
 22 23  1  0  0  0  0
 21 22  1  0  0  0  0
 23 24  1  0  0  0  0
 18 21  1  0  0  0  0
 24 25  1  0  0  0  0
 38 39  1  0  0  0  0
  7  8  1  0  0  0  0
 17 18  1  0  0  0  0
  3  4  1  0  0  0  0
  3  5  1  0  0  0  0
  3  6  1  0  0  0  0
 42 45  1  0  0  0  0
 42 46  1  0  0  0  0
 42 47  1  0  0  0  0
 11 14  1  0  0  0  0
 11 15  1  0  0  0  0
 11 16  1  0  0  0  0
 49 51  1  0  0  0  0
 49 52  1  0  0  0  0
 49 53  1  0  0  0  0
 22 30  1  0  0  0  0
 22 31  1  0  0  0  0
 23 32  1  0  0  0  0
 23 33  1  0  0  0  0
 21 28  1  0  0  0  0
 21 29  1  0  0  0  0
 24 34  1  0  0  0  0
 24 35  1  0  0  0  0
 39 44  1  0  0  0  0
  8 13  1  0  0  0  0
 18 27  1  0  0  0  0
 25 36  1  0  0  0  0
 25 37  1  0  0  0  0
 48 50  1  0  0  0  0
  7 12  1  0  0  0  0
 38 43  1  0  0  0  0
 17 26  1  0  0  0  0
M  END
$$$$

  -OEChem-05262214473D

 53 52  0     1  0  0  0  0  0999 V2000
   -1.0338   -5.6785    0.1476 C   0  0  0  0  0  0  0  0  0  0  0  0
   -2.0514   -5.7797    0.8227 O   0  0  0  0  0  0  0  0  0  0  0  0
   -0.6558   -6.7819   -0.7841 C   0  0  0  0  0  0  0  0  0  0  0  0
   -0.0111   -7.5354   -0.3038 H   0  0  0  0  0  0  0  0  0  0  0  0
   -1.5317   -7.3401   -1.1520 H   0  0  0  0  0  0  0  0  0  0  0  0
   -0.1109   -6.4687   -1.6890 H   0  0  0  0  0  0  0  0  0  0  0  0
   -0.1543   -4.6083    0.1480 N   0  0  0  0  0  0  0  0  0  0  0  0
   -0.3302   -3.4398    0.9696 C   0  0  2  0  0  0  0  0  0  0  0  0
    0.2328   -2.2439    0.2131 C   0  0  0  0  0  0  0  0  0  0  0  0
    1.2097   -2.3192   -0.5294 O   0  0  0  0  0  0  0  0  0  0  0  0
    0.3557   -3.6024    2.3171 C   0  0  0  0  0  0  0  0  0  0  0  0
    0.6584   -4.6506   -0.4643 H   0  0  0  0  0  0  0  0  0  0  0  0
   -1.4091   -3.3101    1.1082 H   0  0  0  0  0  0  0  0  0  0  0  0
    1.4375   -3.7336    2.1985 H   0  0  0  0  0  0  0  0  0  0  0  0
    0.1969   -2.7243    2.9517 H   0  0  0  0  0  0  0  0  0  0  0  0
   -0.0294   -4.4803    2.8470 H   0  0  0  0  0  0  0  0  0  0  0  0
   -0.4616   -1.0893    0.5050 N   0  0  0  0  0  0  0  0  0  0  0  0
   -0.0884    0.2050   -0.0621 C   0  0  2  0  0  0  0  0  0  0  0  0
   -1.3680    0.8886   -0.5354 C   0  0  0  0  0  0  0  0  0  0  0  0
   -1.6732    0.9917   -1.7218 O   0  0  0  0  0  0  0  0  0  0  0  0
    0.8826    0.0643   -1.2439 C   0  0  0  0  0  0  0  0  0  0  0  0
    2.2680   -0.4466   -0.8351 C   0  0  0  0  0  0  0  0  0  0  0  0
    3.2015   -0.5447   -2.0448 C   0  0  0  0  0  0  0  0  0  0  0  0
    4.5752   -1.0774   -1.6406 C   0  0  0  0  0  0  0  0  0  0  0  0
    5.4403   -1.1853   -2.8093 N   0  0  0  0  0  0  0  0  0  0  0  0
   -1.2794   -1.1113    1.0935 H   0  0  0  0  0  0  0  0  0  0  0  0
    0.3710    0.8119    0.7274 H   0  0  0  0  0  0  0  0  0  0  0  0
    0.9958    1.0402   -1.7341 H   0  0  0  0  0  0  0  0  0  0  0  0
    0.4537   -0.6046   -2.0025 H   0  0  0  0  0  0  0  0  0  0  0  0
    2.1839   -1.4341   -0.3675 H   0  0  0  0  0  0  0  0  0  0  0  0
    2.7034    0.2308   -0.0908 H   0  0  0  0  0  0  0  0  0  0  0  0
    2.7531   -1.2042   -2.7985 H   0  0  0  0  0  0  0  0  0  0  0  0
    3.3090    0.4457   -2.5051 H   0  0  0  0  0  0  0  0  0  0  0  0
    4.4766   -2.0618   -1.1701 H   0  0  0  0  0  0  0  0  0  0  0  0
    5.0410   -0.4047   -0.9127 H   0  0  0  0  0  0  0  0  0  0  0  0
    4.9223   -0.9050   -3.6091 H   0  0  0  0  0  0  0  0  0  0  0  0
    6.2235   -0.5896   -2.6743 H   0  0  0  0  0  0  0  0  0  0  0  0
   -2.1154    1.3880    0.5224 N   0  0  0  0  0  0  0  0  0  0  0  0
   -3.3610    2.0995    0.3463 C   0  0  2  0  0  0  0  0  0  0  0  0
   -3.4748    3.1314    1.4606 C   0  0  0  0  0  0  0  0  0  0  0  0
   -3.0413    2.9438    2.5954 O   0  0  0  0  0  0  0  0  0  0  0  0
   -4.5482    1.1492    0.3622 C   0  0  0  0  0  0  0  0  0  0  0  0
   -1.7881    1.2468    1.4734 H   0  0  0  0  0  0  0  0  0  0  0  0
   -3.2993    2.6106   -0.6207 H   0  0  0  0  0  0  0  0  0  0  0  0
   -4.6263    0.6279    1.3233 H   0  0  0  0  0  0  0  0  0  0  0  0
   -5.4885    1.6862    0.2002 H   0  0  0  0  0  0  0  0  0  0  0  0
   -4.4499    0.3896   -0.4209 H   0  0  0  0  0  0  0  0  0  0  0  0
   -4.1555    4.2693    1.0506 N   0  0  0  0  0  0  0  0  0  0  0  0
   -4.4304    5.3754    1.9377 C   0  0  0  0  0  0  0  0  0  0  0  0
   -4.4442    4.3566    0.0807 H   0  0  0  0  0  0  0  0  0  0  0  0
   -5.4195    5.2390    2.3992 H   0  0  0  0  0  0  0  0  0  0  0  0
   -3.6616    5.4148    2.7235 H   0  0  0  0  0  0  0  0  0  0  0  0
   -4.4190    6.3152    1.3662 H   0  0  0  0  0  0  0  0  0  0  0  0
  1  3  1  0  0  0  0
  1  7  1  0  0  0  0
  1  2  2  0  0  0  0
 39 40  1  0  0  0  0
 40 48  1  0  0  0  0
 40 41  2  0  0  0  0
  8  9  1  0  0  0  0
  9 17  1  0  0  0  0
  9 10  2  0  0  0  0
 18 19  1  0  0  0  0
 19 38  1  0  0  0  0
 19 20  2  0  0  0  0
 39 42  1  0  0  0  0
  8 11  1  0  0  0  0
 48 49  1  0  0  0  0
 22 23  1  0  0  0  0
 21 22  1  0  0  0  0
 23 24  1  0  0  0  0
 18 21  1  0  0  0  0
 24 25  1  0  0  0  0
 38 39  1  0  0  0  0
  7  8  1  0  0  0  0
 17 18  1  0  0  0  0
  3  4  1  0  0  0  0
  3  5  1  0  0  0  0
  3  6  1  0  0  0  0
 42 45  1  0  0  0  0
 42 46  1  0  0  0  0
 42 47  1  0  0  0  0
 11 14  1  0  0  0  0
 11 15  1  0  0  0  0
 11 16  1  0  0  0  0
 49 51  1  0  0  0  0
 49 52  1  0  0  0  0
 49 53  1  0  0  0  0
 22 30  1  0  0  0  0
 22 31  1  0  0  0  0
 23 32  1  0  0  0  0
 23 33  1  0  0  0  0
 21 28  1  0  0  0  0
 21 29  1  0  0  0  0
 24 34  1  0  0  0  0
 24 35  1  0  0  0  0
 39 44  1  0  0  0  0
  8 13  1  0  0  0  0
 18 27  1  0  0  0  0
 25 36  1  0  0  0  0
 25 37  1  0  0  0  0
 48 50  1  0  0  0  0
  7 12  1  0  0  0  0
 38 43  1  0  0  0  0
 17 26  1  0  0  0  0
M  END
$$$$

  -OEChem-05262214473D

 53 52  0     1  0  0  0  0  0999 V2000
   -1.0338   -5.6785    0.1476 C   0  0  0  0  0  0  0  0  0  0  0  0
   -2.0514   -5.7797    0.8227 O   0  0  0  0  0  0  0  0  0  0  0  0
   -0.6558   -6.7819   -0.7841 C   0  0  0  0  0  0  0  0  0  0  0  0
   -0.0111   -7.5354   -0.3038 H   0  0  0  0  0  0  0  0  0  0  0  0
   -1.5317   -7.3401   -1.1520 H   0  0  0  0  0  0  0  0  0  0  0  0
   -0.1109   -6.4687   -1.6890 H   0  0  0  0  0  0  0  0  0  0  0  0
   -0.1543   -4.6083    0.1480 N   0  0  0  0  0  0  0  0  0  0  0  0
   -0.3302   -3.4398    0.9696 C   0  0  2  0  0  0  0  0  0  0  0  0
    0.2328   -2.2439    0.2131 C   0  0  0  0  0  0  0  0  0  0  0  0
    1.2097   -2.3192   -0.5294 O   0  0  0  0  0  0  0  0  0  0  0  0
    0.3557   -3.6024    2.3171 C   0  0  0  0  0  0  0  0  0  0  0  0
    0.6584   -4.6506   -0.4643 H   0  0  0  0  0  0  0  0  0  0  0  0
   -1.4091   -3.3101    1.1082 H   0  0  0  0  0  0  0  0  0  0  0  0
    1.4375   -3.7336    2.1985 H   0  0  0  0  0  0  0  0  0  0  0  0
    0.1969   -2.7243    2.9517 H   0  0  0  0  0  0  0  0  0  0  0  0
   -0.0294   -4.4803    2.8470 H   0  0  0  0  0  0  0  0  0  0  0  0
   -0.4616   -1.0893    0.5050 N   0  0  0  0  0  0  0  0  0  0  0  0
   -0.0884    0.2050   -0.0621 C   0  0  2  0  0  0  0  0  0  0  0  0
   -1.3680    0.8886   -0.5354 C   0  0  0  0  0  0  0  0  0  0  0  0
   -1.8112    0.7654   -1.6755 O   0  0  0  0  0  0  0  0  0  0  0  0
    0.8826    0.0643   -1.2439 C   0  0  0  0  0  0  0  0  0  0  0  0
    2.2680   -0.4466   -0.8351 C   0  0  0  0  0  0  0  0  0  0  0  0
    3.2015   -0.5447   -2.0448 C   0  0  0  0  0  0  0  0  0  0  0  0
    4.5752   -1.0774   -1.6406 C   0  0  0  0  0  0  0  0  0  0  0  0
    5.4403   -1.1853   -2.8093 N   0  0  0  0  0  0  0  0  0  0  0  0
   -1.2794   -1.1113    1.0935 H   0  0  0  0  0  0  0  0  0  0  0  0
    0.3710    0.8119    0.7274 H   0  0  0  0  0  0  0  0  0  0  0  0
    0.9958    1.0402   -1.7341 H   0  0  0  0  0  0  0  0  0  0  0  0
    0.4537   -0.6046   -2.0025 H   0  0  0  0  0  0  0  0  0  0  0  0
    2.1839   -1.4341   -0.3675 H   0  0  0  0  0  0  0  0  0  0  0  0
    2.7034    0.2308   -0.0908 H   0  0  0  0  0  0  0  0  0  0  0  0
    2.7531   -1.2042   -2.7985 H   0  0  0  0  0  0  0  0  0  0  0  0
    3.3090    0.4457   -2.5051 H   0  0  0  0  0  0  0  0  0  0  0  0
    4.4766   -2.0618   -1.1701 H   0  0  0  0  0  0  0  0  0  0  0  0
    5.0410   -0.4047   -0.9127 H   0  0  0  0  0  0  0  0  0  0  0  0
    4.9223   -0.9050   -3.6091 H   0  0  0  0  0  0  0  0  0  0  0  0
    6.2235   -0.5896   -2.6743 H   0  0  0  0  0  0  0  0  0  0  0  0
   -1.9422    1.6685    0.4591 N   0  0  0  0  0  0  0  0  0  0  0  0
   -3.1491    2.4392    0.2640 C   0  0  2  0  0  0  0  0  0  0  0  0
   -3.0531    3.6902    1.1273 C   0  0  0  0  0  0  0  0  0  0  0  0
   -2.4950    3.7082    2.2224 O   0  0  0  0  0  0  0  0  0  0  0  0
   -4.3864    1.6286    0.6173 C   0  0  0  0  0  0  0  0  0  0  0  0
   -1.5090    1.7026    1.3771 H   0  0  0  0  0  0  0  0  0  0  0  0
   -3.1742    2.7253   -0.7932 H   0  0  0  0  0  0  0  0  0  0  0  0
   -4.3790    1.3328    1.6727 H   0  0  0  0  0  0  0  0  0  0  0  0
   -5.3013    2.2041    0.4418 H   0  0  0  0  0  0  0  0  0  0  0  0
   -4.4381    0.7143    0.0163 H   0  0  0  0  0  0  0  0  0  0  0  0
   -3.7013    4.7733    0.5505 N   0  0  0  0  0  0  0  0  0  0  0  0
   -3.7880    6.0632    1.1944 C   0  0  0  0  0  0  0  0  0  0  0  0
   -4.1022    4.6792   -0.3780 H   0  0  0  0  0  0  0  0  0  0  0  0
   -4.7188    6.1205    1.7779 H   0  0  0  0  0  0  0  0  0  0  0  0
   -2.9263    6.1969    1.8649 H   0  0  0  0  0  0  0  0  0  0  0  0
   -3.7848    6.8550    0.4309 H   0  0  0  0  0  0  0  0  0  0  0  0
  1  3  1  0  0  0  0
  1  7  1  0  0  0  0
  1  2  2  0  0  0  0
 39 40  1  0  0  0  0
 40 48  1  0  0  0  0
 40 41  2  0  0  0  0
  8  9  1  0  0  0  0
  9 17  1  0  0  0  0
  9 10  2  0  0  0  0
 18 19  1  0  0  0  0
 19 38  1  0  0  0  0
 19 20  2  0  0  0  0
 39 42  1  0  0  0  0
  8 11  1  0  0  0  0
 48 49  1  0  0  0  0
 22 23  1  0  0  0  0
 21 22  1  0  0  0  0
 23 24  1  0  0  0  0
 18 21  1  0  0  0  0
 24 25  1  0  0  0  0
 38 39  1  0  0  0  0
  7  8  1  0  0  0  0
 17 18  1  0  0  0  0
  3  4  1  0  0  0  0
  3  5  1  0  0  0  0
  3  6  1  0  0  0  0
 42 45  1  0  0  0  0
 42 46  1  0  0  0  0
 42 47  1  0  0  0  0
 11 14  1  0  0  0  0
 11 15  1  0  0  0  0
 11 16  1  0  0  0  0
 49 51  1  0  0  0  0
 49 52  1  0  0  0  0
 49 53  1  0  0  0  0
 22 30  1  0  0  0  0
 22 31  1  0  0  0  0
 23 32  1  0  0  0  0
 23 33  1  0  0  0  0
 21 28  1  0  0  0  0
 21 29  1  0  0  0  0
 24 34  1  0  0  0  0
 24 35  1  0  0  0  0
 39 44  1  0  0  0  0
  8 13  1  0  0  0  0
 18 27  1  0  0  0  0
 25 36  1  0  0  0  0
 25 37  1  0  0  0  0
 48 50  1  0  0  0  0
  7 12  1  0  0  0  0
 38 43  1  0  0  0  0
 17 26  1  0  0  0  0
M  END
$$$$

  -OEChem-05262214473D

 53 52  0     1  0  0  0  0  0999 V2000
   -1.0338   -5.6785    0.1476 C   0  0  0  0  0  0  0  0  0  0  0  0
   -2.0514   -5.7797    0.8227 O   0  0  0  0  0  0  0  0  0  0  0  0
   -0.6558   -6.7819   -0.7841 C   0  0  0  0  0  0  0  0  0  0  0  0
   -0.0111   -7.5354   -0.3038 H   0  0  0  0  0  0  0  0  0  0  0  0
   -1.5317   -7.3401   -1.1520 H   0  0  0  0  0  0  0  0  0  0  0  0
   -0.1109   -6.4687   -1.6890 H   0  0  0  0  0  0  0  0  0  0  0  0
   -0.1543   -4.6083    0.1480 N   0  0  0  0  0  0  0  0  0  0  0  0
   -0.3302   -3.4398    0.9696 C   0  0  2  0  0  0  0  0  0  0  0  0
    0.2328   -2.2439    0.2131 C   0  0  0  0  0  0  0  0  0  0  0  0
    1.2097   -2.3192   -0.5294 O   0  0  0  0  0  0  0  0  0  0  0  0
    0.3557   -3.6024    2.3171 C   0  0  0  0  0  0  0  0  0  0  0  0
    0.6584   -4.6506   -0.4643 H   0  0  0  0  0  0  0  0  0  0  0  0
   -1.4091   -3.3101    1.1082 H   0  0  0  0  0  0  0  0  0  0  0  0
    1.4375   -3.7336    2.1985 H   0  0  0  0  0  0  0  0  0  0  0  0
    0.1969   -2.7243    2.9517 H   0  0  0  0  0  0  0  0  0  0  0  0
   -0.0294   -4.4803    2.8470 H   0  0  0  0  0  0  0  0  0  0  0  0
   -0.4616   -1.0893    0.5050 N   0  0  0  0  0  0  0  0  0  0  0  0
   -0.0884    0.2050   -0.0621 C   0  0  2  0  0  0  0  0  0  0  0  0
   -1.3680    0.8886   -0.5354 C   0  0  0  0  0  0  0  0  0  0  0  0
   -1.9573    0.5680   -1.5656 O   0  0  0  0  0  0  0  0  0  0  0  0
    0.8826    0.0643   -1.2439 C   0  0  0  0  0  0  0  0  0  0  0  0
    2.2680   -0.4466   -0.8351 C   0  0  0  0  0  0  0  0  0  0  0  0
    3.2015   -0.5447   -2.0448 C   0  0  0  0  0  0  0  0  0  0  0  0
    4.5752   -1.0774   -1.6406 C   0  0  0  0  0  0  0  0  0  0  0  0
    5.4403   -1.1853   -2.8093 N   0  0  0  0  0  0  0  0  0  0  0  0
   -1.2794   -1.1113    1.0935 H   0  0  0  0  0  0  0  0  0  0  0  0
    0.3710    0.8119    0.7274 H   0  0  0  0  0  0  0  0  0  0  0  0
    0.9958    1.0402   -1.7341 H   0  0  0  0  0  0  0  0  0  0  0  0
    0.4537   -0.6046   -2.0025 H   0  0  0  0  0  0  0  0  0  0  0  0
    2.1839   -1.4341   -0.3675 H   0  0  0  0  0  0  0  0  0  0  0  0
    2.7034    0.2308   -0.0908 H   0  0  0  0  0  0  0  0  0  0  0  0
    2.7531   -1.2042   -2.7985 H   0  0  0  0  0  0  0  0  0  0  0  0
    3.3090    0.4457   -2.5051 H   0  0  0  0  0  0  0  0  0  0  0  0
    4.4766   -2.0618   -1.1701 H   0  0  0  0  0  0  0  0  0  0  0  0
    5.0410   -0.4047   -0.9127 H   0  0  0  0  0  0  0  0  0  0  0  0
    4.9223   -0.9050   -3.6091 H   0  0  0  0  0  0  0  0  0  0  0  0
    6.2235   -0.5896   -2.6743 H   0  0  0  0  0  0  0  0  0  0  0  0
   -1.7596    1.9118    0.3170 N   0  0  0  0  0  0  0  0  0  0  0  0
   -2.9268    2.7324    0.0862 C   0  0  2  0  0  0  0  0  0  0  0  0
   -2.6395    4.1236    0.6352 C   0  0  0  0  0  0  0  0  0  0  0  0
   -1.9492    4.3217    1.6328 O   0  0  0  0  0  0  0  0  0  0  0  0
   -4.1621    2.1341    0.7409 C   0  0  0  0  0  0  0  0  0  0  0  0
   -1.2140    2.0995    1.1528 H   0  0  0  0  0  0  0  0  0  0  0  0
   -3.0642    2.7887   -0.9992 H   0  0  0  0  0  0  0  0  0  0  0  0
   -4.0430    2.0697    1.8286 H   0  0  0  0  0  0  0  0  0  0  0  0
   -5.0508    2.7418    0.5411 H   0  0  0  0  0  0  0  0  0  0  0  0
   -4.3500    1.1219    0.3666 H   0  0  0  0  0  0  0  0  0  0  0  0
   -3.2801    5.1152   -0.0946 N   0  0  0  0  0  0  0  0  0  0  0  0
   -3.1986    6.5147    0.2527 C   0  0  0  0  0  0  0  0  0  0  0  0
   -3.7992    4.8638   -0.9307 H   0  0  0  0  0  0  0  0  0  0  0  0
   -4.0432    6.7810    0.9051 H   0  0  0  0  0  0  0  0  0  0  0  0
   -2.2529    6.7069    0.7806 H   0  0  0  0  0  0  0  0  0  0  0  0
   -3.2372    7.1226   -0.6633 H   0  0  0  0  0  0  0  0  0  0  0  0
  1  3  1  0  0  0  0
  1  7  1  0  0  0  0
  1  2  2  0  0  0  0
 39 40  1  0  0  0  0
 40 48  1  0  0  0  0
 40 41  2  0  0  0  0
  8  9  1  0  0  0  0
  9 17  1  0  0  0  0
  9 10  2  0  0  0  0
 18 19  1  0  0  0  0
 19 38  1  0  0  0  0
 19 20  2  0  0  0  0
 39 42  1  0  0  0  0
  8 11  1  0  0  0  0
 48 49  1  0  0  0  0
 22 23  1  0  0  0  0
 21 22  1  0  0  0  0
 23 24  1  0  0  0  0
 18 21  1  0  0  0  0
 24 25  1  0  0  0  0
 38 39  1  0  0  0  0
  7  8  1  0  0  0  0
 17 18  1  0  0  0  0
  3  4  1  0  0  0  0
  3  5  1  0  0  0  0
  3  6  1  0  0  0  0
 42 45  1  0  0  0  0
 42 46  1  0  0  0  0
 42 47  1  0  0  0  0
 11 14  1  0  0  0  0
 11 15  1  0  0  0  0
 11 16  1  0  0  0  0
 49 51  1  0  0  0  0
 49 52  1  0  0  0  0
 49 53  1  0  0  0  0
 22 30  1  0  0  0  0
 22 31  1  0  0  0  0
 23 32  1  0  0  0  0
 23 33  1  0  0  0  0
 21 28  1  0  0  0  0
 21 29  1  0  0  0  0
 24 34  1  0  0  0  0
 24 35  1  0  0  0  0
 39 44  1  0  0  0  0
  8 13  1  0  0  0  0
 18 27  1  0  0  0  0
 25 36  1  0  0  0  0
 25 37  1  0  0  0  0
 48 50  1  0  0  0  0
  7 12  1  0  0  0  0
 38 43  1  0  0  0  0
 17 26  1  0  0  0  0
M  END
$$$$

  -OEChem-05262214473D

 53 52  0     1  0  0  0  0  0999 V2000
   -1.0338   -5.6785    0.1476 C   0  0  0  0  0  0  0  0  0  0  0  0
   -2.0514   -5.7797    0.8227 O   0  0  0  0  0  0  0  0  0  0  0  0
   -0.6558   -6.7819   -0.7841 C   0  0  0  0  0  0  0  0  0  0  0  0
   -0.0111   -7.5354   -0.3038 H   0  0  0  0  0  0  0  0  0  0  0  0
   -1.5317   -7.3401   -1.1520 H   0  0  0  0  0  0  0  0  0  0  0  0
   -0.1109   -6.4687   -1.6890 H   0  0  0  0  0  0  0  0  0  0  0  0
   -0.1543   -4.6083    0.1480 N   0  0  0  0  0  0  0  0  0  0  0  0
   -0.3302   -3.4398    0.9696 C   0  0  2  0  0  0  0  0  0  0  0  0
    0.2328   -2.2439    0.2131 C   0  0  0  0  0  0  0  0  0  0  0  0
    1.2097   -2.3192   -0.5294 O   0  0  0  0  0  0  0  0  0  0  0  0
    0.3557   -3.6024    2.3171 C   0  0  0  0  0  0  0  0  0  0  0  0
    0.6584   -4.6506   -0.4643 H   0  0  0  0  0  0  0  0  0  0  0  0
   -1.4091   -3.3101    1.1082 H   0  0  0  0  0  0  0  0  0  0  0  0
    1.4375   -3.7336    2.1985 H   0  0  0  0  0  0  0  0  0  0  0  0
    0.1969   -2.7243    2.9517 H   0  0  0  0  0  0  0  0  0  0  0  0
   -0.0294   -4.4803    2.8470 H   0  0  0  0  0  0  0  0  0  0  0  0
   -0.4616   -1.0893    0.5050 N   0  0  0  0  0  0  0  0  0  0  0  0
   -0.0884    0.2050   -0.0621 C   0  0  2  0  0  0  0  0  0  0  0  0
   -1.3680    0.8886   -0.5354 C   0  0  0  0  0  0  0  0  0  0  0  0
   -2.1016    0.4128   -1.3997 O   0  0  0  0  0  0  0  0  0  0  0  0
    0.8826    0.0643   -1.2439 C   0  0  0  0  0  0  0  0  0  0  0  0
    2.2680   -0.4466   -0.8351 C   0  0  0  0  0  0  0  0  0  0  0  0
    3.2015   -0.5447   -2.0448 C   0  0  0  0  0  0  0  0  0  0  0  0
    4.5752   -1.0774   -1.6406 C   0  0  0  0  0  0  0  0  0  0  0  0
    5.4403   -1.1853   -2.8093 N   0  0  0  0  0  0  0  0  0  0  0  0
   -1.2794   -1.1113    1.0935 H   0  0  0  0  0  0  0  0  0  0  0  0
    0.3710    0.8119    0.7274 H   0  0  0  0  0  0  0  0  0  0  0  0
    0.9958    1.0402   -1.7341 H   0  0  0  0  0  0  0  0  0  0  0  0
    0.4537   -0.6046   -2.0025 H   0  0  0  0  0  0  0  0  0  0  0  0
    2.1839   -1.4341   -0.3675 H   0  0  0  0  0  0  0  0  0  0  0  0
    2.7034    0.2308   -0.0908 H   0  0  0  0  0  0  0  0  0  0  0  0
    2.7531   -1.2042   -2.7985 H   0  0  0  0  0  0  0  0  0  0  0  0
    3.3090    0.4457   -2.5051 H   0  0  0  0  0  0  0  0  0  0  0  0
    4.4766   -2.0618   -1.1701 H   0  0  0  0  0  0  0  0  0  0  0  0
    5.0410   -0.4047   -0.9127 H   0  0  0  0  0  0  0  0  0  0  0  0
    4.9223   -0.9050   -3.6091 H   0  0  0  0  0  0  0  0  0  0  0  0
    6.2235   -0.5896   -2.6743 H   0  0  0  0  0  0  0  0  0  0  0  0
   -1.5803    2.1013    0.1057 N   0  0  0  0  0  0  0  0  0  0  0  0
   -2.7090    2.9592   -0.1750 C   0  0  2  0  0  0  0  0  0  0  0  0
   -2.2623    4.4024    0.0179 C   0  0  0  0  0  0  0  0  0  0  0  0
   -1.4411    4.7426    0.8669 O   0  0  0  0  0  0  0  0  0  0  0  0
   -3.8905    2.6311    0.7245 C   0  0  0  0  0  0  0  0  0  0  0  0
   -0.9232    2.4106    0.8158 H   0  0  0  0  0  0  0  0  0  0  0  0
   -2.9768    2.7963   -1.2246 H   0  0  0  0  0  0  0  0  0  0  0  0
   -3.6413    2.7883    1.7803 H   0  0  0  0  0  0  0  0  0  0  0  0
   -4.7542    3.2626    0.4913 H   0  0  0  0  0  0  0  0  0  0  0  0
   -4.1915    1.5846    0.6064 H   0  0  0  0  0  0  0  0  0  0  0  0
   -2.9206    5.2716   -0.8408 N   0  0  0  0  0  0  0  0  0  0  0  0
   -2.7021    6.6992   -0.8233 C   0  0  0  0  0  0  0  0  0  0  0  0
   -3.5557    4.8979   -1.5398 H   0  0  0  0  0  0  0  0  0  0  0  0
   -3.4388    7.1753   -0.1595 H   0  0  0  0  0  0  0  0  0  0  0  0
   -1.6871    6.9101   -0.4555 H   0  0  0  0  0  0  0  0  0  0  0  0
   -2.8137    7.0996   -1.8417 H   0  0  0  0  0  0  0  0  0  0  0  0
  1  3  1  0  0  0  0
  1  7  1  0  0  0  0
  1  2  2  0  0  0  0
 39 40  1  0  0  0  0
 40 48  1  0  0  0  0
 40 41  2  0  0  0  0
  8  9  1  0  0  0  0
  9 17  1  0  0  0  0
  9 10  2  0  0  0  0
 18 19  1  0  0  0  0
 19 38  1  0  0  0  0
 19 20  2  0  0  0  0
 39 42  1  0  0  0  0
  8 11  1  0  0  0  0
 48 49  1  0  0  0  0
 22 23  1  0  0  0  0
 21 22  1  0  0  0  0
 23 24  1  0  0  0  0
 18 21  1  0  0  0  0
 24 25  1  0  0  0  0
 38 39  1  0  0  0  0
  7  8  1  0  0  0  0
 17 18  1  0  0  0  0
  3  4  1  0  0  0  0
  3  5  1  0  0  0  0
  3  6  1  0  0  0  0
 42 45  1  0  0  0  0
 42 46  1  0  0  0  0
 42 47  1  0  0  0  0
 11 14  1  0  0  0  0
 11 15  1  0  0  0  0
 11 16  1  0  0  0  0
 49 51  1  0  0  0  0
 49 52  1  0  0  0  0
 49 53  1  0  0  0  0
 22 30  1  0  0  0  0
 22 31  1  0  0  0  0
 23 32  1  0  0  0  0
 23 33  1  0  0  0  0
 21 28  1  0  0  0  0
 21 29  1  0  0  0  0
 24 34  1  0  0  0  0
 24 35  1  0  0  0  0
 39 44  1  0  0  0  0
  8 13  1  0  0  0  0
 18 27  1  0  0  0  0
 25 36  1  0  0  0  0
 25 37  1  0  0  0  0
 48 50  1  0  0  0  0
  7 12  1  0  0  0  0
 38 43  1  0  0  0  0
 17 26  1  0  0  0  0
M  END
$$$$

  -OEChem-05262214473D

 53 52  0     1  0  0  0  0  0999 V2000
   -1.0338   -5.6785    0.1476 C   0  0  0  0  0  0  0  0  0  0  0  0
   -2.0514   -5.7797    0.8227 O   0  0  0  0  0  0  0  0  0  0  0  0
   -0.6558   -6.7819   -0.7841 C   0  0  0  0  0  0  0  0  0  0  0  0
   -0.0111   -7.5354   -0.3038 H   0  0  0  0  0  0  0  0  0  0  0  0
   -1.5317   -7.3401   -1.1520 H   0  0  0  0  0  0  0  0  0  0  0  0
   -0.1109   -6.4687   -1.6890 H   0  0  0  0  0  0  0  0  0  0  0  0
   -0.1543   -4.6083    0.1480 N   0  0  0  0  0  0  0  0  0  0  0  0
   -0.3302   -3.4398    0.9696 C   0  0  2  0  0  0  0  0  0  0  0  0
    0.2328   -2.2439    0.2131 C   0  0  0  0  0  0  0  0  0  0  0  0
    1.2097   -2.3192   -0.5294 O   0  0  0  0  0  0  0  0  0  0  0  0
    0.3557   -3.6024    2.3171 C   0  0  0  0  0  0  0  0  0  0  0  0
    0.6584   -4.6506   -0.4643 H   0  0  0  0  0  0  0  0  0  0  0  0
   -1.4091   -3.3101    1.1082 H   0  0  0  0  0  0  0  0  0  0  0  0
    1.4375   -3.7336    2.1985 H   0  0  0  0  0  0  0  0  0  0  0  0
    0.1969   -2.7243    2.9517 H   0  0  0  0  0  0  0  0  0  0  0  0
   -0.0294   -4.4803    2.8470 H   0  0  0  0  0  0  0  0  0  0  0  0
   -0.4616   -1.0893    0.5050 N   0  0  0  0  0  0  0  0  0  0  0  0
   -0.0884    0.2050   -0.0621 C   0  0  2  0  0  0  0  0  0  0  0  0
   -1.3680    0.8886   -0.5354 C   0  0  0  0  0  0  0  0  0  0  0  0
   -2.2341    0.3106   -1.1890 O   0  0  0  0  0  0  0  0  0  0  0  0
    0.8826    0.0643   -1.2439 C   0  0  0  0  0  0  0  0  0  0  0  0
    2.2680   -0.4466   -0.8351 C   0  0  0  0  0  0  0  0  0  0  0  0
    3.2015   -0.5447   -2.0448 C   0  0  0  0  0  0  0  0  0  0  0  0
    4.5752   -1.0774   -1.6406 C   0  0  0  0  0  0  0  0  0  0  0  0
    5.4403   -1.1853   -2.8093 N   0  0  0  0  0  0  0  0  0  0  0  0
   -1.2794   -1.1113    1.0935 H   0  0  0  0  0  0  0  0  0  0  0  0
    0.3710    0.8119    0.7274 H   0  0  0  0  0  0  0  0  0  0  0  0
    0.9958    1.0402   -1.7341 H   0  0  0  0  0  0  0  0  0  0  0  0
    0.4537   -0.6046   -2.0025 H   0  0  0  0  0  0  0  0  0  0  0  0
    2.1839   -1.4341   -0.3675 H   0  0  0  0  0  0  0  0  0  0  0  0
    2.7034    0.2308   -0.0908 H   0  0  0  0  0  0  0  0  0  0  0  0
    2.7531   -1.2042   -2.7985 H   0  0  0  0  0  0  0  0  0  0  0  0
    3.3090    0.4457   -2.5051 H   0  0  0  0  0  0  0  0  0  0  0  0
    4.4766   -2.0618   -1.1701 H   0  0  0  0  0  0  0  0  0  0  0  0
    5.0410   -0.4047   -0.9127 H   0  0  0  0  0  0  0  0  0  0  0  0
    4.9223   -0.9050   -3.6091 H   0  0  0  0  0  0  0  0  0  0  0  0
    6.2235   -0.5896   -2.6743 H   0  0  0  0  0  0  0  0  0  0  0  0
   -1.4163    2.2242   -0.1602 N   0  0  0  0  0  0  0  0  0  0  0  0
   -2.5108    3.1041   -0.5017 C   0  0  2  0  0  0  0  0  0  0  0  0
   -1.9472    4.5074   -0.6827 C   0  0  0  0  0  0  0  0  0  0  0  0
   -1.0054    4.9422   -0.0231 O   0  0  0  0  0  0  0  0  0  0  0  0
   -3.5902    3.0859    0.5694 C   0  0  0  0  0  0  0  0  0  0  0  0
   -0.6564    2.6146    0.3890 H   0  0  0  0  0  0  0  0  0  0  0  0
   -2.9178    2.7477   -1.4542 H   0  0  0  0  0  0  0  0  0  0  0  0
   -3.2011    3.4398    1.5311 H   0  0  0  0  0  0  0  0  0  0  0  0
   -4.4316    3.7310    0.2958 H   0  0  0  0  0  0  0  0  0  0  0  0
   -3.9735    2.0708    0.7192 H   0  0  0  0  0  0  0  0  0  0  0  0
   -2.6473    5.2319   -1.6371 N   0  0  0  0  0  0  0  0  0  0  0  0
   -2.3325    6.6039   -1.9601 C   0  0  0  0  0  0  0  0  0  0  0  0
   -3.3885    4.7790   -2.1638 H   0  0  0  0  0  0  0  0  0  0  0  0
   -2.9469    7.2766   -1.3436 H   0  0  0  0  0  0  0  0  0  0  0  0
   -1.2677    6.7928   -1.7591 H   0  0  0  0  0  0  0  0  0  0  0  0
   -2.5430    6.7876   -3.0241 H   0  0  0  0  0  0  0  0  0  0  0  0
  1  3  1  0  0  0  0
  1  7  1  0  0  0  0
  1  2  2  0  0  0  0
 39 40  1  0  0  0  0
 40 48  1  0  0  0  0
 40 41  2  0  0  0  0
  8  9  1  0  0  0  0
  9 17  1  0  0  0  0
  9 10  2  0  0  0  0
 18 19  1  0  0  0  0
 19 38  1  0  0  0  0
 19 20  2  0  0  0  0
 39 42  1  0  0  0  0
  8 11  1  0  0  0  0
 48 49  1  0  0  0  0
 22 23  1  0  0  0  0
 21 22  1  0  0  0  0
 23 24  1  0  0  0  0
 18 21  1  0  0  0  0
 24 25  1  0  0  0  0
 38 39  1  0  0  0  0
  7  8  1  0  0  0  0
 17 18  1  0  0  0  0
  3  4  1  0  0  0  0
  3  5  1  0  0  0  0
  3  6  1  0  0  0  0
 42 45  1  0  0  0  0
 42 46  1  0  0  0  0
 42 47  1  0  0  0  0
 11 14  1  0  0  0  0
 11 15  1  0  0  0  0
 11 16  1  0  0  0  0
 49 51  1  0  0  0  0
 49 52  1  0  0  0  0
 49 53  1  0  0  0  0
 22 30  1  0  0  0  0
 22 31  1  0  0  0  0
 23 32  1  0  0  0  0
 23 33  1  0  0  0  0
 21 28  1  0  0  0  0
 21 29  1  0  0  0  0
 24 34  1  0  0  0  0
 24 35  1  0  0  0  0
 39 44  1  0  0  0  0
  8 13  1  0  0  0  0
 18 27  1  0  0  0  0
 25 36  1  0  0  0  0
 25 37  1  0  0  0  0
 48 50  1  0  0  0  0
  7 12  1  0  0  0  0
 38 43  1  0  0  0  0
 17 26  1  0  0  0  0
M  END
$$$$

  -OEChem-05262214473D

 53 52  0     1  0  0  0  0  0999 V2000
   -1.0338   -5.6785    0.1476 C   0  0  0  0  0  0  0  0  0  0  0  0
   -2.0514   -5.7797    0.8227 O   0  0  0  0  0  0  0  0  0  0  0  0
   -0.6558   -6.7819   -0.7841 C   0  0  0  0  0  0  0  0  0  0  0  0
   -0.0111   -7.5354   -0.3038 H   0  0  0  0  0  0  0  0  0  0  0  0
   -1.5317   -7.3401   -1.1520 H   0  0  0  0  0  0  0  0  0  0  0  0
   -0.1109   -6.4687   -1.6890 H   0  0  0  0  0  0  0  0  0  0  0  0
   -0.1543   -4.6083    0.1480 N   0  0  0  0  0  0  0  0  0  0  0  0
   -0.3302   -3.4398    0.9696 C   0  0  2  0  0  0  0  0  0  0  0  0
    0.2328   -2.2439    0.2131 C   0  0  0  0  0  0  0  0  0  0  0  0
    1.2097   -2.3192   -0.5294 O   0  0  0  0  0  0  0  0  0  0  0  0
    0.3557   -3.6024    2.3171 C   0  0  0  0  0  0  0  0  0  0  0  0
    0.6584   -4.6506   -0.4643 H   0  0  0  0  0  0  0  0  0  0  0  0
   -1.4091   -3.3101    1.1082 H   0  0  0  0  0  0  0  0  0  0  0  0
    1.4375   -3.7336    2.1985 H   0  0  0  0  0  0  0  0  0  0  0  0
    0.1969   -2.7243    2.9517 H   0  0  0  0  0  0  0  0  0  0  0  0
   -0.0294   -4.4803    2.8470 H   0  0  0  0  0  0  0  0  0  0  0  0
   -0.4616   -1.0893    0.5050 N   0  0  0  0  0  0  0  0  0  0  0  0
   -0.0884    0.2050   -0.0621 C   0  0  2  0  0  0  0  0  0  0  0  0
   -1.3680    0.8886   -0.5354 C   0  0  0  0  0  0  0  0  0  0  0  0
   -2.3459    0.2682   -0.9480 O   0  0  0  0  0  0  0  0  0  0  0  0
    0.8826    0.0643   -1.2439 C   0  0  0  0  0  0  0  0  0  0  0  0
    2.2680   -0.4466   -0.8351 C   0  0  0  0  0  0  0  0  0  0  0  0
    3.2015   -0.5447   -2.0448 C   0  0  0  0  0  0  0  0  0  0  0  0
    4.5752   -1.0774   -1.6406 C   0  0  0  0  0  0  0  0  0  0  0  0
    5.4403   -1.1853   -2.8093 N   0  0  0  0  0  0  0  0  0  0  0  0
   -1.2794   -1.1113    1.0935 H   0  0  0  0  0  0  0  0  0  0  0  0
    0.3710    0.8119    0.7274 H   0  0  0  0  0  0  0  0  0  0  0  0
    0.9958    1.0402   -1.7341 H   0  0  0  0  0  0  0  0  0  0  0  0
    0.4537   -0.6046   -2.0025 H   0  0  0  0  0  0  0  0  0  0  0  0
    2.1839   -1.4341   -0.3675 H   0  0  0  0  0  0  0  0  0  0  0  0
    2.7034    0.2308   -0.0908 H   0  0  0  0  0  0  0  0  0  0  0  0
    2.7531   -1.2042   -2.7985 H   0  0  0  0  0  0  0  0  0  0  0  0
    3.3090    0.4457   -2.5051 H   0  0  0  0  0  0  0  0  0  0  0  0
    4.4766   -2.0618   -1.1701 H   0  0  0  0  0  0  0  0  0  0  0  0
    5.0410   -0.4047   -0.9127 H   0  0  0  0  0  0  0  0  0  0  0  0
    4.9223   -0.9050   -3.6091 H   0  0  0  0  0  0  0  0  0  0  0  0
    6.2235   -0.5896   -2.6743 H   0  0  0  0  0  0  0  0  0  0  0  0
   -1.2789    2.2719   -0.4628 N   0  0  0  0  0  0  0  0  0  0  0  0
   -2.3456    3.1573   -0.8717 C   0  0  2  0  0  0  0  0  0  0  0  0
   -1.7156    4.4314   -1.4186 C   0  0  0  0  0  0  0  0  0  0  0  0
   -0.6716    4.9068   -0.9767 O   0  0  0  0  0  0  0  0  0  0  0  0
   -3.2817    3.4674    0.2860 C   0  0  0  0  0  0  0  0  0  0  0  0
   -0.4318    2.6976   -0.0984 H   0  0  0  0  0  0  0  0  0  0  0  0
   -2.8914    2.6462   -1.6723 H   0  0  0  0  0  0  0  0  0  0  0  0
   -2.7526    3.9796    1.0979 H   0  0  0  0  0  0  0  0  0  0  0  0
   -4.1051    4.1152   -0.0322 H   0  0  0  0  0  0  0  0  0  0  0  0
   -3.7108    2.5474    0.6974 H   0  0  0  0  0  0  0  0  0  0  0  0
   -2.4788    4.9987   -2.4294 N   0  0  0  0  0  0  0  0  0  0  0  0
   -2.1150    6.2356   -3.0805 C   0  0  0  0  0  0  0  0  0  0  0  0
   -3.3088    4.5154   -2.7601 H   0  0  0  0  0  0  0  0  0  0  0  0
   -2.6008    7.0779   -2.5663 H   0  0  0  0  0  0  0  0  0  0  0  0
   -1.0231    6.3628   -3.0415 H   0  0  0  0  0  0  0  0  0  0  0  0
   -2.4437    6.2079   -4.1298 H   0  0  0  0  0  0  0  0  0  0  0  0
  1  3  1  0  0  0  0
  1  7  1  0  0  0  0
  1  2  2  0  0  0  0
 39 40  1  0  0  0  0
 40 48  1  0  0  0  0
 40 41  2  0  0  0  0
  8  9  1  0  0  0  0
  9 17  1  0  0  0  0
  9 10  2  0  0  0  0
 18 19  1  0  0  0  0
 19 38  1  0  0  0  0
 19 20  2  0  0  0  0
 39 42  1  0  0  0  0
  8 11  1  0  0  0  0
 48 49  1  0  0  0  0
 22 23  1  0  0  0  0
 21 22  1  0  0  0  0
 23 24  1  0  0  0  0
 18 21  1  0  0  0  0
 24 25  1  0  0  0  0
 38 39  1  0  0  0  0
  7  8  1  0  0  0  0
 17 18  1  0  0  0  0
  3  4  1  0  0  0  0
  3  5  1  0  0  0  0
  3  6  1  0  0  0  0
 42 45  1  0  0  0  0
 42 46  1  0  0  0  0
 42 47  1  0  0  0  0
 11 14  1  0  0  0  0
 11 15  1  0  0  0  0
 11 16  1  0  0  0  0
 49 51  1  0  0  0  0
 49 52  1  0  0  0  0
 49 53  1  0  0  0  0
 22 30  1  0  0  0  0
 22 31  1  0  0  0  0
 23 32  1  0  0  0  0
 23 33  1  0  0  0  0
 21 28  1  0  0  0  0
 21 29  1  0  0  0  0
 24 34  1  0  0  0  0
 24 35  1  0  0  0  0
 39 44  1  0  0  0  0
  8 13  1  0  0  0  0
 18 27  1  0  0  0  0
 25 36  1  0  0  0  0
 25 37  1  0  0  0  0
 48 50  1  0  0  0  0
  7 12  1  0  0  0  0
 38 43  1  0  0  0  0
 17 26  1  0  0  0  0
M  END
$$$$

  -OEChem-05262214473D

 53 52  0     1  0  0  0  0  0999 V2000
   -1.0338   -5.6785    0.1476 C   0  0  0  0  0  0  0  0  0  0  0  0
   -2.0514   -5.7797    0.8227 O   0  0  0  0  0  0  0  0  0  0  0  0
   -0.6558   -6.7819   -0.7841 C   0  0  0  0  0  0  0  0  0  0  0  0
   -0.0111   -7.5354   -0.3038 H   0  0  0  0  0  0  0  0  0  0  0  0
   -1.5317   -7.3401   -1.1520 H   0  0  0  0  0  0  0  0  0  0  0  0
   -0.1109   -6.4687   -1.6890 H   0  0  0  0  0  0  0  0  0  0  0  0
   -0.1543   -4.6083    0.1480 N   0  0  0  0  0  0  0  0  0  0  0  0
   -0.3302   -3.4398    0.9696 C   0  0  2  0  0  0  0  0  0  0  0  0
    0.2328   -2.2439    0.2131 C   0  0  0  0  0  0  0  0  0  0  0  0
    1.2097   -2.3192   -0.5294 O   0  0  0  0  0  0  0  0  0  0  0  0
    0.3557   -3.6024    2.3171 C   0  0  0  0  0  0  0  0  0  0  0  0
    0.6584   -4.6506   -0.4643 H   0  0  0  0  0  0  0  0  0  0  0  0
   -1.4091   -3.3101    1.1082 H   0  0  0  0  0  0  0  0  0  0  0  0
    1.4375   -3.7336    2.1985 H   0  0  0  0  0  0  0  0  0  0  0  0
    0.1969   -2.7243    2.9517 H   0  0  0  0  0  0  0  0  0  0  0  0
   -0.0294   -4.4803    2.8470 H   0  0  0  0  0  0  0  0  0  0  0  0
   -0.4616   -1.0893    0.5050 N   0  0  0  0  0  0  0  0  0  0  0  0
   -0.0884    0.2050   -0.0621 C   0  0  2  0  0  0  0  0  0  0  0  0
   -1.3680    0.8886   -0.5354 C   0  0  0  0  0  0  0  0  0  0  0  0
   -2.4294    0.2885   -0.6929 O   0  0  0  0  0  0  0  0  0  0  0  0
    0.8826    0.0643   -1.2439 C   0  0  0  0  0  0  0  0  0  0  0  0
    2.2680   -0.4466   -0.8351 C   0  0  0  0  0  0  0  0  0  0  0  0
    3.2015   -0.5447   -2.0448 C   0  0  0  0  0  0  0  0  0  0  0  0
    4.5752   -1.0774   -1.6406 C   0  0  0  0  0  0  0  0  0  0  0  0
    5.4403   -1.1853   -2.8093 N   0  0  0  0  0  0  0  0  0  0  0  0
   -1.2794   -1.1113    1.0935 H   0  0  0  0  0  0  0  0  0  0  0  0
    0.3710    0.8119    0.7274 H   0  0  0  0  0  0  0  0  0  0  0  0
    0.9958    1.0402   -1.7341 H   0  0  0  0  0  0  0  0  0  0  0  0
    0.4537   -0.6046   -2.0025 H   0  0  0  0  0  0  0  0  0  0  0  0
    2.1839   -1.4341   -0.3675 H   0  0  0  0  0  0  0  0  0  0  0  0
    2.7034    0.2308   -0.0908 H   0  0  0  0  0  0  0  0  0  0  0  0
    2.7531   -1.2042   -2.7985 H   0  0  0  0  0  0  0  0  0  0  0  0
    3.3090    0.4457   -2.5051 H   0  0  0  0  0  0  0  0  0  0  0  0
    4.4766   -2.0618   -1.1701 H   0  0  0  0  0  0  0  0  0  0  0  0
    5.0410   -0.4047   -0.9127 H   0  0  0  0  0  0  0  0  0  0  0  0
    4.9223   -0.9050   -3.6091 H   0  0  0  0  0  0  0  0  0  0  0  0
    6.2235   -0.5896   -2.6743 H   0  0  0  0  0  0  0  0  0  0  0  0
   -1.1774    2.2414   -0.7814 N   0  0  0  0  0  0  0  0  0  0  0  0
   -2.2246    3.1151   -1.2598 C   0  0  2  0  0  0  0  0  0  0  0  0
   -1.5832    4.1797   -2.1399 C   0  0  0  0  0  0  0  0  0  0  0  0
   -0.4626    4.6388   -1.9287 O   0  0  0  0  0  0  0  0  0  0  0  0
   -2.9858    3.7496   -0.1063 C   0  0  0  0  0  0  0  0  0  0  0  0
   -0.2647    2.6540   -0.6133 H   0  0  0  0  0  0  0  0  0  0  0  0
   -2.8992    2.4988   -1.8640 H   0  0  0  0  0  0  0  0  0  0  0  0
   -2.3262    4.3710    0.5104 H   0  0  0  0  0  0  0  0  0  0  0  0
   -3.7970    4.3889   -0.4702 H   0  0  0  0  0  0  0  0  0  0  0  0
   -3.4214    2.9820    0.5424 H   0  0  0  0  0  0  0  0  0  0  0  0
   -2.4267    4.5880   -3.1636 N   0  0  0  0  0  0  0  0  0  0  0  0
   -2.0643    5.6191   -4.1079 C   0  0  0  0  0  0  0  0  0  0  0  0
   -3.3221    4.1249   -3.2881 H   0  0  0  0  0  0  0  0  0  0  0  0
   -2.4242    6.5929   -3.7443 H   0  0  0  0  0  0  0  0  0  0  0  0
   -0.9700    5.6496   -4.2153 H   0  0  0  0  0  0  0  0  0  0  0  0
   -2.5225    5.4000   -5.0836 H   0  0  0  0  0  0  0  0  0  0  0  0
  1  3  1  0  0  0  0
  1  7  1  0  0  0  0
  1  2  2  0  0  0  0
 39 40  1  0  0  0  0
 40 48  1  0  0  0  0
 40 41  2  0  0  0  0
  8  9  1  0  0  0  0
  9 17  1  0  0  0  0
  9 10  2  0  0  0  0
 18 19  1  0  0  0  0
 19 38  1  0  0  0  0
 19 20  2  0  0  0  0
 39 42  1  0  0  0  0
  8 11  1  0  0  0  0
 48 49  1  0  0  0  0
 22 23  1  0  0  0  0
 21 22  1  0  0  0  0
 23 24  1  0  0  0  0
 18 21  1  0  0  0  0
 24 25  1  0  0  0  0
 38 39  1  0  0  0  0
  7  8  1  0  0  0  0
 17 18  1  0  0  0  0
  3  4  1  0  0  0  0
  3  5  1  0  0  0  0
  3  6  1  0  0  0  0
 42 45  1  0  0  0  0
 42 46  1  0  0  0  0
 42 47  1  0  0  0  0
 11 14  1  0  0  0  0
 11 15  1  0  0  0  0
 11 16  1  0  0  0  0
 49 51  1  0  0  0  0
 49 52  1  0  0  0  0
 49 53  1  0  0  0  0
 22 30  1  0  0  0  0
 22 31  1  0  0  0  0
 23 32  1  0  0  0  0
 23 33  1  0  0  0  0
 21 28  1  0  0  0  0
 21 29  1  0  0  0  0
 24 34  1  0  0  0  0
 24 35  1  0  0  0  0
 39 44  1  0  0  0  0
  8 13  1  0  0  0  0
 18 27  1  0  0  0  0
 25 36  1  0  0  0  0
 25 37  1  0  0  0  0
 48 50  1  0  0  0  0
  7 12  1  0  0  0  0
 38 43  1  0  0  0  0
 17 26  1  0  0  0  0
M  END
$$$$

  -OEChem-05262214473D

 53 52  0     1  0  0  0  0  0999 V2000
   -1.0338   -5.6785    0.1476 C   0  0  0  0  0  0  0  0  0  0  0  0
   -2.0514   -5.7797    0.8227 O   0  0  0  0  0  0  0  0  0  0  0  0
   -0.6558   -6.7819   -0.7841 C   0  0  0  0  0  0  0  0  0  0  0  0
   -0.0111   -7.5354   -0.3038 H   0  0  0  0  0  0  0  0  0  0  0  0
   -1.5317   -7.3401   -1.1520 H   0  0  0  0  0  0  0  0  0  0  0  0
   -0.1109   -6.4687   -1.6890 H   0  0  0  0  0  0  0  0  0  0  0  0
   -0.1543   -4.6083    0.1480 N   0  0  0  0  0  0  0  0  0  0  0  0
   -0.3302   -3.4398    0.9696 C   0  0  2  0  0  0  0  0  0  0  0  0
    0.2328   -2.2439    0.2131 C   0  0  0  0  0  0  0  0  0  0  0  0
    1.2097   -2.3192   -0.5294 O   0  0  0  0  0  0  0  0  0  0  0  0
    0.3557   -3.6024    2.3171 C   0  0  0  0  0  0  0  0  0  0  0  0
    0.6584   -4.6506   -0.4643 H   0  0  0  0  0  0  0  0  0  0  0  0
   -1.4091   -3.3101    1.1082 H   0  0  0  0  0  0  0  0  0  0  0  0
    1.4375   -3.7336    2.1985 H   0  0  0  0  0  0  0  0  0  0  0  0
    0.1969   -2.7243    2.9517 H   0  0  0  0  0  0  0  0  0  0  0  0
   -0.0294   -4.4803    2.8470 H   0  0  0  0  0  0  0  0  0  0  0  0
   -0.4616   -1.0893    0.5050 N   0  0  0  0  0  0  0  0  0  0  0  0
   -0.0884    0.2050   -0.0621 C   0  0  2  0  0  0  0  0  0  0  0  0
   -1.3603    1.0391   -0.1869 C   0  0  0  0  0  0  0  0  0  0  0  0
   -2.4705    0.6201    0.1346 O   0  0  0  0  0  0  0  0  0  0  0  0
    0.5695    0.0672   -1.4432 C   0  0  0  0  0  0  0  0  0  0  0  0
    1.9479   -0.6002   -1.3962 C   0  0  0  0  0  0  0  0  0  0  0  0
    2.5679   -0.6899   -2.7933 C   0  0  0  0  0  0  0  0  0  0  0  0
    3.9315   -1.3776   -2.7493 C   0  0  0  0  0  0  0  0  0  0  0  0
    4.4934   -1.4739   -4.0912 N   0  0  0  0  0  0  0  0  0  0  0  0
   -1.2794   -1.1113    1.0935 H   0  0  0  0  0  0  0  0  0  0  0  0
    0.6003    0.7034    0.6307 H   0  0  0  0  0  0  0  0  0  0  0  0
    0.6740    1.0637   -1.8924 H   0  0  0  0  0  0  0  0  0  0  0  0
   -0.0893   -0.4979   -2.1164 H   0  0  0  0  0  0  0  0  0  0  0  0
    1.8653   -1.6090   -0.9763 H   0  0  0  0  0  0  0  0  0  0  0  0
    2.6108   -0.0260   -0.7378 H   0  0  0  0  0  0  0  0  0  0  0  0
    1.8923   -1.2444   -3.4568 H   0  0  0  0  0  0  0  0  0  0  0  0
    2.6751    0.3190   -3.2115 H   0  0  0  0  0  0  0  0  0  0  0  0
    3.8358   -2.3822   -2.3230 H   0  0  0  0  0  0  0  0  0  0  0  0
    4.6196   -0.8096   -2.1142 H   0  0  0  0  0  0  0  0  0  0  0  0
    3.8417   -1.0854   -4.7322 H   0  0  0  0  0  0  0  0  0  0  0  0
    5.3466   -0.9657   -4.1099 H   0  0  0  0  0  0  0  0  0  0  0  0
   -1.1104    2.2962   -0.7197 N   0  0  0  0  0  0  0  0  0  0  0  0
   -2.1464    3.2744   -0.9620 C   0  0  2  0  0  0  0  0  0  0  0  0
   -1.7447    4.0925   -2.1822 C   0  0  0  0  0  0  0  0  0  0  0  0
   -0.5773    4.3699   -2.4491 O   0  0  0  0  0  0  0  0  0  0  0  0
   -2.3551    4.1707    0.2487 C   0  0  0  0  0  0  0  0  0  0  0  0
   -0.1563    2.5595   -0.9477 H   0  0  0  0  0  0  0  0  0  0  0  0
   -3.0632    2.7163   -1.1814 H   0  0  0  0  0  0  0  0  0  0  0  0
   -1.4471    4.7379    0.4838 H   0  0  0  0  0  0  0  0  0  0  0  0
   -3.1597    4.8926    0.0739 H   0  0  0  0  0  0  0  0  0  0  0  0
   -2.6148    3.5779    1.1324 H   0  0  0  0  0  0  0  0  0  0  0  0
   -2.8462    4.5128   -2.9144 N   0  0  0  0  0  0  0  0  0  0  0  0
   -2.7296    5.3392   -4.0932 C   0  0  0  0  0  0  0  0  0  0  0  0
   -3.7746    4.2025   -2.6430 H   0  0  0  0  0  0  0  0  0  0  0  0
   -2.8130    6.3985   -3.8087 H   0  0  0  0  0  0  0  0  0  0  0  0
   -1.7536    5.1632   -4.5691 H   0  0  0  0  0  0  0  0  0  0  0  0
   -3.5333    5.0850   -4.7999 H   0  0  0  0  0  0  0  0  0  0  0  0
  1  3  1  0  0  0  0
  1  7  1  0  0  0  0
  1  2  2  0  0  0  0
 39 40  1  0  0  0  0
 40 48  1  0  0  0  0
 40 41  2  0  0  0  0
  8  9  1  0  0  0  0
  9 17  1  0  0  0  0
  9 10  2  0  0  0  0
 18 19  1  0  0  0  0
 19 38  1  0  0  0  0
 19 20  2  0  0  0  0
 39 42  1  0  0  0  0
  8 11  1  0  0  0  0
 48 49  1  0  0  0  0
 22 23  1  0  0  0  0
 21 22  1  0  0  0  0
 23 24  1  0  0  0  0
 18 21  1  0  0  0  0
 24 25  1  0  0  0  0
 38 39  1  0  0  0  0
  7  8  1  0  0  0  0
 17 18  1  0  0  0  0
  3  4  1  0  0  0  0
  3  5  1  0  0  0  0
  3  6  1  0  0  0  0
 42 45  1  0  0  0  0
 42 46  1  0  0  0  0
 42 47  1  0  0  0  0
 11 14  1  0  0  0  0
 11 15  1  0  0  0  0
 11 16  1  0  0  0  0
 49 51  1  0  0  0  0
 49 52  1  0  0  0  0
 49 53  1  0  0  0  0
 22 30  1  0  0  0  0
 22 31  1  0  0  0  0
 23 32  1  0  0  0  0
 23 33  1  0  0  0  0
 21 28  1  0  0  0  0
 21 29  1  0  0  0  0
 24 34  1  0  0  0  0
 24 35  1  0  0  0  0
 39 44  1  0  0  0  0
  8 13  1  0  0  0  0
 18 27  1  0  0  0  0
 25 36  1  0  0  0  0
 25 37  1  0  0  0  0
 48 50  1  0  0  0  0
  7 12  1  0  0  0  0
 38 43  1  0  0  0  0
 17 26  1  0  0  0  0
M  END
$$$$

  -OEChem-05262214473D

 53 52  0     1  0  0  0  0  0999 V2000
   -1.0338   -5.6785    0.1476 C   0  0  0  0  0  0  0  0  0  0  0  0
   -2.0514   -5.7797    0.8227 O   0  0  0  0  0  0  0  0  0  0  0  0
   -0.6558   -6.7819   -0.7841 C   0  0  0  0  0  0  0  0  0  0  0  0
   -0.0111   -7.5354   -0.3038 H   0  0  0  0  0  0  0  0  0  0  0  0
   -1.5317   -7.3401   -1.1520 H   0  0  0  0  0  0  0  0  0  0  0  0
   -0.1109   -6.4687   -1.6890 H   0  0  0  0  0  0  0  0  0  0  0  0
   -0.1543   -4.6083    0.1480 N   0  0  0  0  0  0  0  0  0  0  0  0
   -0.3302   -3.4398    0.9696 C   0  0  2  0  0  0  0  0  0  0  0  0
    0.2328   -2.2439    0.2131 C   0  0  0  0  0  0  0  0  0  0  0  0
    1.2097   -2.3192   -0.5294 O   0  0  0  0  0  0  0  0  0  0  0  0
    0.3557   -3.6024    2.3171 C   0  0  0  0  0  0  0  0  0  0  0  0
    0.6584   -4.6506   -0.4643 H   0  0  0  0  0  0  0  0  0  0  0  0
   -1.4091   -3.3101    1.1082 H   0  0  0  0  0  0  0  0  0  0  0  0
    1.4375   -3.7336    2.1985 H   0  0  0  0  0  0  0  0  0  0  0  0
    0.1969   -2.7243    2.9517 H   0  0  0  0  0  0  0  0  0  0  0  0
   -0.0294   -4.4803    2.8470 H   0  0  0  0  0  0  0  0  0  0  0  0
   -0.4616   -1.0893    0.5050 N   0  0  0  0  0  0  0  0  0  0  0  0
   -0.0884    0.2050   -0.0621 C   0  0  2  0  0  0  0  0  0  0  0  0
   -1.3603    1.0391   -0.1869 C   0  0  0  0  0  0  0  0  0  0  0  0
   -2.4151    0.7396    0.3692 O   0  0  0  0  0  0  0  0  0  0  0  0
    0.5695    0.0672   -1.4432 C   0  0  0  0  0  0  0  0  0  0  0  0
    1.9479   -0.6002   -1.3962 C   0  0  0  0  0  0  0  0  0  0  0  0
    2.5679   -0.6899   -2.7933 C   0  0  0  0  0  0  0  0  0  0  0  0
    3.9315   -1.3776   -2.7493 C   0  0  0  0  0  0  0  0  0  0  0  0
    4.4934   -1.4739   -4.0912 N   0  0  0  0  0  0  0  0  0  0  0  0
   -1.2794   -1.1113    1.0935 H   0  0  0  0  0  0  0  0  0  0  0  0
    0.6003    0.7034    0.6307 H   0  0  0  0  0  0  0  0  0  0  0  0
    0.6740    1.0637   -1.8924 H   0  0  0  0  0  0  0  0  0  0  0  0
   -0.0893   -0.4979   -2.1164 H   0  0  0  0  0  0  0  0  0  0  0  0
    1.8653   -1.6090   -0.9763 H   0  0  0  0  0  0  0  0  0  0  0  0
    2.6108   -0.0260   -0.7378 H   0  0  0  0  0  0  0  0  0  0  0  0
    1.8923   -1.2444   -3.4568 H   0  0  0  0  0  0  0  0  0  0  0  0
    2.6751    0.3190   -3.2115 H   0  0  0  0  0  0  0  0  0  0  0  0
    3.8358   -2.3822   -2.3230 H   0  0  0  0  0  0  0  0  0  0  0  0
    4.6196   -0.8096   -2.1142 H   0  0  0  0  0  0  0  0  0  0  0  0
    3.8417   -1.0854   -4.7322 H   0  0  0  0  0  0  0  0  0  0  0  0
    5.3466   -0.9657   -4.1099 H   0  0  0  0  0  0  0  0  0  0  0  0
   -1.1825    2.1429   -1.0095 N   0  0  0  0  0  0  0  0  0  0  0  0
   -2.2370    3.0838   -1.3120 C   0  0  2  0  0  0  0  0  0  0  0  0
   -2.0103    3.6062   -2.7245 C   0  0  0  0  0  0  0  0  0  0  0  0
   -0.8919    3.7770   -3.2050 O   0  0  0  0  0  0  0  0  0  0  0  0
   -2.2645    4.2256   -0.3080 C   0  0  0  0  0  0  0  0  0  0  0  0
   -0.2697    2.3160   -1.4197 H   0  0  0  0  0  0  0  0  0  0  0  0
   -3.1790    2.5257   -1.2752 H   0  0  0  0  0  0  0  0  0  0  0  0
   -1.3289    4.7963   -0.3303 H   0  0  0  0  0  0  0  0  0  0  0  0
   -3.0818    4.9223   -0.5217 H   0  0  0  0  0  0  0  0  0  0  0  0
   -2.3978    3.8458    0.7107 H   0  0  0  0  0  0  0  0  0  0  0  0
   -3.2033    3.9001   -3.3699 N   0  0  0  0  0  0  0  0  0  0  0  0
   -3.2527    4.4499   -4.7046 C   0  0  0  0  0  0  0  0  0  0  0  0
   -4.0847    3.6894   -2.9112 H   0  0  0  0  0  0  0  0  0  0  0  0
   -3.2884    5.5479   -4.6483 H   0  0  0  0  0  0  0  0  0  0  0  0
   -2.3563    4.1405   -5.2619 H   0  0  0  0  0  0  0  0  0  0  0  0
   -4.1511    4.0800   -5.2204 H   0  0  0  0  0  0  0  0  0  0  0  0
  1  3  1  0  0  0  0
  1  7  1  0  0  0  0
  1  2  2  0  0  0  0
 39 40  1  0  0  0  0
 40 48  1  0  0  0  0
 40 41  2  0  0  0  0
  8  9  1  0  0  0  0
  9 17  1  0  0  0  0
  9 10  2  0  0  0  0
 18 19  1  0  0  0  0
 19 38  1  0  0  0  0
 19 20  2  0  0  0  0
 39 42  1  0  0  0  0
  8 11  1  0  0  0  0
 48 49  1  0  0  0  0
 22 23  1  0  0  0  0
 21 22  1  0  0  0  0
 23 24  1  0  0  0  0
 18 21  1  0  0  0  0
 24 25  1  0  0  0  0
 38 39  1  0  0  0  0
  7  8  1  0  0  0  0
 17 18  1  0  0  0  0
  3  4  1  0  0  0  0
  3  5  1  0  0  0  0
  3  6  1  0  0  0  0
 42 45  1  0  0  0  0
 42 46  1  0  0  0  0
 42 47  1  0  0  0  0
 11 14  1  0  0  0  0
 11 15  1  0  0  0  0
 11 16  1  0  0  0  0
 49 51  1  0  0  0  0
 49 52  1  0  0  0  0
 49 53  1  0  0  0  0
 22 30  1  0  0  0  0
 22 31  1  0  0  0  0
 23 32  1  0  0  0  0
 23 33  1  0  0  0  0
 21 28  1  0  0  0  0
 21 29  1  0  0  0  0
 24 34  1  0  0  0  0
 24 35  1  0  0  0  0
 39 44  1  0  0  0  0
  8 13  1  0  0  0  0
 18 27  1  0  0  0  0
 25 36  1  0  0  0  0
 25 37  1  0  0  0  0
 48 50  1  0  0  0  0
  7 12  1  0  0  0  0
 38 43  1  0  0  0  0
 17 26  1  0  0  0  0
M  END
$$$$

  -OEChem-05262214473D

 53 52  0     1  0  0  0  0  0999 V2000
   -1.0338   -5.6785    0.1476 C   0  0  0  0  0  0  0  0  0  0  0  0
   -2.0514   -5.7797    0.8227 O   0  0  0  0  0  0  0  0  0  0  0  0
   -0.6558   -6.7819   -0.7841 C   0  0  0  0  0  0  0  0  0  0  0  0
   -0.0111   -7.5354   -0.3038 H   0  0  0  0  0  0  0  0  0  0  0  0
   -1.5317   -7.3401   -1.1520 H   0  0  0  0  0  0  0  0  0  0  0  0
   -0.1109   -6.4687   -1.6890 H   0  0  0  0  0  0  0  0  0  0  0  0
   -0.1543   -4.6083    0.1480 N   0  0  0  0  0  0  0  0  0  0  0  0
   -0.3302   -3.4398    0.9696 C   0  0  2  0  0  0  0  0  0  0  0  0
    0.2328   -2.2439    0.2131 C   0  0  0  0  0  0  0  0  0  0  0  0
    1.2097   -2.3192   -0.5294 O   0  0  0  0  0  0  0  0  0  0  0  0
    0.3557   -3.6024    2.3171 C   0  0  0  0  0  0  0  0  0  0  0  0
    0.6584   -4.6506   -0.4643 H   0  0  0  0  0  0  0  0  0  0  0  0
   -1.4091   -3.3101    1.1082 H   0  0  0  0  0  0  0  0  0  0  0  0
    1.4375   -3.7336    2.1985 H   0  0  0  0  0  0  0  0  0  0  0  0
    0.1969   -2.7243    2.9517 H   0  0  0  0  0  0  0  0  0  0  0  0
   -0.0294   -4.4803    2.8470 H   0  0  0  0  0  0  0  0  0  0  0  0
   -0.4616   -1.0893    0.5050 N   0  0  0  0  0  0  0  0  0  0  0  0
   -0.0884    0.2050   -0.0621 C   0  0  2  0  0  0  0  0  0  0  0  0
   -1.3603    1.0391   -0.1869 C   0  0  0  0  0  0  0  0  0  0  0  0
   -2.3258    0.9046    0.5622 O   0  0  0  0  0  0  0  0  0  0  0  0
    0.5695    0.0672   -1.4432 C   0  0  0  0  0  0  0  0  0  0  0  0
    1.9479   -0.6002   -1.3962 C   0  0  0  0  0  0  0  0  0  0  0  0
    2.5679   -0.6899   -2.7933 C   0  0  0  0  0  0  0  0  0  0  0  0
    3.9315   -1.3776   -2.7493 C   0  0  0  0  0  0  0  0  0  0  0  0
    4.4934   -1.4739   -4.0912 N   0  0  0  0  0  0  0  0  0  0  0  0
   -1.2794   -1.1113    1.0935 H   0  0  0  0  0  0  0  0  0  0  0  0
    0.6003    0.7034    0.6307 H   0  0  0  0  0  0  0  0  0  0  0  0
    0.6740    1.0637   -1.8924 H   0  0  0  0  0  0  0  0  0  0  0  0
   -0.0893   -0.4979   -2.1164 H   0  0  0  0  0  0  0  0  0  0  0  0
    1.8653   -1.6090   -0.9763 H   0  0  0  0  0  0  0  0  0  0  0  0
    2.6108   -0.0260   -0.7378 H   0  0  0  0  0  0  0  0  0  0  0  0
    1.8923   -1.2444   -3.4568 H   0  0  0  0  0  0  0  0  0  0  0  0
    2.6751    0.3190   -3.2115 H   0  0  0  0  0  0  0  0  0  0  0  0
    3.8358   -2.3822   -2.3230 H   0  0  0  0  0  0  0  0  0  0  0  0
    4.6196   -0.8096   -2.1142 H   0  0  0  0  0  0  0  0  0  0  0  0
    3.8417   -1.0854   -4.7322 H   0  0  0  0  0  0  0  0  0  0  0  0
    5.3466   -0.9657   -4.1099 H   0  0  0  0  0  0  0  0  0  0  0  0
   -1.2964    1.9338   -1.2462 N   0  0  0  0  0  0  0  0  0  0  0  0
   -2.3781    2.8261   -1.5961 C   0  0  2  0  0  0  0  0  0  0  0  0
   -2.3539    3.0252   -3.1058 C   0  0  0  0  0  0  0  0  0  0  0  0
   -1.3152    3.0479   -3.7628 O   0  0  0  0  0  0  0  0  0  0  0  0
   -2.2545    4.1567   -0.8703 C   0  0  0  0  0  0  0  0  0  0  0  0
   -0.4510    1.9814   -1.8071 H   0  0  0  0  0  0  0  0  0  0  0  0
   -3.3081    2.3238   -1.3083 H   0  0  0  0  0  0  0  0  0  0  0  0
   -1.3287    4.6747   -1.1460 H   0  0  0  0  0  0  0  0  0  0  0  0
   -3.0901    4.8210   -1.1144 H   0  0  0  0  0  0  0  0  0  0  0  0
   -2.2421    4.0090    0.2150 H   0  0  0  0  0  0  0  0  0  0  0  0
   -3.6256    3.2175   -3.6273 N   0  0  0  0  0  0  0  0  0  0  0  0
   -3.8633    3.4702   -5.0293 C   0  0  0  0  0  0  0  0  0  0  0  0
   -4.4331    3.1425   -3.0157 H   0  0  0  0  0  0  0  0  0  0  0  0
   -3.8843    4.5553   -5.2085 H   0  0  0  0  0  0  0  0  0  0  0  0
   -3.0581    3.0158   -5.6253 H   0  0  0  0  0  0  0  0  0  0  0  0
   -4.8286    3.0315   -5.3223 H   0  0  0  0  0  0  0  0  0  0  0  0
  1  3  1  0  0  0  0
  1  7  1  0  0  0  0
  1  2  2  0  0  0  0
 39 40  1  0  0  0  0
 40 48  1  0  0  0  0
 40 41  2  0  0  0  0
  8  9  1  0  0  0  0
  9 17  1  0  0  0  0
  9 10  2  0  0  0  0
 18 19  1  0  0  0  0
 19 38  1  0  0  0  0
 19 20  2  0  0  0  0
 39 42  1  0  0  0  0
  8 11  1  0  0  0  0
 48 49  1  0  0  0  0
 22 23  1  0  0  0  0
 21 22  1  0  0  0  0
 23 24  1  0  0  0  0
 18 21  1  0  0  0  0
 24 25  1  0  0  0  0
 38 39  1  0  0  0  0
  7  8  1  0  0  0  0
 17 18  1  0  0  0  0
  3  4  1  0  0  0  0
  3  5  1  0  0  0  0
  3  6  1  0  0  0  0
 42 45  1  0  0  0  0
 42 46  1  0  0  0  0
 42 47  1  0  0  0  0
 11 14  1  0  0  0  0
 11 15  1  0  0  0  0
 11 16  1  0  0  0  0
 49 51  1  0  0  0  0
 49 52  1  0  0  0  0
 49 53  1  0  0  0  0
 22 30  1  0  0  0  0
 22 31  1  0  0  0  0
 23 32  1  0  0  0  0
 23 33  1  0  0  0  0
 21 28  1  0  0  0  0
 21 29  1  0  0  0  0
 24 34  1  0  0  0  0
 24 35  1  0  0  0  0
 39 44  1  0  0  0  0
  8 13  1  0  0  0  0
 18 27  1  0  0  0  0
 25 36  1  0  0  0  0
 25 37  1  0  0  0  0
 48 50  1  0  0  0  0
  7 12  1  0  0  0  0
 38 43  1  0  0  0  0
 17 26  1  0  0  0  0
M  END
$$$$

  -OEChem-05262214473D

 53 52  0     1  0  0  0  0  0999 V2000
   -1.0338   -5.6785    0.1476 C   0  0  0  0  0  0  0  0  0  0  0  0
   -2.0514   -5.7797    0.8227 O   0  0  0  0  0  0  0  0  0  0  0  0
   -0.6558   -6.7819   -0.7841 C   0  0  0  0  0  0  0  0  0  0  0  0
   -0.0111   -7.5354   -0.3038 H   0  0  0  0  0  0  0  0  0  0  0  0
   -1.5317   -7.3401   -1.1520 H   0  0  0  0  0  0  0  0  0  0  0  0
   -0.1109   -6.4687   -1.6890 H   0  0  0  0  0  0  0  0  0  0  0  0
   -0.1543   -4.6083    0.1480 N   0  0  0  0  0  0  0  0  0  0  0  0
   -0.3302   -3.4398    0.9696 C   0  0  2  0  0  0  0  0  0  0  0  0
    0.2328   -2.2439    0.2131 C   0  0  0  0  0  0  0  0  0  0  0  0
    1.2097   -2.3192   -0.5294 O   0  0  0  0  0  0  0  0  0  0  0  0
    0.3557   -3.6024    2.3171 C   0  0  0  0  0  0  0  0  0  0  0  0
    0.6584   -4.6506   -0.4643 H   0  0  0  0  0  0  0  0  0  0  0  0
   -1.4091   -3.3101    1.1082 H   0  0  0  0  0  0  0  0  0  0  0  0
    1.4375   -3.7336    2.1985 H   0  0  0  0  0  0  0  0  0  0  0  0
    0.1969   -2.7243    2.9517 H   0  0  0  0  0  0  0  0  0  0  0  0
   -0.0294   -4.4803    2.8470 H   0  0  0  0  0  0  0  0  0  0  0  0
   -0.4616   -1.0893    0.5050 N   0  0  0  0  0  0  0  0  0  0  0  0
   -0.0884    0.2050   -0.0621 C   0  0  2  0  0  0  0  0  0  0  0  0
   -1.3603    1.0391   -0.1869 C   0  0  0  0  0  0  0  0  0  0  0  0
   -2.2089    1.1037    0.7003 O   0  0  0  0  0  0  0  0  0  0  0  0
    0.5695    0.0672   -1.4432 C   0  0  0  0  0  0  0  0  0  0  0  0
    1.9479   -0.6002   -1.3962 C   0  0  0  0  0  0  0  0  0  0  0  0
    2.5679   -0.6899   -2.7933 C   0  0  0  0  0  0  0  0  0  0  0  0
    3.9315   -1.3776   -2.7493 C   0  0  0  0  0  0  0  0  0  0  0  0
    4.4934   -1.4739   -4.0912 N   0  0  0  0  0  0  0  0  0  0  0  0
   -1.2794   -1.1113    1.0935 H   0  0  0  0  0  0  0  0  0  0  0  0
    0.6003    0.7034    0.6307 H   0  0  0  0  0  0  0  0  0  0  0  0
    0.6740    1.0637   -1.8924 H   0  0  0  0  0  0  0  0  0  0  0  0
   -0.0893   -0.4979   -2.1164 H   0  0  0  0  0  0  0  0  0  0  0  0
    1.8653   -1.6090   -0.9763 H   0  0  0  0  0  0  0  0  0  0  0  0
    2.6108   -0.0260   -0.7378 H   0  0  0  0  0  0  0  0  0  0  0  0
    1.8923   -1.2444   -3.4568 H   0  0  0  0  0  0  0  0  0  0  0  0
    2.6751    0.3190   -3.2115 H   0  0  0  0  0  0  0  0  0  0  0  0
    3.8358   -2.3822   -2.3230 H   0  0  0  0  0  0  0  0  0  0  0  0
    4.6196   -0.8096   -2.1142 H   0  0  0  0  0  0  0  0  0  0  0  0
    3.8417   -1.0854   -4.7322 H   0  0  0  0  0  0  0  0  0  0  0  0
    5.3466   -0.9657   -4.1099 H   0  0  0  0  0  0  0  0  0  0  0  0
   -1.4443    1.6831   -1.4136 N   0  0  0  0  0  0  0  0  0  0  0  0
   -2.5601    2.5189   -1.7950 C   0  0  2  0  0  0  0  0  0  0  0  0
   -2.7520    2.3890   -3.3002 C   0  0  0  0  0  0  0  0  0  0  0  0
   -1.8185    2.2324   -4.0845 O   0  0  0  0  0  0  0  0  0  0  0  0
   -2.3259    3.9686   -1.4000 C   0  0  0  0  0  0  0  0  0  0  0  0
   -0.6881    1.5785   -2.0835 H   0  0  0  0  0  0  0  0  0  0  0  0
   -3.4418    2.1243   -1.2784 H   0  0  0  0  0  0  0  0  0  0  0  0
   -1.4464    4.3812   -1.9077 H   0  0  0  0  0  0  0  0  0  0  0  0
   -3.1841    4.5954   -1.6639 H   0  0  0  0  0  0  0  0  0  0  0  0
   -2.1584    4.0565   -0.3211 H   0  0  0  0  0  0  0  0  0  0  0  0
   -4.0844    2.5117   -3.6689 N   0  0  0  0  0  0  0  0  0  0  0  0
   -4.5197    2.4667   -5.0453 C   0  0  0  0  0  0  0  0  0  0  0  0
   -4.7960    2.5990   -2.9494 H   0  0  0  0  0  0  0  0  0  0  0  0
   -4.5602    3.4883   -5.4512 H   0  0  0  0  0  0  0  0  0  0  0  0
   -3.8112    1.8660   -5.6345 H   0  0  0  0  0  0  0  0  0  0  0  0
   -5.5196    2.0112   -5.0988 H   0  0  0  0  0  0  0  0  0  0  0  0
  1  3  1  0  0  0  0
  1  7  1  0  0  0  0
  1  2  2  0  0  0  0
 39 40  1  0  0  0  0
 40 48  1  0  0  0  0
 40 41  2  0  0  0  0
  8  9  1  0  0  0  0
  9 17  1  0  0  0  0
  9 10  2  0  0  0  0
 18 19  1  0  0  0  0
 19 38  1  0  0  0  0
 19 20  2  0  0  0  0
 39 42  1  0  0  0  0
  8 11  1  0  0  0  0
 48 49  1  0  0  0  0
 22 23  1  0  0  0  0
 21 22  1  0  0  0  0
 23 24  1  0  0  0  0
 18 21  1  0  0  0  0
 24 25  1  0  0  0  0
 38 39  1  0  0  0  0
  7  8  1  0  0  0  0
 17 18  1  0  0  0  0
  3  4  1  0  0  0  0
  3  5  1  0  0  0  0
  3  6  1  0  0  0  0
 42 45  1  0  0  0  0
 42 46  1  0  0  0  0
 42 47  1  0  0  0  0
 11 14  1  0  0  0  0
 11 15  1  0  0  0  0
 11 16  1  0  0  0  0
 49 51  1  0  0  0  0
 49 52  1  0  0  0  0
 49 53  1  0  0  0  0
 22 30  1  0  0  0  0
 22 31  1  0  0  0  0
 23 32  1  0  0  0  0
 23 33  1  0  0  0  0
 21 28  1  0  0  0  0
 21 29  1  0  0  0  0
 24 34  1  0  0  0  0
 24 35  1  0  0  0  0
 39 44  1  0  0  0  0
  8 13  1  0  0  0  0
 18 27  1  0  0  0  0
 25 36  1  0  0  0  0
 25 37  1  0  0  0  0
 48 50  1  0  0  0  0
  7 12  1  0  0  0  0
 38 43  1  0  0  0  0
 17 26  1  0  0  0  0
M  END
$$$$

  -OEChem-05262214473D

 53 52  0     1  0  0  0  0  0999 V2000
   -1.0338   -5.6785    0.1476 C   0  0  0  0  0  0  0  0  0  0  0  0
   -2.0514   -5.7797    0.8227 O   0  0  0  0  0  0  0  0  0  0  0  0
   -0.6558   -6.7819   -0.7841 C   0  0  0  0  0  0  0  0  0  0  0  0
   -0.0111   -7.5354   -0.3038 H   0  0  0  0  0  0  0  0  0  0  0  0
   -1.5317   -7.3401   -1.1520 H   0  0  0  0  0  0  0  0  0  0  0  0
   -0.1109   -6.4687   -1.6890 H   0  0  0  0  0  0  0  0  0  0  0  0
   -0.1543   -4.6083    0.1480 N   0  0  0  0  0  0  0  0  0  0  0  0
   -0.3302   -3.4398    0.9696 C   0  0  2  0  0  0  0  0  0  0  0  0
    0.2328   -2.2439    0.2131 C   0  0  0  0  0  0  0  0  0  0  0  0
    1.2097   -2.3192   -0.5294 O   0  0  0  0  0  0  0  0  0  0  0  0
    0.3557   -3.6024    2.3171 C   0  0  0  0  0  0  0  0  0  0  0  0
    0.6584   -4.6506   -0.4643 H   0  0  0  0  0  0  0  0  0  0  0  0
   -1.4091   -3.3101    1.1082 H   0  0  0  0  0  0  0  0  0  0  0  0
    1.4375   -3.7336    2.1985 H   0  0  0  0  0  0  0  0  0  0  0  0
    0.1969   -2.7243    2.9517 H   0  0  0  0  0  0  0  0  0  0  0  0
   -0.0294   -4.4803    2.8470 H   0  0  0  0  0  0  0  0  0  0  0  0
   -0.4616   -1.0893    0.5050 N   0  0  0  0  0  0  0  0  0  0  0  0
   -0.0884    0.2050   -0.0621 C   0  0  2  0  0  0  0  0  0  0  0  0
   -1.3603    1.0391   -0.1869 C   0  0  0  0  0  0  0  0  0  0  0  0
   -2.0721    1.3233    0.7744 O   0  0  0  0  0  0  0  0  0  0  0  0
    0.5695    0.0672   -1.4432 C   0  0  0  0  0  0  0  0  0  0  0  0
    1.9479   -0.6002   -1.3962 C   0  0  0  0  0  0  0  0  0  0  0  0
    2.5679   -0.6899   -2.7933 C   0  0  0  0  0  0  0  0  0  0  0  0
    3.9315   -1.3776   -2.7493 C   0  0  0  0  0  0  0  0  0  0  0  0
    4.4934   -1.4739   -4.0912 N   0  0  0  0  0  0  0  0  0  0  0  0
   -1.2794   -1.1113    1.0935 H   0  0  0  0  0  0  0  0  0  0  0  0
    0.6003    0.7034    0.6307 H   0  0  0  0  0  0  0  0  0  0  0  0
    0.6740    1.0637   -1.8924 H   0  0  0  0  0  0  0  0  0  0  0  0
   -0.0893   -0.4979   -2.1164 H   0  0  0  0  0  0  0  0  0  0  0  0
    1.8653   -1.6090   -0.9763 H   0  0  0  0  0  0  0  0  0  0  0  0
    2.6108   -0.0260   -0.7378 H   0  0  0  0  0  0  0  0  0  0  0  0
    1.8923   -1.2444   -3.4568 H   0  0  0  0  0  0  0  0  0  0  0  0
    2.6751    0.3190   -3.2115 H   0  0  0  0  0  0  0  0  0  0  0  0
    3.8358   -2.3822   -2.3230 H   0  0  0  0  0  0  0  0  0  0  0  0
    4.6196   -0.8096   -2.1142 H   0  0  0  0  0  0  0  0  0  0  0  0
    3.8417   -1.0854   -4.7322 H   0  0  0  0  0  0  0  0  0  0  0  0
    5.3466   -0.9657   -4.1099 H   0  0  0  0  0  0  0  0  0  0  0  0
   -1.6162    1.4081   -1.5003 N   0  0  0  0  0  0  0  0  0  0  0  0
   -2.7704    2.1831   -1.8951 C   0  0  2  0  0  0  0  0  0  0  0  0
   -3.1776    1.7409   -3.2945 C   0  0  0  0  0  0  0  0  0  0  0  0
   -2.3673    1.3858   -4.1480 O   0  0  0  0  0  0  0  0  0  0  0  0
   -2.4737    3.6742   -1.8610 C   0  0  0  0  0  0  0  0  0  0  0  0
   -0.9648    1.1347   -2.2300 H   0  0  0  0  0  0  0  0  0  0  0  0
   -3.5710    1.9410   -1.1876 H   0  0  0  0  0  0  0  0  0  0  0  0
   -1.6741    3.9359   -2.5635 H   0  0  0  0  0  0  0  0  0  0  0  0
   -3.3575    4.2609   -2.1328 H   0  0  0  0  0  0  0  0  0  0  0  0
   -2.1524    3.9849   -0.8610 H   0  0  0  0  0  0  0  0  0  0  0  0
   -4.5484    1.8306   -3.4920 N   0  0  0  0  0  0  0  0  0  0  0  0
   -5.1773    1.5078   -4.7515 C   0  0  0  0  0  0  0  0  0  0  0  0
   -5.1486    2.0961   -2.7168 H   0  0  0  0  0  0  0  0  0  0  0  0
   -5.2699    2.4196   -5.3599 H   0  0  0  0  0  0  0  0  0  0  0  0
   -4.5642    0.7693   -5.2887 H   0  0  0  0  0  0  0  0  0  0  0  0
   -6.1770    1.0884   -4.5651 H   0  0  0  0  0  0  0  0  0  0  0  0
  1  3  1  0  0  0  0
  1  7  1  0  0  0  0
  1  2  2  0  0  0  0
 39 40  1  0  0  0  0
 40 48  1  0  0  0  0
 40 41  2  0  0  0  0
  8  9  1  0  0  0  0
  9 17  1  0  0  0  0
  9 10  2  0  0  0  0
 18 19  1  0  0  0  0
 19 38  1  0  0  0  0
 19 20  2  0  0  0  0
 39 42  1  0  0  0  0
  8 11  1  0  0  0  0
 48 49  1  0  0  0  0
 22 23  1  0  0  0  0
 21 22  1  0  0  0  0
 23 24  1  0  0  0  0
 18 21  1  0  0  0  0
 24 25  1  0  0  0  0
 38 39  1  0  0  0  0
  7  8  1  0  0  0  0
 17 18  1  0  0  0  0
  3  4  1  0  0  0  0
  3  5  1  0  0  0  0
  3  6  1  0  0  0  0
 42 45  1  0  0  0  0
 42 46  1  0  0  0  0
 42 47  1  0  0  0  0
 11 14  1  0  0  0  0
 11 15  1  0  0  0  0
 11 16  1  0  0  0  0
 49 51  1  0  0  0  0
 49 52  1  0  0  0  0
 49 53  1  0  0  0  0
 22 30  1  0  0  0  0
 22 31  1  0  0  0  0
 23 32  1  0  0  0  0
 23 33  1  0  0  0  0
 21 28  1  0  0  0  0
 21 29  1  0  0  0  0
 24 34  1  0  0  0  0
 24 35  1  0  0  0  0
 39 44  1  0  0  0  0
  8 13  1  0  0  0  0
 18 27  1  0  0  0  0
 25 36  1  0  0  0  0
 25 37  1  0  0  0  0
 48 50  1  0  0  0  0
  7 12  1  0  0  0  0
 38 43  1  0  0  0  0
 17 26  1  0  0  0  0
M  END
$$$$

  -OEChem-05262214473D

 53 52  0     1  0  0  0  0  0999 V2000
   -1.0338   -5.6785    0.1476 C   0  0  0  0  0  0  0  0  0  0  0  0
   -2.0514   -5.7797    0.8227 O   0  0  0  0  0  0  0  0  0  0  0  0
   -0.6558   -6.7819   -0.7841 C   0  0  0  0  0  0  0  0  0  0  0  0
   -0.0111   -7.5354   -0.3038 H   0  0  0  0  0  0  0  0  0  0  0  0
   -1.5317   -7.3401   -1.1520 H   0  0  0  0  0  0  0  0  0  0  0  0
   -0.1109   -6.4687   -1.6890 H   0  0  0  0  0  0  0  0  0  0  0  0
   -0.1543   -4.6083    0.1480 N   0  0  0  0  0  0  0  0  0  0  0  0
   -0.3302   -3.4398    0.9696 C   0  0  2  0  0  0  0  0  0  0  0  0
    0.2328   -2.2439    0.2131 C   0  0  0  0  0  0  0  0  0  0  0  0
    1.2097   -2.3192   -0.5294 O   0  0  0  0  0  0  0  0  0  0  0  0
    0.3557   -3.6024    2.3171 C   0  0  0  0  0  0  0  0  0  0  0  0
    0.6584   -4.6506   -0.4643 H   0  0  0  0  0  0  0  0  0  0  0  0
   -1.4091   -3.3101    1.1082 H   0  0  0  0  0  0  0  0  0  0  0  0
    1.4375   -3.7336    2.1985 H   0  0  0  0  0  0  0  0  0  0  0  0
    0.1969   -2.7243    2.9517 H   0  0  0  0  0  0  0  0  0  0  0  0
   -0.0294   -4.4803    2.8470 H   0  0  0  0  0  0  0  0  0  0  0  0
   -0.4616   -1.0893    0.5050 N   0  0  0  0  0  0  0  0  0  0  0  0
   -0.0884    0.2050   -0.0621 C   0  0  2  0  0  0  0  0  0  0  0  0
   -1.3603    1.0391   -0.1869 C   0  0  0  0  0  0  0  0  0  0  0  0
   -1.9249    1.5485    0.7791 O   0  0  0  0  0  0  0  0  0  0  0  0
    0.5695    0.0672   -1.4432 C   0  0  0  0  0  0  0  0  0  0  0  0
    1.9479   -0.6002   -1.3962 C   0  0  0  0  0  0  0  0  0  0  0  0
    2.5679   -0.6899   -2.7933 C   0  0  0  0  0  0  0  0  0  0  0  0
    3.9315   -1.3776   -2.7493 C   0  0  0  0  0  0  0  0  0  0  0  0
    4.4934   -1.4739   -4.0912 N   0  0  0  0  0  0  0  0  0  0  0  0
   -1.2794   -1.1113    1.0935 H   0  0  0  0  0  0  0  0  0  0  0  0
    0.6003    0.7034    0.6307 H   0  0  0  0  0  0  0  0  0  0  0  0
    0.6740    1.0637   -1.8924 H   0  0  0  0  0  0  0  0  0  0  0  0
   -0.0893   -0.4979   -2.1164 H   0  0  0  0  0  0  0  0  0  0  0  0
    1.8653   -1.6090   -0.9763 H   0  0  0  0  0  0  0  0  0  0  0  0
    2.6108   -0.0260   -0.7378 H   0  0  0  0  0  0  0  0  0  0  0  0
    1.8923   -1.2444   -3.4568 H   0  0  0  0  0  0  0  0  0  0  0  0
    2.6751    0.3190   -3.2115 H   0  0  0  0  0  0  0  0  0  0  0  0
    3.8358   -2.3822   -2.3230 H   0  0  0  0  0  0  0  0  0  0  0  0
    4.6196   -0.8096   -2.1142 H   0  0  0  0  0  0  0  0  0  0  0  0
    3.8417   -1.0854   -4.7322 H   0  0  0  0  0  0  0  0  0  0  0  0
    5.3466   -0.9657   -4.1099 H   0  0  0  0  0  0  0  0  0  0  0  0
   -1.8003    1.1273   -1.5004 N   0  0  0  0  0  0  0  0  0  0  0  0
   -2.9949    1.8416   -1.8896 C   0  0  2  0  0  0  0  0  0  0  0  0
   -3.6015    1.1252   -3.0889 C   0  0  0  0  0  0  0  0  0  0  0  0
   -2.9244    0.5660   -3.9492 O   0  0  0  0  0  0  0  0  0  0  0  0
   -2.6880    3.2935   -2.2219 C   0  0  0  0  0  0  0  0  0  0  0  0
   -1.2621    0.6803   -2.2367 H   0  0  0  0  0  0  0  0  0  0  0  0
   -3.6868    1.7862   -1.0421 H   0  0  0  0  0  0  0  0  0  0  0  0
   -1.9962    3.3691   -3.0687 H   0  0  0  0  0  0  0  0  0  0  0  0
   -3.5983    3.8404   -2.4889 H   0  0  0  0  0  0  0  0  0  0  0  0
   -2.2245    3.7992   -1.3679 H   0  0  0  0  0  0  0  0  0  0  0  0
   -4.9859    1.2207   -3.1085 N   0  0  0  0  0  0  0  0  0  0  0  0
   -5.7912    0.6590   -4.1677 C   0  0  0  0  0  0  0  0  0  0  0  0
   -5.4669    1.6679   -2.3337 H   0  0  0  0  0  0  0  0  0  0  0  0
   -5.9652    1.4220   -4.9408 H   0  0  0  0  0  0  0  0  0  0  0  0
   -5.2659   -0.1995   -4.6117 H   0  0  0  0  0  0  0  0  0  0  0  0
   -6.7561    0.3262   -3.7575 H   0  0  0  0  0  0  0  0  0  0  0  0
  1  3  1  0  0  0  0
  1  7  1  0  0  0  0
  1  2  2  0  0  0  0
 39 40  1  0  0  0  0
 40 48  1  0  0  0  0
 40 41  2  0  0  0  0
  8  9  1  0  0  0  0
  9 17  1  0  0  0  0
  9 10  2  0  0  0  0
 18 19  1  0  0  0  0
 19 38  1  0  0  0  0
 19 20  2  0  0  0  0
 39 42  1  0  0  0  0
  8 11  1  0  0  0  0
 48 49  1  0  0  0  0
 22 23  1  0  0  0  0
 21 22  1  0  0  0  0
 23 24  1  0  0  0  0
 18 21  1  0  0  0  0
 24 25  1  0  0  0  0
 38 39  1  0  0  0  0
  7  8  1  0  0  0  0
 17 18  1  0  0  0  0
  3  4  1  0  0  0  0
  3  5  1  0  0  0  0
  3  6  1  0  0  0  0
 42 45  1  0  0  0  0
 42 46  1  0  0  0  0
 42 47  1  0  0  0  0
 11 14  1  0  0  0  0
 11 15  1  0  0  0  0
 11 16  1  0  0  0  0
 49 51  1  0  0  0  0
 49 52  1  0  0  0  0
 49 53  1  0  0  0  0
 22 30  1  0  0  0  0
 22 31  1  0  0  0  0
 23 32  1  0  0  0  0
 23 33  1  0  0  0  0
 21 28  1  0  0  0  0
 21 29  1  0  0  0  0
 24 34  1  0  0  0  0
 24 35  1  0  0  0  0
 39 44  1  0  0  0  0
  8 13  1  0  0  0  0
 18 27  1  0  0  0  0
 25 36  1  0  0  0  0
 25 37  1  0  0  0  0
 48 50  1  0  0  0  0
  7 12  1  0  0  0  0
 38 43  1  0  0  0  0
 17 26  1  0  0  0  0
M  END
$$$$

  -OEChem-05262214473D

 53 52  0     1  0  0  0  0  0999 V2000
   -1.0338   -5.6785    0.1476 C   0  0  0  0  0  0  0  0  0  0  0  0
   -2.0514   -5.7797    0.8227 O   0  0  0  0  0  0  0  0  0  0  0  0
   -0.6558   -6.7819   -0.7841 C   0  0  0  0  0  0  0  0  0  0  0  0
   -0.0111   -7.5354   -0.3038 H   0  0  0  0  0  0  0  0  0  0  0  0
   -1.5317   -7.3401   -1.1520 H   0  0  0  0  0  0  0  0  0  0  0  0
   -0.1109   -6.4687   -1.6890 H   0  0  0  0  0  0  0  0  0  0  0  0
   -0.1543   -4.6083    0.1480 N   0  0  0  0  0  0  0  0  0  0  0  0
   -0.3302   -3.4398    0.9696 C   0  0  2  0  0  0  0  0  0  0  0  0
    0.2328   -2.2439    0.2131 C   0  0  0  0  0  0  0  0  0  0  0  0
    1.2097   -2.3192   -0.5294 O   0  0  0  0  0  0  0  0  0  0  0  0
    0.3557   -3.6024    2.3171 C   0  0  0  0  0  0  0  0  0  0  0  0
    0.6584   -4.6506   -0.4643 H   0  0  0  0  0  0  0  0  0  0  0  0
   -1.4091   -3.3101    1.1082 H   0  0  0  0  0  0  0  0  0  0  0  0
    1.4375   -3.7336    2.1985 H   0  0  0  0  0  0  0  0  0  0  0  0
    0.1969   -2.7243    2.9517 H   0  0  0  0  0  0  0  0  0  0  0  0
   -0.0294   -4.4803    2.8470 H   0  0  0  0  0  0  0  0  0  0  0  0
   -0.4616   -1.0893    0.5050 N   0  0  0  0  0  0  0  0  0  0  0  0
   -0.0884    0.2050   -0.0621 C   0  0  2  0  0  0  0  0  0  0  0  0
   -1.3603    1.0391   -0.1869 C   0  0  0  0  0  0  0  0  0  0  0  0
   -1.7773    1.7639    0.7143 O   0  0  0  0  0  0  0  0  0  0  0  0
    0.5695    0.0672   -1.4432 C   0  0  0  0  0  0  0  0  0  0  0  0
    1.9479   -0.6002   -1.3962 C   0  0  0  0  0  0  0  0  0  0  0  0
    2.5679   -0.6899   -2.7933 C   0  0  0  0  0  0  0  0  0  0  0  0
    3.9315   -1.3776   -2.7493 C   0  0  0  0  0  0  0  0  0  0  0  0
    4.4934   -1.4739   -4.0912 N   0  0  0  0  0  0  0  0  0  0  0  0
   -1.2794   -1.1113    1.0935 H   0  0  0  0  0  0  0  0  0  0  0  0
    0.6003    0.7034    0.6307 H   0  0  0  0  0  0  0  0  0  0  0  0
    0.6740    1.0637   -1.8924 H   0  0  0  0  0  0  0  0  0  0  0  0
   -0.0893   -0.4979   -2.1164 H   0  0  0  0  0  0  0  0  0  0  0  0
    1.8653   -1.6090   -0.9763 H   0  0  0  0  0  0  0  0  0  0  0  0
    2.6108   -0.0260   -0.7378 H   0  0  0  0  0  0  0  0  0  0  0  0
    1.8923   -1.2444   -3.4568 H   0  0  0  0  0  0  0  0  0  0  0  0
    2.6751    0.3190   -3.2115 H   0  0  0  0  0  0  0  0  0  0  0  0
    3.8358   -2.3822   -2.3230 H   0  0  0  0  0  0  0  0  0  0  0  0
    4.6196   -0.8096   -2.1142 H   0  0  0  0  0  0  0  0  0  0  0  0
    3.8417   -1.0854   -4.7322 H   0  0  0  0  0  0  0  0  0  0  0  0
    5.3466   -0.9657   -4.1099 H   0  0  0  0  0  0  0  0  0  0  0  0
   -1.9841    0.8600   -1.4139 N   0  0  0  0  0  0  0  0  0  0  0  0
   -3.2182    1.5176   -1.7789 C   0  0  2  0  0  0  0  0  0  0  0  0
   -3.9949    0.5837   -2.6976 C   0  0  0  0  0  0  0  0  0  0  0  0
   -3.4517   -0.1711   -3.5014 O   0  0  0  0  0  0  0  0  0  0  0  0
   -2.9540    2.8524   -2.4580 C   0  0  0  0  0  0  0  0  0  0  0  0
   -1.5598    0.2463   -2.1030 H   0  0  0  0  0  0  0  0  0  0  0  0
   -3.7813    1.6705   -0.8518 H   0  0  0  0  0  0  0  0  0  0  0  0
   -2.3907    2.7195   -3.3889 H   0  0  0  0  0  0  0  0  0  0  0  0
   -3.8901    3.3625   -2.7082 H   0  0  0  0  0  0  0  0  0  0  0  0
   -2.3697    3.5119   -1.8073 H   0  0  0  0  0  0  0  0  0  0  0  0
   -5.3672    0.7235   -2.5447 N   0  0  0  0  0  0  0  0  0  0  0  0
   -6.3196   -0.0221   -3.3340 C   0  0  0  0  0  0  0  0  0  0  0  0
   -5.7293    1.3437   -1.8263 H   0  0  0  0  0  0  0  0  0  0  0  0
   -6.5986    0.5635   -4.2224 H   0  0  0  0  0  0  0  0  0  0  0  0
   -5.8684   -0.9744   -3.6495 H   0  0  0  0  0  0  0  0  0  0  0  0
   -7.2173   -0.2237   -2.7311 H   0  0  0  0  0  0  0  0  0  0  0  0
  1  3  1  0  0  0  0
  1  7  1  0  0  0  0
  1  2  2  0  0  0  0
 39 40  1  0  0  0  0
 40 48  1  0  0  0  0
 40 41  2  0  0  0  0
  8  9  1  0  0  0  0
  9 17  1  0  0  0  0
  9 10  2  0  0  0  0
 18 19  1  0  0  0  0
 19 38  1  0  0  0  0
 19 20  2  0  0  0  0
 39 42  1  0  0  0  0
  8 11  1  0  0  0  0
 48 49  1  0  0  0  0
 22 23  1  0  0  0  0
 21 22  1  0  0  0  0
 23 24  1  0  0  0  0
 18 21  1  0  0  0  0
 24 25  1  0  0  0  0
 38 39  1  0  0  0  0
  7  8  1  0  0  0  0
 17 18  1  0  0  0  0
  3  4  1  0  0  0  0
  3  5  1  0  0  0  0
  3  6  1  0  0  0  0
 42 45  1  0  0  0  0
 42 46  1  0  0  0  0
 42 47  1  0  0  0  0
 11 14  1  0  0  0  0
 11 15  1  0  0  0  0
 11 16  1  0  0  0  0
 49 51  1  0  0  0  0
 49 52  1  0  0  0  0
 49 53  1  0  0  0  0
 22 30  1  0  0  0  0
 22 31  1  0  0  0  0
 23 32  1  0  0  0  0
 23 33  1  0  0  0  0
 21 28  1  0  0  0  0
 21 29  1  0  0  0  0
 24 34  1  0  0  0  0
 24 35  1  0  0  0  0
 39 44  1  0  0  0  0
  8 13  1  0  0  0  0
 18 27  1  0  0  0  0
 25 36  1  0  0  0  0
 25 37  1  0  0  0  0
 48 50  1  0  0  0  0
  7 12  1  0  0  0  0
 38 43  1  0  0  0  0
 17 26  1  0  0  0  0
M  END
$$$$

  -OEChem-05262214473D

 53 52  0     1  0  0  0  0  0999 V2000
   -1.0338   -5.6785    0.1476 C   0  0  0  0  0  0  0  0  0  0  0  0
   -2.0514   -5.7797    0.8227 O   0  0  0  0  0  0  0  0  0  0  0  0
   -0.6558   -6.7819   -0.7841 C   0  0  0  0  0  0  0  0  0  0  0  0
   -0.0111   -7.5354   -0.3038 H   0  0  0  0  0  0  0  0  0  0  0  0
   -1.5317   -7.3401   -1.1520 H   0  0  0  0  0  0  0  0  0  0  0  0
   -0.1109   -6.4687   -1.6890 H   0  0  0  0  0  0  0  0  0  0  0  0
   -0.1543   -4.6083    0.1480 N   0  0  0  0  0  0  0  0  0  0  0  0
   -0.3302   -3.4398    0.9696 C   0  0  2  0  0  0  0  0  0  0  0  0
    0.2328   -2.2439    0.2131 C   0  0  0  0  0  0  0  0  0  0  0  0
    1.2097   -2.3192   -0.5294 O   0  0  0  0  0  0  0  0  0  0  0  0
    0.3557   -3.6024    2.3171 C   0  0  0  0  0  0  0  0  0  0  0  0
    0.6584   -4.6506   -0.4643 H   0  0  0  0  0  0  0  0  0  0  0  0
   -1.4091   -3.3101    1.1082 H   0  0  0  0  0  0  0  0  0  0  0  0
    1.4375   -3.7336    2.1985 H   0  0  0  0  0  0  0  0  0  0  0  0
    0.1969   -2.7243    2.9517 H   0  0  0  0  0  0  0  0  0  0  0  0
   -0.0294   -4.4803    2.8470 H   0  0  0  0  0  0  0  0  0  0  0  0
   -0.4616   -1.0893    0.5050 N   0  0  0  0  0  0  0  0  0  0  0  0
   -0.0884    0.2050   -0.0621 C   0  0  2  0  0  0  0  0  0  0  0  0
   -1.3603    1.0391   -0.1869 C   0  0  0  0  0  0  0  0  0  0  0  0
   -1.6393    1.9549    0.5844 O   0  0  0  0  0  0  0  0  0  0  0  0
    0.5695    0.0672   -1.4432 C   0  0  0  0  0  0  0  0  0  0  0  0
    1.9479   -0.6002   -1.3962 C   0  0  0  0  0  0  0  0  0  0  0  0
    2.5679   -0.6899   -2.7933 C   0  0  0  0  0  0  0  0  0  0  0  0
    3.9315   -1.3776   -2.7493 C   0  0  0  0  0  0  0  0  0  0  0  0
    4.4934   -1.4739   -4.0912 N   0  0  0  0  0  0  0  0  0  0  0  0
   -1.2794   -1.1113    1.0935 H   0  0  0  0  0  0  0  0  0  0  0  0
    0.6003    0.7034    0.6307 H   0  0  0  0  0  0  0  0  0  0  0  0
    0.6740    1.0637   -1.8924 H   0  0  0  0  0  0  0  0  0  0  0  0
   -0.0893   -0.4979   -2.1164 H   0  0  0  0  0  0  0  0  0  0  0  0
    1.8653   -1.6090   -0.9763 H   0  0  0  0  0  0  0  0  0  0  0  0
    2.6108   -0.0260   -0.7378 H   0  0  0  0  0  0  0  0  0  0  0  0
    1.8923   -1.2444   -3.4568 H   0  0  0  0  0  0  0  0  0  0  0  0
    2.6751    0.3190   -3.2115 H   0  0  0  0  0  0  0  0  0  0  0  0
    3.8358   -2.3822   -2.3230 H   0  0  0  0  0  0  0  0  0  0  0  0
    4.6196   -0.8096   -2.1142 H   0  0  0  0  0  0  0  0  0  0  0  0
    3.8417   -1.0854   -4.7322 H   0  0  0  0  0  0  0  0  0  0  0  0
    5.3466   -0.9657   -4.1099 H   0  0  0  0  0  0  0  0  0  0  0  0
   -2.1550    0.6243   -1.2467 N   0  0  0  0  0  0  0  0  0  0  0  0
   -3.4250    1.2334   -1.5705 C   0  0  2  0  0  0  0  0  0  0  0  0
   -4.3310    0.1535   -2.1471 C   0  0  0  0  0  0  0  0  0  0  0  0
   -3.9133   -0.7755   -2.8354 O   0  0  0  0  0  0  0  0  0  0  0  0
   -3.2537    2.3811   -2.5534 C   0  0  0  0  0  0  0  0  0  0  0  0
   -1.8377   -0.1379   -1.8382 H   0  0  0  0  0  0  0  0  0  0  0  0
   -3.8482    1.6018   -0.6296 H   0  0  0  0  0  0  0  0  0  0  0  0
   -2.8309    2.0313   -3.5022 H   0  0  0  0  0  0  0  0  0  0  0  0
   -4.2132    2.8597   -2.7756 H   0  0  0  0  0  0  0  0  0  0  0  0
   -2.5782    3.1428   -2.1492 H   0  0  0  0  0  0  0  0  0  0  0  0
   -5.6663    0.3730   -1.8388 N   0  0  0  0  0  0  0  0  0  0  0  0
   -6.7264   -0.4889   -2.3070 C   0  0  0  0  0  0  0  0  0  0  0  0
   -5.9178    1.1455   -1.2291 H   0  0  0  0  0  0  0  0  0  0  0  0
   -7.1270   -0.0974   -3.2537 H   0  0  0  0  0  0  0  0  0  0  0  0
   -6.3307   -1.5026   -2.4677 H   0  0  0  0  0  0  0  0  0  0  0  0
   -7.5292   -0.5236   -1.5558 H   0  0  0  0  0  0  0  0  0  0  0  0
  1  3  1  0  0  0  0
  1  7  1  0  0  0  0
  1  2  2  0  0  0  0
 39 40  1  0  0  0  0
 40 48  1  0  0  0  0
 40 41  2  0  0  0  0
  8  9  1  0  0  0  0
  9 17  1  0  0  0  0
  9 10  2  0  0  0  0
 18 19  1  0  0  0  0
 19 38  1  0  0  0  0
 19 20  2  0  0  0  0
 39 42  1  0  0  0  0
  8 11  1  0  0  0  0
 48 49  1  0  0  0  0
 22 23  1  0  0  0  0
 21 22  1  0  0  0  0
 23 24  1  0  0  0  0
 18 21  1  0  0  0  0
 24 25  1  0  0  0  0
 38 39  1  0  0  0  0
  7  8  1  0  0  0  0
 17 18  1  0  0  0  0
  3  4  1  0  0  0  0
  3  5  1  0  0  0  0
  3  6  1  0  0  0  0
 42 45  1  0  0  0  0
 42 46  1  0  0  0  0
 42 47  1  0  0  0  0
 11 14  1  0  0  0  0
 11 15  1  0  0  0  0
 11 16  1  0  0  0  0
 49 51  1  0  0  0  0
 49 52  1  0  0  0  0
 49 53  1  0  0  0  0
 22 30  1  0  0  0  0
 22 31  1  0  0  0  0
 23 32  1  0  0  0  0
 23 33  1  0  0  0  0
 21 28  1  0  0  0  0
 21 29  1  0  0  0  0
 24 34  1  0  0  0  0
 24 35  1  0  0  0  0
 39 44  1  0  0  0  0
  8 13  1  0  0  0  0
 18 27  1  0  0  0  0
 25 36  1  0  0  0  0
 25 37  1  0  0  0  0
 48 50  1  0  0  0  0
  7 12  1  0  0  0  0
 38 43  1  0  0  0  0
 17 26  1  0  0  0  0
M  END
$$$$

  -OEChem-05262214473D

 53 52  0     1  0  0  0  0  0999 V2000
   -1.0338   -5.6785    0.1476 C   0  0  0  0  0  0  0  0  0  0  0  0
   -2.0514   -5.7797    0.8227 O   0  0  0  0  0  0  0  0  0  0  0  0
   -0.6558   -6.7819   -0.7841 C   0  0  0  0  0  0  0  0  0  0  0  0
   -0.0111   -7.5354   -0.3038 H   0  0  0  0  0  0  0  0  0  0  0  0
   -1.5317   -7.3401   -1.1520 H   0  0  0  0  0  0  0  0  0  0  0  0
   -0.1109   -6.4687   -1.6890 H   0  0  0  0  0  0  0  0  0  0  0  0
   -0.1543   -4.6083    0.1480 N   0  0  0  0  0  0  0  0  0  0  0  0
   -0.3302   -3.4398    0.9696 C   0  0  2  0  0  0  0  0  0  0  0  0
    0.2328   -2.2439    0.2131 C   0  0  0  0  0  0  0  0  0  0  0  0
    1.2097   -2.3192   -0.5294 O   0  0  0  0  0  0  0  0  0  0  0  0
    0.3557   -3.6024    2.3171 C   0  0  0  0  0  0  0  0  0  0  0  0
    0.6584   -4.6506   -0.4643 H   0  0  0  0  0  0  0  0  0  0  0  0
   -1.4091   -3.3101    1.1082 H   0  0  0  0  0  0  0  0  0  0  0  0
    1.4375   -3.7336    2.1985 H   0  0  0  0  0  0  0  0  0  0  0  0
    0.1969   -2.7243    2.9517 H   0  0  0  0  0  0  0  0  0  0  0  0
   -0.0294   -4.4803    2.8470 H   0  0  0  0  0  0  0  0  0  0  0  0
   -0.4616   -1.0893    0.5050 N   0  0  0  0  0  0  0  0  0  0  0  0
   -0.0884    0.2050   -0.0621 C   0  0  2  0  0  0  0  0  0  0  0  0
   -1.3603    1.0391   -0.1869 C   0  0  0  0  0  0  0  0  0  0  0  0
   -1.5203    2.1085    0.3981 O   0  0  0  0  0  0  0  0  0  0  0  0
    0.5695    0.0672   -1.4432 C   0  0  0  0  0  0  0  0  0  0  0  0
    1.9479   -0.6002   -1.3962 C   0  0  0  0  0  0  0  0  0  0  0  0
    2.5679   -0.6899   -2.7933 C   0  0  0  0  0  0  0  0  0  0  0  0
    3.9315   -1.3776   -2.7493 C   0  0  0  0  0  0  0  0  0  0  0  0
    4.4934   -1.4739   -4.0912 N   0  0  0  0  0  0  0  0  0  0  0  0
   -1.2794   -1.1113    1.0935 H   0  0  0  0  0  0  0  0  0  0  0  0
    0.6003    0.7034    0.6307 H   0  0  0  0  0  0  0  0  0  0  0  0
    0.6740    1.0637   -1.8924 H   0  0  0  0  0  0  0  0  0  0  0  0
   -0.0893   -0.4979   -2.1164 H   0  0  0  0  0  0  0  0  0  0  0  0
    1.8653   -1.6090   -0.9763 H   0  0  0  0  0  0  0  0  0  0  0  0
    2.6108   -0.0260   -0.7378 H   0  0  0  0  0  0  0  0  0  0  0  0
    1.8923   -1.2444   -3.4568 H   0  0  0  0  0  0  0  0  0  0  0  0
    2.6751    0.3190   -3.2115 H   0  0  0  0  0  0  0  0  0  0  0  0
    3.8358   -2.3822   -2.3230 H   0  0  0  0  0  0  0  0  0  0  0  0
    4.6196   -0.8096   -2.1142 H   0  0  0  0  0  0  0  0  0  0  0  0
    3.8417   -1.0854   -4.7322 H   0  0  0  0  0  0  0  0  0  0  0  0
    5.3466   -0.9657   -4.1099 H   0  0  0  0  0  0  0  0  0  0  0  0
   -2.3014    0.4364   -1.0101 N   0  0  0  0  0  0  0  0  0  0  0  0
   -3.6014    1.0081   -1.2786 C   0  0  2  0  0  0  0  0  0  0  0  0
   -4.5869   -0.1363   -1.4751 C   0  0  0  0  0  0  0  0  0  0  0  0
   -4.2778   -1.2057   -1.9964 O   0  0  0  0  0  0  0  0  0  0  0  0
   -3.5667    1.9116   -2.5014 C   0  0  0  0  0  0  0  0  0  0  0  0
   -2.0768   -0.4460   -1.4602 H   0  0  0  0  0  0  0  0  0  0  0  0
   -3.8827    1.5848   -0.3907 H   0  0  0  0  0  0  0  0  0  0  0  0
   -3.2866    1.3514   -3.4009 H   0  0  0  0  0  0  0  0  0  0  0  0
   -4.5454    2.3663   -2.6866 H   0  0  0  0  0  0  0  0  0  0  0  0
   -2.8358    2.7169   -2.3703 H   0  0  0  0  0  0  0  0  0  0  0  0
   -5.8627    0.1931   -1.0392 N   0  0  0  0  0  0  0  0  0  0  0  0
   -6.9840   -0.7096   -1.1567 C   0  0  0  0  0  0  0  0  0  0  0  0
   -6.0197    1.0869   -0.5829 H   0  0  0  0  0  0  0  0  0  0  0  0
   -7.5143   -0.5156   -2.1007 H   0  0  0  0  0  0  0  0  0  0  0  0
   -6.6212   -1.7480   -1.1469 H   0  0  0  0  0  0  0  0  0  0  0  0
   -7.6707   -0.5532   -0.3117 H   0  0  0  0  0  0  0  0  0  0  0  0
  1  3  1  0  0  0  0
  1  7  1  0  0  0  0
  1  2  2  0  0  0  0
 39 40  1  0  0  0  0
 40 48  1  0  0  0  0
 40 41  2  0  0  0  0
  8  9  1  0  0  0  0
  9 17  1  0  0  0  0
  9 10  2  0  0  0  0
 18 19  1  0  0  0  0
 19 38  1  0  0  0  0
 19 20  2  0  0  0  0
 39 42  1  0  0  0  0
  8 11  1  0  0  0  0
 48 49  1  0  0  0  0
 22 23  1  0  0  0  0
 21 22  1  0  0  0  0
 23 24  1  0  0  0  0
 18 21  1  0  0  0  0
 24 25  1  0  0  0  0
 38 39  1  0  0  0  0
  7  8  1  0  0  0  0
 17 18  1  0  0  0  0
  3  4  1  0  0  0  0
  3  5  1  0  0  0  0
  3  6  1  0  0  0  0
 42 45  1  0  0  0  0
 42 46  1  0  0  0  0
 42 47  1  0  0  0  0
 11 14  1  0  0  0  0
 11 15  1  0  0  0  0
 11 16  1  0  0  0  0
 49 51  1  0  0  0  0
 49 52  1  0  0  0  0
 49 53  1  0  0  0  0
 22 30  1  0  0  0  0
 22 31  1  0  0  0  0
 23 32  1  0  0  0  0
 23 33  1  0  0  0  0
 21 28  1  0  0  0  0
 21 29  1  0  0  0  0
 24 34  1  0  0  0  0
 24 35  1  0  0  0  0
 39 44  1  0  0  0  0
  8 13  1  0  0  0  0
 18 27  1  0  0  0  0
 25 36  1  0  0  0  0
 25 37  1  0  0  0  0
 48 50  1  0  0  0  0
  7 12  1  0  0  0  0
 38 43  1  0  0  0  0
 17 26  1  0  0  0  0
M  END
$$$$

  -OEChem-05262214473D

 53 52  0     1  0  0  0  0  0999 V2000
   -1.0338   -5.6785    0.1476 C   0  0  0  0  0  0  0  0  0  0  0  0
   -2.0514   -5.7797    0.8227 O   0  0  0  0  0  0  0  0  0  0  0  0
   -0.6558   -6.7819   -0.7841 C   0  0  0  0  0  0  0  0  0  0  0  0
   -0.0111   -7.5354   -0.3038 H   0  0  0  0  0  0  0  0  0  0  0  0
   -1.5317   -7.3401   -1.1520 H   0  0  0  0  0  0  0  0  0  0  0  0
   -0.1109   -6.4687   -1.6890 H   0  0  0  0  0  0  0  0  0  0  0  0
   -0.1543   -4.6083    0.1480 N   0  0  0  0  0  0  0  0  0  0  0  0
   -0.3302   -3.4398    0.9696 C   0  0  2  0  0  0  0  0  0  0  0  0
    0.2328   -2.2439    0.2131 C   0  0  0  0  0  0  0  0  0  0  0  0
    1.2097   -2.3192   -0.5294 O   0  0  0  0  0  0  0  0  0  0  0  0
    0.3557   -3.6024    2.3171 C   0  0  0  0  0  0  0  0  0  0  0  0
    0.6584   -4.6506   -0.4643 H   0  0  0  0  0  0  0  0  0  0  0  0
   -1.4091   -3.3101    1.1082 H   0  0  0  0  0  0  0  0  0  0  0  0
    1.4375   -3.7336    2.1985 H   0  0  0  0  0  0  0  0  0  0  0  0
    0.1969   -2.7243    2.9517 H   0  0  0  0  0  0  0  0  0  0  0  0
   -0.0294   -4.4803    2.8470 H   0  0  0  0  0  0  0  0  0  0  0  0
   -0.4616   -1.0893    0.5050 N   0  0  0  0  0  0  0  0  0  0  0  0
   -0.0884    0.2050   -0.0621 C   0  0  2  0  0  0  0  0  0  0  0  0
   -1.3603    1.0391   -0.1869 C   0  0  0  0  0  0  0  0  0  0  0  0
   -1.4285    2.2141    0.1683 O   0  0  0  0  0  0  0  0  0  0  0  0
    0.5695    0.0672   -1.4432 C   0  0  0  0  0  0  0  0  0  0  0  0
    1.9479   -0.6002   -1.3962 C   0  0  0  0  0  0  0  0  0  0  0  0
    2.5679   -0.6899   -2.7933 C   0  0  0  0  0  0  0  0  0  0  0  0
    3.9315   -1.3776   -2.7493 C   0  0  0  0  0  0  0  0  0  0  0  0
    4.4934   -1.4739   -4.0912 N   0  0  0  0  0  0  0  0  0  0  0  0
   -1.2794   -1.1113    1.0935 H   0  0  0  0  0  0  0  0  0  0  0  0
    0.6003    0.7034    0.6307 H   0  0  0  0  0  0  0  0  0  0  0  0
    0.6740    1.0637   -1.8924 H   0  0  0  0  0  0  0  0  0  0  0  0
   -0.0893   -0.4979   -2.1164 H   0  0  0  0  0  0  0  0  0  0  0  0
    1.8653   -1.6090   -0.9763 H   0  0  0  0  0  0  0  0  0  0  0  0
    2.6108   -0.0260   -0.7378 H   0  0  0  0  0  0  0  0  0  0  0  0
    1.8923   -1.2444   -3.4568 H   0  0  0  0  0  0  0  0  0  0  0  0
    2.6751    0.3190   -3.2115 H   0  0  0  0  0  0  0  0  0  0  0  0
    3.8358   -2.3822   -2.3230 H   0  0  0  0  0  0  0  0  0  0  0  0
    4.6196   -0.8096   -2.1142 H   0  0  0  0  0  0  0  0  0  0  0  0
    3.8417   -1.0854   -4.7322 H   0  0  0  0  0  0  0  0  0  0  0  0
    5.3466   -0.9657   -4.1099 H   0  0  0  0  0  0  0  0  0  0  0  0
   -2.4134    0.3090   -0.7204 N   0  0  0  0  0  0  0  0  0  0  0  0
   -3.7352    0.8572   -0.9231 C   0  0  2  0  0  0  0  0  0  0  0  0
   -4.7452   -0.2657   -0.7273 C   0  0  0  0  0  0  0  0  0  0  0  0
   -4.5202   -1.4327   -1.0416 O   0  0  0  0  0  0  0  0  0  0  0  0
   -3.8716    1.4759   -2.3056 C   0  0  0  0  0  0  0  0  0  0  0  0
   -2.2608   -0.6569   -0.9948 H   0  0  0  0  0  0  0  0  0  0  0  0
   -3.8827    1.6206   -0.1514 H   0  0  0  0  0  0  0  0  0  0  0  0
   -3.7269    0.7262   -3.0920 H   0  0  0  0  0  0  0  0  0  0  0  0
   -4.8642    1.9161   -2.4472 H   0  0  0  0  0  0  0  0  0  0  0  0
   -3.1249    2.2632   -2.4556 H   0  0  0  0  0  0  0  0  0  0  0  0
   -5.9432    0.1959   -0.2001 N   0  0  0  0  0  0  0  0  0  0  0  0
   -7.0748   -0.6693    0.0384 C   0  0  0  0  0  0  0  0  0  0  0  0
   -6.0278    1.1718    0.0684 H   0  0  0  0  0  0  0  0  0  0  0  0
   -7.7342   -0.6626   -0.8420 H   0  0  0  0  0  0  0  0  0  0  0  0
   -6.7202   -1.6941    0.2230 H   0  0  0  0  0  0  0  0  0  0  0  0
   -7.6319   -0.3104    0.9164 H   0  0  0  0  0  0  0  0  0  0  0  0
  1  3  1  0  0  0  0
  1  7  1  0  0  0  0
  1  2  2  0  0  0  0
 39 40  1  0  0  0  0
 40 48  1  0  0  0  0
 40 41  2  0  0  0  0
  8  9  1  0  0  0  0
  9 17  1  0  0  0  0
  9 10  2  0  0  0  0
 18 19  1  0  0  0  0
 19 38  1  0  0  0  0
 19 20  2  0  0  0  0
 39 42  1  0  0  0  0
  8 11  1  0  0  0  0
 48 49  1  0  0  0  0
 22 23  1  0  0  0  0
 21 22  1  0  0  0  0
 23 24  1  0  0  0  0
 18 21  1  0  0  0  0
 24 25  1  0  0  0  0
 38 39  1  0  0  0  0
  7  8  1  0  0  0  0
 17 18  1  0  0  0  0
  3  4  1  0  0  0  0
  3  5  1  0  0  0  0
  3  6  1  0  0  0  0
 42 45  1  0  0  0  0
 42 46  1  0  0  0  0
 42 47  1  0  0  0  0
 11 14  1  0  0  0  0
 11 15  1  0  0  0  0
 11 16  1  0  0  0  0
 49 51  1  0  0  0  0
 49 52  1  0  0  0  0
 49 53  1  0  0  0  0
 22 30  1  0  0  0  0
 22 31  1  0  0  0  0
 23 32  1  0  0  0  0
 23 33  1  0  0  0  0
 21 28  1  0  0  0  0
 21 29  1  0  0  0  0
 24 34  1  0  0  0  0
 24 35  1  0  0  0  0
 39 44  1  0  0  0  0
  8 13  1  0  0  0  0
 18 27  1  0  0  0  0
 25 36  1  0  0  0  0
 25 37  1  0  0  0  0
 48 50  1  0  0  0  0
  7 12  1  0  0  0  0
 38 43  1  0  0  0  0
 17 26  1  0  0  0  0
M  END
$$$$

  -OEChem-05262214473D

 53 52  0     1  0  0  0  0  0999 V2000
   -1.0338   -5.6785    0.1476 C   0  0  0  0  0  0  0  0  0  0  0  0
   -2.0514   -5.7797    0.8227 O   0  0  0  0  0  0  0  0  0  0  0  0
   -0.6558   -6.7819   -0.7841 C   0  0  0  0  0  0  0  0  0  0  0  0
   -0.0111   -7.5354   -0.3038 H   0  0  0  0  0  0  0  0  0  0  0  0
   -1.5317   -7.3401   -1.1520 H   0  0  0  0  0  0  0  0  0  0  0  0
   -0.1109   -6.4687   -1.6890 H   0  0  0  0  0  0  0  0  0  0  0  0
   -0.1543   -4.6083    0.1480 N   0  0  0  0  0  0  0  0  0  0  0  0
   -0.3302   -3.4398    0.9696 C   0  0  2  0  0  0  0  0  0  0  0  0
    0.2328   -2.2439    0.2131 C   0  0  0  0  0  0  0  0  0  0  0  0
    1.2097   -2.3192   -0.5294 O   0  0  0  0  0  0  0  0  0  0  0  0
    0.3557   -3.6024    2.3171 C   0  0  0  0  0  0  0  0  0  0  0  0
    0.6584   -4.6506   -0.4643 H   0  0  0  0  0  0  0  0  0  0  0  0
   -1.4091   -3.3101    1.1082 H   0  0  0  0  0  0  0  0  0  0  0  0
    1.4375   -3.7336    2.1985 H   0  0  0  0  0  0  0  0  0  0  0  0
    0.1969   -2.7243    2.9517 H   0  0  0  0  0  0  0  0  0  0  0  0
   -0.0294   -4.4803    2.8470 H   0  0  0  0  0  0  0  0  0  0  0  0
   -0.4616   -1.0893    0.5050 N   0  0  0  0  0  0  0  0  0  0  0  0
   -0.0884    0.2050   -0.0621 C   0  0  2  0  0  0  0  0  0  0  0  0
   -1.3603    1.0391   -0.1869 C   0  0  0  0  0  0  0  0  0  0  0  0
   -1.3701    2.2646   -0.0895 O   0  0  0  0  0  0  0  0  0  0  0  0
    0.5695    0.0672   -1.4432 C   0  0  0  0  0  0  0  0  0  0  0  0
    1.9479   -0.6002   -1.3962 C   0  0  0  0  0  0  0  0  0  0  0  0
    2.5679   -0.6899   -2.7933 C   0  0  0  0  0  0  0  0  0  0  0  0
    3.9315   -1.3776   -2.7493 C   0  0  0  0  0  0  0  0  0  0  0  0
    4.4934   -1.4739   -4.0912 N   0  0  0  0  0  0  0  0  0  0  0  0
   -1.2794   -1.1113    1.0935 H   0  0  0  0  0  0  0  0  0  0  0  0
    0.6003    0.7034    0.6307 H   0  0  0  0  0  0  0  0  0  0  0  0
    0.6740    1.0637   -1.8924 H   0  0  0  0  0  0  0  0  0  0  0  0
   -0.0893   -0.4979   -2.1164 H   0  0  0  0  0  0  0  0  0  0  0  0
    1.8653   -1.6090   -0.9763 H   0  0  0  0  0  0  0  0  0  0  0  0
    2.6108   -0.0260   -0.7378 H   0  0  0  0  0  0  0  0  0  0  0  0
    1.8923   -1.2444   -3.4568 H   0  0  0  0  0  0  0  0  0  0  0  0
    2.6751    0.3190   -3.2115 H   0  0  0  0  0  0  0  0  0  0  0  0
    3.8358   -2.3822   -2.3230 H   0  0  0  0  0  0  0  0  0  0  0  0
    4.6196   -0.8096   -2.1142 H   0  0  0  0  0  0  0  0  0  0  0  0
    3.8417   -1.0854   -4.7322 H   0  0  0  0  0  0  0  0  0  0  0  0
    5.3466   -0.9657   -4.1099 H   0  0  0  0  0  0  0  0  0  0  0  0
   -2.4833    0.2508   -0.3972 N   0  0  0  0  0  0  0  0  0  0  0  0
   -3.8174    0.7910   -0.5283 C   0  0  2  0  0  0  0  0  0  0  0  0
   -4.7950   -0.2262    0.0454 C   0  0  0  0  0  0  0  0  0  0  0  0
   -4.6242   -1.4407   -0.0361 O   0  0  0  0  0  0  0  0  0  0  0  0
   -4.1476    1.1038   -1.9794 C   0  0  0  0  0  0  0  0  0  0  0  0
   -2.3771   -0.7564   -0.4737 H   0  0  0  0  0  0  0  0  0  0  0  0
   -3.8481    1.7068    0.0720 H   0  0  0  0  0  0  0  0  0  0  0  0
   -4.1217    0.1982   -2.5964 H   0  0  0  0  0  0  0  0  0  0  0  0
   -5.1478    1.5395   -2.0737 H   0  0  0  0  0  0  0  0  0  0  0  0
   -3.4258    1.8128   -2.3993 H   0  0  0  0  0  0  0  0  0  0  0  0
   -5.9022    0.3813    0.6211 N   0  0  0  0  0  0  0  0  0  0  0  0
   -6.9926   -0.3706    1.1970 C   0  0  0  0  0  0  0  0  0  0  0  0
   -5.9418    1.3945    0.6803 H   0  0  0  0  0  0  0  0  0  0  0  0
   -7.7716   -0.5285    0.4366 H   0  0  0  0  0  0  0  0  0  0  0  0
   -6.6209   -1.3444    1.5486 H   0  0  0  0  0  0  0  0  0  0  0  0
   -7.4157    0.1882    2.0447 H   0  0  0  0  0  0  0  0  0  0  0  0
  1  3  1  0  0  0  0
  1  7  1  0  0  0  0
  1  2  2  0  0  0  0
 39 40  1  0  0  0  0
 40 48  1  0  0  0  0
 40 41  2  0  0  0  0
  8  9  1  0  0  0  0
  9 17  1  0  0  0  0
  9 10  2  0  0  0  0
 18 19  1  0  0  0  0
 19 38  1  0  0  0  0
 19 20  2  0  0  0  0
 39 42  1  0  0  0  0
  8 11  1  0  0  0  0
 48 49  1  0  0  0  0
 22 23  1  0  0  0  0
 21 22  1  0  0  0  0
 23 24  1  0  0  0  0
 18 21  1  0  0  0  0
 24 25  1  0  0  0  0
 38 39  1  0  0  0  0
  7  8  1  0  0  0  0
 17 18  1  0  0  0  0
  3  4  1  0  0  0  0
  3  5  1  0  0  0  0
  3  6  1  0  0  0  0
 42 45  1  0  0  0  0
 42 46  1  0  0  0  0
 42 47  1  0  0  0  0
 11 14  1  0  0  0  0
 11 15  1  0  0  0  0
 11 16  1  0  0  0  0
 49 51  1  0  0  0  0
 49 52  1  0  0  0  0
 49 53  1  0  0  0  0
 22 30  1  0  0  0  0
 22 31  1  0  0  0  0
 23 32  1  0  0  0  0
 23 33  1  0  0  0  0
 21 28  1  0  0  0  0
 21 29  1  0  0  0  0
 24 34  1  0  0  0  0
 24 35  1  0  0  0  0
 39 44  1  0  0  0  0
  8 13  1  0  0  0  0
 18 27  1  0  0  0  0
 25 36  1  0  0  0  0
 25 37  1  0  0  0  0
 48 50  1  0  0  0  0
  7 12  1  0  0  0  0
 38 43  1  0  0  0  0
 17 26  1  0  0  0  0
M  END
$$$$

  -OEChem-05262214473D

 53 52  0     1  0  0  0  0  0999 V2000
   -1.0338   -5.6785    0.1476 C   0  0  0  0  0  0  0  0  0  0  0  0
   -2.0514   -5.7797    0.8227 O   0  0  0  0  0  0  0  0  0  0  0  0
   -0.6558   -6.7819   -0.7841 C   0  0  0  0  0  0  0  0  0  0  0  0
   -0.0111   -7.5354   -0.3038 H   0  0  0  0  0  0  0  0  0  0  0  0
   -1.5317   -7.3401   -1.1520 H   0  0  0  0  0  0  0  0  0  0  0  0
   -0.1109   -6.4687   -1.6890 H   0  0  0  0  0  0  0  0  0  0  0  0
   -0.1543   -4.6083    0.1480 N   0  0  0  0  0  0  0  0  0  0  0  0
   -0.3302   -3.4398    0.9696 C   0  0  2  0  0  0  0  0  0  0  0  0
    0.2328   -2.2439    0.2131 C   0  0  0  0  0  0  0  0  0  0  0  0
    1.2097   -2.3192   -0.5294 O   0  0  0  0  0  0  0  0  0  0  0  0
    0.3557   -3.6024    2.3171 C   0  0  0  0  0  0  0  0  0  0  0  0
    0.6584   -4.6506   -0.4643 H   0  0  0  0  0  0  0  0  0  0  0  0
   -1.4091   -3.3101    1.1082 H   0  0  0  0  0  0  0  0  0  0  0  0
    1.4375   -3.7336    2.1985 H   0  0  0  0  0  0  0  0  0  0  0  0
    0.1969   -2.7243    2.9517 H   0  0  0  0  0  0  0  0  0  0  0  0
   -0.0294   -4.4803    2.8470 H   0  0  0  0  0  0  0  0  0  0  0  0
   -0.4616   -1.0893    0.5050 N   0  0  0  0  0  0  0  0  0  0  0  0
   -0.0884    0.2050   -0.0621 C   0  0  2  0  0  0  0  0  0  0  0  0
   -1.3603    1.0391   -0.1869 C   0  0  0  0  0  0  0  0  0  0  0  0
   -1.3491    2.2565   -0.3576 O   0  0  0  0  0  0  0  0  0  0  0  0
    0.5695    0.0672   -1.4432 C   0  0  0  0  0  0  0  0  0  0  0  0
    1.9479   -0.6002   -1.3962 C   0  0  0  0  0  0  0  0  0  0  0  0
    2.5679   -0.6899   -2.7933 C   0  0  0  0  0  0  0  0  0  0  0  0
    3.9315   -1.3776   -2.7493 C   0  0  0  0  0  0  0  0  0  0  0  0
    4.4934   -1.4739   -4.0912 N   0  0  0  0  0  0  0  0  0  0  0  0
   -1.2794   -1.1113    1.0935 H   0  0  0  0  0  0  0  0  0  0  0  0
    0.6003    0.7034    0.6307 H   0  0  0  0  0  0  0  0  0  0  0  0
    0.6740    1.0637   -1.8924 H   0  0  0  0  0  0  0  0  0  0  0  0
   -0.0893   -0.4979   -2.1164 H   0  0  0  0  0  0  0  0  0  0  0  0
    1.8653   -1.6090   -0.9763 H   0  0  0  0  0  0  0  0  0  0  0  0
    2.6108   -0.0260   -0.7378 H   0  0  0  0  0  0  0  0  0  0  0  0
    1.8923   -1.2444   -3.4568 H   0  0  0  0  0  0  0  0  0  0  0  0
    2.6751    0.3190   -3.2115 H   0  0  0  0  0  0  0  0  0  0  0  0
    3.8358   -2.3822   -2.3230 H   0  0  0  0  0  0  0  0  0  0  0  0
    4.6196   -0.8096   -2.1142 H   0  0  0  0  0  0  0  0  0  0  0  0
    3.8417   -1.0854   -4.7322 H   0  0  0  0  0  0  0  0  0  0  0  0
    5.3466   -0.9657   -4.1099 H   0  0  0  0  0  0  0  0  0  0  0  0
   -2.5063    0.2658   -0.0626 N   0  0  0  0  0  0  0  0  0  0  0  0
   -3.8423    0.8139   -0.1210 C   0  0  2  0  0  0  0  0  0  0  0  0
   -4.7330   -0.0202    0.7903 C   0  0  0  0  0  0  0  0  0  0  0  0
   -4.5825   -1.2295    0.9516 O   0  0  0  0  0  0  0  0  0  0  0  0
   -4.3759    0.8206   -1.5450 C   0  0  0  0  0  0  0  0  0  0  0  0
   -2.4179   -0.7376    0.0675 H   0  0  0  0  0  0  0  0  0  0  0  0
   -3.7812    1.8376    0.2643 H   0  0  0  0  0  0  0  0  0  0  0  0
   -4.4441   -0.1965   -1.9480 H   0  0  0  0  0  0  0  0  0  0  0  0
   -5.3768    1.2623   -1.5916 H   0  0  0  0  0  0  0  0  0  0  0  0
   -3.7181    1.3962   -2.2051 H   0  0  0  0  0  0  0  0  0  0  0  0
   -5.7424    0.7367    1.3685 N   0  0  0  0  0  0  0  0  0  0  0  0
   -6.7430    0.1661    2.2399 C   0  0  0  0  0  0  0  0  0  0  0  0
   -5.7675    1.7398    1.2111 H   0  0  0  0  0  0  0  0  0  0  0  0
   -7.6241   -0.1223    1.6480 H   0  0  0  0  0  0  0  0  0  0  0  0
   -6.3301   -0.7228    2.7395 H   0  0  0  0  0  0  0  0  0  0  0  0
   -7.0366    0.9086    2.9965 H   0  0  0  0  0  0  0  0  0  0  0  0
  1  3  1  0  0  0  0
  1  7  1  0  0  0  0
  1  2  2  0  0  0  0
 39 40  1  0  0  0  0
 40 48  1  0  0  0  0
 40 41  2  0  0  0  0
  8  9  1  0  0  0  0
  9 17  1  0  0  0  0
  9 10  2  0  0  0  0
 18 19  1  0  0  0  0
 19 38  1  0  0  0  0
 19 20  2  0  0  0  0
 39 42  1  0  0  0  0
  8 11  1  0  0  0  0
 48 49  1  0  0  0  0
 22 23  1  0  0  0  0
 21 22  1  0  0  0  0
 23 24  1  0  0  0  0
 18 21  1  0  0  0  0
 24 25  1  0  0  0  0
 38 39  1  0  0  0  0
  7  8  1  0  0  0  0
 17 18  1  0  0  0  0
  3  4  1  0  0  0  0
  3  5  1  0  0  0  0
  3  6  1  0  0  0  0
 42 45  1  0  0  0  0
 42 46  1  0  0  0  0
 42 47  1  0  0  0  0
 11 14  1  0  0  0  0
 11 15  1  0  0  0  0
 11 16  1  0  0  0  0
 49 51  1  0  0  0  0
 49 52  1  0  0  0  0
 49 53  1  0  0  0  0
 22 30  1  0  0  0  0
 22 31  1  0  0  0  0
 23 32  1  0  0  0  0
 23 33  1  0  0  0  0
 21 28  1  0  0  0  0
 21 29  1  0  0  0  0
 24 34  1  0  0  0  0
 24 35  1  0  0  0  0
 39 44  1  0  0  0  0
  8 13  1  0  0  0  0
 18 27  1  0  0  0  0
 25 36  1  0  0  0  0
 25 37  1  0  0  0  0
 48 50  1  0  0  0  0
  7 12  1  0  0  0  0
 38 43  1  0  0  0  0
 17 26  1  0  0  0  0
M  END
$$$$

  -OEChem-05262214473D

 53 52  0     1  0  0  0  0  0999 V2000
   -1.0338   -5.6785    0.1476 C   0  0  0  0  0  0  0  0  0  0  0  0
   -2.0514   -5.7797    0.8227 O   0  0  0  0  0  0  0  0  0  0  0  0
   -0.6558   -6.7819   -0.7841 C   0  0  0  0  0  0  0  0  0  0  0  0
   -0.0111   -7.5354   -0.3038 H   0  0  0  0  0  0  0  0  0  0  0  0
   -1.5317   -7.3401   -1.1520 H   0  0  0  0  0  0  0  0  0  0  0  0
   -0.1109   -6.4687   -1.6890 H   0  0  0  0  0  0  0  0  0  0  0  0
   -0.1543   -4.6083    0.1480 N   0  0  0  0  0  0  0  0  0  0  0  0
   -0.3302   -3.4398    0.9696 C   0  0  2  0  0  0  0  0  0  0  0  0
    0.2328   -2.2439    0.2131 C   0  0  0  0  0  0  0  0  0  0  0  0
    1.2097   -2.3192   -0.5294 O   0  0  0  0  0  0  0  0  0  0  0  0
    0.3557   -3.6024    2.3171 C   0  0  0  0  0  0  0  0  0  0  0  0
    0.6584   -4.6506   -0.4643 H   0  0  0  0  0  0  0  0  0  0  0  0
   -1.4091   -3.3101    1.1082 H   0  0  0  0  0  0  0  0  0  0  0  0
    1.4375   -3.7336    2.1985 H   0  0  0  0  0  0  0  0  0  0  0  0
    0.1969   -2.7243    2.9517 H   0  0  0  0  0  0  0  0  0  0  0  0
   -0.0294   -4.4803    2.8470 H   0  0  0  0  0  0  0  0  0  0  0  0
   -0.4616   -1.0893    0.5050 N   0  0  0  0  0  0  0  0  0  0  0  0
   -0.0884    0.2050   -0.0621 C   0  0  2  0  0  0  0  0  0  0  0  0
   -1.3603    1.0391   -0.1869 C   0  0  0  0  0  0  0  0  0  0  0  0
   -1.3669    2.1904   -0.6179 O   0  0  0  0  0  0  0  0  0  0  0  0
    0.5695    0.0672   -1.4432 C   0  0  0  0  0  0  0  0  0  0  0  0
    1.9479   -0.6002   -1.3962 C   0  0  0  0  0  0  0  0  0  0  0  0
    2.5679   -0.6899   -2.7933 C   0  0  0  0  0  0  0  0  0  0  0  0
    3.9315   -1.3776   -2.7493 C   0  0  0  0  0  0  0  0  0  0  0  0
    4.4934   -1.4739   -4.0912 N   0  0  0  0  0  0  0  0  0  0  0  0
   -1.2794   -1.1113    1.0935 H   0  0  0  0  0  0  0  0  0  0  0  0
    0.6003    0.7034    0.6307 H   0  0  0  0  0  0  0  0  0  0  0  0
    0.6740    1.0637   -1.8924 H   0  0  0  0  0  0  0  0  0  0  0  0
   -0.0893   -0.4979   -2.1164 H   0  0  0  0  0  0  0  0  0  0  0  0
    1.8653   -1.6090   -0.9763 H   0  0  0  0  0  0  0  0  0  0  0  0
    2.6108   -0.0260   -0.7378 H   0  0  0  0  0  0  0  0  0  0  0  0
    1.8923   -1.2444   -3.4568 H   0  0  0  0  0  0  0  0  0  0  0  0
    2.6751    0.3190   -3.2115 H   0  0  0  0  0  0  0  0  0  0  0  0
    3.8358   -2.3822   -2.3230 H   0  0  0  0  0  0  0  0  0  0  0  0
    4.6196   -0.8096   -2.1142 H   0  0  0  0  0  0  0  0  0  0  0  0
    3.8417   -1.0854   -4.7322 H   0  0  0  0  0  0  0  0  0  0  0  0
    5.3466   -0.9657   -4.1099 H   0  0  0  0  0  0  0  0  0  0  0  0
   -2.4808    0.3529    0.2606 N   0  0  0  0  0  0  0  0  0  0  0  0
   -3.8082    0.9244    0.2710 C   0  0  2  0  0  0  0  0  0  0  0  0
   -4.5634    0.3381    1.4565 C   0  0  0  0  0  0  0  0  0  0  0  0
   -4.3981   -0.8132    1.8542 O   0  0  0  0  0  0  0  0  0  0  0  0
   -4.5411    0.6455   -1.0320 C   0  0  0  0  0  0  0  0  0  0  0  0
   -2.3804   -0.6019    0.5920 H   0  0  0  0  0  0  0  0  0  0  0  0
   -3.6867    2.0039    0.4124 H   0  0  0  0  0  0  0  0  0  0  0  0
   -4.6722   -0.4311   -1.1910 H   0  0  0  0  0  0  0  0  0  0  0  0
   -5.5357    1.1034   -1.0337 H   0  0  0  0  0  0  0  0  0  0  0  0
   -3.9817    1.0418   -1.8863 H   0  0  0  0  0  0  0  0  0  0  0  0
   -5.4749    1.2378    1.9913 N   0  0  0  0  0  0  0  0  0  0  0  0
   -6.3430    0.9042    3.0963 C   0  0  0  0  0  0  0  0  0  0  0  0
   -5.5167    2.1842    1.6247 H   0  0  0  0  0  0  0  0  0  0  0  0
   -7.3017    0.5282    2.7097 H   0  0  0  0  0  0  0  0  0  0  0  0
   -5.8676    0.1284    3.7146 H   0  0  0  0  0  0  0  0  0  0  0  0
   -6.5206    1.8018    3.7068 H   0  0  0  0  0  0  0  0  0  0  0  0
  1  3  1  0  0  0  0
  1  7  1  0  0  0  0
  1  2  2  0  0  0  0
 39 40  1  0  0  0  0
 40 48  1  0  0  0  0
 40 41  2  0  0  0  0
  8  9  1  0  0  0  0
  9 17  1  0  0  0  0
  9 10  2  0  0  0  0
 18 19  1  0  0  0  0
 19 38  1  0  0  0  0
 19 20  2  0  0  0  0
 39 42  1  0  0  0  0
  8 11  1  0  0  0  0
 48 49  1  0  0  0  0
 22 23  1  0  0  0  0
 21 22  1  0  0  0  0
 23 24  1  0  0  0  0
 18 21  1  0  0  0  0
 24 25  1  0  0  0  0
 38 39  1  0  0  0  0
  7  8  1  0  0  0  0
 17 18  1  0  0  0  0
  3  4  1  0  0  0  0
  3  5  1  0  0  0  0
  3  6  1  0  0  0  0
 42 45  1  0  0  0  0
 42 46  1  0  0  0  0
 42 47  1  0  0  0  0
 11 14  1  0  0  0  0
 11 15  1  0  0  0  0
 11 16  1  0  0  0  0
 49 51  1  0  0  0  0
 49 52  1  0  0  0  0
 49 53  1  0  0  0  0
 22 30  1  0  0  0  0
 22 31  1  0  0  0  0
 23 32  1  0  0  0  0
 23 33  1  0  0  0  0
 21 28  1  0  0  0  0
 21 29  1  0  0  0  0
 24 34  1  0  0  0  0
 24 35  1  0  0  0  0
 39 44  1  0  0  0  0
  8 13  1  0  0  0  0
 18 27  1  0  0  0  0
 25 36  1  0  0  0  0
 25 37  1  0  0  0  0
 48 50  1  0  0  0  0
  7 12  1  0  0  0  0
 38 43  1  0  0  0  0
 17 26  1  0  0  0  0
M  END
$$$$

  -OEChem-05262214473D

 53 52  0     1  0  0  0  0  0999 V2000
   -1.0338   -5.6785    0.1476 C   0  0  0  0  0  0  0  0  0  0  0  0
   -2.0514   -5.7797    0.8227 O   0  0  0  0  0  0  0  0  0  0  0  0
   -0.6558   -6.7819   -0.7841 C   0  0  0  0  0  0  0  0  0  0  0  0
   -0.0111   -7.5354   -0.3038 H   0  0  0  0  0  0  0  0  0  0  0  0
   -1.5317   -7.3401   -1.1520 H   0  0  0  0  0  0  0  0  0  0  0  0
   -0.1109   -6.4687   -1.6890 H   0  0  0  0  0  0  0  0  0  0  0  0
   -0.1543   -4.6083    0.1480 N   0  0  0  0  0  0  0  0  0  0  0  0
   -0.3302   -3.4398    0.9696 C   0  0  2  0  0  0  0  0  0  0  0  0
    0.2328   -2.2439    0.2131 C   0  0  0  0  0  0  0  0  0  0  0  0
    1.2097   -2.3192   -0.5294 O   0  0  0  0  0  0  0  0  0  0  0  0
    0.3557   -3.6024    2.3171 C   0  0  0  0  0  0  0  0  0  0  0  0
    0.6584   -4.6506   -0.4643 H   0  0  0  0  0  0  0  0  0  0  0  0
   -1.4091   -3.3101    1.1082 H   0  0  0  0  0  0  0  0  0  0  0  0
    1.4375   -3.7336    2.1985 H   0  0  0  0  0  0  0  0  0  0  0  0
    0.1969   -2.7243    2.9517 H   0  0  0  0  0  0  0  0  0  0  0  0
   -0.0294   -4.4803    2.8470 H   0  0  0  0  0  0  0  0  0  0  0  0
   -0.4616   -1.0893    0.5050 N   0  0  0  0  0  0  0  0  0  0  0  0
   -0.0884    0.2050   -0.0621 C   0  0  2  0  0  0  0  0  0  0  0  0
   -1.3603    1.0391   -0.1869 C   0  0  0  0  0  0  0  0  0  0  0  0
   -1.4223    2.0708   -0.8525 O   0  0  0  0  0  0  0  0  0  0  0  0
    0.5695    0.0672   -1.4432 C   0  0  0  0  0  0  0  0  0  0  0  0
    1.9479   -0.6002   -1.3962 C   0  0  0  0  0  0  0  0  0  0  0  0
    2.5679   -0.6899   -2.7933 C   0  0  0  0  0  0  0  0  0  0  0  0
    3.9315   -1.3776   -2.7493 C   0  0  0  0  0  0  0  0  0  0  0  0
    4.4934   -1.4739   -4.0912 N   0  0  0  0  0  0  0  0  0  0  0  0
   -1.2794   -1.1113    1.0935 H   0  0  0  0  0  0  0  0  0  0  0  0
    0.6003    0.7034    0.6307 H   0  0  0  0  0  0  0  0  0  0  0  0
    0.6740    1.0637   -1.8924 H   0  0  0  0  0  0  0  0  0  0  0  0
   -0.0893   -0.4979   -2.1164 H   0  0  0  0  0  0  0  0  0  0  0  0
    1.8653   -1.6090   -0.9763 H   0  0  0  0  0  0  0  0  0  0  0  0
    2.6108   -0.0260   -0.7378 H   0  0  0  0  0  0  0  0  0  0  0  0
    1.8923   -1.2444   -3.4568 H   0  0  0  0  0  0  0  0  0  0  0  0
    2.6751    0.3190   -3.2115 H   0  0  0  0  0  0  0  0  0  0  0  0
    3.8358   -2.3822   -2.3230 H   0  0  0  0  0  0  0  0  0  0  0  0
    4.6196   -0.8096   -2.1142 H   0  0  0  0  0  0  0  0  0  0  0  0
    3.8417   -1.0854   -4.7322 H   0  0  0  0  0  0  0  0  0  0  0  0
    5.3466   -0.9657   -4.1099 H   0  0  0  0  0  0  0  0  0  0  0  0
   -2.4087    0.5062    0.5504 N   0  0  0  0  0  0  0  0  0  0  0  0
   -3.7176    1.1150    0.6210 C   0  0  2  0  0  0  0  0  0  0  0  0
   -4.2978    0.8244    1.9988 C   0  0  0  0  0  0  0  0  0  0  0  0
   -4.0835   -0.2203    2.6101 O   0  0  0  0  0  0  0  0  0  0  0  0
   -4.6317    0.5906   -0.4754 C   0  0  0  0  0  0  0  0  0  0  0  0
   -2.2670   -0.3585    1.0640 H   0  0  0  0  0  0  0  0  0  0  0  0
   -3.5709    2.1945    0.5062 H   0  0  0  0  0  0  0  0  0  0  0  0
   -4.7904   -0.4895   -0.3768 H   0  0  0  0  0  0  0  0  0  0  0  0
   -5.6136    1.0737   -0.4381 H   0  0  0  0  0  0  0  0  0  0  0  0
   -4.1987    0.7739   -1.4647 H   0  0  0  0  0  0  0  0  0  0  0  0
   -5.1179    1.8505    2.4468 N   0  0  0  0  0  0  0  0  0  0  0  0
   -5.8199    1.7934    3.7077 C   0  0  0  0  0  0  0  0  0  0  0  0
   -5.2065    2.6973    1.8929 H   0  0  0  0  0  0  0  0  0  0  0  0
   -6.8263    1.3788    3.5492 H   0  0  0  0  0  0  0  0  0  0  0  0
   -5.2649    1.1512    4.4075 H   0  0  0  0  0  0  0  0  0  0  0  0
   -5.9029    2.8069    4.1273 H   0  0  0  0  0  0  0  0  0  0  0  0
  1  3  1  0  0  0  0
  1  7  1  0  0  0  0
  1  2  2  0  0  0  0
 39 40  1  0  0  0  0
 40 48  1  0  0  0  0
 40 41  2  0  0  0  0
  8  9  1  0  0  0  0
  9 17  1  0  0  0  0
  9 10  2  0  0  0  0
 18 19  1  0  0  0  0
 19 38  1  0  0  0  0
 19 20  2  0  0  0  0
 39 42  1  0  0  0  0
  8 11  1  0  0  0  0
 48 49  1  0  0  0  0
 22 23  1  0  0  0  0
 21 22  1  0  0  0  0
 23 24  1  0  0  0  0
 18 21  1  0  0  0  0
 24 25  1  0  0  0  0
 38 39  1  0  0  0  0
  7  8  1  0  0  0  0
 17 18  1  0  0  0  0
  3  4  1  0  0  0  0
  3  5  1  0  0  0  0
  3  6  1  0  0  0  0
 42 45  1  0  0  0  0
 42 46  1  0  0  0  0
 42 47  1  0  0  0  0
 11 14  1  0  0  0  0
 11 15  1  0  0  0  0
 11 16  1  0  0  0  0
 49 51  1  0  0  0  0
 49 52  1  0  0  0  0
 49 53  1  0  0  0  0
 22 30  1  0  0  0  0
 22 31  1  0  0  0  0
 23 32  1  0  0  0  0
 23 33  1  0  0  0  0
 21 28  1  0  0  0  0
 21 29  1  0  0  0  0
 24 34  1  0  0  0  0
 24 35  1  0  0  0  0
 39 44  1  0  0  0  0
  8 13  1  0  0  0  0
 18 27  1  0  0  0  0
 25 36  1  0  0  0  0
 25 37  1  0  0  0  0
 48 50  1  0  0  0  0
  7 12  1  0  0  0  0
 38 43  1  0  0  0  0
 17 26  1  0  0  0  0
M  END
$$$$

  -OEChem-05262214473D

 53 52  0     1  0  0  0  0  0999 V2000
   -1.0338   -5.6785    0.1476 C   0  0  0  0  0  0  0  0  0  0  0  0
   -2.0514   -5.7797    0.8227 O   0  0  0  0  0  0  0  0  0  0  0  0
   -0.6558   -6.7819   -0.7841 C   0  0  0  0  0  0  0  0  0  0  0  0
   -0.0111   -7.5354   -0.3038 H   0  0  0  0  0  0  0  0  0  0  0  0
   -1.5317   -7.3401   -1.1520 H   0  0  0  0  0  0  0  0  0  0  0  0
   -0.1109   -6.4687   -1.6890 H   0  0  0  0  0  0  0  0  0  0  0  0
   -0.1543   -4.6083    0.1480 N   0  0  0  0  0  0  0  0  0  0  0  0
   -0.3302   -3.4398    0.9696 C   0  0  2  0  0  0  0  0  0  0  0  0
    0.2328   -2.2439    0.2131 C   0  0  0  0  0  0  0  0  0  0  0  0
    1.2097   -2.3192   -0.5294 O   0  0  0  0  0  0  0  0  0  0  0  0
    0.3557   -3.6024    2.3171 C   0  0  0  0  0  0  0  0  0  0  0  0
    0.6584   -4.6506   -0.4643 H   0  0  0  0  0  0  0  0  0  0  0  0
   -1.4091   -3.3101    1.1082 H   0  0  0  0  0  0  0  0  0  0  0  0
    1.4375   -3.7336    2.1985 H   0  0  0  0  0  0  0  0  0  0  0  0
    0.1969   -2.7243    2.9517 H   0  0  0  0  0  0  0  0  0  0  0  0
   -0.0294   -4.4803    2.8470 H   0  0  0  0  0  0  0  0  0  0  0  0
   -0.4616   -1.0893    0.5050 N   0  0  0  0  0  0  0  0  0  0  0  0
   -0.0884    0.2050   -0.0621 C   0  0  2  0  0  0  0  0  0  0  0  0
   -1.3603    1.0391   -0.1869 C   0  0  0  0  0  0  0  0  0  0  0  0
   -1.5116    1.9059   -1.0454 O   0  0  0  0  0  0  0  0  0  0  0  0
    0.5695    0.0672   -1.4432 C   0  0  0  0  0  0  0  0  0  0  0  0
    1.9479   -0.6002   -1.3962 C   0  0  0  0  0  0  0  0  0  0  0  0
    2.5679   -0.6899   -2.7933 C   0  0  0  0  0  0  0  0  0  0  0  0
    3.9315   -1.3776   -2.7493 C   0  0  0  0  0  0  0  0  0  0  0  0
    4.4934   -1.4739   -4.0912 N   0  0  0  0  0  0  0  0  0  0  0  0
   -1.2794   -1.1113    1.0935 H   0  0  0  0  0  0  0  0  0  0  0  0
    0.6003    0.7034    0.6307 H   0  0  0  0  0  0  0  0  0  0  0  0
    0.6740    1.0637   -1.8924 H   0  0  0  0  0  0  0  0  0  0  0  0
   -0.0893   -0.4979   -2.1164 H   0  0  0  0  0  0  0  0  0  0  0  0
    1.8653   -1.6090   -0.9763 H   0  0  0  0  0  0  0  0  0  0  0  0
    2.6108   -0.0260   -0.7378 H   0  0  0  0  0  0  0  0  0  0  0  0
    1.8923   -1.2444   -3.4568 H   0  0  0  0  0  0  0  0  0  0  0  0
    2.6751    0.3190   -3.2115 H   0  0  0  0  0  0  0  0  0  0  0  0
    3.8358   -2.3822   -2.3230 H   0  0  0  0  0  0  0  0  0  0  0  0
    4.6196   -0.8096   -2.1142 H   0  0  0  0  0  0  0  0  0  0  0  0
    3.8417   -1.0854   -4.7322 H   0  0  0  0  0  0  0  0  0  0  0  0
    5.3466   -0.9657   -4.1099 H   0  0  0  0  0  0  0  0  0  0  0  0
   -2.2948    0.7153    0.7871 N   0  0  0  0  0  0  0  0  0  0  0  0
   -3.5765    1.3727    0.9051 C   0  0  2  0  0  0  0  0  0  0  0  0
   -3.9542    1.4054    2.3802 C   0  0  0  0  0  0  0  0  0  0  0  0
   -3.6601    0.5087    3.1679 O   0  0  0  0  0  0  0  0  0  0  0  0
   -4.6417    0.6595    0.0870 C   0  0  0  0  0  0  0  0  0  0  0  0
   -2.0856   -0.0239    1.4514 H   0  0  0  0  0  0  0  0  0  0  0  0
   -3.4417    2.3965    0.5393 H   0  0  0  0  0  0  0  0  0  0  0  0
   -4.7907   -0.3679    0.4389 H   0  0  0  0  0  0  0  0  0  0  0  0
   -5.6053    1.1750    0.1546 H   0  0  0  0  0  0  0  0  0  0  0  0
   -4.3544    0.6107   -0.9689 H   0  0  0  0  0  0  0  0  0  0  0  0
   -4.6955    2.5331    2.7042 N   0  0  0  0  0  0  0  0  0  0  0  0
   -5.2093    2.7731    4.0325 C   0  0  0  0  0  0  0  0  0  0  0  0
   -4.8581    3.2442    1.9974 H   0  0  0  0  0  0  0  0  0  0  0  0
   -6.2304    2.3714    4.1094 H   0  0  0  0  0  0  0  0  0  0  0  0
   -4.5632    2.2758    4.7708 H   0  0  0  0  0  0  0  0  0  0  0  0
   -5.2254    3.8553    4.2292 H   0  0  0  0  0  0  0  0  0  0  0  0
  1  3  1  0  0  0  0
  1  7  1  0  0  0  0
  1  2  2  0  0  0  0
 39 40  1  0  0  0  0
 40 48  1  0  0  0  0
 40 41  2  0  0  0  0
  8  9  1  0  0  0  0
  9 17  1  0  0  0  0
  9 10  2  0  0  0  0
 18 19  1  0  0  0  0
 19 38  1  0  0  0  0
 19 20  2  0  0  0  0
 39 42  1  0  0  0  0
  8 11  1  0  0  0  0
 48 49  1  0  0  0  0
 22 23  1  0  0  0  0
 21 22  1  0  0  0  0
 23 24  1  0  0  0  0
 18 21  1  0  0  0  0
 24 25  1  0  0  0  0
 38 39  1  0  0  0  0
  7  8  1  0  0  0  0
 17 18  1  0  0  0  0
  3  4  1  0  0  0  0
  3  5  1  0  0  0  0
  3  6  1  0  0  0  0
 42 45  1  0  0  0  0
 42 46  1  0  0  0  0
 42 47  1  0  0  0  0
 11 14  1  0  0  0  0
 11 15  1  0  0  0  0
 11 16  1  0  0  0  0
 49 51  1  0  0  0  0
 49 52  1  0  0  0  0
 49 53  1  0  0  0  0
 22 30  1  0  0  0  0
 22 31  1  0  0  0  0
 23 32  1  0  0  0  0
 23 33  1  0  0  0  0
 21 28  1  0  0  0  0
 21 29  1  0  0  0  0
 24 34  1  0  0  0  0
 24 35  1  0  0  0  0
 39 44  1  0  0  0  0
  8 13  1  0  0  0  0
 18 27  1  0  0  0  0
 25 36  1  0  0  0  0
 25 37  1  0  0  0  0
 48 50  1  0  0  0  0
  7 12  1  0  0  0  0
 38 43  1  0  0  0  0
 17 26  1  0  0  0  0
M  END
$$$$

  -OEChem-05262214473D

 53 52  0     1  0  0  0  0  0999 V2000
   -1.0338   -5.6785    0.1476 C   0  0  0  0  0  0  0  0  0  0  0  0
   -2.0514   -5.7797    0.8227 O   0  0  0  0  0  0  0  0  0  0  0  0
   -0.6558   -6.7819   -0.7841 C   0  0  0  0  0  0  0  0  0  0  0  0
   -0.0111   -7.5354   -0.3038 H   0  0  0  0  0  0  0  0  0  0  0  0
   -1.5317   -7.3401   -1.1520 H   0  0  0  0  0  0  0  0  0  0  0  0
   -0.1109   -6.4687   -1.6890 H   0  0  0  0  0  0  0  0  0  0  0  0
   -0.1543   -4.6083    0.1480 N   0  0  0  0  0  0  0  0  0  0  0  0
   -0.3302   -3.4398    0.9696 C   0  0  2  0  0  0  0  0  0  0  0  0
    0.2328   -2.2439    0.2131 C   0  0  0  0  0  0  0  0  0  0  0  0
    1.2097   -2.3192   -0.5294 O   0  0  0  0  0  0  0  0  0  0  0  0
    0.3557   -3.6024    2.3171 C   0  0  0  0  0  0  0  0  0  0  0  0
    0.6584   -4.6506   -0.4643 H   0  0  0  0  0  0  0  0  0  0  0  0
   -1.4091   -3.3101    1.1082 H   0  0  0  0  0  0  0  0  0  0  0  0
    1.4375   -3.7336    2.1985 H   0  0  0  0  0  0  0  0  0  0  0  0
    0.1969   -2.7243    2.9517 H   0  0  0  0  0  0  0  0  0  0  0  0
   -0.0294   -4.4803    2.8470 H   0  0  0  0  0  0  0  0  0  0  0  0
   -0.4616   -1.0893    0.5050 N   0  0  0  0  0  0  0  0  0  0  0  0
   -0.0884    0.2050   -0.0621 C   0  0  2  0  0  0  0  0  0  0  0  0
   -1.3603    1.0391   -0.1869 C   0  0  0  0  0  0  0  0  0  0  0  0
   -1.6285    1.7068   -1.1836 O   0  0  0  0  0  0  0  0  0  0  0  0
    0.5695    0.0672   -1.4432 C   0  0  0  0  0  0  0  0  0  0  0  0
    1.9479   -0.6002   -1.3962 C   0  0  0  0  0  0  0  0  0  0  0  0
    2.5679   -0.6899   -2.7933 C   0  0  0  0  0  0  0  0  0  0  0  0
    3.9315   -1.3776   -2.7493 C   0  0  0  0  0  0  0  0  0  0  0  0
    4.4934   -1.4739   -4.0912 N   0  0  0  0  0  0  0  0  0  0  0  0
   -1.2794   -1.1113    1.0935 H   0  0  0  0  0  0  0  0  0  0  0  0
    0.6003    0.7034    0.6307 H   0  0  0  0  0  0  0  0  0  0  0  0
    0.6740    1.0637   -1.8924 H   0  0  0  0  0  0  0  0  0  0  0  0
   -0.0893   -0.4979   -2.1164 H   0  0  0  0  0  0  0  0  0  0  0  0
    1.8653   -1.6090   -0.9763 H   0  0  0  0  0  0  0  0  0  0  0  0
    2.6108   -0.0260   -0.7378 H   0  0  0  0  0  0  0  0  0  0  0  0
    1.8923   -1.2444   -3.4568 H   0  0  0  0  0  0  0  0  0  0  0  0
    2.6751    0.3190   -3.2115 H   0  0  0  0  0  0  0  0  0  0  0  0
    3.8358   -2.3822   -2.3230 H   0  0  0  0  0  0  0  0  0  0  0  0
    4.6196   -0.8096   -2.1142 H   0  0  0  0  0  0  0  0  0  0  0  0
    3.8417   -1.0854   -4.7322 H   0  0  0  0  0  0  0  0  0  0  0  0
    5.3466   -0.9657   -4.1099 H   0  0  0  0  0  0  0  0  0  0  0  0
   -2.1469    0.9660    0.9545 N   0  0  0  0  0  0  0  0  0  0  0  0
   -3.3945    1.6799    1.1040 C   0  0  2  0  0  0  0  0  0  0  0  0
   -3.5561    2.0416    2.5746 C   0  0  0  0  0  0  0  0  0  0  0  0
   -3.1569    1.3243    3.4895 O   0  0  0  0  0  0  0  0  0  0  0  0
   -4.5703    0.8476    0.6167 C   0  0  0  0  0  0  0  0  0  0  0  0
   -1.8485    0.3790    1.7278 H   0  0  0  0  0  0  0  0  0  0  0  0
   -3.3080    2.5959    0.5094 H   0  0  0  0  0  0  0  0  0  0  0  0
   -4.6729   -0.0744    1.2006 H   0  0  0  0  0  0  0  0  0  0  0  0
   -5.5113    1.4006    0.7041 H   0  0  0  0  0  0  0  0  0  0  0  0
   -4.4381    0.5632   -0.4328 H   0  0  0  0  0  0  0  0  0  0  0  0
   -4.2368    3.2389    2.7458 N   0  0  0  0  0  0  0  0  0  0  0  0
   -4.5528    3.7766    4.0485 C   0  0  0  0  0  0  0  0  0  0  0  0
   -4.4953    3.7877    1.9311 H   0  0  0  0  0  0  0  0  0  0  0  0
   -5.5545    3.4384    4.3521 H   0  0  0  0  0  0  0  0  0  0  0  0
   -3.8101    3.4256    4.7800 H   0  0  0  0  0  0  0  0  0  0  0  0
   -4.5344    4.8756    4.0057 H   0  0  0  0  0  0  0  0  0  0  0  0
  1  3  1  0  0  0  0
  1  7  1  0  0  0  0
  1  2  2  0  0  0  0
 39 40  1  0  0  0  0
 40 48  1  0  0  0  0
 40 41  2  0  0  0  0
  8  9  1  0  0  0  0
  9 17  1  0  0  0  0
  9 10  2  0  0  0  0
 18 19  1  0  0  0  0
 19 38  1  0  0  0  0
 19 20  2  0  0  0  0
 39 42  1  0  0  0  0
  8 11  1  0  0  0  0
 48 49  1  0  0  0  0
 22 23  1  0  0  0  0
 21 22  1  0  0  0  0
 23 24  1  0  0  0  0
 18 21  1  0  0  0  0
 24 25  1  0  0  0  0
 38 39  1  0  0  0  0
  7  8  1  0  0  0  0
 17 18  1  0  0  0  0
  3  4  1  0  0  0  0
  3  5  1  0  0  0  0
  3  6  1  0  0  0  0
 42 45  1  0  0  0  0
 42 46  1  0  0  0  0
 42 47  1  0  0  0  0
 11 14  1  0  0  0  0
 11 15  1  0  0  0  0
 11 16  1  0  0  0  0
 49 51  1  0  0  0  0
 49 52  1  0  0  0  0
 49 53  1  0  0  0  0
 22 30  1  0  0  0  0
 22 31  1  0  0  0  0
 23 32  1  0  0  0  0
 23 33  1  0  0  0  0
 21 28  1  0  0  0  0
 21 29  1  0  0  0  0
 24 34  1  0  0  0  0
 24 35  1  0  0  0  0
 39 44  1  0  0  0  0
  8 13  1  0  0  0  0
 18 27  1  0  0  0  0
 25 36  1  0  0  0  0
 25 37  1  0  0  0  0
 48 50  1  0  0  0  0
  7 12  1  0  0  0  0
 38 43  1  0  0  0  0
 17 26  1  0  0  0  0
M  END
$$$$

  -OEChem-05262214473D

 53 52  0     1  0  0  0  0  0999 V2000
   -1.0338   -5.6785    0.1476 C   0  0  0  0  0  0  0  0  0  0  0  0
   -2.0514   -5.7797    0.8227 O   0  0  0  0  0  0  0  0  0  0  0  0
   -0.6558   -6.7819   -0.7841 C   0  0  0  0  0  0  0  0  0  0  0  0
   -0.0111   -7.5354   -0.3038 H   0  0  0  0  0  0  0  0  0  0  0  0
   -1.5317   -7.3401   -1.1520 H   0  0  0  0  0  0  0  0  0  0  0  0
   -0.1109   -6.4687   -1.6890 H   0  0  0  0  0  0  0  0  0  0  0  0
   -0.1543   -4.6083    0.1480 N   0  0  0  0  0  0  0  0  0  0  0  0
   -0.3302   -3.4398    0.9696 C   0  0  2  0  0  0  0  0  0  0  0  0
    0.2328   -2.2439    0.2131 C   0  0  0  0  0  0  0  0  0  0  0  0
    1.2097   -2.3192   -0.5294 O   0  0  0  0  0  0  0  0  0  0  0  0
    0.3557   -3.6024    2.3171 C   0  0  0  0  0  0  0  0  0  0  0  0
    0.6584   -4.6506   -0.4643 H   0  0  0  0  0  0  0  0  0  0  0  0
   -1.4091   -3.3101    1.1082 H   0  0  0  0  0  0  0  0  0  0  0  0
    1.4375   -3.7336    2.1985 H   0  0  0  0  0  0  0  0  0  0  0  0
    0.1969   -2.7243    2.9517 H   0  0  0  0  0  0  0  0  0  0  0  0
   -0.0294   -4.4803    2.8470 H   0  0  0  0  0  0  0  0  0  0  0  0
   -0.4616   -1.0893    0.5050 N   0  0  0  0  0  0  0  0  0  0  0  0
   -0.0884    0.2050   -0.0621 C   0  0  2  0  0  0  0  0  0  0  0  0
   -1.3603    1.0391   -0.1869 C   0  0  0  0  0  0  0  0  0  0  0  0
   -1.7653    1.4872   -1.2576 O   0  0  0  0  0  0  0  0  0  0  0  0
    0.5695    0.0672   -1.4432 C   0  0  0  0  0  0  0  0  0  0  0  0
    1.9479   -0.6002   -1.3962 C   0  0  0  0  0  0  0  0  0  0  0  0
    2.5679   -0.6899   -2.7933 C   0  0  0  0  0  0  0  0  0  0  0  0
    3.9315   -1.3776   -2.7493 C   0  0  0  0  0  0  0  0  0  0  0  0
    4.4934   -1.4739   -4.0912 N   0  0  0  0  0  0  0  0  0  0  0  0
   -1.2794   -1.1113    1.0935 H   0  0  0  0  0  0  0  0  0  0  0  0
    0.6003    0.7034    0.6307 H   0  0  0  0  0  0  0  0  0  0  0  0
    0.6740    1.0637   -1.8924 H   0  0  0  0  0  0  0  0  0  0  0  0
   -0.0893   -0.4979   -2.1164 H   0  0  0  0  0  0  0  0  0  0  0  0
    1.8653   -1.6090   -0.9763 H   0  0  0  0  0  0  0  0  0  0  0  0
    2.6108   -0.0260   -0.7378 H   0  0  0  0  0  0  0  0  0  0  0  0
    1.8923   -1.2444   -3.4568 H   0  0  0  0  0  0  0  0  0  0  0  0
    2.6751    0.3190   -3.2115 H   0  0  0  0  0  0  0  0  0  0  0  0
    3.8358   -2.3822   -2.3230 H   0  0  0  0  0  0  0  0  0  0  0  0
    4.6196   -0.8096   -2.1142 H   0  0  0  0  0  0  0  0  0  0  0  0
    3.8417   -1.0854   -4.7322 H   0  0  0  0  0  0  0  0  0  0  0  0
    5.3466   -0.9657   -4.1099 H   0  0  0  0  0  0  0  0  0  0  0  0
   -1.9750    1.2410    1.0411 N   0  0  0  0  0  0  0  0  0  0  0  0
   -3.1842    2.0157    1.2041 C   0  0  2  0  0  0  0  0  0  0  0  0
   -3.1306    2.6897    2.5688 C   0  0  0  0  0  0  0  0  0  0  0  0
   -2.6080    2.1709    3.5531 O   0  0  0  0  0  0  0  0  0  0  0  0
   -4.4224    1.1420    1.0777 C   0  0  0  0  0  0  0  0  0  0  0  0
   -1.5719    0.8228    1.8743 H   0  0  0  0  0  0  0  0  0  0  0  0
   -3.1789    2.7793    0.4186 H   0  0  0  0  0  0  0  0  0  0  0  0
   -4.4453    0.3709    1.8564 H   0  0  0  0  0  0  0  0  0  0  0  0
   -5.3380    1.7351    1.1729 H   0  0  0  0  0  0  0  0  0  0  0  0
   -4.4441    0.6348    0.1071 H   0  0  0  0  0  0  0  0  0  0  0  0
   -3.7728    3.9200    2.5689 N   0  0  0  0  0  0  0  0  0  0  0  0
   -3.8953    4.7355    3.7546 C   0  0  0  0  0  0  0  0  0  0  0  0
   -4.1427    4.2907    1.6985 H   0  0  0  0  0  0  0  0  0  0  0  0
   -4.8448    4.5072    4.2608 H   0  0  0  0  0  0  0  0  0  0  0  0
   -3.0571    4.5223    4.4343 H   0  0  0  0  0  0  0  0  0  0  0  0
   -3.8769    5.7984    3.4720 H   0  0  0  0  0  0  0  0  0  0  0  0
  1  3  1  0  0  0  0
  1  7  1  0  0  0  0
  1  2  2  0  0  0  0
 39 40  1  0  0  0  0
 40 48  1  0  0  0  0
 40 41  2  0  0  0  0
  8  9  1  0  0  0  0
  9 17  1  0  0  0  0
  9 10  2  0  0  0  0
 18 19  1  0  0  0  0
 19 38  1  0  0  0  0
 19 20  2  0  0  0  0
 39 42  1  0  0  0  0
  8 11  1  0  0  0  0
 48 49  1  0  0  0  0
 22 23  1  0  0  0  0
 21 22  1  0  0  0  0
 23 24  1  0  0  0  0
 18 21  1  0  0  0  0
 24 25  1  0  0  0  0
 38 39  1  0  0  0  0
  7  8  1  0  0  0  0
 17 18  1  0  0  0  0
  3  4  1  0  0  0  0
  3  5  1  0  0  0  0
  3  6  1  0  0  0  0
 42 45  1  0  0  0  0
 42 46  1  0  0  0  0
 42 47  1  0  0  0  0
 11 14  1  0  0  0  0
 11 15  1  0  0  0  0
 11 16  1  0  0  0  0
 49 51  1  0  0  0  0
 49 52  1  0  0  0  0
 49 53  1  0  0  0  0
 22 30  1  0  0  0  0
 22 31  1  0  0  0  0
 23 32  1  0  0  0  0
 23 33  1  0  0  0  0
 21 28  1  0  0  0  0
 21 29  1  0  0  0  0
 24 34  1  0  0  0  0
 24 35  1  0  0  0  0
 39 44  1  0  0  0  0
  8 13  1  0  0  0  0
 18 27  1  0  0  0  0
 25 36  1  0  0  0  0
 25 37  1  0  0  0  0
 48 50  1  0  0  0  0
  7 12  1  0  0  0  0
 38 43  1  0  0  0  0
 17 26  1  0  0  0  0
M  END
$$$$

  -OEChem-05262214473D

 53 52  0     1  0  0  0  0  0999 V2000
   -1.0338   -5.6785    0.1476 C   0  0  0  0  0  0  0  0  0  0  0  0
   -2.0514   -5.7797    0.8227 O   0  0  0  0  0  0  0  0  0  0  0  0
   -0.6558   -6.7819   -0.7841 C   0  0  0  0  0  0  0  0  0  0  0  0
   -0.0111   -7.5354   -0.3038 H   0  0  0  0  0  0  0  0  0  0  0  0
   -1.5317   -7.3401   -1.1520 H   0  0  0  0  0  0  0  0  0  0  0  0
   -0.1109   -6.4687   -1.6890 H   0  0  0  0  0  0  0  0  0  0  0  0
   -0.1543   -4.6083    0.1480 N   0  0  0  0  0  0  0  0  0  0  0  0
   -0.3302   -3.4398    0.9696 C   0  0  2  0  0  0  0  0  0  0  0  0
    0.2328   -2.2439    0.2131 C   0  0  0  0  0  0  0  0  0  0  0  0
    1.2097   -2.3192   -0.5294 O   0  0  0  0  0  0  0  0  0  0  0  0
    0.3557   -3.6024    2.3171 C   0  0  0  0  0  0  0  0  0  0  0  0
    0.6584   -4.6506   -0.4643 H   0  0  0  0  0  0  0  0  0  0  0  0
   -1.4091   -3.3101    1.1082 H   0  0  0  0  0  0  0  0  0  0  0  0
    1.4375   -3.7336    2.1985 H   0  0  0  0  0  0  0  0  0  0  0  0
    0.1969   -2.7243    2.9517 H   0  0  0  0  0  0  0  0  0  0  0  0
   -0.0294   -4.4803    2.8470 H   0  0  0  0  0  0  0  0  0  0  0  0
   -0.4616   -1.0893    0.5050 N   0  0  0  0  0  0  0  0  0  0  0  0
   -0.0884    0.2050   -0.0621 C   0  0  2  0  0  0  0  0  0  0  0  0
   -1.3603    1.0391   -0.1869 C   0  0  0  0  0  0  0  0  0  0  0  0
   -1.9125    1.2620   -1.2624 O   0  0  0  0  0  0  0  0  0  0  0  0
    0.5695    0.0672   -1.4432 C   0  0  0  0  0  0  0  0  0  0  0  0
    1.9479   -0.6002   -1.3962 C   0  0  0  0  0  0  0  0  0  0  0  0
    2.5679   -0.6899   -2.7933 C   0  0  0  0  0  0  0  0  0  0  0  0
    3.9315   -1.3776   -2.7493 C   0  0  0  0  0  0  0  0  0  0  0  0
    4.4934   -1.4739   -4.0912 N   0  0  0  0  0  0  0  0  0  0  0  0
   -1.2794   -1.1113    1.0935 H   0  0  0  0  0  0  0  0  0  0  0  0
    0.6003    0.7034    0.6307 H   0  0  0  0  0  0  0  0  0  0  0  0
    0.6740    1.0637   -1.8924 H   0  0  0  0  0  0  0  0  0  0  0  0
   -0.0893   -0.4979   -2.1164 H   0  0  0  0  0  0  0  0  0  0  0  0
    1.8653   -1.6090   -0.9763 H   0  0  0  0  0  0  0  0  0  0  0  0
    2.6108   -0.0260   -0.7378 H   0  0  0  0  0  0  0  0  0  0  0  0
    1.8923   -1.2444   -3.4568 H   0  0  0  0  0  0  0  0  0  0  0  0
    2.6751    0.3190   -3.2115 H   0  0  0  0  0  0  0  0  0  0  0  0
    3.8358   -2.3822   -2.3230 H   0  0  0  0  0  0  0  0  0  0  0  0
    4.6196   -0.8096   -2.1142 H   0  0  0  0  0  0  0  0  0  0  0  0
    3.8417   -1.0854   -4.7322 H   0  0  0  0  0  0  0  0  0  0  0  0
    5.3466   -0.9657   -4.1099 H   0  0  0  0  0  0  0  0  0  0  0  0
   -1.7910    1.5218    1.0412 N   0  0  0  0  0  0  0  0  0  0  0  0
   -2.9597    2.3572    1.1986 C   0  0  2  0  0  0  0  0  0  0  0  0
   -2.7066    3.3054    2.3633 C   0  0  0  0  0  0  0  0  0  0  0  0
   -2.0510    2.9906    3.3542 O   0  0  0  0  0  0  0  0  0  0  0  0
   -4.2082    1.5227    1.4385 C   0  0  0  0  0  0  0  0  0  0  0  0
   -1.2746    1.2772    1.8810 H   0  0  0  0  0  0  0  0  0  0  0  0
   -3.0631    2.9341    0.2731 H   0  0  0  0  0  0  0  0  0  0  0  0
   -4.1232    0.9377    2.3616 H   0  0  0  0  0  0  0  0  0  0  0  0
   -5.0972    2.1556    1.5291 H   0  0  0  0  0  0  0  0  0  0  0  0
   -4.3720    0.8206    0.6140 H   0  0  0  0  0  0  0  0  0  0  0  0
   -3.3352    4.5299    2.1854 N   0  0  0  0  0  0  0  0  0  0  0  0
   -3.2814    5.5844    3.1709 C   0  0  0  0  0  0  0  0  0  0  0  0
   -3.8243    4.7188    1.3154 H   0  0  0  0  0  0  0  0  0  0  0  0
   -4.1495    5.5047    3.8417 H   0  0  0  0  0  0  0  0  0  0  0  0
   -2.3554    5.4911    3.7572 H   0  0  0  0  0  0  0  0  0  0  0  0
   -3.2979    6.5607    2.6644 H   0  0  0  0  0  0  0  0  0  0  0  0
  1  3  1  0  0  0  0
  1  7  1  0  0  0  0
  1  2  2  0  0  0  0
 39 40  1  0  0  0  0
 40 48  1  0  0  0  0
 40 41  2  0  0  0  0
  8  9  1  0  0  0  0
  9 17  1  0  0  0  0
  9 10  2  0  0  0  0
 18 19  1  0  0  0  0
 19 38  1  0  0  0  0
 19 20  2  0  0  0  0
 39 42  1  0  0  0  0
  8 11  1  0  0  0  0
 48 49  1  0  0  0  0
 22 23  1  0  0  0  0
 21 22  1  0  0  0  0
 23 24  1  0  0  0  0
 18 21  1  0  0  0  0
 24 25  1  0  0  0  0
 38 39  1  0  0  0  0
  7  8  1  0  0  0  0
 17 18  1  0  0  0  0
  3  4  1  0  0  0  0
  3  5  1  0  0  0  0
  3  6  1  0  0  0  0
 42 45  1  0  0  0  0
 42 46  1  0  0  0  0
 42 47  1  0  0  0  0
 11 14  1  0  0  0  0
 11 15  1  0  0  0  0
 11 16  1  0  0  0  0
 49 51  1  0  0  0  0
 49 52  1  0  0  0  0
 49 53  1  0  0  0  0
 22 30  1  0  0  0  0
 22 31  1  0  0  0  0
 23 32  1  0  0  0  0
 23 33  1  0  0  0  0
 21 28  1  0  0  0  0
 21 29  1  0  0  0  0
 24 34  1  0  0  0  0
 24 35  1  0  0  0  0
 39 44  1  0  0  0  0
  8 13  1  0  0  0  0
 18 27  1  0  0  0  0
 25 36  1  0  0  0  0
 25 37  1  0  0  0  0
 48 50  1  0  0  0  0
  7 12  1  0  0  0  0
 38 43  1  0  0  0  0
 17 26  1  0  0  0  0
M  END
$$$$

  -OEChem-05262214473D

 53 52  0     1  0  0  0  0  0999 V2000
   -1.0338   -5.6785    0.1476 C   0  0  0  0  0  0  0  0  0  0  0  0
   -2.0514   -5.7797    0.8227 O   0  0  0  0  0  0  0  0  0  0  0  0
   -0.6558   -6.7819   -0.7841 C   0  0  0  0  0  0  0  0  0  0  0  0
   -0.0111   -7.5354   -0.3038 H   0  0  0  0  0  0  0  0  0  0  0  0
   -1.5317   -7.3401   -1.1520 H   0  0  0  0  0  0  0  0  0  0  0  0
   -0.1109   -6.4687   -1.6890 H   0  0  0  0  0  0  0  0  0  0  0  0
   -0.1543   -4.6083    0.1480 N   0  0  0  0  0  0  0  0  0  0  0  0
   -0.3302   -3.4398    0.9696 C   0  0  2  0  0  0  0  0  0  0  0  0
    0.2328   -2.2439    0.2131 C   0  0  0  0  0  0  0  0  0  0  0  0
    1.2097   -2.3192   -0.5294 O   0  0  0  0  0  0  0  0  0  0  0  0
    0.3557   -3.6024    2.3171 C   0  0  0  0  0  0  0  0  0  0  0  0
    0.6584   -4.6506   -0.4643 H   0  0  0  0  0  0  0  0  0  0  0  0
   -1.4091   -3.3101    1.1082 H   0  0  0  0  0  0  0  0  0  0  0  0
    1.4375   -3.7336    2.1985 H   0  0  0  0  0  0  0  0  0  0  0  0
    0.1969   -2.7243    2.9517 H   0  0  0  0  0  0  0  0  0  0  0  0
   -0.0294   -4.4803    2.8470 H   0  0  0  0  0  0  0  0  0  0  0  0
   -0.4616   -1.0893    0.5050 N   0  0  0  0  0  0  0  0  0  0  0  0
   -0.0884    0.2050   -0.0621 C   0  0  2  0  0  0  0  0  0  0  0  0
   -1.3603    1.0391   -0.1869 C   0  0  0  0  0  0  0  0  0  0  0  0
   -2.0601    1.0466   -1.1976 O   0  0  0  0  0  0  0  0  0  0  0  0
    0.5695    0.0672   -1.4432 C   0  0  0  0  0  0  0  0  0  0  0  0
    1.9479   -0.6002   -1.3962 C   0  0  0  0  0  0  0  0  0  0  0  0
    2.5679   -0.6899   -2.7933 C   0  0  0  0  0  0  0  0  0  0  0  0
    3.9315   -1.3776   -2.7493 C   0  0  0  0  0  0  0  0  0  0  0  0
    4.4934   -1.4739   -4.0912 N   0  0  0  0  0  0  0  0  0  0  0  0
   -1.2794   -1.1113    1.0935 H   0  0  0  0  0  0  0  0  0  0  0  0
    0.6003    0.7034    0.6307 H   0  0  0  0  0  0  0  0  0  0  0  0
    0.6740    1.0637   -1.8924 H   0  0  0  0  0  0  0  0  0  0  0  0
   -0.0893   -0.4979   -2.1164 H   0  0  0  0  0  0  0  0  0  0  0  0
    1.8653   -1.6090   -0.9763 H   0  0  0  0  0  0  0  0  0  0  0  0
    2.6108   -0.0260   -0.7378 H   0  0  0  0  0  0  0  0  0  0  0  0
    1.8923   -1.2444   -3.4568 H   0  0  0  0  0  0  0  0  0  0  0  0
    2.6751    0.3190   -3.2115 H   0  0  0  0  0  0  0  0  0  0  0  0
    3.8358   -2.3822   -2.3230 H   0  0  0  0  0  0  0  0  0  0  0  0
    4.6196   -0.8096   -2.1142 H   0  0  0  0  0  0  0  0  0  0  0  0
    3.8417   -1.0854   -4.7322 H   0  0  0  0  0  0  0  0  0  0  0  0
    5.3466   -0.9657   -4.1099 H   0  0  0  0  0  0  0  0  0  0  0  0
   -1.6072    1.7891    0.9547 N   0  0  0  0  0  0  0  0  0  0  0  0
   -2.7364    2.6812    1.0879 C   0  0  2  0  0  0  0  0  0  0  0  0
   -2.3132    3.8469    1.9719 C   0  0  0  0  0  0  0  0  0  0  0  0
   -1.5237    3.7278    2.9065 O   0  0  0  0  0  0  0  0  0  0  0  0
   -3.9422    1.9638    1.6747 C   0  0  0  0  0  0  0  0  0  0  0  0
   -0.9768    1.7113    1.7473 H   0  0  0  0  0  0  0  0  0  0  0  0
   -2.9685    3.0498    0.0828 H   0  0  0  0  0  0  0  0  0  0  0  0
   -3.7286    1.5873    2.6817 H   0  0  0  0  0  0  0  0  0  0  0  0
   -4.8053    2.6336    1.7484 H   0  0  0  0  0  0  0  0  0  0  0  0
   -4.2268    1.1078    1.0533 H   0  0  0  0  0  0  0  0  0  0  0  0
   -2.9539    5.0271    1.6215 N   0  0  0  0  0  0  0  0  0  0  0  0
   -2.7530    6.2654    2.3371 C   0  0  0  0  0  0  0  0  0  0  0  0
   -3.5619    5.0430    0.8080 H   0  0  0  0  0  0  0  0  0  0  0  0
   -3.5161    6.3632    3.1233 H   0  0  0  0  0  0  0  0  0  0  0  0
   -1.7529    6.2660    2.7951 H   0  0  0  0  0  0  0  0  0  0  0  0
   -2.8367    7.1105    1.6380 H   0  0  0  0  0  0  0  0  0  0  0  0
  1  3  1  0  0  0  0
  1  7  1  0  0  0  0
  1  2  2  0  0  0  0
 39 40  1  0  0  0  0
 40 48  1  0  0  0  0
 40 41  2  0  0  0  0
  8  9  1  0  0  0  0
  9 17  1  0  0  0  0
  9 10  2  0  0  0  0
 18 19  1  0  0  0  0
 19 38  1  0  0  0  0
 19 20  2  0  0  0  0
 39 42  1  0  0  0  0
  8 11  1  0  0  0  0
 48 49  1  0  0  0  0
 22 23  1  0  0  0  0
 21 22  1  0  0  0  0
 23 24  1  0  0  0  0
 18 21  1  0  0  0  0
 24 25  1  0  0  0  0
 38 39  1  0  0  0  0
  7  8  1  0  0  0  0
 17 18  1  0  0  0  0
  3  4  1  0  0  0  0
  3  5  1  0  0  0  0
  3  6  1  0  0  0  0
 42 45  1  0  0  0  0
 42 46  1  0  0  0  0
 42 47  1  0  0  0  0
 11 14  1  0  0  0  0
 11 15  1  0  0  0  0
 11 16  1  0  0  0  0
 49 51  1  0  0  0  0
 49 52  1  0  0  0  0
 49 53  1  0  0  0  0
 22 30  1  0  0  0  0
 22 31  1  0  0  0  0
 23 32  1  0  0  0  0
 23 33  1  0  0  0  0
 21 28  1  0  0  0  0
 21 29  1  0  0  0  0
 24 34  1  0  0  0  0
 24 35  1  0  0  0  0
 39 44  1  0  0  0  0
  8 13  1  0  0  0  0
 18 27  1  0  0  0  0
 25 36  1  0  0  0  0
 25 37  1  0  0  0  0
 48 50  1  0  0  0  0
  7 12  1  0  0  0  0
 38 43  1  0  0  0  0
 17 26  1  0  0  0  0
M  END
$$$$

  -OEChem-05262214473D

 53 52  0     1  0  0  0  0  0999 V2000
   -1.0338   -5.6785    0.1476 C   0  0  0  0  0  0  0  0  0  0  0  0
   -2.0514   -5.7797    0.8227 O   0  0  0  0  0  0  0  0  0  0  0  0
   -0.6558   -6.7819   -0.7841 C   0  0  0  0  0  0  0  0  0  0  0  0
   -0.0111   -7.5354   -0.3038 H   0  0  0  0  0  0  0  0  0  0  0  0
   -1.5317   -7.3401   -1.1520 H   0  0  0  0  0  0  0  0  0  0  0  0
   -0.1109   -6.4687   -1.6890 H   0  0  0  0  0  0  0  0  0  0  0  0
   -0.1543   -4.6083    0.1480 N   0  0  0  0  0  0  0  0  0  0  0  0
   -0.3302   -3.4398    0.9696 C   0  0  2  0  0  0  0  0  0  0  0  0
    0.2328   -2.2439    0.2131 C   0  0  0  0  0  0  0  0  0  0  0  0
    1.2097   -2.3192   -0.5294 O   0  0  0  0  0  0  0  0  0  0  0  0
    0.3557   -3.6024    2.3171 C   0  0  0  0  0  0  0  0  0  0  0  0
    0.6584   -4.6506   -0.4643 H   0  0  0  0  0  0  0  0  0  0  0  0
   -1.4091   -3.3101    1.1082 H   0  0  0  0  0  0  0  0  0  0  0  0
    1.4375   -3.7336    2.1985 H   0  0  0  0  0  0  0  0  0  0  0  0
    0.1969   -2.7243    2.9517 H   0  0  0  0  0  0  0  0  0  0  0  0
   -0.0294   -4.4803    2.8470 H   0  0  0  0  0  0  0  0  0  0  0  0
   -0.4616   -1.0893    0.5050 N   0  0  0  0  0  0  0  0  0  0  0  0
   -0.0884    0.2050   -0.0621 C   0  0  2  0  0  0  0  0  0  0  0  0
   -1.3603    1.0391   -0.1869 C   0  0  0  0  0  0  0  0  0  0  0  0
   -2.1981    0.8556   -1.0677 O   0  0  0  0  0  0  0  0  0  0  0  0
    0.5695    0.0672   -1.4432 C   0  0  0  0  0  0  0  0  0  0  0  0
    1.9479   -0.6002   -1.3962 C   0  0  0  0  0  0  0  0  0  0  0  0
    2.5679   -0.6899   -2.7933 C   0  0  0  0  0  0  0  0  0  0  0  0
    3.9315   -1.3776   -2.7493 C   0  0  0  0  0  0  0  0  0  0  0  0
    4.4934   -1.4739   -4.0912 N   0  0  0  0  0  0  0  0  0  0  0  0
   -1.2794   -1.1113    1.0935 H   0  0  0  0  0  0  0  0  0  0  0  0
    0.6003    0.7034    0.6307 H   0  0  0  0  0  0  0  0  0  0  0  0
    0.6740    1.0637   -1.8924 H   0  0  0  0  0  0  0  0  0  0  0  0
   -0.0893   -0.4979   -2.1164 H   0  0  0  0  0  0  0  0  0  0  0  0
    1.8653   -1.6090   -0.9763 H   0  0  0  0  0  0  0  0  0  0  0  0
    2.6108   -0.0260   -0.7378 H   0  0  0  0  0  0  0  0  0  0  0  0
    1.8923   -1.2444   -3.4568 H   0  0  0  0  0  0  0  0  0  0  0  0
    2.6751    0.3190   -3.2115 H   0  0  0  0  0  0  0  0  0  0  0  0
    3.8358   -2.3822   -2.3230 H   0  0  0  0  0  0  0  0  0  0  0  0
    4.6196   -0.8096   -2.1142 H   0  0  0  0  0  0  0  0  0  0  0  0
    3.8417   -1.0854   -4.7322 H   0  0  0  0  0  0  0  0  0  0  0  0
    5.3466   -0.9657   -4.1099 H   0  0  0  0  0  0  0  0  0  0  0  0
   -1.4363    2.0247    0.7875 N   0  0  0  0  0  0  0  0  0  0  0  0
   -2.5296    2.9654    0.8795 C   0  0  2  0  0  0  0  0  0  0  0  0
   -1.9771    4.2771    1.4215 C   0  0  0  0  0  0  0  0  0  0  0  0
   -1.0621    4.3321    2.2405 O   0  0  0  0  0  0  0  0  0  0  0  0
   -3.6424    2.4351    1.7700 C   0  0  0  0  0  0  0  0  0  0  0  0
   -0.6990    2.0955    1.4825 H   0  0  0  0  0  0  0  0  0  0  0  0
   -2.9017    3.1185   -0.1394 H   0  0  0  0  0  0  0  0  0  0  0  0
   -3.2885    2.2755    2.7950 H   0  0  0  0  0  0  0  0  0  0  0  0
   -4.4822    3.1363    1.8158 H   0  0  0  0  0  0  0  0  0  0  0  0
   -4.0183    1.4769    1.3953 H   0  0  0  0  0  0  0  0  0  0  0  0
   -2.6549    5.3776    0.9157 N   0  0  0  0  0  0  0  0  0  0  0  0
   -2.3462    6.7322    1.3101 C   0  0  0  0  0  0  0  0  0  0  0  0
   -3.3734    5.2412    0.2108 H   0  0  0  0  0  0  0  0  0  0  0  0
   -2.9878    7.0241    2.1546 H   0  0  0  0  0  0  0  0  0  0  0  0
   -1.2906    6.7942    1.6133 H   0  0  0  0  0  0  0  0  0  0  0  0
   -2.5247    7.4104    0.4627 H   0  0  0  0  0  0  0  0  0  0  0  0
  1  3  1  0  0  0  0
  1  7  1  0  0  0  0
  1  2  2  0  0  0  0
 39 40  1  0  0  0  0
 40 48  1  0  0  0  0
 40 41  2  0  0  0  0
  8  9  1  0  0  0  0
  9 17  1  0  0  0  0
  9 10  2  0  0  0  0
 18 19  1  0  0  0  0
 19 38  1  0  0  0  0
 19 20  2  0  0  0  0
 39 42  1  0  0  0  0
  8 11  1  0  0  0  0
 48 49  1  0  0  0  0
 22 23  1  0  0  0  0
 21 22  1  0  0  0  0
 23 24  1  0  0  0  0
 18 21  1  0  0  0  0
 24 25  1  0  0  0  0
 38 39  1  0  0  0  0
  7  8  1  0  0  0  0
 17 18  1  0  0  0  0
  3  4  1  0  0  0  0
  3  5  1  0  0  0  0
  3  6  1  0  0  0  0
 42 45  1  0  0  0  0
 42 46  1  0  0  0  0
 42 47  1  0  0  0  0
 11 14  1  0  0  0  0
 11 15  1  0  0  0  0
 11 16  1  0  0  0  0
 49 51  1  0  0  0  0
 49 52  1  0  0  0  0
 49 53  1  0  0  0  0
 22 30  1  0  0  0  0
 22 31  1  0  0  0  0
 23 32  1  0  0  0  0
 23 33  1  0  0  0  0
 21 28  1  0  0  0  0
 21 29  1  0  0  0  0
 24 34  1  0  0  0  0
 24 35  1  0  0  0  0
 39 44  1  0  0  0  0
  8 13  1  0  0  0  0
 18 27  1  0  0  0  0
 25 36  1  0  0  0  0
 25 37  1  0  0  0  0
 48 50  1  0  0  0  0
  7 12  1  0  0  0  0
 38 43  1  0  0  0  0
 17 26  1  0  0  0  0
M  END
$$$$

  -OEChem-05262214473D

 53 52  0     1  0  0  0  0  0999 V2000
   -1.0338   -5.6785    0.1476 C   0  0  0  0  0  0  0  0  0  0  0  0
   -2.0514   -5.7797    0.8227 O   0  0  0  0  0  0  0  0  0  0  0  0
   -0.6558   -6.7819   -0.7841 C   0  0  0  0  0  0  0  0  0  0  0  0
   -0.0111   -7.5354   -0.3038 H   0  0  0  0  0  0  0  0  0  0  0  0
   -1.5317   -7.3401   -1.1520 H   0  0  0  0  0  0  0  0  0  0  0  0
   -0.1109   -6.4687   -1.6890 H   0  0  0  0  0  0  0  0  0  0  0  0
   -0.1543   -4.6083    0.1480 N   0  0  0  0  0  0  0  0  0  0  0  0
   -0.3302   -3.4398    0.9696 C   0  0  2  0  0  0  0  0  0  0  0  0
    0.2328   -2.2439    0.2131 C   0  0  0  0  0  0  0  0  0  0  0  0
    1.2097   -2.3192   -0.5294 O   0  0  0  0  0  0  0  0  0  0  0  0
    0.3557   -3.6024    2.3171 C   0  0  0  0  0  0  0  0  0  0  0  0
    0.6584   -4.6506   -0.4643 H   0  0  0  0  0  0  0  0  0  0  0  0
   -1.4091   -3.3101    1.1082 H   0  0  0  0  0  0  0  0  0  0  0  0
    1.4375   -3.7336    2.1985 H   0  0  0  0  0  0  0  0  0  0  0  0
    0.1969   -2.7243    2.9517 H   0  0  0  0  0  0  0  0  0  0  0  0
   -0.0294   -4.4803    2.8470 H   0  0  0  0  0  0  0  0  0  0  0  0
   -0.4616   -1.0893    0.5050 N   0  0  0  0  0  0  0  0  0  0  0  0
   -0.0884    0.2050   -0.0621 C   0  0  2  0  0  0  0  0  0  0  0  0
   -1.3603    1.0391   -0.1869 C   0  0  0  0  0  0  0  0  0  0  0  0
   -2.3171    0.7020   -0.8814 O   0  0  0  0  0  0  0  0  0  0  0  0
    0.5695    0.0672   -1.4432 C   0  0  0  0  0  0  0  0  0  0  0  0
    1.9479   -0.6002   -1.3962 C   0  0  0  0  0  0  0  0  0  0  0  0
    2.5679   -0.6899   -2.7933 C   0  0  0  0  0  0  0  0  0  0  0  0
    3.9315   -1.3776   -2.7493 C   0  0  0  0  0  0  0  0  0  0  0  0
    4.4934   -1.4739   -4.0912 N   0  0  0  0  0  0  0  0  0  0  0  0
   -1.2794   -1.1113    1.0935 H   0  0  0  0  0  0  0  0  0  0  0  0
    0.6003    0.7034    0.6307 H   0  0  0  0  0  0  0  0  0  0  0  0
    0.6740    1.0637   -1.8924 H   0  0  0  0  0  0  0  0  0  0  0  0
   -0.0893   -0.4979   -2.1164 H   0  0  0  0  0  0  0  0  0  0  0  0
    1.8653   -1.6090   -0.9763 H   0  0  0  0  0  0  0  0  0  0  0  0
    2.6108   -0.0260   -0.7378 H   0  0  0  0  0  0  0  0  0  0  0  0
    1.8923   -1.2444   -3.4568 H   0  0  0  0  0  0  0  0  0  0  0  0
    2.6751    0.3190   -3.2115 H   0  0  0  0  0  0  0  0  0  0  0  0
    3.8358   -2.3822   -2.3230 H   0  0  0  0  0  0  0  0  0  0  0  0
    4.6196   -0.8096   -2.1142 H   0  0  0  0  0  0  0  0  0  0  0  0
    3.8417   -1.0854   -4.7322 H   0  0  0  0  0  0  0  0  0  0  0  0
    5.3466   -0.9657   -4.1099 H   0  0  0  0  0  0  0  0  0  0  0  0
   -1.2898    2.2127    0.5510 N   0  0  0  0  0  0  0  0  0  0  0  0
   -2.3532    3.1907    0.5876 C   0  0  2  0  0  0  0  0  0  0  0  0
   -1.7212    4.5669    0.7494 C   0  0  0  0  0  0  0  0  0  0  0  0
   -0.6976    4.7624    1.4015 O   0  0  0  0  0  0  0  0  0  0  0  0
   -3.3295    2.9046    1.7180 C   0  0  0  0  0  0  0  0  0  0  0  0
   -0.4599    2.4035    1.1045 H   0  0  0  0  0  0  0  0  0  0  0  0
   -2.8671    3.1355   -0.3783 H   0  0  0  0  0  0  0  0  0  0  0  0
   -2.8327    2.9554    2.6938 H   0  0  0  0  0  0  0  0  0  0  0  0
   -4.1500    3.6297    1.7267 H   0  0  0  0  0  0  0  0  0  0  0  0
   -3.7607    1.9028    1.6164 H   0  0  0  0  0  0  0  0  0  0  0  0
   -2.4584    5.5575    0.1160 N   0  0  0  0  0  0  0  0  0  0  0  0
   -2.0886    6.9530    0.1599 C   0  0  0  0  0  0  0  0  0  0  0  0
   -3.2716    5.2998   -0.4354 H   0  0  0  0  0  0  0  0  0  0  0  0
   -2.6005    7.4423    1.0016 H   0  0  0  0  0  0  0  0  0  0  0  0
   -1.0000    7.0397    0.2924 H   0  0  0  0  0  0  0  0  0  0  0  0
   -2.3833    7.4400   -0.7814 H   0  0  0  0  0  0  0  0  0  0  0  0
  1  3  1  0  0  0  0
  1  7  1  0  0  0  0
  1  2  2  0  0  0  0
 39 40  1  0  0  0  0
 40 48  1  0  0  0  0
 40 41  2  0  0  0  0
  8  9  1  0  0  0  0
  9 17  1  0  0  0  0
  9 10  2  0  0  0  0
 18 19  1  0  0  0  0
 19 38  1  0  0  0  0
 19 20  2  0  0  0  0
 39 42  1  0  0  0  0
  8 11  1  0  0  0  0
 48 49  1  0  0  0  0
 22 23  1  0  0  0  0
 21 22  1  0  0  0  0
 23 24  1  0  0  0  0
 18 21  1  0  0  0  0
 24 25  1  0  0  0  0
 38 39  1  0  0  0  0
  7  8  1  0  0  0  0
 17 18  1  0  0  0  0
  3  4  1  0  0  0  0
  3  5  1  0  0  0  0
  3  6  1  0  0  0  0
 42 45  1  0  0  0  0
 42 46  1  0  0  0  0
 42 47  1  0  0  0  0
 11 14  1  0  0  0  0
 11 15  1  0  0  0  0
 11 16  1  0  0  0  0
 49 51  1  0  0  0  0
 49 52  1  0  0  0  0
 49 53  1  0  0  0  0
 22 30  1  0  0  0  0
 22 31  1  0  0  0  0
 23 32  1  0  0  0  0
 23 33  1  0  0  0  0
 21 28  1  0  0  0  0
 21 29  1  0  0  0  0
 24 34  1  0  0  0  0
 24 35  1  0  0  0  0
 39 44  1  0  0  0  0
  8 13  1  0  0  0  0
 18 27  1  0  0  0  0
 25 36  1  0  0  0  0
 25 37  1  0  0  0  0
 48 50  1  0  0  0  0
  7 12  1  0  0  0  0
 38 43  1  0  0  0  0
 17 26  1  0  0  0  0
M  END
$$$$

  -OEChem-05262214473D

 53 52  0     1  0  0  0  0  0999 V2000
   -1.0338   -5.6785    0.1476 C   0  0  0  0  0  0  0  0  0  0  0  0
   -2.0514   -5.7797    0.8227 O   0  0  0  0  0  0  0  0  0  0  0  0
   -0.6558   -6.7819   -0.7841 C   0  0  0  0  0  0  0  0  0  0  0  0
   -0.0111   -7.5354   -0.3038 H   0  0  0  0  0  0  0  0  0  0  0  0
   -1.5317   -7.3401   -1.1520 H   0  0  0  0  0  0  0  0  0  0  0  0
   -0.1109   -6.4687   -1.6890 H   0  0  0  0  0  0  0  0  0  0  0  0
   -0.1543   -4.6083    0.1480 N   0  0  0  0  0  0  0  0  0  0  0  0
   -0.3302   -3.4398    0.9696 C   0  0  2  0  0  0  0  0  0  0  0  0
    0.2328   -2.2439    0.2131 C   0  0  0  0  0  0  0  0  0  0  0  0
    1.2097   -2.3192   -0.5294 O   0  0  0  0  0  0  0  0  0  0  0  0
    0.3557   -3.6024    2.3171 C   0  0  0  0  0  0  0  0  0  0  0  0
    0.6584   -4.6506   -0.4643 H   0  0  0  0  0  0  0  0  0  0  0  0
   -1.4091   -3.3101    1.1082 H   0  0  0  0  0  0  0  0  0  0  0  0
    1.4375   -3.7336    2.1985 H   0  0  0  0  0  0  0  0  0  0  0  0
    0.1969   -2.7243    2.9517 H   0  0  0  0  0  0  0  0  0  0  0  0
   -0.0294   -4.4803    2.8470 H   0  0  0  0  0  0  0  0  0  0  0  0
   -0.4616   -1.0893    0.5050 N   0  0  0  0  0  0  0  0  0  0  0  0
   -0.0884    0.2050   -0.0621 C   0  0  2  0  0  0  0  0  0  0  0  0
   -1.3603    1.0391   -0.1869 C   0  0  0  0  0  0  0  0  0  0  0  0
   -2.4089    0.5964   -0.6516 O   0  0  0  0  0  0  0  0  0  0  0  0
    0.5695    0.0672   -1.4432 C   0  0  0  0  0  0  0  0  0  0  0  0
    1.9479   -0.6002   -1.3962 C   0  0  0  0  0  0  0  0  0  0  0  0
    2.5679   -0.6899   -2.7933 C   0  0  0  0  0  0  0  0  0  0  0  0
    3.9315   -1.3776   -2.7493 C   0  0  0  0  0  0  0  0  0  0  0  0
    4.4934   -1.4739   -4.0912 N   0  0  0  0  0  0  0  0  0  0  0  0
   -1.2794   -1.1113    1.0935 H   0  0  0  0  0  0  0  0  0  0  0  0
    0.6003    0.7034    0.6307 H   0  0  0  0  0  0  0  0  0  0  0  0
    0.6740    1.0637   -1.8924 H   0  0  0  0  0  0  0  0  0  0  0  0
   -0.0893   -0.4979   -2.1164 H   0  0  0  0  0  0  0  0  0  0  0  0
    1.8653   -1.6090   -0.9763 H   0  0  0  0  0  0  0  0  0  0  0  0
    2.6108   -0.0260   -0.7378 H   0  0  0  0  0  0  0  0  0  0  0  0
    1.8923   -1.2444   -3.4568 H   0  0  0  0  0  0  0  0  0  0  0  0
    2.6751    0.3190   -3.2115 H   0  0  0  0  0  0  0  0  0  0  0  0
    3.8358   -2.3822   -2.3230 H   0  0  0  0  0  0  0  0  0  0  0  0
    4.6196   -0.8096   -2.1142 H   0  0  0  0  0  0  0  0  0  0  0  0
    3.8417   -1.0854   -4.7322 H   0  0  0  0  0  0  0  0  0  0  0  0
    5.3466   -0.9657   -4.1099 H   0  0  0  0  0  0  0  0  0  0  0  0
   -1.1779    2.3401    0.2613 N   0  0  0  0  0  0  0  0  0  0  0  0
   -2.2194    3.3416    0.2321 C   0  0  2  0  0  0  0  0  0  0  0  0
   -1.5629    4.6963    0.0016 C   0  0  0  0  0  0  0  0  0  0  0  0
   -0.4551    4.9893    0.4467 O   0  0  0  0  0  0  0  0  0  0  0  0
   -3.0246    3.3403    1.5223 C   0  0  0  0  0  0  0  0  0  0  0  0
   -0.2759    2.6145    0.6391 H   0  0  0  0  0  0  0  0  0  0  0  0
   -2.8671    3.0997   -0.6176 H   0  0  0  0  0  0  0  0  0  0  0  0
   -2.3924    3.5806    2.3848 H   0  0  0  0  0  0  0  0  0  0  0  0
   -3.8312    4.0800    1.4873 H   0  0  0  0  0  0  0  0  0  0  0  0
   -3.4716    2.3565    1.7017 H   0  0  0  0  0  0  0  0  0  0  0  0
   -2.3780    5.5547   -0.7230 N   0  0  0  0  0  0  0  0  0  0  0  0
   -1.9978    6.9126   -1.0353 C   0  0  0  0  0  0  0  0  0  0  0  0
   -3.2634    5.2149   -1.0867 H   0  0  0  0  0  0  0  0  0  0  0  0
   -2.3806    7.5893   -0.2570 H   0  0  0  0  0  0  0  0  0  0  0  0
   -0.9010    6.9857   -1.0774 H   0  0  0  0  0  0  0  0  0  0  0  0
   -2.4220    7.1972   -2.0095 H   0  0  0  0  0  0  0  0  0  0  0  0
  1  3  1  0  0  0  0
  1  7  1  0  0  0  0
  1  2  2  0  0  0  0
 39 40  1  0  0  0  0
 40 48  1  0  0  0  0
 40 41  2  0  0  0  0
  8  9  1  0  0  0  0
  9 17  1  0  0  0  0
  9 10  2  0  0  0  0
 18 19  1  0  0  0  0
 19 38  1  0  0  0  0
 19 20  2  0  0  0  0
 39 42  1  0  0  0  0
  8 11  1  0  0  0  0
 48 49  1  0  0  0  0
 22 23  1  0  0  0  0
 21 22  1  0  0  0  0
 23 24  1  0  0  0  0
 18 21  1  0  0  0  0
 24 25  1  0  0  0  0
 38 39  1  0  0  0  0
  7  8  1  0  0  0  0
 17 18  1  0  0  0  0
  3  4  1  0  0  0  0
  3  5  1  0  0  0  0
  3  6  1  0  0  0  0
 42 45  1  0  0  0  0
 42 46  1  0  0  0  0
 42 47  1  0  0  0  0
 11 14  1  0  0  0  0
 11 15  1  0  0  0  0
 11 16  1  0  0  0  0
 49 51  1  0  0  0  0
 49 52  1  0  0  0  0
 49 53  1  0  0  0  0
 22 30  1  0  0  0  0
 22 31  1  0  0  0  0
 23 32  1  0  0  0  0
 23 33  1  0  0  0  0
 21 28  1  0  0  0  0
 21 29  1  0  0  0  0
 24 34  1  0  0  0  0
 24 35  1  0  0  0  0
 39 44  1  0  0  0  0
  8 13  1  0  0  0  0
 18 27  1  0  0  0  0
 25 36  1  0  0  0  0
 25 37  1  0  0  0  0
 48 50  1  0  0  0  0
  7 12  1  0  0  0  0
 38 43  1  0  0  0  0
 17 26  1  0  0  0  0
M  END
$$$$

  -OEChem-05262214473D

 53 52  0     1  0  0  0  0  0999 V2000
   -1.0338   -5.6785    0.1476 C   0  0  0  0  0  0  0  0  0  0  0  0
   -2.0514   -5.7797    0.8227 O   0  0  0  0  0  0  0  0  0  0  0  0
   -0.6558   -6.7819   -0.7841 C   0  0  0  0  0  0  0  0  0  0  0  0
   -0.0111   -7.5354   -0.3038 H   0  0  0  0  0  0  0  0  0  0  0  0
   -1.5317   -7.3401   -1.1520 H   0  0  0  0  0  0  0  0  0  0  0  0
   -0.1109   -6.4687   -1.6890 H   0  0  0  0  0  0  0  0  0  0  0  0
   -0.1543   -4.6083    0.1480 N   0  0  0  0  0  0  0  0  0  0  0  0
   -0.3302   -3.4398    0.9696 C   0  0  2  0  0  0  0  0  0  0  0  0
    0.2328   -2.2439    0.2131 C   0  0  0  0  0  0  0  0  0  0  0  0
    1.2097   -2.3192   -0.5294 O   0  0  0  0  0  0  0  0  0  0  0  0
    0.3557   -3.6024    2.3171 C   0  0  0  0  0  0  0  0  0  0  0  0
    0.6584   -4.6506   -0.4643 H   0  0  0  0  0  0  0  0  0  0  0  0
   -1.4091   -3.3101    1.1082 H   0  0  0  0  0  0  0  0  0  0  0  0
    1.4375   -3.7336    2.1985 H   0  0  0  0  0  0  0  0  0  0  0  0
    0.1969   -2.7243    2.9517 H   0  0  0  0  0  0  0  0  0  0  0  0
   -0.0294   -4.4803    2.8470 H   0  0  0  0  0  0  0  0  0  0  0  0
   -0.4616   -1.0893    0.5050 N   0  0  0  0  0  0  0  0  0  0  0  0
   -0.0884    0.2050   -0.0621 C   0  0  2  0  0  0  0  0  0  0  0  0
   -1.3603    1.0391   -0.1869 C   0  0  0  0  0  0  0  0  0  0  0  0
   -2.4673    0.5459   -0.3938 O   0  0  0  0  0  0  0  0  0  0  0  0
    0.5695    0.0672   -1.4432 C   0  0  0  0  0  0  0  0  0  0  0  0
    1.9479   -0.6002   -1.3962 C   0  0  0  0  0  0  0  0  0  0  0  0
    2.5679   -0.6899   -2.7933 C   0  0  0  0  0  0  0  0  0  0  0  0
    3.9315   -1.3776   -2.7493 C   0  0  0  0  0  0  0  0  0  0  0  0
    4.4934   -1.4739   -4.0912 N   0  0  0  0  0  0  0  0  0  0  0  0
   -1.2794   -1.1113    1.0935 H   0  0  0  0  0  0  0  0  0  0  0  0
    0.6003    0.7034    0.6307 H   0  0  0  0  0  0  0  0  0  0  0  0
    0.6740    1.0637   -1.8924 H   0  0  0  0  0  0  0  0  0  0  0  0
   -0.0893   -0.4979   -2.1164 H   0  0  0  0  0  0  0  0  0  0  0  0
    1.8653   -1.6090   -0.9763 H   0  0  0  0  0  0  0  0  0  0  0  0
    2.6108   -0.0260   -0.7378 H   0  0  0  0  0  0  0  0  0  0  0  0
    1.8923   -1.2444   -3.4568 H   0  0  0  0  0  0  0  0  0  0  0  0
    2.6751    0.3190   -3.2115 H   0  0  0  0  0  0  0  0  0  0  0  0
    3.8358   -2.3822   -2.3230 H   0  0  0  0  0  0  0  0  0  0  0  0
    4.6196   -0.8096   -2.1142 H   0  0  0  0  0  0  0  0  0  0  0  0
    3.8417   -1.0854   -4.7322 H   0  0  0  0  0  0  0  0  0  0  0  0
    5.3466   -0.9657   -4.1099 H   0  0  0  0  0  0  0  0  0  0  0  0
   -1.1080    2.3983   -0.0619 N   0  0  0  0  0  0  0  0  0  0  0  0
   -2.1373    3.4078   -0.1627 C   0  0  2  0  0  0  0  0  0  0  0  0
   -1.5131    4.6567   -0.7711 C   0  0  0  0  0  0  0  0  0  0  0  0
   -0.3512    4.9974   -0.5588 O   0  0  0  0  0  0  0  0  0  0  0  0
   -2.7486    3.7124    1.1961 C   0  0  0  0  0  0  0  0  0  0  0  0
   -0.1596    2.7140    0.1180 H   0  0  0  0  0  0  0  0  0  0  0  0
   -2.9017    3.0134   -0.8410 H   0  0  0  0  0  0  0  0  0  0  0  0
   -1.9976    4.1086    1.8893 H   0  0  0  0  0  0  0  0  0  0  0  0
   -3.5477    4.4565    1.1138 H   0  0  0  0  0  0  0  0  0  0  0  0
   -3.1707    2.8069    1.6453 H   0  0  0  0  0  0  0  0  0  0  0  0
   -2.4190    5.3693   -1.5442 N   0  0  0  0  0  0  0  0  0  0  0  0
   -2.0800    6.6139   -2.1938 C   0  0  0  0  0  0  0  0  0  0  0  0
   -3.3494    4.9922   -1.6986 H   0  0  0  0  0  0  0  0  0  0  0  0
   -2.3431    7.4552   -1.5357 H   0  0  0  0  0  0  0  0  0  0  0  0
   -1.0003    6.6360   -2.4030 H   0  0  0  0  0  0  0  0  0  0  0  0
   -2.6383    6.6986   -3.1378 H   0  0  0  0  0  0  0  0  0  0  0  0
  1  3  1  0  0  0  0
  1  7  1  0  0  0  0
  1  2  2  0  0  0  0
 39 40  1  0  0  0  0
 40 48  1  0  0  0  0
 40 41  2  0  0  0  0
  8  9  1  0  0  0  0
  9 17  1  0  0  0  0
  9 10  2  0  0  0  0
 18 19  1  0  0  0  0
 19 38  1  0  0  0  0
 19 20  2  0  0  0  0
 39 42  1  0  0  0  0
  8 11  1  0  0  0  0
 48 49  1  0  0  0  0
 22 23  1  0  0  0  0
 21 22  1  0  0  0  0
 23 24  1  0  0  0  0
 18 21  1  0  0  0  0
 24 25  1  0  0  0  0
 38 39  1  0  0  0  0
  7  8  1  0  0  0  0
 17 18  1  0  0  0  0
  3  4  1  0  0  0  0
  3  5  1  0  0  0  0
  3  6  1  0  0  0  0
 42 45  1  0  0  0  0
 42 46  1  0  0  0  0
 42 47  1  0  0  0  0
 11 14  1  0  0  0  0
 11 15  1  0  0  0  0
 11 16  1  0  0  0  0
 49 51  1  0  0  0  0
 49 52  1  0  0  0  0
 49 53  1  0  0  0  0
 22 30  1  0  0  0  0
 22 31  1  0  0  0  0
 23 32  1  0  0  0  0
 23 33  1  0  0  0  0
 21 28  1  0  0  0  0
 21 29  1  0  0  0  0
 24 34  1  0  0  0  0
 24 35  1  0  0  0  0
 39 44  1  0  0  0  0
  8 13  1  0  0  0  0
 18 27  1  0  0  0  0
 25 36  1  0  0  0  0
 25 37  1  0  0  0  0
 48 50  1  0  0  0  0
  7 12  1  0  0  0  0
 38 43  1  0  0  0  0
 17 26  1  0  0  0  0
M  END
$$$$

  -OEChem-05262214473D

 53 52  0     1  0  0  0  0  0999 V2000
   -1.0338   -5.6785    0.1476 C   0  0  0  0  0  0  0  0  0  0  0  0
   -2.0514   -5.7797    0.8227 O   0  0  0  0  0  0  0  0  0  0  0  0
   -0.6558   -6.7819   -0.7841 C   0  0  0  0  0  0  0  0  0  0  0  0
   -0.0111   -7.5354   -0.3038 H   0  0  0  0  0  0  0  0  0  0  0  0
   -1.5317   -7.3401   -1.1520 H   0  0  0  0  0  0  0  0  0  0  0  0
   -0.1109   -6.4687   -1.6890 H   0  0  0  0  0  0  0  0  0  0  0  0
   -0.1543   -4.6083    0.1480 N   0  0  0  0  0  0  0  0  0  0  0  0
   -0.3302   -3.4398    0.9696 C   0  0  2  0  0  0  0  0  0  0  0  0
    0.2328   -2.2439    0.2131 C   0  0  0  0  0  0  0  0  0  0  0  0
    1.2097   -2.3192   -0.5294 O   0  0  0  0  0  0  0  0  0  0  0  0
    0.3557   -3.6024    2.3171 C   0  0  0  0  0  0  0  0  0  0  0  0
    0.6584   -4.6506   -0.4643 H   0  0  0  0  0  0  0  0  0  0  0  0
   -1.4091   -3.3101    1.1082 H   0  0  0  0  0  0  0  0  0  0  0  0
    1.4375   -3.7336    2.1985 H   0  0  0  0  0  0  0  0  0  0  0  0
    0.1969   -2.7243    2.9517 H   0  0  0  0  0  0  0  0  0  0  0  0
   -0.0294   -4.4803    2.8470 H   0  0  0  0  0  0  0  0  0  0  0  0
   -0.4616   -1.0893    0.5050 N   0  0  0  0  0  0  0  0  0  0  0  0
   -0.0884    0.2050   -0.0621 C   0  0  2  0  0  0  0  0  0  0  0  0
   -1.3603    1.0391   -0.1869 C   0  0  0  0  0  0  0  0  0  0  0  0
   -2.4883    0.5540   -0.1257 O   0  0  0  0  0  0  0  0  0  0  0  0
    0.5695    0.0672   -1.4432 C   0  0  0  0  0  0  0  0  0  0  0  0
    1.9479   -0.6002   -1.3962 C   0  0  0  0  0  0  0  0  0  0  0  0
    2.5679   -0.6899   -2.7933 C   0  0  0  0  0  0  0  0  0  0  0  0
    3.9315   -1.3776   -2.7493 C   0  0  0  0  0  0  0  0  0  0  0  0
    4.4934   -1.4739   -4.0912 N   0  0  0  0  0  0  0  0  0  0  0  0
   -1.2794   -1.1113    1.0935 H   0  0  0  0  0  0  0  0  0  0  0  0
    0.6003    0.7034    0.6307 H   0  0  0  0  0  0  0  0  0  0  0  0
    0.6740    1.0637   -1.8924 H   0  0  0  0  0  0  0  0  0  0  0  0
   -0.0893   -0.4979   -2.1164 H   0  0  0  0  0  0  0  0  0  0  0  0
    1.8653   -1.6090   -0.9763 H   0  0  0  0  0  0  0  0  0  0  0  0
    2.6108   -0.0260   -0.7378 H   0  0  0  0  0  0  0  0  0  0  0  0
    1.8923   -1.2444   -3.4568 H   0  0  0  0  0  0  0  0  0  0  0  0
    2.6751    0.3190   -3.2115 H   0  0  0  0  0  0  0  0  0  0  0  0
    3.8358   -2.3822   -2.3230 H   0  0  0  0  0  0  0  0  0  0  0  0
    4.6196   -0.8096   -2.1142 H   0  0  0  0  0  0  0  0  0  0  0  0
    3.8417   -1.0854   -4.7322 H   0  0  0  0  0  0  0  0  0  0  0  0
    5.3466   -0.9657   -4.1099 H   0  0  0  0  0  0  0  0  0  0  0  0
   -1.0850    2.3833   -0.3965 N   0  0  0  0  0  0  0  0  0  0  0  0
   -2.1124    3.3849   -0.5700 C   0  0  2  0  0  0  0  0  0  0  0  0
   -1.5751    4.4508   -1.5159 C   0  0  0  0  0  0  0  0  0  0  0  0
   -0.3929    4.7861   -1.5465 O   0  0  0  0  0  0  0  0  0  0  0  0
   -2.5202    3.9956    0.7617 C   0  0  0  0  0  0  0  0  0  0  0  0
   -0.1188    2.6952   -0.4232 H   0  0  0  0  0  0  0  0  0  0  0  0
   -2.9686    2.8827   -1.0333 H   0  0  0  0  0  0  0  0  0  0  0  0
   -1.6752    4.5033    1.2409 H   0  0  0  0  0  0  0  0  0  0  0  0
   -3.3186    4.7337    0.6317 H   0  0  0  0  0  0  0  0  0  0  0  0
   -2.8785    3.2235    1.4511 H   0  0  0  0  0  0  0  0  0  0  0  0
   -2.5787    5.0139   -2.2917 N   0  0  0  0  0  0  0  0  0  0  0  0
   -2.3296    6.0773   -3.2368 C   0  0  0  0  0  0  0  0  0  0  0  0
   -3.5238    4.6469   -2.2294 H   0  0  0  0  0  0  0  0  0  0  0  0
   -2.4906    7.0490   -2.7471 H   0  0  0  0  0  0  0  0  0  0  0  0
   -1.2911    6.0144   -3.5939 H   0  0  0  0  0  0  0  0  0  0  0  0
   -3.0173    5.9782   -4.0896 H   0  0  0  0  0  0  0  0  0  0  0  0
  1  3  1  0  0  0  0
  1  7  1  0  0  0  0
  1  2  2  0  0  0  0
 39 40  1  0  0  0  0
 40 48  1  0  0  0  0
 40 41  2  0  0  0  0
  8  9  1  0  0  0  0
  9 17  1  0  0  0  0
  9 10  2  0  0  0  0
 18 19  1  0  0  0  0
 19 38  1  0  0  0  0
 19 20  2  0  0  0  0
 39 42  1  0  0  0  0
  8 11  1  0  0  0  0
 48 49  1  0  0  0  0
 22 23  1  0  0  0  0
 21 22  1  0  0  0  0
 23 24  1  0  0  0  0
 18 21  1  0  0  0  0
 24 25  1  0  0  0  0
 38 39  1  0  0  0  0
  7  8  1  0  0  0  0
 17 18  1  0  0  0  0
  3  4  1  0  0  0  0
  3  5  1  0  0  0  0
  3  6  1  0  0  0  0
 42 45  1  0  0  0  0
 42 46  1  0  0  0  0
 42 47  1  0  0  0  0
 11 14  1  0  0  0  0
 11 15  1  0  0  0  0
 11 16  1  0  0  0  0
 49 51  1  0  0  0  0
 49 52  1  0  0  0  0
 49 53  1  0  0  0  0
 22 30  1  0  0  0  0
 22 31  1  0  0  0  0
 23 32  1  0  0  0  0
 23 33  1  0  0  0  0
 21 28  1  0  0  0  0
 21 29  1  0  0  0  0
 24 34  1  0  0  0  0
 24 35  1  0  0  0  0
 39 44  1  0  0  0  0
  8 13  1  0  0  0  0
 18 27  1  0  0  0  0
 25 36  1  0  0  0  0
 25 37  1  0  0  0  0
 48 50  1  0  0  0  0
  7 12  1  0  0  0  0
 38 43  1  0  0  0  0
 17 26  1  0  0  0  0
M  END
$$$$

  -OEChem-05262214473D

 53 52  0     1  0  0  0  0  0999 V2000
   -1.0338   -5.6785    0.1476 C   0  0  0  0  0  0  0  0  0  0  0  0
   -2.0514   -5.7797    0.8227 O   0  0  0  0  0  0  0  0  0  0  0  0
   -0.6558   -6.7819   -0.7841 C   0  0  0  0  0  0  0  0  0  0  0  0
   -0.0111   -7.5354   -0.3038 H   0  0  0  0  0  0  0  0  0  0  0  0
   -1.5317   -7.3401   -1.1520 H   0  0  0  0  0  0  0  0  0  0  0  0
   -0.1109   -6.4687   -1.6890 H   0  0  0  0  0  0  0  0  0  0  0  0
   -0.1543   -4.6083    0.1480 N   0  0  0  0  0  0  0  0  0  0  0  0
   -0.3302   -3.4398    0.9696 C   0  0  2  0  0  0  0  0  0  0  0  0
    0.2328   -2.2439    0.2131 C   0  0  0  0  0  0  0  0  0  0  0  0
    1.2097   -2.3192   -0.5294 O   0  0  0  0  0  0  0  0  0  0  0  0
    0.3557   -3.6024    2.3171 C   0  0  0  0  0  0  0  0  0  0  0  0
    0.6584   -4.6506   -0.4643 H   0  0  0  0  0  0  0  0  0  0  0  0
   -1.4091   -3.3101    1.1082 H   0  0  0  0  0  0  0  0  0  0  0  0
    1.4375   -3.7336    2.1985 H   0  0  0  0  0  0  0  0  0  0  0  0
    0.1969   -2.7243    2.9517 H   0  0  0  0  0  0  0  0  0  0  0  0
   -0.0294   -4.4803    2.8470 H   0  0  0  0  0  0  0  0  0  0  0  0
   -0.4616   -1.0893    0.5050 N   0  0  0  0  0  0  0  0  0  0  0  0
   -0.0884    0.2050   -0.0621 C   0  0  2  0  0  0  0  0  0  0  0  0
   -1.2577    1.1606    0.1579 C   0  0  0  0  0  0  0  0  0  0  0  0
   -2.3053    0.8226    0.7055 O   0  0  0  0  0  0  0  0  0  0  0  0
    0.2218    0.1147   -1.5637 C   0  0  0  0  0  0  0  0  0  0  0  0
    1.4947   -0.6792   -1.8750 C   0  0  0  0  0  0  0  0  0  0  0  0
    1.7698   -0.7171   -3.3808 C   0  0  0  0  0  0  0  0  0  0  0  0
    3.0255   -1.5296   -3.6925 C   0  0  0  0  0  0  0  0  0  0  0  0
    3.2560   -1.5729   -5.1316 N   0  0  0  0  0  0  0  0  0  0  0  0
   -1.2794   -1.1113    1.0935 H   0  0  0  0  0  0  0  0  0  0  0  0
    0.7887    0.5820    0.4776 H   0  0  0  0  0  0  0  0  0  0  0  0
    0.3292    1.1291   -1.9701 H   0  0  0  0  0  0  0  0  0  0  0  0
   -0.6292   -0.3328   -2.0950 H   0  0  0  0  0  0  0  0  0  0  0  0
    1.4005   -1.7056   -1.5029 H   0  0  0  0  0  0  0  0  0  0  0  0
    2.3473   -0.2220   -1.3586 H   0  0  0  0  0  0  0  0  0  0  0  0
    0.9058   -1.1533   -3.8980 H   0  0  0  0  0  0  0  0  0  0  0  0
    1.8881    0.3070   -3.7568 H   0  0  0  0  0  0  0  0  0  0  0  0
    2.9205   -2.5511   -3.3110 H   0  0  0  0  0  0  0  0  0  0  0  0
    3.8965   -1.0790   -3.2050 H   0  0  0  0  0  0  0  0  0  0  0  0
    2.5223   -1.0770   -5.5812 H   0  0  0  0  0  0  0  0  0  0  0  0
    4.1328   -1.1461   -5.3205 H   0  0  0  0  0  0  0  0  0  0  0  0
   -1.0003    2.4267   -0.3493 N   0  0  0  0  0  0  0  0  0  0  0  0
   -1.9522    3.5126   -0.2904 C   0  0  2  0  0  0  0  0  0  0  0  0
   -1.7504    4.3824   -1.5242 C   0  0  0  0  0  0  0  0  0  0  0  0
   -0.6504    4.5703   -2.0398 O   0  0  0  0  0  0  0  0  0  0  0  0
   -1.7839    4.3275    0.9826 C   0  0  0  0  0  0  0  0  0  0  0  0
   -0.0996    2.6174   -0.7782 H   0  0  0  0  0  0  0  0  0  0  0  0
   -2.9496    3.0608   -0.3205 H   0  0  0  0  0  0  0  0  0  0  0  0
   -0.7904    4.7881    1.0305 H   0  0  0  0  0  0  0  0  0  0  0  0
   -2.5243    5.1323    1.0392 H   0  0  0  0  0  0  0  0  0  0  0  0
   -1.8999    3.6944    1.8688 H   0  0  0  0  0  0  0  0  0  0  0  0
   -2.9367    4.9587   -1.9561 N   0  0  0  0  0  0  0  0  0  0  0  0
   -3.0007    5.8599   -3.0830 C   0  0  0  0  0  0  0  0  0  0  0  0
   -3.8078    4.7157   -1.4936 H   0  0  0  0  0  0  0  0  0  0  0  0
   -2.9027    6.8970   -2.7297 H   0  0  0  0  0  0  0  0  0  0  0  0
   -2.1823    5.6318   -3.7817 H   0  0  0  0  0  0  0  0  0  0  0  0
   -3.9659    5.7371   -3.5962 H   0  0  0  0  0  0  0  0  0  0  0  0
  1  3  1  0  0  0  0
  1  7  1  0  0  0  0
  1  2  2  0  0  0  0
 39 40  1  0  0  0  0
 40 48  1  0  0  0  0
 40 41  2  0  0  0  0
  8  9  1  0  0  0  0
  9 17  1  0  0  0  0
  9 10  2  0  0  0  0
 18 19  1  0  0  0  0
 19 38  1  0  0  0  0
 19 20  2  0  0  0  0
 39 42  1  0  0  0  0
  8 11  1  0  0  0  0
 48 49  1  0  0  0  0
 22 23  1  0  0  0  0
 21 22  1  0  0  0  0
 23 24  1  0  0  0  0
 18 21  1  0  0  0  0
 24 25  1  0  0  0  0
 38 39  1  0  0  0  0
  7  8  1  0  0  0  0
 17 18  1  0  0  0  0
  3  4  1  0  0  0  0
  3  5  1  0  0  0  0
  3  6  1  0  0  0  0
 42 45  1  0  0  0  0
 42 46  1  0  0  0  0
 42 47  1  0  0  0  0
 11 14  1  0  0  0  0
 11 15  1  0  0  0  0
 11 16  1  0  0  0  0
 49 51  1  0  0  0  0
 49 52  1  0  0  0  0
 49 53  1  0  0  0  0
 22 30  1  0  0  0  0
 22 31  1  0  0  0  0
 23 32  1  0  0  0  0
 23 33  1  0  0  0  0
 21 28  1  0  0  0  0
 21 29  1  0  0  0  0
 24 34  1  0  0  0  0
 24 35  1  0  0  0  0
 39 44  1  0  0  0  0
  8 13  1  0  0  0  0
 18 27  1  0  0  0  0
 25 36  1  0  0  0  0
 25 37  1  0  0  0  0
 48 50  1  0  0  0  0
  7 12  1  0  0  0  0
 38 43  1  0  0  0  0
 17 26  1  0  0  0  0
M  END
$$$$

  -OEChem-05262214473D

 53 52  0     1  0  0  0  0  0999 V2000
   -1.0338   -5.6785    0.1476 C   0  0  0  0  0  0  0  0  0  0  0  0
   -2.0514   -5.7797    0.8227 O   0  0  0  0  0  0  0  0  0  0  0  0
   -0.6558   -6.7819   -0.7841 C   0  0  0  0  0  0  0  0  0  0  0  0
   -0.0111   -7.5354   -0.3038 H   0  0  0  0  0  0  0  0  0  0  0  0
   -1.5317   -7.3401   -1.1520 H   0  0  0  0  0  0  0  0  0  0  0  0
   -0.1109   -6.4687   -1.6890 H   0  0  0  0  0  0  0  0  0  0  0  0
   -0.1543   -4.6083    0.1480 N   0  0  0  0  0  0  0  0  0  0  0  0
   -0.3302   -3.4398    0.9696 C   0  0  2  0  0  0  0  0  0  0  0  0
    0.2328   -2.2439    0.2131 C   0  0  0  0  0  0  0  0  0  0  0  0
    1.2097   -2.3192   -0.5294 O   0  0  0  0  0  0  0  0  0  0  0  0
    0.3557   -3.6024    2.3171 C   0  0  0  0  0  0  0  0  0  0  0  0
    0.6584   -4.6506   -0.4643 H   0  0  0  0  0  0  0  0  0  0  0  0
   -1.4091   -3.3101    1.1082 H   0  0  0  0  0  0  0  0  0  0  0  0
    1.4375   -3.7336    2.1985 H   0  0  0  0  0  0  0  0  0  0  0  0
    0.1969   -2.7243    2.9517 H   0  0  0  0  0  0  0  0  0  0  0  0
   -0.0294   -4.4803    2.8470 H   0  0  0  0  0  0  0  0  0  0  0  0
   -0.4616   -1.0893    0.5050 N   0  0  0  0  0  0  0  0  0  0  0  0
   -0.0884    0.2050   -0.0621 C   0  0  2  0  0  0  0  0  0  0  0  0
   -1.2577    1.1606    0.1579 C   0  0  0  0  0  0  0  0  0  0  0  0
   -2.1858    0.9179    0.9269 O   0  0  0  0  0  0  0  0  0  0  0  0
    0.2218    0.1147   -1.5637 C   0  0  0  0  0  0  0  0  0  0  0  0
    1.4947   -0.6792   -1.8750 C   0  0  0  0  0  0  0  0  0  0  0  0
    1.7698   -0.7171   -3.3808 C   0  0  0  0  0  0  0  0  0  0  0  0
    3.0255   -1.5296   -3.6925 C   0  0  0  0  0  0  0  0  0  0  0  0
    3.2560   -1.5729   -5.1316 N   0  0  0  0  0  0  0  0  0  0  0  0
   -1.2794   -1.1113    1.0935 H   0  0  0  0  0  0  0  0  0  0  0  0
    0.7887    0.5820    0.4776 H   0  0  0  0  0  0  0  0  0  0  0  0
    0.3292    1.1291   -1.9701 H   0  0  0  0  0  0  0  0  0  0  0  0
   -0.6292   -0.3328   -2.0950 H   0  0  0  0  0  0  0  0  0  0  0  0
    1.4005   -1.7056   -1.5029 H   0  0  0  0  0  0  0  0  0  0  0  0
    2.3473   -0.2220   -1.3586 H   0  0  0  0  0  0  0  0  0  0  0  0
    0.9058   -1.1533   -3.8980 H   0  0  0  0  0  0  0  0  0  0  0  0
    1.8881    0.3070   -3.7568 H   0  0  0  0  0  0  0  0  0  0  0  0
    2.9205   -2.5511   -3.3110 H   0  0  0  0  0  0  0  0  0  0  0  0
    3.8965   -1.0790   -3.2050 H   0  0  0  0  0  0  0  0  0  0  0  0
    2.5223   -1.0770   -5.5812 H   0  0  0  0  0  0  0  0  0  0  0  0
    4.1328   -1.1461   -5.3205 H   0  0  0  0  0  0  0  0  0  0  0  0
   -1.1521    2.3038   -0.6223 N   0  0  0  0  0  0  0  0  0  0  0  0
   -2.1396    3.3590   -0.6195 C   0  0  2  0  0  0  0  0  0  0  0  0
   -2.1826    3.9665   -2.0154 C   0  0  0  0  0  0  0  0  0  0  0  0
   -1.1898    4.0698   -2.7329 O   0  0  0  0  0  0  0  0  0  0  0  0
   -1.8160    4.4170    0.4239 C   0  0  0  0  0  0  0  0  0  0  0  0
   -0.3422    2.4229   -1.2235 H   0  0  0  0  0  0  0  0  0  0  0  0
   -3.1036    2.8896   -0.3950 H   0  0  0  0  0  0  0  0  0  0  0  0
   -0.8535    4.8985    0.2157 H   0  0  0  0  0  0  0  0  0  0  0  0
   -2.5802    5.2010    0.4444 H   0  0  0  0  0  0  0  0  0  0  0  0
   -1.7561    3.9730    1.4235 H   0  0  0  0  0  0  0  0  0  0  0  0
   -3.4516    4.4191   -2.3488 N   0  0  0  0  0  0  0  0  0  0  0  0
   -3.7413    5.0733   -3.6034 C   0  0  0  0  0  0  0  0  0  0  0  0
   -4.2241    4.2560   -1.7098 H   0  0  0  0  0  0  0  0  0  0  0  0
   -3.6445    6.1621   -3.4807 H   0  0  0  0  0  0  0  0  0  0  0  0
   -3.0328    4.7263   -4.3699 H   0  0  0  0  0  0  0  0  0  0  0  0
   -4.7676    4.8295   -3.9154 H   0  0  0  0  0  0  0  0  0  0  0  0
  1  3  1  0  0  0  0
  1  7  1  0  0  0  0
  1  2  2  0  0  0  0
 39 40  1  0  0  0  0
 40 48  1  0  0  0  0
 40 41  2  0  0  0  0
  8  9  1  0  0  0  0
  9 17  1  0  0  0  0
  9 10  2  0  0  0  0
 18 19  1  0  0  0  0
 19 38  1  0  0  0  0
 19 20  2  0  0  0  0
 39 42  1  0  0  0  0
  8 11  1  0  0  0  0
 48 49  1  0  0  0  0
 22 23  1  0  0  0  0
 21 22  1  0  0  0  0
 23 24  1  0  0  0  0
 18 21  1  0  0  0  0
 24 25  1  0  0  0  0
 38 39  1  0  0  0  0
  7  8  1  0  0  0  0
 17 18  1  0  0  0  0
  3  4  1  0  0  0  0
  3  5  1  0  0  0  0
  3  6  1  0  0  0  0
 42 45  1  0  0  0  0
 42 46  1  0  0  0  0
 42 47  1  0  0  0  0
 11 14  1  0  0  0  0
 11 15  1  0  0  0  0
 11 16  1  0  0  0  0
 49 51  1  0  0  0  0
 49 52  1  0  0  0  0
 49 53  1  0  0  0  0
 22 30  1  0  0  0  0
 22 31  1  0  0  0  0
 23 32  1  0  0  0  0
 23 33  1  0  0  0  0
 21 28  1  0  0  0  0
 21 29  1  0  0  0  0
 24 34  1  0  0  0  0
 24 35  1  0  0  0  0
 39 44  1  0  0  0  0
  8 13  1  0  0  0  0
 18 27  1  0  0  0  0
 25 36  1  0  0  0  0
 25 37  1  0  0  0  0
 48 50  1  0  0  0  0
  7 12  1  0  0  0  0
 38 43  1  0  0  0  0
 17 26  1  0  0  0  0
M  END
$$$$

  -OEChem-05262214473D

 53 52  0     1  0  0  0  0  0999 V2000
   -1.0338   -5.6785    0.1476 C   0  0  0  0  0  0  0  0  0  0  0  0
   -2.0514   -5.7797    0.8227 O   0  0  0  0  0  0  0  0  0  0  0  0
   -0.6558   -6.7819   -0.7841 C   0  0  0  0  0  0  0  0  0  0  0  0
   -0.0111   -7.5354   -0.3038 H   0  0  0  0  0  0  0  0  0  0  0  0
   -1.5317   -7.3401   -1.1520 H   0  0  0  0  0  0  0  0  0  0  0  0
   -0.1109   -6.4687   -1.6890 H   0  0  0  0  0  0  0  0  0  0  0  0
   -0.1543   -4.6083    0.1480 N   0  0  0  0  0  0  0  0  0  0  0  0
   -0.3302   -3.4398    0.9696 C   0  0  2  0  0  0  0  0  0  0  0  0
    0.2328   -2.2439    0.2131 C   0  0  0  0  0  0  0  0  0  0  0  0
    1.2097   -2.3192   -0.5294 O   0  0  0  0  0  0  0  0  0  0  0  0
    0.3557   -3.6024    2.3171 C   0  0  0  0  0  0  0  0  0  0  0  0
    0.6584   -4.6506   -0.4643 H   0  0  0  0  0  0  0  0  0  0  0  0
   -1.4091   -3.3101    1.1082 H   0  0  0  0  0  0  0  0  0  0  0  0
    1.4375   -3.7336    2.1985 H   0  0  0  0  0  0  0  0  0  0  0  0
    0.1969   -2.7243    2.9517 H   0  0  0  0  0  0  0  0  0  0  0  0
   -0.0294   -4.4803    2.8470 H   0  0  0  0  0  0  0  0  0  0  0  0
   -0.4616   -1.0893    0.5050 N   0  0  0  0  0  0  0  0  0  0  0  0
   -0.0884    0.2050   -0.0621 C   0  0  2  0  0  0  0  0  0  0  0  0
   -1.2577    1.1606    0.1579 C   0  0  0  0  0  0  0  0  0  0  0  0
   -2.0380    1.0583    1.1025 O   0  0  0  0  0  0  0  0  0  0  0  0
    0.2218    0.1147   -1.5637 C   0  0  0  0  0  0  0  0  0  0  0  0
    1.4947   -0.6792   -1.8750 C   0  0  0  0  0  0  0  0  0  0  0  0
    1.7698   -0.7171   -3.3808 C   0  0  0  0  0  0  0  0  0  0  0  0
    3.0255   -1.5296   -3.6925 C   0  0  0  0  0  0  0  0  0  0  0  0
    3.2560   -1.5729   -5.1316 N   0  0  0  0  0  0  0  0  0  0  0  0
   -1.2794   -1.1113    1.0935 H   0  0  0  0  0  0  0  0  0  0  0  0
    0.7887    0.5820    0.4776 H   0  0  0  0  0  0  0  0  0  0  0  0
    0.3292    1.1291   -1.9701 H   0  0  0  0  0  0  0  0  0  0  0  0
   -0.6292   -0.3328   -2.0950 H   0  0  0  0  0  0  0  0  0  0  0  0
    1.4005   -1.7056   -1.5029 H   0  0  0  0  0  0  0  0  0  0  0  0
    2.3473   -0.2220   -1.3586 H   0  0  0  0  0  0  0  0  0  0  0  0
    0.9058   -1.1533   -3.8980 H   0  0  0  0  0  0  0  0  0  0  0  0
    1.8881    0.3070   -3.7568 H   0  0  0  0  0  0  0  0  0  0  0  0
    2.9205   -2.5511   -3.3110 H   0  0  0  0  0  0  0  0  0  0  0  0
    3.8965   -1.0790   -3.2050 H   0  0  0  0  0  0  0  0  0  0  0  0
    2.5223   -1.0770   -5.5812 H   0  0  0  0  0  0  0  0  0  0  0  0
    4.1328   -1.1461   -5.3205 H   0  0  0  0  0  0  0  0  0  0  0  0
   -1.3384    2.1252   -0.8370 N   0  0  0  0  0  0  0  0  0  0  0  0
   -2.3682    3.1384   -0.8766 C   0  0  2  0  0  0  0  0  0  0  0  0
   -2.6642    3.4513   -2.3374 C   0  0  0  0  0  0  0  0  0  0  0  0
   -1.8045    3.4287   -3.2158 O   0  0  0  0  0  0  0  0  0  0  0  0
   -1.9408    4.3914   -0.1282 C   0  0  0  0  0  0  0  0  0  0  0  0
   -0.6415    2.1378   -1.5757 H   0  0  0  0  0  0  0  0  0  0  0  0
   -3.2579    2.7037   -0.4081 H   0  0  0  0  0  0  0  0  0  0  0  0
   -1.0507    4.8411   -0.5831 H   0  0  0  0  0  0  0  0  0  0  0  0
   -2.7330    5.1472   -0.1348 H   0  0  0  0  0  0  0  0  0  0  0  0
   -1.6997    4.1592    0.9148 H   0  0  0  0  0  0  0  0  0  0  0  0
   -3.9923    3.8007   -2.5376 N   0  0  0  0  0  0  0  0  0  0  0  0
   -4.5118    4.1826   -3.8300 C   0  0  0  0  0  0  0  0  0  0  0  0
   -4.6441    3.7535   -1.7600 H   0  0  0  0  0  0  0  0  0  0  0  0
   -4.4553    5.2757   -3.9401 H   0  0  0  0  0  0  0  0  0  0  0  0
   -3.9159    3.7033   -4.6207 H   0  0  0  0  0  0  0  0  0  0  0  0
   -5.5599    3.8595   -3.9139 H   0  0  0  0  0  0  0  0  0  0  0  0
  1  3  1  0  0  0  0
  1  7  1  0  0  0  0
  1  2  2  0  0  0  0
 39 40  1  0  0  0  0
 40 48  1  0  0  0  0
 40 41  2  0  0  0  0
  8  9  1  0  0  0  0
  9 17  1  0  0  0  0
  9 10  2  0  0  0  0
 18 19  1  0  0  0  0
 19 38  1  0  0  0  0
 19 20  2  0  0  0  0
 39 42  1  0  0  0  0
  8 11  1  0  0  0  0
 48 49  1  0  0  0  0
 22 23  1  0  0  0  0
 21 22  1  0  0  0  0
 23 24  1  0  0  0  0
 18 21  1  0  0  0  0
 24 25  1  0  0  0  0
 38 39  1  0  0  0  0
  7  8  1  0  0  0  0
 17 18  1  0  0  0  0
  3  4  1  0  0  0  0
  3  5  1  0  0  0  0
  3  6  1  0  0  0  0
 42 45  1  0  0  0  0
 42 46  1  0  0  0  0
 42 47  1  0  0  0  0
 11 14  1  0  0  0  0
 11 15  1  0  0  0  0
 11 16  1  0  0  0  0
 49 51  1  0  0  0  0
 49 52  1  0  0  0  0
 49 53  1  0  0  0  0
 22 30  1  0  0  0  0
 22 31  1  0  0  0  0
 23 32  1  0  0  0  0
 23 33  1  0  0  0  0
 21 28  1  0  0  0  0
 21 29  1  0  0  0  0
 24 34  1  0  0  0  0
 24 35  1  0  0  0  0
 39 44  1  0  0  0  0
  8 13  1  0  0  0  0
 18 27  1  0  0  0  0
 25 36  1  0  0  0  0
 25 37  1  0  0  0  0
 48 50  1  0  0  0  0
  7 12  1  0  0  0  0
 38 43  1  0  0  0  0
 17 26  1  0  0  0  0
M  END
$$$$

  -OEChem-05262214473D

 53 52  0     1  0  0  0  0  0999 V2000
   -1.0338   -5.6785    0.1476 C   0  0  0  0  0  0  0  0  0  0  0  0
   -2.0514   -5.7797    0.8227 O   0  0  0  0  0  0  0  0  0  0  0  0
   -0.6558   -6.7819   -0.7841 C   0  0  0  0  0  0  0  0  0  0  0  0
   -0.0111   -7.5354   -0.3038 H   0  0  0  0  0  0  0  0  0  0  0  0
   -1.5317   -7.3401   -1.1520 H   0  0  0  0  0  0  0  0  0  0  0  0
   -0.1109   -6.4687   -1.6890 H   0  0  0  0  0  0  0  0  0  0  0  0
   -0.1543   -4.6083    0.1480 N   0  0  0  0  0  0  0  0  0  0  0  0
   -0.3302   -3.4398    0.9696 C   0  0  2  0  0  0  0  0  0  0  0  0
    0.2328   -2.2439    0.2131 C   0  0  0  0  0  0  0  0  0  0  0  0
    1.2097   -2.3192   -0.5294 O   0  0  0  0  0  0  0  0  0  0  0  0
    0.3557   -3.6024    2.3171 C   0  0  0  0  0  0  0  0  0  0  0  0
    0.6584   -4.6506   -0.4643 H   0  0  0  0  0  0  0  0  0  0  0  0
   -1.4091   -3.3101    1.1082 H   0  0  0  0  0  0  0  0  0  0  0  0
    1.4375   -3.7336    2.1985 H   0  0  0  0  0  0  0  0  0  0  0  0
    0.1969   -2.7243    2.9517 H   0  0  0  0  0  0  0  0  0  0  0  0
   -0.0294   -4.4803    2.8470 H   0  0  0  0  0  0  0  0  0  0  0  0
   -0.4616   -1.0893    0.5050 N   0  0  0  0  0  0  0  0  0  0  0  0
   -0.0884    0.2050   -0.0621 C   0  0  2  0  0  0  0  0  0  0  0  0
   -1.2577    1.1606    0.1579 C   0  0  0  0  0  0  0  0  0  0  0  0
   -1.8720    1.2343    1.2203 O   0  0  0  0  0  0  0  0  0  0  0  0
    0.2218    0.1147   -1.5637 C   0  0  0  0  0  0  0  0  0  0  0  0
    1.4947   -0.6792   -1.8750 C   0  0  0  0  0  0  0  0  0  0  0  0
    1.7698   -0.7171   -3.3808 C   0  0  0  0  0  0  0  0  0  0  0  0
    3.0255   -1.5296   -3.6925 C   0  0  0  0  0  0  0  0  0  0  0  0
    3.2560   -1.5729   -5.1316 N   0  0  0  0  0  0  0  0  0  0  0  0
   -1.2794   -1.1113    1.0935 H   0  0  0  0  0  0  0  0  0  0  0  0
    0.7887    0.5820    0.4776 H   0  0  0  0  0  0  0  0  0  0  0  0
    0.3292    1.1291   -1.9701 H   0  0  0  0  0  0  0  0  0  0  0  0
   -0.6292   -0.3328   -2.0950 H   0  0  0  0  0  0  0  0  0  0  0  0
    1.4005   -1.7056   -1.5029 H   0  0  0  0  0  0  0  0  0  0  0  0
    2.3473   -0.2220   -1.3586 H   0  0  0  0  0  0  0  0  0  0  0  0
    0.9058   -1.1533   -3.8980 H   0  0  0  0  0  0  0  0  0  0  0  0
    1.8881    0.3070   -3.7568 H   0  0  0  0  0  0  0  0  0  0  0  0
    2.9205   -2.5511   -3.3110 H   0  0  0  0  0  0  0  0  0  0  0  0
    3.8965   -1.0790   -3.2050 H   0  0  0  0  0  0  0  0  0  0  0  0
    2.5223   -1.0770   -5.5812 H   0  0  0  0  0  0  0  0  0  0  0  0
    4.1328   -1.1461   -5.3205 H   0  0  0  0  0  0  0  0  0  0  0  0
   -1.5465    1.9031   -0.9787 N   0  0  0  0  0  0  0  0  0  0  0  0
   -2.6225    2.8658   -1.0441 C   0  0  2  0  0  0  0  0  0  0  0  0
   -3.1623    2.8718   -2.4682 C   0  0  0  0  0  0  0  0  0  0  0  0
   -2.4525    2.6908   -3.4554 O   0  0  0  0  0  0  0  0  0  0  0  0
   -2.1498    4.2525   -0.6362 C   0  0  0  0  0  0  0  0  0  0  0  0
   -0.9770    1.7813   -1.8108 H   0  0  0  0  0  0  0  0  0  0  0  0
   -3.4022    2.5158   -0.3588 H   0  0  0  0  0  0  0  0  0  0  0  0
   -1.3684    4.6200   -1.3113 H   0  0  0  0  0  0  0  0  0  0  0  0
   -2.9726    4.9747   -0.6588 H   0  0  0  0  0  0  0  0  0  0  0  0
   -1.7346    4.2402    0.3773 H   0  0  0  0  0  0  0  0  0  0  0  0
   -4.5222    3.1458   -2.5097 N   0  0  0  0  0  0  0  0  0  0  0  0
   -5.2594    3.2486   -3.7474 C   0  0  0  0  0  0  0  0  0  0  0  0
   -5.0392    3.2425   -1.6407 H   0  0  0  0  0  0  0  0  0  0  0  0
   -5.2798    4.2980   -4.0766 H   0  0  0  0  0  0  0  0  0  0  0  0
   -4.7714    2.6325   -4.5170 H   0  0  0  0  0  0  0  0  0  0  0  0
   -6.2887    2.8933   -3.5916 H   0  0  0  0  0  0  0  0  0  0  0  0
  1  3  1  0  0  0  0
  1  7  1  0  0  0  0
  1  2  2  0  0  0  0
 39 40  1  0  0  0  0
 40 48  1  0  0  0  0
 40 41  2  0  0  0  0
  8  9  1  0  0  0  0
  9 17  1  0  0  0  0
  9 10  2  0  0  0  0
 18 19  1  0  0  0  0
 19 38  1  0  0  0  0
 19 20  2  0  0  0  0
 39 42  1  0  0  0  0
  8 11  1  0  0  0  0
 48 49  1  0  0  0  0
 22 23  1  0  0  0  0
 21 22  1  0  0  0  0
 23 24  1  0  0  0  0
 18 21  1  0  0  0  0
 24 25  1  0  0  0  0
 38 39  1  0  0  0  0
  7  8  1  0  0  0  0
 17 18  1  0  0  0  0
  3  4  1  0  0  0  0
  3  5  1  0  0  0  0
  3  6  1  0  0  0  0
 42 45  1  0  0  0  0
 42 46  1  0  0  0  0
 42 47  1  0  0  0  0
 11 14  1  0  0  0  0
 11 15  1  0  0  0  0
 11 16  1  0  0  0  0
 49 51  1  0  0  0  0
 49 52  1  0  0  0  0
 49 53  1  0  0  0  0
 22 30  1  0  0  0  0
 22 31  1  0  0  0  0
 23 32  1  0  0  0  0
 23 33  1  0  0  0  0
 21 28  1  0  0  0  0
 21 29  1  0  0  0  0
 24 34  1  0  0  0  0
 24 35  1  0  0  0  0
 39 44  1  0  0  0  0
  8 13  1  0  0  0  0
 18 27  1  0  0  0  0
 25 36  1  0  0  0  0
 25 37  1  0  0  0  0
 48 50  1  0  0  0  0
  7 12  1  0  0  0  0
 38 43  1  0  0  0  0
 17 26  1  0  0  0  0
M  END
$$$$

  -OEChem-05262214473D

 53 52  0     1  0  0  0  0  0999 V2000
   -1.0338   -5.6785    0.1476 C   0  0  0  0  0  0  0  0  0  0  0  0
   -2.0514   -5.7797    0.8227 O   0  0  0  0  0  0  0  0  0  0  0  0
   -0.6558   -6.7819   -0.7841 C   0  0  0  0  0  0  0  0  0  0  0  0
   -0.0111   -7.5354   -0.3038 H   0  0  0  0  0  0  0  0  0  0  0  0
   -1.5317   -7.3401   -1.1520 H   0  0  0  0  0  0  0  0  0  0  0  0
   -0.1109   -6.4687   -1.6890 H   0  0  0  0  0  0  0  0  0  0  0  0
   -0.1543   -4.6083    0.1480 N   0  0  0  0  0  0  0  0  0  0  0  0
   -0.3302   -3.4398    0.9696 C   0  0  2  0  0  0  0  0  0  0  0  0
    0.2328   -2.2439    0.2131 C   0  0  0  0  0  0  0  0  0  0  0  0
    1.2097   -2.3192   -0.5294 O   0  0  0  0  0  0  0  0  0  0  0  0
    0.3557   -3.6024    2.3171 C   0  0  0  0  0  0  0  0  0  0  0  0
    0.6584   -4.6506   -0.4643 H   0  0  0  0  0  0  0  0  0  0  0  0
   -1.4091   -3.3101    1.1082 H   0  0  0  0  0  0  0  0  0  0  0  0
    1.4375   -3.7336    2.1985 H   0  0  0  0  0  0  0  0  0  0  0  0
    0.1969   -2.7243    2.9517 H   0  0  0  0  0  0  0  0  0  0  0  0
   -0.0294   -4.4803    2.8470 H   0  0  0  0  0  0  0  0  0  0  0  0
   -0.4616   -1.0893    0.5050 N   0  0  0  0  0  0  0  0  0  0  0  0
   -0.0884    0.2050   -0.0621 C   0  0  2  0  0  0  0  0  0  0  0  0
   -1.2577    1.1606    0.1579 C   0  0  0  0  0  0  0  0  0  0  0  0
   -1.6991    1.4339    1.2723 O   0  0  0  0  0  0  0  0  0  0  0  0
    0.2218    0.1147   -1.5637 C   0  0  0  0  0  0  0  0  0  0  0  0
    1.4947   -0.6792   -1.8750 C   0  0  0  0  0  0  0  0  0  0  0  0
    1.7698   -0.7171   -3.3808 C   0  0  0  0  0  0  0  0  0  0  0  0
    3.0255   -1.5296   -3.6925 C   0  0  0  0  0  0  0  0  0  0  0  0
    3.2560   -1.5729   -5.1316 N   0  0  0  0  0  0  0  0  0  0  0  0
   -1.2794   -1.1113    1.0935 H   0  0  0  0  0  0  0  0  0  0  0  0
    0.7887    0.5820    0.4776 H   0  0  0  0  0  0  0  0  0  0  0  0
    0.3292    1.1291   -1.9701 H   0  0  0  0  0  0  0  0  0  0  0  0
   -0.6292   -0.3328   -2.0950 H   0  0  0  0  0  0  0  0  0  0  0  0
    1.4005   -1.7056   -1.5029 H   0  0  0  0  0  0  0  0  0  0  0  0
    2.3473   -0.2220   -1.3586 H   0  0  0  0  0  0  0  0  0  0  0  0
    0.9058   -1.1533   -3.8980 H   0  0  0  0  0  0  0  0  0  0  0  0
    1.8881    0.3070   -3.7568 H   0  0  0  0  0  0  0  0  0  0  0  0
    2.9205   -2.5511   -3.3110 H   0  0  0  0  0  0  0  0  0  0  0  0
    3.8965   -1.0790   -3.2050 H   0  0  0  0  0  0  0  0  0  0  0  0
    2.5223   -1.0770   -5.5812 H   0  0  0  0  0  0  0  0  0  0  0  0
    4.1328   -1.1461   -5.3205 H   0  0  0  0  0  0  0  0  0  0  0  0
   -1.7622    1.6528   -1.0379 N   0  0  0  0  0  0  0  0  0  0  0  0
   -2.8851    2.5598   -1.1107 C   0  0  2  0  0  0  0  0  0  0  0  0
   -3.6431    2.2675   -2.3989 C   0  0  0  0  0  0  0  0  0  0  0  0
   -3.0898    1.9063   -3.4355 O   0  0  0  0  0  0  0  0  0  0  0  0
   -2.4289    4.0098   -1.0655 C   0  0  0  0  0  0  0  0  0  0  0  0
   -1.3259    1.3778   -1.9129 H   0  0  0  0  0  0  0  0  0  0  0  0
   -3.5265    2.3387   -0.2506 H   0  0  0  0  0  0  0  0  0  0  0  0
   -1.7851    4.2501   -1.9194 H   0  0  0  0  0  0  0  0  0  0  0  0
   -3.2824    4.6953   -1.0919 H   0  0  0  0  0  0  0  0  0  0  0  0
   -1.8584    4.2106   -0.1523 H   0  0  0  0  0  0  0  0  0  0  0  0
   -5.0051    2.4990   -2.2670 N   0  0  0  0  0  0  0  0  0  0  0  0
   -5.9334    2.3349   -3.3613 C   0  0  0  0  0  0  0  0  0  0  0  0
   -5.3824    2.7579   -1.3602 H   0  0  0  0  0  0  0  0  0  0  0  0
   -6.0619    3.2959   -3.8810 H   0  0  0  0  0  0  0  0  0  0  0  0
   -5.5409    1.5868   -4.0658 H   0  0  0  0  0  0  0  0  0  0  0  0
   -6.9044    1.9968   -2.9706 H   0  0  0  0  0  0  0  0  0  0  0  0
  1  3  1  0  0  0  0
  1  7  1  0  0  0  0
  1  2  2  0  0  0  0
 39 40  1  0  0  0  0
 40 48  1  0  0  0  0
 40 41  2  0  0  0  0
  8  9  1  0  0  0  0
  9 17  1  0  0  0  0
  9 10  2  0  0  0  0
 18 19  1  0  0  0  0
 19 38  1  0  0  0  0
 19 20  2  0  0  0  0
 39 42  1  0  0  0  0
  8 11  1  0  0  0  0
 48 49  1  0  0  0  0
 22 23  1  0  0  0  0
 21 22  1  0  0  0  0
 23 24  1  0  0  0  0
 18 21  1  0  0  0  0
 24 25  1  0  0  0  0
 38 39  1  0  0  0  0
  7  8  1  0  0  0  0
 17 18  1  0  0  0  0
  3  4  1  0  0  0  0
  3  5  1  0  0  0  0
  3  6  1  0  0  0  0
 42 45  1  0  0  0  0
 42 46  1  0  0  0  0
 42 47  1  0  0  0  0
 11 14  1  0  0  0  0
 11 15  1  0  0  0  0
 11 16  1  0  0  0  0
 49 51  1  0  0  0  0
 49 52  1  0  0  0  0
 49 53  1  0  0  0  0
 22 30  1  0  0  0  0
 22 31  1  0  0  0  0
 23 32  1  0  0  0  0
 23 33  1  0  0  0  0
 21 28  1  0  0  0  0
 21 29  1  0  0  0  0
 24 34  1  0  0  0  0
 24 35  1  0  0  0  0
 39 44  1  0  0  0  0
  8 13  1  0  0  0  0
 18 27  1  0  0  0  0
 25 36  1  0  0  0  0
 25 37  1  0  0  0  0
 48 50  1  0  0  0  0
  7 12  1  0  0  0  0
 38 43  1  0  0  0  0
 17 26  1  0  0  0  0
M  END
$$$$

  -OEChem-05262214473D

 53 52  0     1  0  0  0  0  0999 V2000
   -1.0338   -5.6785    0.1476 C   0  0  0  0  0  0  0  0  0  0  0  0
   -2.0514   -5.7797    0.8227 O   0  0  0  0  0  0  0  0  0  0  0  0
   -0.6558   -6.7819   -0.7841 C   0  0  0  0  0  0  0  0  0  0  0  0
   -0.0111   -7.5354   -0.3038 H   0  0  0  0  0  0  0  0  0  0  0  0
   -1.5317   -7.3401   -1.1520 H   0  0  0  0  0  0  0  0  0  0  0  0
   -0.1109   -6.4687   -1.6890 H   0  0  0  0  0  0  0  0  0  0  0  0
   -0.1543   -4.6083    0.1480 N   0  0  0  0  0  0  0  0  0  0  0  0
   -0.3302   -3.4398    0.9696 C   0  0  2  0  0  0  0  0  0  0  0  0
    0.2328   -2.2439    0.2131 C   0  0  0  0  0  0  0  0  0  0  0  0
    1.2097   -2.3192   -0.5294 O   0  0  0  0  0  0  0  0  0  0  0  0
    0.3557   -3.6024    2.3171 C   0  0  0  0  0  0  0  0  0  0  0  0
    0.6584   -4.6506   -0.4643 H   0  0  0  0  0  0  0  0  0  0  0  0
   -1.4091   -3.3101    1.1082 H   0  0  0  0  0  0  0  0  0  0  0  0
    1.4375   -3.7336    2.1985 H   0  0  0  0  0  0  0  0  0  0  0  0
    0.1969   -2.7243    2.9517 H   0  0  0  0  0  0  0  0  0  0  0  0
   -0.0294   -4.4803    2.8470 H   0  0  0  0  0  0  0  0  0  0  0  0
   -0.4616   -1.0893    0.5050 N   0  0  0  0  0  0  0  0  0  0  0  0
   -0.0884    0.2050   -0.0621 C   0  0  2  0  0  0  0  0  0  0  0  0
   -1.2577    1.1606    0.1579 C   0  0  0  0  0  0  0  0  0  0  0  0
   -1.5312    1.6434    1.2550 O   0  0  0  0  0  0  0  0  0  0  0  0
    0.2218    0.1147   -1.5637 C   0  0  0  0  0  0  0  0  0  0  0  0
    1.4947   -0.6792   -1.8750 C   0  0  0  0  0  0  0  0  0  0  0  0
    1.7698   -0.7171   -3.3808 C   0  0  0  0  0  0  0  0  0  0  0  0
    3.0255   -1.5296   -3.6925 C   0  0  0  0  0  0  0  0  0  0  0  0
    3.2560   -1.5729   -5.1316 N   0  0  0  0  0  0  0  0  0  0  0  0
   -1.2794   -1.1113    1.0935 H   0  0  0  0  0  0  0  0  0  0  0  0
    0.7887    0.5820    0.4776 H   0  0  0  0  0  0  0  0  0  0  0  0
    0.3292    1.1291   -1.9701 H   0  0  0  0  0  0  0  0  0  0  0  0
   -0.6292   -0.3328   -2.0950 H   0  0  0  0  0  0  0  0  0  0  0  0
    1.4005   -1.7056   -1.5029 H   0  0  0  0  0  0  0  0  0  0  0  0
    2.3473   -0.2220   -1.3586 H   0  0  0  0  0  0  0  0  0  0  0  0
    0.9058   -1.1533   -3.8980 H   0  0  0  0  0  0  0  0  0  0  0  0
    1.8881    0.3070   -3.7568 H   0  0  0  0  0  0  0  0  0  0  0  0
    2.9205   -2.5511   -3.3110 H   0  0  0  0  0  0  0  0  0  0  0  0
    3.8965   -1.0790   -3.2050 H   0  0  0  0  0  0  0  0  0  0  0  0
    2.5223   -1.0770   -5.5812 H   0  0  0  0  0  0  0  0  0  0  0  0
    4.1328   -1.1461   -5.3205 H   0  0  0  0  0  0  0  0  0  0  0  0
   -1.9708    1.3912   -1.0104 N   0  0  0  0  0  0  0  0  0  0  0  0
   -3.1381    2.2412   -1.0717 C   0  0  2  0  0  0  0  0  0  0  0  0
   -4.0736    1.6796   -2.1342 C   0  0  0  0  0  0  0  0  0  0  0  0
   -3.6728    1.1287   -3.1574 O   0  0  0  0  0  0  0  0  0  0  0  0
   -2.7590    3.6798   -1.3868 C   0  0  0  0  0  0  0  0  0  0  0  0
   -1.6644    0.9548   -1.8749 H   0  0  0  0  0  0  0  0  0  0  0  0
   -3.6225    2.1844   -0.0908 H   0  0  0  0  0  0  0  0  0  0  0  0
   -2.2723    3.7566   -2.3659 H   0  0  0  0  0  0  0  0  0  0  0  0
   -3.6414    4.3279   -1.4046 H   0  0  0  0  0  0  0  0  0  0  0  0
   -2.0627    4.0724   -0.6378 H   0  0  0  0  0  0  0  0  0  0  0  0
   -5.4081    1.9043   -1.8260 N   0  0  0  0  0  0  0  0  0  0  0  0
   -6.4877    1.5038   -2.6978 C   0  0  0  0  0  0  0  0  0  0  0  0
   -5.6504    2.3325   -0.9374 H   0  0  0  0  0  0  0  0  0  0  0  0
   -6.7482    2.3375   -3.3665 H   0  0  0  0  0  0  0  0  0  0  0  0
   -6.1721    0.6375   -3.2978 H   0  0  0  0  0  0  0  0  0  0  0  0
   -7.3651    1.2310   -2.0931 H   0  0  0  0  0  0  0  0  0  0  0  0
  1  3  1  0  0  0  0
  1  7  1  0  0  0  0
  1  2  2  0  0  0  0
 39 40  1  0  0  0  0
 40 48  1  0  0  0  0
 40 41  2  0  0  0  0
  8  9  1  0  0  0  0
  9 17  1  0  0  0  0
  9 10  2  0  0  0  0
 18 19  1  0  0  0  0
 19 38  1  0  0  0  0
 19 20  2  0  0  0  0
 39 42  1  0  0  0  0
  8 11  1  0  0  0  0
 48 49  1  0  0  0  0
 22 23  1  0  0  0  0
 21 22  1  0  0  0  0
 23 24  1  0  0  0  0
 18 21  1  0  0  0  0
 24 25  1  0  0  0  0
 38 39  1  0  0  0  0
  7  8  1  0  0  0  0
 17 18  1  0  0  0  0
  3  4  1  0  0  0  0
  3  5  1  0  0  0  0
  3  6  1  0  0  0  0
 42 45  1  0  0  0  0
 42 46  1  0  0  0  0
 42 47  1  0  0  0  0
 11 14  1  0  0  0  0
 11 15  1  0  0  0  0
 11 16  1  0  0  0  0
 49 51  1  0  0  0  0
 49 52  1  0  0  0  0
 49 53  1  0  0  0  0
 22 30  1  0  0  0  0
 22 31  1  0  0  0  0
 23 32  1  0  0  0  0
 23 33  1  0  0  0  0
 21 28  1  0  0  0  0
 21 29  1  0  0  0  0
 24 34  1  0  0  0  0
 24 35  1  0  0  0  0
 39 44  1  0  0  0  0
  8 13  1  0  0  0  0
 18 27  1  0  0  0  0
 25 36  1  0  0  0  0
 25 37  1  0  0  0  0
 48 50  1  0  0  0  0
  7 12  1  0  0  0  0
 38 43  1  0  0  0  0
 17 26  1  0  0  0  0
M  END
$$$$

  -OEChem-05262214473D

 53 52  0     1  0  0  0  0  0999 V2000
   -1.0338   -5.6785    0.1476 C   0  0  0  0  0  0  0  0  0  0  0  0
   -2.0514   -5.7797    0.8227 O   0  0  0  0  0  0  0  0  0  0  0  0
   -0.6558   -6.7819   -0.7841 C   0  0  0  0  0  0  0  0  0  0  0  0
   -0.0111   -7.5354   -0.3038 H   0  0  0  0  0  0  0  0  0  0  0  0
   -1.5317   -7.3401   -1.1520 H   0  0  0  0  0  0  0  0  0  0  0  0
   -0.1109   -6.4687   -1.6890 H   0  0  0  0  0  0  0  0  0  0  0  0
   -0.1543   -4.6083    0.1480 N   0  0  0  0  0  0  0  0  0  0  0  0
   -0.3302   -3.4398    0.9696 C   0  0  2  0  0  0  0  0  0  0  0  0
    0.2328   -2.2439    0.2131 C   0  0  0  0  0  0  0  0  0  0  0  0
    1.2097   -2.3192   -0.5294 O   0  0  0  0  0  0  0  0  0  0  0  0
    0.3557   -3.6024    2.3171 C   0  0  0  0  0  0  0  0  0  0  0  0
    0.6584   -4.6506   -0.4643 H   0  0  0  0  0  0  0  0  0  0  0  0
   -1.4091   -3.3101    1.1082 H   0  0  0  0  0  0  0  0  0  0  0  0
    1.4375   -3.7336    2.1985 H   0  0  0  0  0  0  0  0  0  0  0  0
    0.1969   -2.7243    2.9517 H   0  0  0  0  0  0  0  0  0  0  0  0
   -0.0294   -4.4803    2.8470 H   0  0  0  0  0  0  0  0  0  0  0  0
   -0.4616   -1.0893    0.5050 N   0  0  0  0  0  0  0  0  0  0  0  0
   -0.0884    0.2050   -0.0621 C   0  0  2  0  0  0  0  0  0  0  0  0
   -1.2577    1.1606    0.1579 C   0  0  0  0  0  0  0  0  0  0  0  0
   -1.3796    1.8486    1.1694 O   0  0  0  0  0  0  0  0  0  0  0  0
    0.2218    0.1147   -1.5637 C   0  0  0  0  0  0  0  0  0  0  0  0
    1.4947   -0.6792   -1.8750 C   0  0  0  0  0  0  0  0  0  0  0  0
    1.7698   -0.7171   -3.3808 C   0  0  0  0  0  0  0  0  0  0  0  0
    3.0255   -1.5296   -3.6925 C   0  0  0  0  0  0  0  0  0  0  0  0
    3.2560   -1.5729   -5.1316 N   0  0  0  0  0  0  0  0  0  0  0  0
   -1.2794   -1.1113    1.0935 H   0  0  0  0  0  0  0  0  0  0  0  0
    0.7887    0.5820    0.4776 H   0  0  0  0  0  0  0  0  0  0  0  0
    0.3292    1.1291   -1.9701 H   0  0  0  0  0  0  0  0  0  0  0  0
   -0.6292   -0.3328   -2.0950 H   0  0  0  0  0  0  0  0  0  0  0  0
    1.4005   -1.7056   -1.5029 H   0  0  0  0  0  0  0  0  0  0  0  0
    2.3473   -0.2220   -1.3586 H   0  0  0  0  0  0  0  0  0  0  0  0
    0.9058   -1.1533   -3.8980 H   0  0  0  0  0  0  0  0  0  0  0  0
    1.8881    0.3070   -3.7568 H   0  0  0  0  0  0  0  0  0  0  0  0
    2.9205   -2.5511   -3.3110 H   0  0  0  0  0  0  0  0  0  0  0  0
    3.8965   -1.0790   -3.2050 H   0  0  0  0  0  0  0  0  0  0  0  0
    2.5223   -1.0770   -5.5812 H   0  0  0  0  0  0  0  0  0  0  0  0
    4.1328   -1.1461   -5.3205 H   0  0  0  0  0  0  0  0  0  0  0  0
   -2.1581    1.1361   -0.8982 N   0  0  0  0  0  0  0  0  0  0  0  0
   -3.3643    1.9317   -0.9299 C   0  0  2  0  0  0  0  0  0  0  0  0
   -4.4247    1.1482   -1.6921 C   0  0  0  0  0  0  0  0  0  0  0  0
   -4.1620    0.4110   -2.6401 O   0  0  0  0  0  0  0  0  0  0  0  0
   -3.1176    3.2851   -1.5782 C   0  0  0  0  0  0  0  0  0  0  0  0
   -1.9694    0.5412   -1.6995 H   0  0  0  0  0  0  0  0  0  0  0  0
   -3.6836    2.0635    0.1097 H   0  0  0  0  0  0  0  0  0  0  0  0
   -2.7968    3.1733   -2.6204 H   0  0  0  0  0  0  0  0  0  0  0  0
   -4.0252    3.8976   -1.5757 H   0  0  0  0  0  0  0  0  0  0  0  0
   -2.3336    3.8349   -1.0463 H   0  0  0  0  0  0  0  0  0  0  0  0
   -5.7036    1.4023   -1.2169 N   0  0  0  0  0  0  0  0  0  0  0  0
   -6.8845    0.8119   -1.8024 C   0  0  0  0  0  0  0  0  0  0  0  0
   -5.8249    1.9955   -0.4013 H   0  0  0  0  0  0  0  0  0  0  0  0
   -7.2920    1.4881   -2.5683 H   0  0  0  0  0  0  0  0  0  0  0  0
   -6.6219   -0.1507   -2.2655 H   0  0  0  0  0  0  0  0  0  0  0  0
   -7.6393    0.6481   -1.0191 H   0  0  0  0  0  0  0  0  0  0  0  0
  1  3  1  0  0  0  0
  1  7  1  0  0  0  0
  1  2  2  0  0  0  0
 39 40  1  0  0  0  0
 40 48  1  0  0  0  0
 40 41  2  0  0  0  0
  8  9  1  0  0  0  0
  9 17  1  0  0  0  0
  9 10  2  0  0  0  0
 18 19  1  0  0  0  0
 19 38  1  0  0  0  0
 19 20  2  0  0  0  0
 39 42  1  0  0  0  0
  8 11  1  0  0  0  0
 48 49  1  0  0  0  0
 22 23  1  0  0  0  0
 21 22  1  0  0  0  0
 23 24  1  0  0  0  0
 18 21  1  0  0  0  0
 24 25  1  0  0  0  0
 38 39  1  0  0  0  0
  7  8  1  0  0  0  0
 17 18  1  0  0  0  0
  3  4  1  0  0  0  0
  3  5  1  0  0  0  0
  3  6  1  0  0  0  0
 42 45  1  0  0  0  0
 42 46  1  0  0  0  0
 42 47  1  0  0  0  0
 11 14  1  0  0  0  0
 11 15  1  0  0  0  0
 11 16  1  0  0  0  0
 49 51  1  0  0  0  0
 49 52  1  0  0  0  0
 49 53  1  0  0  0  0
 22 30  1  0  0  0  0
 22 31  1  0  0  0  0
 23 32  1  0  0  0  0
 23 33  1  0  0  0  0
 21 28  1  0  0  0  0
 21 29  1  0  0  0  0
 24 34  1  0  0  0  0
 24 35  1  0  0  0  0
 39 44  1  0  0  0  0
  8 13  1  0  0  0  0
 18 27  1  0  0  0  0
 25 36  1  0  0  0  0
 25 37  1  0  0  0  0
 48 50  1  0  0  0  0
  7 12  1  0  0  0  0
 38 43  1  0  0  0  0
 17 26  1  0  0  0  0
M  END
$$$$

  -OEChem-05262214473D

 53 52  0     1  0  0  0  0  0999 V2000
   -1.0338   -5.6785    0.1476 C   0  0  0  0  0  0  0  0  0  0  0  0
   -2.0514   -5.7797    0.8227 O   0  0  0  0  0  0  0  0  0  0  0  0
   -0.6558   -6.7819   -0.7841 C   0  0  0  0  0  0  0  0  0  0  0  0
   -0.0111   -7.5354   -0.3038 H   0  0  0  0  0  0  0  0  0  0  0  0
   -1.5317   -7.3401   -1.1520 H   0  0  0  0  0  0  0  0  0  0  0  0
   -0.1109   -6.4687   -1.6890 H   0  0  0  0  0  0  0  0  0  0  0  0
   -0.1543   -4.6083    0.1480 N   0  0  0  0  0  0  0  0  0  0  0  0
   -0.3302   -3.4398    0.9696 C   0  0  2  0  0  0  0  0  0  0  0  0
    0.2328   -2.2439    0.2131 C   0  0  0  0  0  0  0  0  0  0  0  0
    1.2097   -2.3192   -0.5294 O   0  0  0  0  0  0  0  0  0  0  0  0
    0.3557   -3.6024    2.3171 C   0  0  0  0  0  0  0  0  0  0  0  0
    0.6584   -4.6506   -0.4643 H   0  0  0  0  0  0  0  0  0  0  0  0
   -1.4091   -3.3101    1.1082 H   0  0  0  0  0  0  0  0  0  0  0  0
    1.4375   -3.7336    2.1985 H   0  0  0  0  0  0  0  0  0  0  0  0
    0.1969   -2.7243    2.9517 H   0  0  0  0  0  0  0  0  0  0  0  0
   -0.0294   -4.4803    2.8470 H   0  0  0  0  0  0  0  0  0  0  0  0
   -0.4616   -1.0893    0.5050 N   0  0  0  0  0  0  0  0  0  0  0  0
   -0.0884    0.2050   -0.0621 C   0  0  2  0  0  0  0  0  0  0  0  0
   -1.2577    1.1606    0.1579 C   0  0  0  0  0  0  0  0  0  0  0  0
   -1.2547    2.0355    1.0215 O   0  0  0  0  0  0  0  0  0  0  0  0
    0.2218    0.1147   -1.5637 C   0  0  0  0  0  0  0  0  0  0  0  0
    1.4947   -0.6792   -1.8750 C   0  0  0  0  0  0  0  0  0  0  0  0
    1.7698   -0.7171   -3.3808 C   0  0  0  0  0  0  0  0  0  0  0  0
    3.0255   -1.5296   -3.6925 C   0  0  0  0  0  0  0  0  0  0  0  0
    3.2560   -1.5729   -5.1316 N   0  0  0  0  0  0  0  0  0  0  0  0
   -1.2794   -1.1113    1.0935 H   0  0  0  0  0  0  0  0  0  0  0  0
    0.7887    0.5820    0.4776 H   0  0  0  0  0  0  0  0  0  0  0  0
    0.3292    1.1291   -1.9701 H   0  0  0  0  0  0  0  0  0  0  0  0
   -0.6292   -0.3328   -2.0950 H   0  0  0  0  0  0  0  0  0  0  0  0
    1.4005   -1.7056   -1.5029 H   0  0  0  0  0  0  0  0  0  0  0  0
    2.3473   -0.2220   -1.3586 H   0  0  0  0  0  0  0  0  0  0  0  0
    0.9058   -1.1533   -3.8980 H   0  0  0  0  0  0  0  0  0  0  0  0
    1.8881    0.3070   -3.7568 H   0  0  0  0  0  0  0  0  0  0  0  0
    2.9205   -2.5511   -3.3110 H   0  0  0  0  0  0  0  0  0  0  0  0
    3.8965   -1.0790   -3.2050 H   0  0  0  0  0  0  0  0  0  0  0  0
    2.5223   -1.0770   -5.5812 H   0  0  0  0  0  0  0  0  0  0  0  0
    4.1328   -1.1461   -5.3205 H   0  0  0  0  0  0  0  0  0  0  0  0
   -2.3113    0.9050   -0.7089 N   0  0  0  0  0  0  0  0  0  0  0  0
   -3.5482    1.6525   -0.6948 C   0  0  2  0  0  0  0  0  0  0  0  0
   -4.6723    0.7094   -1.1028 C   0  0  0  0  0  0  0  0  0  0  0  0
   -4.5238   -0.1979   -1.9188 O   0  0  0  0  0  0  0  0  0  0  0  0
   -3.4802    2.8524   -1.6267 C   0  0  0  0  0  0  0  0  0  0  0  0
   -2.2202    0.1650   -1.3985 H   0  0  0  0  0  0  0  0  0  0  0  0
   -3.7055    1.9842    0.3373 H   0  0  0  0  0  0  0  0  0  0  0  0
   -3.3229    2.5398   -2.6654 H   0  0  0  0  0  0  0  0  0  0  0  0
   -4.4076    3.4337   -1.5933 H   0  0  0  0  0  0  0  0  0  0  0  0
   -2.6526    3.5144   -1.3499 H   0  0  0  0  0  0  0  0  0  0  0  0
   -5.8717    1.0272   -0.4810 N   0  0  0  0  0  0  0  0  0  0  0  0
   -7.0970    0.3063   -0.7358 C   0  0  0  0  0  0  0  0  0  0  0  0
   -5.8940    1.7699    0.2116 H   0  0  0  0  0  0  0  0  0  0  0  0
   -7.6562    0.8058   -1.5407 H   0  0  0  0  0  0  0  0  0  0  0  0
   -6.8597   -0.7241   -1.0391 H   0  0  0  0  0  0  0  0  0  0  0  0
   -7.7083    0.2879    0.1784 H   0  0  0  0  0  0  0  0  0  0  0  0
  1  3  1  0  0  0  0
  1  7  1  0  0  0  0
  1  2  2  0  0  0  0
 39 40  1  0  0  0  0
 40 48  1  0  0  0  0
 40 41  2  0  0  0  0
  8  9  1  0  0  0  0
  9 17  1  0  0  0  0
  9 10  2  0  0  0  0
 18 19  1  0  0  0  0
 19 38  1  0  0  0  0
 19 20  2  0  0  0  0
 39 42  1  0  0  0  0
  8 11  1  0  0  0  0
 48 49  1  0  0  0  0
 22 23  1  0  0  0  0
 21 22  1  0  0  0  0
 23 24  1  0  0  0  0
 18 21  1  0  0  0  0
 24 25  1  0  0  0  0
 38 39  1  0  0  0  0
  7  8  1  0  0  0  0
 17 18  1  0  0  0  0
  3  4  1  0  0  0  0
  3  5  1  0  0  0  0
  3  6  1  0  0  0  0
 42 45  1  0  0  0  0
 42 46  1  0  0  0  0
 42 47  1  0  0  0  0
 11 14  1  0  0  0  0
 11 15  1  0  0  0  0
 11 16  1  0  0  0  0
 49 51  1  0  0  0  0
 49 52  1  0  0  0  0
 49 53  1  0  0  0  0
 22 30  1  0  0  0  0
 22 31  1  0  0  0  0
 23 32  1  0  0  0  0
 23 33  1  0  0  0  0
 21 28  1  0  0  0  0
 21 29  1  0  0  0  0
 24 34  1  0  0  0  0
 24 35  1  0  0  0  0
 39 44  1  0  0  0  0
  8 13  1  0  0  0  0
 18 27  1  0  0  0  0
 25 36  1  0  0  0  0
 25 37  1  0  0  0  0
 48 50  1  0  0  0  0
  7 12  1  0  0  0  0
 38 43  1  0  0  0  0
 17 26  1  0  0  0  0
M  END
$$$$

  -OEChem-05262214473D

 53 52  0     1  0  0  0  0  0999 V2000
   -1.0338   -5.6785    0.1476 C   0  0  0  0  0  0  0  0  0  0  0  0
   -2.0514   -5.7797    0.8227 O   0  0  0  0  0  0  0  0  0  0  0  0
   -0.6558   -6.7819   -0.7841 C   0  0  0  0  0  0  0  0  0  0  0  0
   -0.0111   -7.5354   -0.3038 H   0  0  0  0  0  0  0  0  0  0  0  0
   -1.5317   -7.3401   -1.1520 H   0  0  0  0  0  0  0  0  0  0  0  0
   -0.1109   -6.4687   -1.6890 H   0  0  0  0  0  0  0  0  0  0  0  0
   -0.1543   -4.6083    0.1480 N   0  0  0  0  0  0  0  0  0  0  0  0
   -0.3302   -3.4398    0.9696 C   0  0  2  0  0  0  0  0  0  0  0  0
    0.2328   -2.2439    0.2131 C   0  0  0  0  0  0  0  0  0  0  0  0
    1.2097   -2.3192   -0.5294 O   0  0  0  0  0  0  0  0  0  0  0  0
    0.3557   -3.6024    2.3171 C   0  0  0  0  0  0  0  0  0  0  0  0
    0.6584   -4.6506   -0.4643 H   0  0  0  0  0  0  0  0  0  0  0  0
   -1.4091   -3.3101    1.1082 H   0  0  0  0  0  0  0  0  0  0  0  0
    1.4375   -3.7336    2.1985 H   0  0  0  0  0  0  0  0  0  0  0  0
    0.1969   -2.7243    2.9517 H   0  0  0  0  0  0  0  0  0  0  0  0
   -0.0294   -4.4803    2.8470 H   0  0  0  0  0  0  0  0  0  0  0  0
   -0.4616   -1.0893    0.5050 N   0  0  0  0  0  0  0  0  0  0  0  0
   -0.0884    0.2050   -0.0621 C   0  0  2  0  0  0  0  0  0  0  0  0
   -1.2577    1.1606    0.1579 C   0  0  0  0  0  0  0  0  0  0  0  0
   -1.1650    2.1914    0.8214 O   0  0  0  0  0  0  0  0  0  0  0  0
    0.2218    0.1147   -1.5637 C   0  0  0  0  0  0  0  0  0  0  0  0
    1.4947   -0.6792   -1.8750 C   0  0  0  0  0  0  0  0  0  0  0  0
    1.7698   -0.7171   -3.3808 C   0  0  0  0  0  0  0  0  0  0  0  0
    3.0255   -1.5296   -3.6925 C   0  0  0  0  0  0  0  0  0  0  0  0
    3.2560   -1.5729   -5.1316 N   0  0  0  0  0  0  0  0  0  0  0  0
   -1.2794   -1.1113    1.0935 H   0  0  0  0  0  0  0  0  0  0  0  0
    0.7887    0.5820    0.4776 H   0  0  0  0  0  0  0  0  0  0  0  0
    0.3292    1.1291   -1.9701 H   0  0  0  0  0  0  0  0  0  0  0  0
   -0.6292   -0.3328   -2.0950 H   0  0  0  0  0  0  0  0  0  0  0  0
    1.4005   -1.7056   -1.5029 H   0  0  0  0  0  0  0  0  0  0  0  0
    2.3473   -0.2220   -1.3586 H   0  0  0  0  0  0  0  0  0  0  0  0
    0.9058   -1.1533   -3.8980 H   0  0  0  0  0  0  0  0  0  0  0  0
    1.8881    0.3070   -3.7568 H   0  0  0  0  0  0  0  0  0  0  0  0
    2.9205   -2.5511   -3.3110 H   0  0  0  0  0  0  0  0  0  0  0  0
    3.8965   -1.0790   -3.2050 H   0  0  0  0  0  0  0  0  0  0  0  0
    2.5223   -1.0770   -5.5812 H   0  0  0  0  0  0  0  0  0  0  0  0
    4.1328   -1.1461   -5.3205 H   0  0  0  0  0  0  0  0  0  0  0  0
   -2.4200    0.7136   -0.4554 N   0  0  0  0  0  0  0  0  0  0  0  0
   -3.6774    1.4225   -0.3826 C   0  0  2  0  0  0  0  0  0  0  0  0
   -4.7996    0.3933   -0.4065 C   0  0  0  0  0  0  0  0  0  0  0  0
   -4.7337   -0.6565   -1.0427 O   0  0  0  0  0  0  0  0  0  0  0  0
   -3.8222    2.4113   -1.5290 C   0  0  0  0  0  0  0  0  0  0  0  0
   -2.3996   -0.1480   -0.9926 H   0  0  0  0  0  0  0  0  0  0  0  0
   -3.6869    1.9520    0.5763 H   0  0  0  0  0  0  0  0  0  0  0  0
   -3.8148    1.8993   -2.4981 H   0  0  0  0  0  0  0  0  0  0  0  0
   -4.7625    2.9679   -1.4564 H   0  0  0  0  0  0  0  0  0  0  0  0
   -2.9980    3.1327   -1.5279 H   0  0  0  0  0  0  0  0  0  0  0  0
   -5.9007    0.8045    0.3315 N   0  0  0  0  0  0  0  0  0  0  0  0
   -7.1105    0.0216    0.4290 C   0  0  0  0  0  0  0  0  0  0  0  0
   -5.8530    1.6708    0.8597 H   0  0  0  0  0  0  0  0  0  0  0  0
   -7.8160    0.3368   -0.3538 H   0  0  0  0  0  0  0  0  0  0  0  0
   -6.8693   -1.0436    0.2977 H   0  0  0  0  0  0  0  0  0  0  0  0
   -7.5675    0.1748    1.4178 H   0  0  0  0  0  0  0  0  0  0  0  0
  1  3  1  0  0  0  0
  1  7  1  0  0  0  0
  1  2  2  0  0  0  0
 39 40  1  0  0  0  0
 40 48  1  0  0  0  0
 40 41  2  0  0  0  0
  8  9  1  0  0  0  0
  9 17  1  0  0  0  0
  9 10  2  0  0  0  0
 18 19  1  0  0  0  0
 19 38  1  0  0  0  0
 19 20  2  0  0  0  0
 39 42  1  0  0  0  0
  8 11  1  0  0  0  0
 48 49  1  0  0  0  0
 22 23  1  0  0  0  0
 21 22  1  0  0  0  0
 23 24  1  0  0  0  0
 18 21  1  0  0  0  0
 24 25  1  0  0  0  0
 38 39  1  0  0  0  0
  7  8  1  0  0  0  0
 17 18  1  0  0  0  0
  3  4  1  0  0  0  0
  3  5  1  0  0  0  0
  3  6  1  0  0  0  0
 42 45  1  0  0  0  0
 42 46  1  0  0  0  0
 42 47  1  0  0  0  0
 11 14  1  0  0  0  0
 11 15  1  0  0  0  0
 11 16  1  0  0  0  0
 49 51  1  0  0  0  0
 49 52  1  0  0  0  0
 49 53  1  0  0  0  0
 22 30  1  0  0  0  0
 22 31  1  0  0  0  0
 23 32  1  0  0  0  0
 23 33  1  0  0  0  0
 21 28  1  0  0  0  0
 21 29  1  0  0  0  0
 24 34  1  0  0  0  0
 24 35  1  0  0  0  0
 39 44  1  0  0  0  0
  8 13  1  0  0  0  0
 18 27  1  0  0  0  0
 25 36  1  0  0  0  0
 25 37  1  0  0  0  0
 48 50  1  0  0  0  0
  7 12  1  0  0  0  0
 38 43  1  0  0  0  0
 17 26  1  0  0  0  0
M  END
$$$$

  -OEChem-05262214473D

 53 52  0     1  0  0  0  0  0999 V2000
   -1.0338   -5.6785    0.1476 C   0  0  0  0  0  0  0  0  0  0  0  0
   -2.0514   -5.7797    0.8227 O   0  0  0  0  0  0  0  0  0  0  0  0
   -0.6558   -6.7819   -0.7841 C   0  0  0  0  0  0  0  0  0  0  0  0
   -0.0111   -7.5354   -0.3038 H   0  0  0  0  0  0  0  0  0  0  0  0
   -1.5317   -7.3401   -1.1520 H   0  0  0  0  0  0  0  0  0  0  0  0
   -0.1109   -6.4687   -1.6890 H   0  0  0  0  0  0  0  0  0  0  0  0
   -0.1543   -4.6083    0.1480 N   0  0  0  0  0  0  0  0  0  0  0  0
   -0.3302   -3.4398    0.9696 C   0  0  2  0  0  0  0  0  0  0  0  0
    0.2328   -2.2439    0.2131 C   0  0  0  0  0  0  0  0  0  0  0  0
    1.2097   -2.3192   -0.5294 O   0  0  0  0  0  0  0  0  0  0  0  0
    0.3557   -3.6024    2.3171 C   0  0  0  0  0  0  0  0  0  0  0  0
    0.6584   -4.6506   -0.4643 H   0  0  0  0  0  0  0  0  0  0  0  0
   -1.4091   -3.3101    1.1082 H   0  0  0  0  0  0  0  0  0  0  0  0
    1.4375   -3.7336    2.1985 H   0  0  0  0  0  0  0  0  0  0  0  0
    0.1969   -2.7243    2.9517 H   0  0  0  0  0  0  0  0  0  0  0  0
   -0.0294   -4.4803    2.8470 H   0  0  0  0  0  0  0  0  0  0  0  0
   -0.4616   -1.0893    0.5050 N   0  0  0  0  0  0  0  0  0  0  0  0
   -0.0884    0.2050   -0.0621 C   0  0  2  0  0  0  0  0  0  0  0  0
   -1.2577    1.1606    0.1579 C   0  0  0  0  0  0  0  0  0  0  0  0
   -1.1166    2.3056    0.5826 O   0  0  0  0  0  0  0  0  0  0  0  0
    0.2218    0.1147   -1.5637 C   0  0  0  0  0  0  0  0  0  0  0  0
    1.4947   -0.6792   -1.8750 C   0  0  0  0  0  0  0  0  0  0  0  0
    1.7698   -0.7171   -3.3808 C   0  0  0  0  0  0  0  0  0  0  0  0
    3.0255   -1.5296   -3.6925 C   0  0  0  0  0  0  0  0  0  0  0  0
    3.2560   -1.5729   -5.1316 N   0  0  0  0  0  0  0  0  0  0  0  0
   -1.2794   -1.1113    1.0935 H   0  0  0  0  0  0  0  0  0  0  0  0
    0.7887    0.5820    0.4776 H   0  0  0  0  0  0  0  0  0  0  0  0
    0.3292    1.1291   -1.9701 H   0  0  0  0  0  0  0  0  0  0  0  0
   -0.6292   -0.3328   -2.0950 H   0  0  0  0  0  0  0  0  0  0  0  0
    1.4005   -1.7056   -1.5029 H   0  0  0  0  0  0  0  0  0  0  0  0
    2.3473   -0.2220   -1.3586 H   0  0  0  0  0  0  0  0  0  0  0  0
    0.9058   -1.1533   -3.8980 H   0  0  0  0  0  0  0  0  0  0  0  0
    1.8881    0.3070   -3.7568 H   0  0  0  0  0  0  0  0  0  0  0  0
    2.9205   -2.5511   -3.3110 H   0  0  0  0  0  0  0  0  0  0  0  0
    3.8965   -1.0790   -3.2050 H   0  0  0  0  0  0  0  0  0  0  0  0
    2.5223   -1.0770   -5.5812 H   0  0  0  0  0  0  0  0  0  0  0  0
    4.1328   -1.1461   -5.3205 H   0  0  0  0  0  0  0  0  0  0  0  0
   -2.4768    0.5750   -0.1550 N   0  0  0  0  0  0  0  0  0  0  0  0
   -3.7430    1.2575   -0.0145 C   0  0  2  0  0  0  0  0  0  0  0  0
   -4.7980    0.2212    0.3495 C   0  0  0  0  0  0  0  0  0  0  0  0
   -4.7773   -0.9335   -0.0715 O   0  0  0  0  0  0  0  0  0  0  0  0
   -4.1203    1.9919   -1.2916 C   0  0  0  0  0  0  0  0  0  0  0  0
   -2.4954   -0.3766   -0.5094 H   0  0  0  0  0  0  0  0  0  0  0  0
   -3.6290    1.9689    0.8107 H   0  0  0  0  0  0  0  0  0  0  0  0
   -4.2389    1.2954   -2.1297 H   0  0  0  0  0  0  0  0  0  0  0  0
   -5.0657    2.5318   -1.1743 H   0  0  0  0  0  0  0  0  0  0  0  0
   -3.3462    2.7158   -1.5682 H   0  0  0  0  0  0  0  0  0  0  0  0
   -5.7889    0.7495    1.1651 N   0  0  0  0  0  0  0  0  0  0  0  0
   -6.9241   -0.0230    1.6129 C   0  0  0  0  0  0  0  0  0  0  0  0
   -5.7047    1.7053    1.4986 H   0  0  0  0  0  0  0  0  0  0  0  0
   -7.7606    0.1133    0.9116 H   0  0  0  0  0  0  0  0  0  0  0  0
   -6.6499   -1.0874    1.6539 H   0  0  0  0  0  0  0  0  0  0  0  0
   -7.2264    0.3167    2.6145 H   0  0  0  0  0  0  0  0  0  0  0  0
  1  3  1  0  0  0  0
  1  7  1  0  0  0  0
  1  2  2  0  0  0  0
 39 40  1  0  0  0  0
 40 48  1  0  0  0  0
 40 41  2  0  0  0  0
  8  9  1  0  0  0  0
  9 17  1  0  0  0  0
  9 10  2  0  0  0  0
 18 19  1  0  0  0  0
 19 38  1  0  0  0  0
 19 20  2  0  0  0  0
 39 42  1  0  0  0  0
  8 11  1  0  0  0  0
 48 49  1  0  0  0  0
 22 23  1  0  0  0  0
 21 22  1  0  0  0  0
 23 24  1  0  0  0  0
 18 21  1  0  0  0  0
 24 25  1  0  0  0  0
 38 39  1  0  0  0  0
  7  8  1  0  0  0  0
 17 18  1  0  0  0  0
  3  4  1  0  0  0  0
  3  5  1  0  0  0  0
  3  6  1  0  0  0  0
 42 45  1  0  0  0  0
 42 46  1  0  0  0  0
 42 47  1  0  0  0  0
 11 14  1  0  0  0  0
 11 15  1  0  0  0  0
 11 16  1  0  0  0  0
 49 51  1  0  0  0  0
 49 52  1  0  0  0  0
 49 53  1  0  0  0  0
 22 30  1  0  0  0  0
 22 31  1  0  0  0  0
 23 32  1  0  0  0  0
 23 33  1  0  0  0  0
 21 28  1  0  0  0  0
 21 29  1  0  0  0  0
 24 34  1  0  0  0  0
 24 35  1  0  0  0  0
 39 44  1  0  0  0  0
  8 13  1  0  0  0  0
 18 27  1  0  0  0  0
 25 36  1  0  0  0  0
 25 37  1  0  0  0  0
 48 50  1  0  0  0  0
  7 12  1  0  0  0  0
 38 43  1  0  0  0  0
 17 26  1  0  0  0  0
M  END
$$$$

  -OEChem-05262214473D

 53 52  0     1  0  0  0  0  0999 V2000
   -1.0338   -5.6785    0.1476 C   0  0  0  0  0  0  0  0  0  0  0  0
   -2.0514   -5.7797    0.8227 O   0  0  0  0  0  0  0  0  0  0  0  0
   -0.6558   -6.7819   -0.7841 C   0  0  0  0  0  0  0  0  0  0  0  0
   -0.0111   -7.5354   -0.3038 H   0  0  0  0  0  0  0  0  0  0  0  0
   -1.5317   -7.3401   -1.1520 H   0  0  0  0  0  0  0  0  0  0  0  0
   -0.1109   -6.4687   -1.6890 H   0  0  0  0  0  0  0  0  0  0  0  0
   -0.1543   -4.6083    0.1480 N   0  0  0  0  0  0  0  0  0  0  0  0
   -0.3302   -3.4398    0.9696 C   0  0  2  0  0  0  0  0  0  0  0  0
    0.2328   -2.2439    0.2131 C   0  0  0  0  0  0  0  0  0  0  0  0
    1.2097   -2.3192   -0.5294 O   0  0  0  0  0  0  0  0  0  0  0  0
    0.3557   -3.6024    2.3171 C   0  0  0  0  0  0  0  0  0  0  0  0
    0.6584   -4.6506   -0.4643 H   0  0  0  0  0  0  0  0  0  0  0  0
   -1.4091   -3.3101    1.1082 H   0  0  0  0  0  0  0  0  0  0  0  0
    1.4375   -3.7336    2.1985 H   0  0  0  0  0  0  0  0  0  0  0  0
    0.1969   -2.7243    2.9517 H   0  0  0  0  0  0  0  0  0  0  0  0
   -0.0294   -4.4803    2.8470 H   0  0  0  0  0  0  0  0  0  0  0  0
   -0.4616   -1.0893    0.5050 N   0  0  0  0  0  0  0  0  0  0  0  0
   -0.0884    0.2050   -0.0621 C   0  0  2  0  0  0  0  0  0  0  0  0
   -1.2577    1.1606    0.1579 C   0  0  0  0  0  0  0  0  0  0  0  0
   -1.1128    2.3704    0.3214 O   0  0  0  0  0  0  0  0  0  0  0  0
    0.2218    0.1147   -1.5637 C   0  0  0  0  0  0  0  0  0  0  0  0
    1.4947   -0.6792   -1.8750 C   0  0  0  0  0  0  0  0  0  0  0  0
    1.7698   -0.7171   -3.3808 C   0  0  0  0  0  0  0  0  0  0  0  0
    3.0255   -1.5296   -3.6925 C   0  0  0  0  0  0  0  0  0  0  0  0
    3.2560   -1.5729   -5.1316 N   0  0  0  0  0  0  0  0  0  0  0  0
   -1.2794   -1.1113    1.0935 H   0  0  0  0  0  0  0  0  0  0  0  0
    0.7887    0.5820    0.4776 H   0  0  0  0  0  0  0  0  0  0  0  0
    0.3292    1.1291   -1.9701 H   0  0  0  0  0  0  0  0  0  0  0  0
   -0.6292   -0.3328   -2.0950 H   0  0  0  0  0  0  0  0  0  0  0  0
    1.4005   -1.7056   -1.5029 H   0  0  0  0  0  0  0  0  0  0  0  0
    2.3473   -0.2220   -1.3586 H   0  0  0  0  0  0  0  0  0  0  0  0
    0.9058   -1.1533   -3.8980 H   0  0  0  0  0  0  0  0  0  0  0  0
    1.8881    0.3070   -3.7568 H   0  0  0  0  0  0  0  0  0  0  0  0
    2.9205   -2.5511   -3.3110 H   0  0  0  0  0  0  0  0  0  0  0  0
    3.8965   -1.0790   -3.2050 H   0  0  0  0  0  0  0  0  0  0  0  0
    2.5223   -1.0770   -5.5812 H   0  0  0  0  0  0  0  0  0  0  0  0
    4.1328   -1.1461   -5.3205 H   0  0  0  0  0  0  0  0  0  0  0  0
   -2.4777    0.4986    0.1719 N   0  0  0  0  0  0  0  0  0  0  0  0
   -3.7405    1.1687    0.3844 C   0  0  2  0  0  0  0  0  0  0  0  0
   -4.6675    0.2050    1.1135 C   0  0  0  0  0  0  0  0  0  0  0  0
   -4.6518   -1.0101    0.9286 O   0  0  0  0  0  0  0  0  0  0  0  0
   -4.3541    1.6227   -0.9309 C   0  0  0  0  0  0  0  0  0  0  0  0
   -2.5011   -0.5051    0.0182 H   0  0  0  0  0  0  0  0  0  0  0  0
   -3.5357    2.0339    1.0242 H   0  0  0  0  0  0  0  0  0  0  0  0
   -4.5663    0.7694   -1.5854 H   0  0  0  0  0  0  0  0  0  0  0  0
   -5.2966    2.1553   -0.7662 H   0  0  0  0  0  0  0  0  0  0  0  0
   -3.6735    2.2922   -1.4679 H   0  0  0  0  0  0  0  0  0  0  0  0
   -5.5436    0.8659    1.9631 N   0  0  0  0  0  0  0  0  0  0  0  0
   -6.5506    0.1758    2.7350 C   0  0  0  0  0  0  0  0  0  0  0  0
   -5.4591    1.8707    2.0849 H   0  0  0  0  0  0  0  0  0  0  0  0
   -7.4936    0.1505    2.1692 H   0  0  0  0  0  0  0  0  0  0  0  0
   -6.2166   -0.8526    2.9370 H   0  0  0  0  0  0  0  0  0  0  0  0
   -6.7083    0.7038    3.6870 H   0  0  0  0  0  0  0  0  0  0  0  0
  1  3  1  0  0  0  0
  1  7  1  0  0  0  0
  1  2  2  0  0  0  0
 39 40  1  0  0  0  0
 40 48  1  0  0  0  0
 40 41  2  0  0  0  0
  8  9  1  0  0  0  0
  9 17  1  0  0  0  0
  9 10  2  0  0  0  0
 18 19  1  0  0  0  0
 19 38  1  0  0  0  0
 19 20  2  0  0  0  0
 39 42  1  0  0  0  0
  8 11  1  0  0  0  0
 48 49  1  0  0  0  0
 22 23  1  0  0  0  0
 21 22  1  0  0  0  0
 23 24  1  0  0  0  0
 18 21  1  0  0  0  0
 24 25  1  0  0  0  0
 38 39  1  0  0  0  0
  7  8  1  0  0  0  0
 17 18  1  0  0  0  0
  3  4  1  0  0  0  0
  3  5  1  0  0  0  0
  3  6  1  0  0  0  0
 42 45  1  0  0  0  0
 42 46  1  0  0  0  0
 42 47  1  0  0  0  0
 11 14  1  0  0  0  0
 11 15  1  0  0  0  0
 11 16  1  0  0  0  0
 49 51  1  0  0  0  0
 49 52  1  0  0  0  0
 49 53  1  0  0  0  0
 22 30  1  0  0  0  0
 22 31  1  0  0  0  0
 23 32  1  0  0  0  0
 23 33  1  0  0  0  0
 21 28  1  0  0  0  0
 21 29  1  0  0  0  0
 24 34  1  0  0  0  0
 24 35  1  0  0  0  0
 39 44  1  0  0  0  0
  8 13  1  0  0  0  0
 18 27  1  0  0  0  0
 25 36  1  0  0  0  0
 25 37  1  0  0  0  0
 48 50  1  0  0  0  0
  7 12  1  0  0  0  0
 38 43  1  0  0  0  0
 17 26  1  0  0  0  0
M  END
$$$$

  -OEChem-05262214473D

 53 52  0     1  0  0  0  0  0999 V2000
   -1.0338   -5.6785    0.1476 C   0  0  0  0  0  0  0  0  0  0  0  0
   -2.0514   -5.7797    0.8227 O   0  0  0  0  0  0  0  0  0  0  0  0
   -0.6558   -6.7819   -0.7841 C   0  0  0  0  0  0  0  0  0  0  0  0
   -0.0111   -7.5354   -0.3038 H   0  0  0  0  0  0  0  0  0  0  0  0
   -1.5317   -7.3401   -1.1520 H   0  0  0  0  0  0  0  0  0  0  0  0
   -0.1109   -6.4687   -1.6890 H   0  0  0  0  0  0  0  0  0  0  0  0
   -0.1543   -4.6083    0.1480 N   0  0  0  0  0  0  0  0  0  0  0  0
   -0.3302   -3.4398    0.9696 C   0  0  2  0  0  0  0  0  0  0  0  0
    0.2328   -2.2439    0.2131 C   0  0  0  0  0  0  0  0  0  0  0  0
    1.2097   -2.3192   -0.5294 O   0  0  0  0  0  0  0  0  0  0  0  0
    0.3557   -3.6024    2.3171 C   0  0  0  0  0  0  0  0  0  0  0  0
    0.6584   -4.6506   -0.4643 H   0  0  0  0  0  0  0  0  0  0  0  0
   -1.4091   -3.3101    1.1082 H   0  0  0  0  0  0  0  0  0  0  0  0
    1.4375   -3.7336    2.1985 H   0  0  0  0  0  0  0  0  0  0  0  0
    0.1969   -2.7243    2.9517 H   0  0  0  0  0  0  0  0  0  0  0  0
   -0.0294   -4.4803    2.8470 H   0  0  0  0  0  0  0  0  0  0  0  0
   -0.4616   -1.0893    0.5050 N   0  0  0  0  0  0  0  0  0  0  0  0
   -0.0884    0.2050   -0.0621 C   0  0  2  0  0  0  0  0  0  0  0  0
   -1.2577    1.1606    0.1579 C   0  0  0  0  0  0  0  0  0  0  0  0
   -1.1539    2.3813    0.0557 O   0  0  0  0  0  0  0  0  0  0  0  0
    0.2218    0.1147   -1.5637 C   0  0  0  0  0  0  0  0  0  0  0  0
    1.4947   -0.6792   -1.8750 C   0  0  0  0  0  0  0  0  0  0  0  0
    1.7698   -0.7171   -3.3808 C   0  0  0  0  0  0  0  0  0  0  0  0
    3.0255   -1.5296   -3.6925 C   0  0  0  0  0  0  0  0  0  0  0  0
    3.2560   -1.5729   -5.1316 N   0  0  0  0  0  0  0  0  0  0  0  0
   -1.2794   -1.1113    1.0935 H   0  0  0  0  0  0  0  0  0  0  0  0
    0.7887    0.5820    0.4776 H   0  0  0  0  0  0  0  0  0  0  0  0
    0.3292    1.1291   -1.9701 H   0  0  0  0  0  0  0  0  0  0  0  0
   -0.6292   -0.3328   -2.0950 H   0  0  0  0  0  0  0  0  0  0  0  0
    1.4005   -1.7056   -1.5029 H   0  0  0  0  0  0  0  0  0  0  0  0
    2.3473   -0.2220   -1.3586 H   0  0  0  0  0  0  0  0  0  0  0  0
    0.9058   -1.1533   -3.8980 H   0  0  0  0  0  0  0  0  0  0  0  0
    1.8881    0.3070   -3.7568 H   0  0  0  0  0  0  0  0  0  0  0  0
    2.9205   -2.5511   -3.3110 H   0  0  0  0  0  0  0  0  0  0  0  0
    3.8965   -1.0790   -3.2050 H   0  0  0  0  0  0  0  0  0  0  0  0
    2.5223   -1.0770   -5.5812 H   0  0  0  0  0  0  0  0  0  0  0  0
    4.1328   -1.1461   -5.3205 H   0  0  0  0  0  0  0  0  0  0  0  0
   -2.4228    0.4895    0.5030 N   0  0  0  0  0  0  0  0  0  0  0  0
   -3.6702    1.1620    0.7869 C   0  0  2  0  0  0  0  0  0  0  0  0
   -4.4169    0.3458    1.8336 C   0  0  0  0  0  0  0  0  0  0  0  0
   -4.3655   -0.8811    1.8895 O   0  0  0  0  0  0  0  0  0  0  0  0
   -4.5077    1.3289   -0.4714 C   0  0  0  0  0  0  0  0  0  0  0  0
   -2.4164   -0.5248    0.5543 H   0  0  0  0  0  0  0  0  0  0  0  0
   -3.4134    2.1425    1.2025 H   0  0  0  0  0  0  0  0  0  0  0  0
   -4.7747    0.3570   -0.9022 H   0  0  0  0  0  0  0  0  0  0  0  0
   -5.4394    1.8639   -0.2598 H   0  0  0  0  0  0  0  0  0  0  0  0
   -3.9576    1.8907   -1.2341 H   0  0  0  0  0  0  0  0  0  0  0  0
   -5.1818    1.1457    2.6711 N   0  0  0  0  0  0  0  0  0  0  0  0
   -6.0154    0.6042    3.7189 C   0  0  0  0  0  0  0  0  0  0  0  0
   -5.1331    2.1560    2.5786 H   0  0  0  0  0  0  0  0  0  0  0  0
   -7.0333    0.4457    3.3334 H   0  0  0  0  0  0  0  0  0  0  0  0
   -5.5989   -0.3552    4.0596 H   0  0  0  0  0  0  0  0  0  0  0  0
   -6.0485    1.3097    4.5623 H   0  0  0  0  0  0  0  0  0  0  0  0
  1  3  1  0  0  0  0
  1  7  1  0  0  0  0
  1  2  2  0  0  0  0
 39 40  1  0  0  0  0
 40 48  1  0  0  0  0
 40 41  2  0  0  0  0
  8  9  1  0  0  0  0
  9 17  1  0  0  0  0
  9 10  2  0  0  0  0
 18 19  1  0  0  0  0
 19 38  1  0  0  0  0
 19 20  2  0  0  0  0
 39 42  1  0  0  0  0
  8 11  1  0  0  0  0
 48 49  1  0  0  0  0
 22 23  1  0  0  0  0
 21 22  1  0  0  0  0
 23 24  1  0  0  0  0
 18 21  1  0  0  0  0
 24 25  1  0  0  0  0
 38 39  1  0  0  0  0
  7  8  1  0  0  0  0
 17 18  1  0  0  0  0
  3  4  1  0  0  0  0
  3  5  1  0  0  0  0
  3  6  1  0  0  0  0
 42 45  1  0  0  0  0
 42 46  1  0  0  0  0
 42 47  1  0  0  0  0
 11 14  1  0  0  0  0
 11 15  1  0  0  0  0
 11 16  1  0  0  0  0
 49 51  1  0  0  0  0
 49 52  1  0  0  0  0
 49 53  1  0  0  0  0
 22 30  1  0  0  0  0
 22 31  1  0  0  0  0
 23 32  1  0  0  0  0
 23 33  1  0  0  0  0
 21 28  1  0  0  0  0
 21 29  1  0  0  0  0
 24 34  1  0  0  0  0
 24 35  1  0  0  0  0
 39 44  1  0  0  0  0
  8 13  1  0  0  0  0
 18 27  1  0  0  0  0
 25 36  1  0  0  0  0
 25 37  1  0  0  0  0
 48 50  1  0  0  0  0
  7 12  1  0  0  0  0
 38 43  1  0  0  0  0
 17 26  1  0  0  0  0
M  END
$$$$

  -OEChem-05262214473D

 53 52  0     1  0  0  0  0  0999 V2000
   -1.0338   -5.6785    0.1476 C   0  0  0  0  0  0  0  0  0  0  0  0
   -2.0514   -5.7797    0.8227 O   0  0  0  0  0  0  0  0  0  0  0  0
   -0.6558   -6.7819   -0.7841 C   0  0  0  0  0  0  0  0  0  0  0  0
   -0.0111   -7.5354   -0.3038 H   0  0  0  0  0  0  0  0  0  0  0  0
   -1.5317   -7.3401   -1.1520 H   0  0  0  0  0  0  0  0  0  0  0  0
   -0.1109   -6.4687   -1.6890 H   0  0  0  0  0  0  0  0  0  0  0  0
   -0.1543   -4.6083    0.1480 N   0  0  0  0  0  0  0  0  0  0  0  0
   -0.3302   -3.4398    0.9696 C   0  0  2  0  0  0  0  0  0  0  0  0
    0.2328   -2.2439    0.2131 C   0  0  0  0  0  0  0  0  0  0  0  0
    1.2097   -2.3192   -0.5294 O   0  0  0  0  0  0  0  0  0  0  0  0
    0.3557   -3.6024    2.3171 C   0  0  0  0  0  0  0  0  0  0  0  0
    0.6584   -4.6506   -0.4643 H   0  0  0  0  0  0  0  0  0  0  0  0
   -1.4091   -3.3101    1.1082 H   0  0  0  0  0  0  0  0  0  0  0  0
    1.4375   -3.7336    2.1985 H   0  0  0  0  0  0  0  0  0  0  0  0
    0.1969   -2.7243    2.9517 H   0  0  0  0  0  0  0  0  0  0  0  0
   -0.0294   -4.4803    2.8470 H   0  0  0  0  0  0  0  0  0  0  0  0
   -0.4616   -1.0893    0.5050 N   0  0  0  0  0  0  0  0  0  0  0  0
   -0.0884    0.2050   -0.0621 C   0  0  2  0  0  0  0  0  0  0  0  0
   -1.2577    1.1606    0.1579 C   0  0  0  0  0  0  0  0  0  0  0  0
   -1.2370    2.3376   -0.1964 O   0  0  0  0  0  0  0  0  0  0  0  0
    0.2218    0.1147   -1.5637 C   0  0  0  0  0  0  0  0  0  0  0  0
    1.4947   -0.6792   -1.8750 C   0  0  0  0  0  0  0  0  0  0  0  0
    1.7698   -0.7171   -3.3808 C   0  0  0  0  0  0  0  0  0  0  0  0
    3.0255   -1.5296   -3.6925 C   0  0  0  0  0  0  0  0  0  0  0  0
    3.2560   -1.5729   -5.1316 N   0  0  0  0  0  0  0  0  0  0  0  0
   -1.2794   -1.1113    1.0935 H   0  0  0  0  0  0  0  0  0  0  0  0
    0.7887    0.5820    0.4776 H   0  0  0  0  0  0  0  0  0  0  0  0
    0.3292    1.1291   -1.9701 H   0  0  0  0  0  0  0  0  0  0  0  0
   -0.6292   -0.3328   -2.0950 H   0  0  0  0  0  0  0  0  0  0  0  0
    1.4005   -1.7056   -1.5029 H   0  0  0  0  0  0  0  0  0  0  0  0
    2.3473   -0.2220   -1.3586 H   0  0  0  0  0  0  0  0  0  0  0  0
    0.9058   -1.1533   -3.8980 H   0  0  0  0  0  0  0  0  0  0  0  0
    1.8881    0.3070   -3.7568 H   0  0  0  0  0  0  0  0  0  0  0  0
    2.9205   -2.5511   -3.3110 H   0  0  0  0  0  0  0  0  0  0  0  0
    3.8965   -1.0790   -3.2050 H   0  0  0  0  0  0  0  0  0  0  0  0
    2.5223   -1.0770   -5.5812 H   0  0  0  0  0  0  0  0  0  0  0  0
    4.1328   -1.1461   -5.3205 H   0  0  0  0  0  0  0  0  0  0  0  0
   -2.3158    0.5485    0.8157 N   0  0  0  0  0  0  0  0  0  0  0  0
   -3.5367    1.2381    1.1657 C   0  0  2  0  0  0  0  0  0  0  0  0
   -4.0635    0.6339    2.4606 C   0  0  0  0  0  0  0  0  0  0  0  0
   -3.9382   -0.5552    2.7457 O   0  0  0  0  0  0  0  0  0  0  0  0
   -4.5706    1.1306    0.0556 C   0  0  0  0  0  0  0  0  0  0  0  0
   -2.2469   -0.4344    1.0622 H   0  0  0  0  0  0  0  0  0  0  0  0
   -3.2704    2.2874    1.3334 H   0  0  0  0  0  0  0  0  0  0  0  0
   -4.8499    0.0864   -0.1268 H   0  0  0  0  0  0  0  0  0  0  0  0
   -5.4845    1.6775    0.3102 H   0  0  0  0  0  0  0  0  0  0  0  0
   -4.1791    1.5386   -0.8825 H   0  0  0  0  0  0  0  0  0  0  0  0
   -4.7280    1.5699    3.2408 N   0  0  0  0  0  0  0  0  0  0  0  0
   -5.3549    1.2332    4.4976 C   0  0  0  0  0  0  0  0  0  0  0  0
   -4.7489    2.5417    2.9461 H   0  0  0  0  0  0  0  0  0  0  0  0
   -6.4111    0.9790    4.3247 H   0  0  0  0  0  0  0  0  0  0  0  0
   -4.8389    0.3710    4.9453 H   0  0  0  0  0  0  0  0  0  0  0  0
   -5.2920    2.0932    5.1806 H   0  0  0  0  0  0  0  0  0  0  0  0
  1  3  1  0  0  0  0
  1  7  1  0  0  0  0
  1  2  2  0  0  0  0
 39 40  1  0  0  0  0
 40 48  1  0  0  0  0
 40 41  2  0  0  0  0
  8  9  1  0  0  0  0
  9 17  1  0  0  0  0
  9 10  2  0  0  0  0
 18 19  1  0  0  0  0
 19 38  1  0  0  0  0
 19 20  2  0  0  0  0
 39 42  1  0  0  0  0
  8 11  1  0  0  0  0
 48 49  1  0  0  0  0
 22 23  1  0  0  0  0
 21 22  1  0  0  0  0
 23 24  1  0  0  0  0
 18 21  1  0  0  0  0
 24 25  1  0  0  0  0
 38 39  1  0  0  0  0
  7  8  1  0  0  0  0
 17 18  1  0  0  0  0
  3  4  1  0  0  0  0
  3  5  1  0  0  0  0
  3  6  1  0  0  0  0
 42 45  1  0  0  0  0
 42 46  1  0  0  0  0
 42 47  1  0  0  0  0
 11 14  1  0  0  0  0
 11 15  1  0  0  0  0
 11 16  1  0  0  0  0
 49 51  1  0  0  0  0
 49 52  1  0  0  0  0
 49 53  1  0  0  0  0
 22 30  1  0  0  0  0
 22 31  1  0  0  0  0
 23 32  1  0  0  0  0
 23 33  1  0  0  0  0
 21 28  1  0  0  0  0
 21 29  1  0  0  0  0
 24 34  1  0  0  0  0
 24 35  1  0  0  0  0
 39 44  1  0  0  0  0
  8 13  1  0  0  0  0
 18 27  1  0  0  0  0
 25 36  1  0  0  0  0
 25 37  1  0  0  0  0
 48 50  1  0  0  0  0
  7 12  1  0  0  0  0
 38 43  1  0  0  0  0
 17 26  1  0  0  0  0
M  END
$$$$

  -OEChem-05262214473D

 53 52  0     1  0  0  0  0  0999 V2000
   -1.0338   -5.6785    0.1476 C   0  0  0  0  0  0  0  0  0  0  0  0
   -2.0514   -5.7797    0.8227 O   0  0  0  0  0  0  0  0  0  0  0  0
   -0.6558   -6.7819   -0.7841 C   0  0  0  0  0  0  0  0  0  0  0  0
   -0.0111   -7.5354   -0.3038 H   0  0  0  0  0  0  0  0  0  0  0  0
   -1.5317   -7.3401   -1.1520 H   0  0  0  0  0  0  0  0  0  0  0  0
   -0.1109   -6.4687   -1.6890 H   0  0  0  0  0  0  0  0  0  0  0  0
   -0.1543   -4.6083    0.1480 N   0  0  0  0  0  0  0  0  0  0  0  0
   -0.3302   -3.4398    0.9696 C   0  0  2  0  0  0  0  0  0  0  0  0
    0.2328   -2.2439    0.2131 C   0  0  0  0  0  0  0  0  0  0  0  0
    1.2097   -2.3192   -0.5294 O   0  0  0  0  0  0  0  0  0  0  0  0
    0.3557   -3.6024    2.3171 C   0  0  0  0  0  0  0  0  0  0  0  0
    0.6584   -4.6506   -0.4643 H   0  0  0  0  0  0  0  0  0  0  0  0
   -1.4091   -3.3101    1.1082 H   0  0  0  0  0  0  0  0  0  0  0  0
    1.4375   -3.7336    2.1985 H   0  0  0  0  0  0  0  0  0  0  0  0
    0.1969   -2.7243    2.9517 H   0  0  0  0  0  0  0  0  0  0  0  0
   -0.0294   -4.4803    2.8470 H   0  0  0  0  0  0  0  0  0  0  0  0
   -0.4616   -1.0893    0.5050 N   0  0  0  0  0  0  0  0  0  0  0  0
   -0.0884    0.2050   -0.0621 C   0  0  2  0  0  0  0  0  0  0  0  0
   -1.2577    1.1606    0.1579 C   0  0  0  0  0  0  0  0  0  0  0  0
   -1.3566    2.2423   -0.4179 O   0  0  0  0  0  0  0  0  0  0  0  0
    0.2218    0.1147   -1.5637 C   0  0  0  0  0  0  0  0  0  0  0  0
    1.4947   -0.6792   -1.8750 C   0  0  0  0  0  0  0  0  0  0  0  0
    1.7698   -0.7171   -3.3808 C   0  0  0  0  0  0  0  0  0  0  0  0
    3.0255   -1.5296   -3.6925 C   0  0  0  0  0  0  0  0  0  0  0  0
    3.2560   -1.5729   -5.1316 N   0  0  0  0  0  0  0  0  0  0  0  0
   -1.2794   -1.1113    1.0935 H   0  0  0  0  0  0  0  0  0  0  0  0
    0.7887    0.5820    0.4776 H   0  0  0  0  0  0  0  0  0  0  0  0
    0.3292    1.1291   -1.9701 H   0  0  0  0  0  0  0  0  0  0  0  0
   -0.6292   -0.3328   -2.0950 H   0  0  0  0  0  0  0  0  0  0  0  0
    1.4005   -1.7056   -1.5029 H   0  0  0  0  0  0  0  0  0  0  0  0
    2.3473   -0.2220   -1.3586 H   0  0  0  0  0  0  0  0  0  0  0  0
    0.9058   -1.1533   -3.8980 H   0  0  0  0  0  0  0  0  0  0  0  0
    1.8881    0.3070   -3.7568 H   0  0  0  0  0  0  0  0  0  0  0  0
    2.9205   -2.5511   -3.3110 H   0  0  0  0  0  0  0  0  0  0  0  0
    3.8965   -1.0790   -3.2050 H   0  0  0  0  0  0  0  0  0  0  0  0
    2.5223   -1.0770   -5.5812 H   0  0  0  0  0  0  0  0  0  0  0  0
    4.1328   -1.1461   -5.3205 H   0  0  0  0  0  0  0  0  0  0  0  0
   -2.1639    0.6715    1.0887 N   0  0  0  0  0  0  0  0  0  0  0  0
   -3.3493    1.3917    1.4948 C   0  0  2  0  0  0  0  0  0  0  0  0
   -3.6313    1.0498    2.9519 C   0  0  0  0  0  0  0  0  0  0  0  0
   -3.3988   -0.0547    3.4388 O   0  0  0  0  0  0  0  0  0  0  0  0
   -4.5386    1.0411    0.6142 C   0  0  0  0  0  0  0  0  0  0  0  0
   -2.0042   -0.2399    1.5075 H   0  0  0  0  0  0  0  0  0  0  0  0
   -3.1165    2.4586    1.4079 H   0  0  0  0  0  0  0  0  0  0  0  0
   -4.7868   -0.0240    0.6881 H   0  0  0  0  0  0  0  0  0  0  0  0
   -5.4287    1.6088    0.9051 H   0  0  0  0  0  0  0  0  0  0  0  0
   -4.3230    1.2600   -0.4372 H   0  0  0  0  0  0  0  0  0  0  0  0
   -4.2132    2.1095    3.6335 N   0  0  0  0  0  0  0  0  0  0  0  0
   -4.6142    2.0198    5.0180 C   0  0  0  0  0  0  0  0  0  0  0  0
   -4.3325    3.0014    3.1623 H   0  0  0  0  0  0  0  0  0  0  0  0
   -5.6693    1.7139    5.0756 H   0  0  0  0  0  0  0  0  0  0  0  0
   -3.9884    1.2764    5.5335 H   0  0  0  0  0  0  0  0  0  0  0  0
   -4.4902    3.0009    5.4999 H   0  0  0  0  0  0  0  0  0  0  0  0
  1  3  1  0  0  0  0
  1  7  1  0  0  0  0
  1  2  2  0  0  0  0
 39 40  1  0  0  0  0
 40 48  1  0  0  0  0
 40 41  2  0  0  0  0
  8  9  1  0  0  0  0
  9 17  1  0  0  0  0
  9 10  2  0  0  0  0
 18 19  1  0  0  0  0
 19 38  1  0  0  0  0
 19 20  2  0  0  0  0
 39 42  1  0  0  0  0
  8 11  1  0  0  0  0
 48 49  1  0  0  0  0
 22 23  1  0  0  0  0
 21 22  1  0  0  0  0
 23 24  1  0  0  0  0
 18 21  1  0  0  0  0
 24 25  1  0  0  0  0
 38 39  1  0  0  0  0
  7  8  1  0  0  0  0
 17 18  1  0  0  0  0
  3  4  1  0  0  0  0
  3  5  1  0  0  0  0
  3  6  1  0  0  0  0
 42 45  1  0  0  0  0
 42 46  1  0  0  0  0
 42 47  1  0  0  0  0
 11 14  1  0  0  0  0
 11 15  1  0  0  0  0
 11 16  1  0  0  0  0
 49 51  1  0  0  0  0
 49 52  1  0  0  0  0
 49 53  1  0  0  0  0
 22 30  1  0  0  0  0
 22 31  1  0  0  0  0
 23 32  1  0  0  0  0
 23 33  1  0  0  0  0
 21 28  1  0  0  0  0
 21 29  1  0  0  0  0
 24 34  1  0  0  0  0
 24 35  1  0  0  0  0
 39 44  1  0  0  0  0
  8 13  1  0  0  0  0
 18 27  1  0  0  0  0
 25 36  1  0  0  0  0
 25 37  1  0  0  0  0
 48 50  1  0  0  0  0
  7 12  1  0  0  0  0
 38 43  1  0  0  0  0
 17 26  1  0  0  0  0
M  END
$$$$

  -OEChem-05262214473D

 53 52  0     1  0  0  0  0  0999 V2000
   -1.0338   -5.6785    0.1476 C   0  0  0  0  0  0  0  0  0  0  0  0
   -2.0514   -5.7797    0.8227 O   0  0  0  0  0  0  0  0  0  0  0  0
   -0.6558   -6.7819   -0.7841 C   0  0  0  0  0  0  0  0  0  0  0  0
   -0.0111   -7.5354   -0.3038 H   0  0  0  0  0  0  0  0  0  0  0  0
   -1.5317   -7.3401   -1.1520 H   0  0  0  0  0  0  0  0  0  0  0  0
   -0.1109   -6.4687   -1.6890 H   0  0  0  0  0  0  0  0  0  0  0  0
   -0.1543   -4.6083    0.1480 N   0  0  0  0  0  0  0  0  0  0  0  0
   -0.3302   -3.4398    0.9696 C   0  0  2  0  0  0  0  0  0  0  0  0
    0.2328   -2.2439    0.2131 C   0  0  0  0  0  0  0  0  0  0  0  0
    1.2097   -2.3192   -0.5294 O   0  0  0  0  0  0  0  0  0  0  0  0
    0.3557   -3.6024    2.3171 C   0  0  0  0  0  0  0  0  0  0  0  0
    0.6584   -4.6506   -0.4643 H   0  0  0  0  0  0  0  0  0  0  0  0
   -1.4091   -3.3101    1.1082 H   0  0  0  0  0  0  0  0  0  0  0  0
    1.4375   -3.7336    2.1985 H   0  0  0  0  0  0  0  0  0  0  0  0
    0.1969   -2.7243    2.9517 H   0  0  0  0  0  0  0  0  0  0  0  0
   -0.0294   -4.4803    2.8470 H   0  0  0  0  0  0  0  0  0  0  0  0
   -0.4616   -1.0893    0.5050 N   0  0  0  0  0  0  0  0  0  0  0  0
   -0.0884    0.2050   -0.0621 C   0  0  2  0  0  0  0  0  0  0  0  0
   -1.2577    1.1606    0.1579 C   0  0  0  0  0  0  0  0  0  0  0  0
   -1.5044    2.1019   -0.5935 O   0  0  0  0  0  0  0  0  0  0  0  0
    0.2218    0.1147   -1.5637 C   0  0  0  0  0  0  0  0  0  0  0  0
    1.4947   -0.6792   -1.8750 C   0  0  0  0  0  0  0  0  0  0  0  0
    1.7698   -0.7171   -3.3808 C   0  0  0  0  0  0  0  0  0  0  0  0
    3.0255   -1.5296   -3.6925 C   0  0  0  0  0  0  0  0  0  0  0  0
    3.2560   -1.5729   -5.1316 N   0  0  0  0  0  0  0  0  0  0  0  0
   -1.2794   -1.1113    1.0935 H   0  0  0  0  0  0  0  0  0  0  0  0
    0.7887    0.5820    0.4776 H   0  0  0  0  0  0  0  0  0  0  0  0
    0.3292    1.1291   -1.9701 H   0  0  0  0  0  0  0  0  0  0  0  0
   -0.6292   -0.3328   -2.0950 H   0  0  0  0  0  0  0  0  0  0  0  0
    1.4005   -1.7056   -1.5029 H   0  0  0  0  0  0  0  0  0  0  0  0
    2.3473   -0.2220   -1.3586 H   0  0  0  0  0  0  0  0  0  0  0  0
    0.9058   -1.1533   -3.8980 H   0  0  0  0  0  0  0  0  0  0  0  0
    1.8881    0.3070   -3.7568 H   0  0  0  0  0  0  0  0  0  0  0  0
    2.9205   -2.5511   -3.3110 H   0  0  0  0  0  0  0  0  0  0  0  0
    3.8965   -1.0790   -3.2050 H   0  0  0  0  0  0  0  0  0  0  0  0
    2.5223   -1.0770   -5.5812 H   0  0  0  0  0  0  0  0  0  0  0  0
    4.1328   -1.1461   -5.3205 H   0  0  0  0  0  0  0  0  0  0  0  0
   -1.9776    0.8501    1.3034 N   0  0  0  0  0  0  0  0  0  0  0  0
   -3.1207    1.6123    1.7519 C   0  0  2  0  0  0  0  0  0  0  0  0
   -3.1497    1.5650    3.2739 C   0  0  0  0  0  0  0  0  0  0  0  0
   -2.7841    0.5863    3.9217 O   0  0  0  0  0  0  0  0  0  0  0  0
   -4.4138    1.0667    1.1664 C   0  0  0  0  0  0  0  0  0  0  0  0
   -1.7050    0.0452    1.8597 H   0  0  0  0  0  0  0  0  0  0  0  0
   -2.9621    2.6445    1.4210 H   0  0  0  0  0  0  0  0  0  0  0  0
   -4.5897    0.0333    1.4869 H   0  0  0  0  0  0  0  0  0  0  0  0
   -5.2758    1.6625    1.4842 H   0  0  0  0  0  0  0  0  0  0  0  0
   -4.3794    1.0738    0.0716 H   0  0  0  0  0  0  0  0  0  0  0  0
   -3.6724    2.7279    3.8223 N   0  0  0  0  0  0  0  0  0  0  0  0
   -3.8438    2.9105    5.2447 C   0  0  0  0  0  0  0  0  0  0  0  0
   -3.9125    3.5039    3.2125 H   0  0  0  0  0  0  0  0  0  0  0  0
   -4.8585    2.6004    5.5350 H   0  0  0  0  0  0  0  0  0  0  0  0
   -3.1053    2.2994    5.7843 H   0  0  0  0  0  0  0  0  0  0  0  0
   -3.6980    3.9709    5.4983 H   0  0  0  0  0  0  0  0  0  0  0  0
  1  3  1  0  0  0  0
  1  7  1  0  0  0  0
  1  2  2  0  0  0  0
 39 40  1  0  0  0  0
 40 48  1  0  0  0  0
 40 41  2  0  0  0  0
  8  9  1  0  0  0  0
  9 17  1  0  0  0  0
  9 10  2  0  0  0  0
 18 19  1  0  0  0  0
 19 38  1  0  0  0  0
 19 20  2  0  0  0  0
 39 42  1  0  0  0  0
  8 11  1  0  0  0  0
 48 49  1  0  0  0  0
 22 23  1  0  0  0  0
 21 22  1  0  0  0  0
 23 24  1  0  0  0  0
 18 21  1  0  0  0  0
 24 25  1  0  0  0  0
 38 39  1  0  0  0  0
  7  8  1  0  0  0  0
 17 18  1  0  0  0  0
  3  4  1  0  0  0  0
  3  5  1  0  0  0  0
  3  6  1  0  0  0  0
 42 45  1  0  0  0  0
 42 46  1  0  0  0  0
 42 47  1  0  0  0  0
 11 14  1  0  0  0  0
 11 15  1  0  0  0  0
 11 16  1  0  0  0  0
 49 51  1  0  0  0  0
 49 52  1  0  0  0  0
 49 53  1  0  0  0  0
 22 30  1  0  0  0  0
 22 31  1  0  0  0  0
 23 32  1  0  0  0  0
 23 33  1  0  0  0  0
 21 28  1  0  0  0  0
 21 29  1  0  0  0  0
 24 34  1  0  0  0  0
 24 35  1  0  0  0  0
 39 44  1  0  0  0  0
  8 13  1  0  0  0  0
 18 27  1  0  0  0  0
 25 36  1  0  0  0  0
 25 37  1  0  0  0  0
 48 50  1  0  0  0  0
  7 12  1  0  0  0  0
 38 43  1  0  0  0  0
 17 26  1  0  0  0  0
M  END
$$$$

  -OEChem-05262214473D

 53 52  0     1  0  0  0  0  0999 V2000
   -1.0338   -5.6785    0.1476 C   0  0  0  0  0  0  0  0  0  0  0  0
   -2.0514   -5.7797    0.8227 O   0  0  0  0  0  0  0  0  0  0  0  0
   -0.6558   -6.7819   -0.7841 C   0  0  0  0  0  0  0  0  0  0  0  0
   -0.0111   -7.5354   -0.3038 H   0  0  0  0  0  0  0  0  0  0  0  0
   -1.5317   -7.3401   -1.1520 H   0  0  0  0  0  0  0  0  0  0  0  0
   -0.1109   -6.4687   -1.6890 H   0  0  0  0  0  0  0  0  0  0  0  0
   -0.1543   -4.6083    0.1480 N   0  0  0  0  0  0  0  0  0  0  0  0
   -0.3302   -3.4398    0.9696 C   0  0  2  0  0  0  0  0  0  0  0  0
    0.2328   -2.2439    0.2131 C   0  0  0  0  0  0  0  0  0  0  0  0
    1.2097   -2.3192   -0.5294 O   0  0  0  0  0  0  0  0  0  0  0  0
    0.3557   -3.6024    2.3171 C   0  0  0  0  0  0  0  0  0  0  0  0
    0.6584   -4.6506   -0.4643 H   0  0  0  0  0  0  0  0  0  0  0  0
   -1.4091   -3.3101    1.1082 H   0  0  0  0  0  0  0  0  0  0  0  0
    1.4375   -3.7336    2.1985 H   0  0  0  0  0  0  0  0  0  0  0  0
    0.1969   -2.7243    2.9517 H   0  0  0  0  0  0  0  0  0  0  0  0
   -0.0294   -4.4803    2.8470 H   0  0  0  0  0  0  0  0  0  0  0  0
   -0.4616   -1.0893    0.5050 N   0  0  0  0  0  0  0  0  0  0  0  0
   -0.0884    0.2050   -0.0621 C   0  0  2  0  0  0  0  0  0  0  0  0
   -1.2577    1.1606    0.1579 C   0  0  0  0  0  0  0  0  0  0  0  0
   -1.6704    1.9258   -0.7113 O   0  0  0  0  0  0  0  0  0  0  0  0
    0.2218    0.1147   -1.5637 C   0  0  0  0  0  0  0  0  0  0  0  0
    1.4947   -0.6792   -1.8750 C   0  0  0  0  0  0  0  0  0  0  0  0
    1.7698   -0.7171   -3.3808 C   0  0  0  0  0  0  0  0  0  0  0  0
    3.0255   -1.5296   -3.6925 C   0  0  0  0  0  0  0  0  0  0  0  0
    3.2560   -1.5729   -5.1316 N   0  0  0  0  0  0  0  0  0  0  0  0
   -1.2794   -1.1113    1.0935 H   0  0  0  0  0  0  0  0  0  0  0  0
    0.7887    0.5820    0.4776 H   0  0  0  0  0  0  0  0  0  0  0  0
    0.3292    1.1291   -1.9701 H   0  0  0  0  0  0  0  0  0  0  0  0
   -0.6292   -0.3328   -2.0950 H   0  0  0  0  0  0  0  0  0  0  0  0
    1.4005   -1.7056   -1.5029 H   0  0  0  0  0  0  0  0  0  0  0  0
    2.3473   -0.2220   -1.3586 H   0  0  0  0  0  0  0  0  0  0  0  0
    0.9058   -1.1533   -3.8980 H   0  0  0  0  0  0  0  0  0  0  0  0
    1.8881    0.3070   -3.7568 H   0  0  0  0  0  0  0  0  0  0  0  0
    2.9205   -2.5511   -3.3110 H   0  0  0  0  0  0  0  0  0  0  0  0
    3.8965   -1.0790   -3.2050 H   0  0  0  0  0  0  0  0  0  0  0  0
    2.5223   -1.0770   -5.5812 H   0  0  0  0  0  0  0  0  0  0  0  0
    4.1328   -1.1461   -5.3205 H   0  0  0  0  0  0  0  0  0  0  0  0
   -1.7695    1.0721    1.4452 N   0  0  0  0  0  0  0  0  0  0  0  0
   -2.8664    1.8849    1.9194 C   0  0  2  0  0  0  0  0  0  0  0  0
   -2.6516    2.1445    3.4047 C   0  0  0  0  0  0  0  0  0  0  0  0
   -2.1360    1.3243    4.1613 O   0  0  0  0  0  0  0  0  0  0  0  0
   -4.2048    1.2056    1.6744 C   0  0  0  0  0  0  0  0  0  0  0  0
   -1.3694    0.4017    2.0948 H   0  0  0  0  0  0  0  0  0  0  0  0
   -2.8179    2.8324    1.3717 H   0  0  0  0  0  0  0  0  0  0  0  0
   -4.2720    0.2545    2.2151 H   0  0  0  0  0  0  0  0  0  0  0  0
   -5.0363    1.8350    2.0082 H   0  0  0  0  0  0  0  0  0  0  0  0
   -4.3445    0.9927    0.6090 H   0  0  0  0  0  0  0  0  0  0  0  0
   -3.1425    3.3828    3.7944 N   0  0  0  0  0  0  0  0  0  0  0  0
   -3.0962    3.8445    5.1621 C   0  0  0  0  0  0  0  0  0  0  0  0
   -3.5174    4.0149    3.0932 H   0  0  0  0  0  0  0  0  0  0  0  0
   -4.0340    3.5780    5.6716 H   0  0  0  0  0  0  0  0  0  0  0  0
   -2.2498    3.3703    5.6806 H   0  0  0  0  0  0  0  0  0  0  0  0
   -2.9691    4.9370    5.1760 H   0  0  0  0  0  0  0  0  0  0  0  0
  1  3  1  0  0  0  0
  1  7  1  0  0  0  0
  1  2  2  0  0  0  0
 39 40  1  0  0  0  0
 40 48  1  0  0  0  0
 40 41  2  0  0  0  0
  8  9  1  0  0  0  0
  9 17  1  0  0  0  0
  9 10  2  0  0  0  0
 18 19  1  0  0  0  0
 19 38  1  0  0  0  0
 19 20  2  0  0  0  0
 39 42  1  0  0  0  0
  8 11  1  0  0  0  0
 48 49  1  0  0  0  0
 22 23  1  0  0  0  0
 21 22  1  0  0  0  0
 23 24  1  0  0  0  0
 18 21  1  0  0  0  0
 24 25  1  0  0  0  0
 38 39  1  0  0  0  0
  7  8  1  0  0  0  0
 17 18  1  0  0  0  0
  3  4  1  0  0  0  0
  3  5  1  0  0  0  0
  3  6  1  0  0  0  0
 42 45  1  0  0  0  0
 42 46  1  0  0  0  0
 42 47  1  0  0  0  0
 11 14  1  0  0  0  0
 11 15  1  0  0  0  0
 11 16  1  0  0  0  0
 49 51  1  0  0  0  0
 49 52  1  0  0  0  0
 49 53  1  0  0  0  0
 22 30  1  0  0  0  0
 22 31  1  0  0  0  0
 23 32  1  0  0  0  0
 23 33  1  0  0  0  0
 21 28  1  0  0  0  0
 21 29  1  0  0  0  0
 24 34  1  0  0  0  0
 24 35  1  0  0  0  0
 39 44  1  0  0  0  0
  8 13  1  0  0  0  0
 18 27  1  0  0  0  0
 25 36  1  0  0  0  0
 25 37  1  0  0  0  0
 48 50  1  0  0  0  0
  7 12  1  0  0  0  0
 38 43  1  0  0  0  0
 17 26  1  0  0  0  0
M  END
$$$$

  -OEChem-05262214473D

 53 52  0     1  0  0  0  0  0999 V2000
   -1.0338   -5.6785    0.1476 C   0  0  0  0  0  0  0  0  0  0  0  0
   -2.0514   -5.7797    0.8227 O   0  0  0  0  0  0  0  0  0  0  0  0
   -0.6558   -6.7819   -0.7841 C   0  0  0  0  0  0  0  0  0  0  0  0
   -0.0111   -7.5354   -0.3038 H   0  0  0  0  0  0  0  0  0  0  0  0
   -1.5317   -7.3401   -1.1520 H   0  0  0  0  0  0  0  0  0  0  0  0
   -0.1109   -6.4687   -1.6890 H   0  0  0  0  0  0  0  0  0  0  0  0
   -0.1543   -4.6083    0.1480 N   0  0  0  0  0  0  0  0  0  0  0  0
   -0.3302   -3.4398    0.9696 C   0  0  2  0  0  0  0  0  0  0  0  0
    0.2328   -2.2439    0.2131 C   0  0  0  0  0  0  0  0  0  0  0  0
    1.2097   -2.3192   -0.5294 O   0  0  0  0  0  0  0  0  0  0  0  0
    0.3557   -3.6024    2.3171 C   0  0  0  0  0  0  0  0  0  0  0  0
    0.6584   -4.6506   -0.4643 H   0  0  0  0  0  0  0  0  0  0  0  0
   -1.4091   -3.3101    1.1082 H   0  0  0  0  0  0  0  0  0  0  0  0
    1.4375   -3.7336    2.1985 H   0  0  0  0  0  0  0  0  0  0  0  0
    0.1969   -2.7243    2.9517 H   0  0  0  0  0  0  0  0  0  0  0  0
   -0.0294   -4.4803    2.8470 H   0  0  0  0  0  0  0  0  0  0  0  0
   -0.4616   -1.0893    0.5050 N   0  0  0  0  0  0  0  0  0  0  0  0
   -0.0884    0.2050   -0.0621 C   0  0  2  0  0  0  0  0  0  0  0  0
   -1.2577    1.1606    0.1579 C   0  0  0  0  0  0  0  0  0  0  0  0
   -1.8432    1.7263   -0.7633 O   0  0  0  0  0  0  0  0  0  0  0  0
    0.2218    0.1147   -1.5637 C   0  0  0  0  0  0  0  0  0  0  0  0
    1.4947   -0.6792   -1.8750 C   0  0  0  0  0  0  0  0  0  0  0  0
    1.7698   -0.7171   -3.3808 C   0  0  0  0  0  0  0  0  0  0  0  0
    3.0255   -1.5296   -3.6925 C   0  0  0  0  0  0  0  0  0  0  0  0
    3.2560   -1.5729   -5.1316 N   0  0  0  0  0  0  0  0  0  0  0  0
   -1.2794   -1.1113    1.0935 H   0  0  0  0  0  0  0  0  0  0  0  0
    0.7887    0.5820    0.4776 H   0  0  0  0  0  0  0  0  0  0  0  0
    0.3292    1.1291   -1.9701 H   0  0  0  0  0  0  0  0  0  0  0  0
   -0.6292   -0.3328   -2.0950 H   0  0  0  0  0  0  0  0  0  0  0  0
    1.4005   -1.7056   -1.5029 H   0  0  0  0  0  0  0  0  0  0  0  0
    2.3473   -0.2220   -1.3586 H   0  0  0  0  0  0  0  0  0  0  0  0
    0.9058   -1.1533   -3.8980 H   0  0  0  0  0  0  0  0  0  0  0  0
    1.8881    0.3070   -3.7568 H   0  0  0  0  0  0  0  0  0  0  0  0
    2.9205   -2.5511   -3.3110 H   0  0  0  0  0  0  0  0  0  0  0  0
    3.8965   -1.0790   -3.2050 H   0  0  0  0  0  0  0  0  0  0  0  0
    2.5223   -1.0770   -5.5812 H   0  0  0  0  0  0  0  0  0  0  0  0
    4.1328   -1.1461   -5.3205 H   0  0  0  0  0  0  0  0  0  0  0  0
   -1.5538    1.3225    1.5044 N   0  0  0  0  0  0  0  0  0  0  0  0
   -2.6038    2.1909    1.9860 C   0  0  2  0  0  0  0  0  0  0  0  0
   -2.1709    2.7488    3.3353 C   0  0  0  0  0  0  0  0  0  0  0  0
   -1.4988    2.1087    4.1414 O   0  0  0  0  0  0  0  0  0  0  0  0
   -3.9257    1.4483    2.1037 C   0  0  0  0  0  0  0  0  0  0  0  0
   -1.0206    0.8052    2.1969 H   0  0  0  0  0  0  0  0  0  0  0  0
   -2.6935    3.0095    1.2635 H   0  0  0  0  0  0  0  0  0  0  0  0
   -3.8553    0.6244    2.8232 H   0  0  0  0  0  0  0  0  0  0  0  0
   -4.7264    2.1145    2.4413 H   0  0  0  0  0  0  0  0  0  0  0  0
   -4.2207    1.0223    1.1386 H   0  0  0  0  0  0  0  0  0  0  0  0
   -2.6596    4.0296    3.5517 N   0  0  0  0  0  0  0  0  0  0  0  0
   -2.4222    4.7582    4.7759 C   0  0  0  0  0  0  0  0  0  0  0  0
   -3.1742    4.4995    2.8127 H   0  0  0  0  0  0  0  0  0  0  0  0
   -3.2519    4.5802    5.4759 H   0  0  0  0  0  0  0  0  0  0  0  0
   -1.4803    4.4160    5.2294 H   0  0  0  0  0  0  0  0  0  0  0  0
   -2.3534    5.8336    4.5550 H   0  0  0  0  0  0  0  0  0  0  0  0
  1  3  1  0  0  0  0
  1  7  1  0  0  0  0
  1  2  2  0  0  0  0
 39 40  1  0  0  0  0
 40 48  1  0  0  0  0
 40 41  2  0  0  0  0
  8  9  1  0  0  0  0
  9 17  1  0  0  0  0
  9 10  2  0  0  0  0
 18 19  1  0  0  0  0
 19 38  1  0  0  0  0
 19 20  2  0  0  0  0
 39 42  1  0  0  0  0
  8 11  1  0  0  0  0
 48 49  1  0  0  0  0
 22 23  1  0  0  0  0
 21 22  1  0  0  0  0
 23 24  1  0  0  0  0
 18 21  1  0  0  0  0
 24 25  1  0  0  0  0
 38 39  1  0  0  0  0
  7  8  1  0  0  0  0
 17 18  1  0  0  0  0
  3  4  1  0  0  0  0
  3  5  1  0  0  0  0
  3  6  1  0  0  0  0
 42 45  1  0  0  0  0
 42 46  1  0  0  0  0
 42 47  1  0  0  0  0
 11 14  1  0  0  0  0
 11 15  1  0  0  0  0
 11 16  1  0  0  0  0
 49 51  1  0  0  0  0
 49 52  1  0  0  0  0
 49 53  1  0  0  0  0
 22 30  1  0  0  0  0
 22 31  1  0  0  0  0
 23 32  1  0  0  0  0
 23 33  1  0  0  0  0
 21 28  1  0  0  0  0
 21 29  1  0  0  0  0
 24 34  1  0  0  0  0
 24 35  1  0  0  0  0
 39 44  1  0  0  0  0
  8 13  1  0  0  0  0
 18 27  1  0  0  0  0
 25 36  1  0  0  0  0
 25 37  1  0  0  0  0
 48 50  1  0  0  0  0
  7 12  1  0  0  0  0
 38 43  1  0  0  0  0
 17 26  1  0  0  0  0
M  END
$$$$

  -OEChem-05262214473D

 53 52  0     1  0  0  0  0  0999 V2000
   -1.0338   -5.6785    0.1476 C   0  0  0  0  0  0  0  0  0  0  0  0
   -2.0514   -5.7797    0.8227 O   0  0  0  0  0  0  0  0  0  0  0  0
   -0.6558   -6.7819   -0.7841 C   0  0  0  0  0  0  0  0  0  0  0  0
   -0.0111   -7.5354   -0.3038 H   0  0  0  0  0  0  0  0  0  0  0  0
   -1.5317   -7.3401   -1.1520 H   0  0  0  0  0  0  0  0  0  0  0  0
   -0.1109   -6.4687   -1.6890 H   0  0  0  0  0  0  0  0  0  0  0  0
   -0.1543   -4.6083    0.1480 N   0  0  0  0  0  0  0  0  0  0  0  0
   -0.3302   -3.4398    0.9696 C   0  0  2  0  0  0  0  0  0  0  0  0
    0.2328   -2.2439    0.2131 C   0  0  0  0  0  0  0  0  0  0  0  0
    1.2097   -2.3192   -0.5294 O   0  0  0  0  0  0  0  0  0  0  0  0
    0.3557   -3.6024    2.3171 C   0  0  0  0  0  0  0  0  0  0  0  0
    0.6584   -4.6506   -0.4643 H   0  0  0  0  0  0  0  0  0  0  0  0
   -1.4091   -3.3101    1.1082 H   0  0  0  0  0  0  0  0  0  0  0  0
    1.4375   -3.7336    2.1985 H   0  0  0  0  0  0  0  0  0  0  0  0
    0.1969   -2.7243    2.9517 H   0  0  0  0  0  0  0  0  0  0  0  0
   -0.0294   -4.4803    2.8470 H   0  0  0  0  0  0  0  0  0  0  0  0
   -0.4616   -1.0893    0.5050 N   0  0  0  0  0  0  0  0  0  0  0  0
   -0.0884    0.2050   -0.0621 C   0  0  2  0  0  0  0  0  0  0  0  0
   -1.2577    1.1606    0.1579 C   0  0  0  0  0  0  0  0  0  0  0  0
   -2.0112    1.5168   -0.7459 O   0  0  0  0  0  0  0  0  0  0  0  0
    0.2218    0.1147   -1.5637 C   0  0  0  0  0  0  0  0  0  0  0  0
    1.4947   -0.6792   -1.8750 C   0  0  0  0  0  0  0  0  0  0  0  0
    1.7698   -0.7171   -3.3808 C   0  0  0  0  0  0  0  0  0  0  0  0
    3.0255   -1.5296   -3.6925 C   0  0  0  0  0  0  0  0  0  0  0  0
    3.2560   -1.5729   -5.1316 N   0  0  0  0  0  0  0  0  0  0  0  0
   -1.2794   -1.1113    1.0935 H   0  0  0  0  0  0  0  0  0  0  0  0
    0.7887    0.5820    0.4776 H   0  0  0  0  0  0  0  0  0  0  0  0
    0.3292    1.1291   -1.9701 H   0  0  0  0  0  0  0  0  0  0  0  0
   -0.6292   -0.3328   -2.0950 H   0  0  0  0  0  0  0  0  0  0  0  0
    1.4005   -1.7056   -1.5029 H   0  0  0  0  0  0  0  0  0  0  0  0
    2.3473   -0.2220   -1.3586 H   0  0  0  0  0  0  0  0  0  0  0  0
    0.9058   -1.1533   -3.8980 H   0  0  0  0  0  0  0  0  0  0  0  0
    1.8881    0.3070   -3.7568 H   0  0  0  0  0  0  0  0  0  0  0  0
    2.9205   -2.5511   -3.3110 H   0  0  0  0  0  0  0  0  0  0  0  0
    3.8965   -1.0790   -3.2050 H   0  0  0  0  0  0  0  0  0  0  0  0
    2.5223   -1.0770   -5.5812 H   0  0  0  0  0  0  0  0  0  0  0  0
    4.1328   -1.1461   -5.3205 H   0  0  0  0  0  0  0  0  0  0  0  0
   -1.3452    1.5841    1.4769 N   0  0  0  0  0  0  0  0  0  0  0  0
   -2.3508    2.5095    1.9470 C   0  0  2  0  0  0  0  0  0  0  0  0
   -1.7403    3.3367    3.0706 C   0  0  0  0  0  0  0  0  0  0  0  0
   -0.9157    2.8863    3.8633 O   0  0  0  0  0  0  0  0  0  0  0  0
   -3.5956    1.7782    2.4250 C   0  0  0  0  0  0  0  0  0  0  0  0
   -0.6821    1.2282    2.1589 H   0  0  0  0  0  0  0  0  0  0  0  0
   -2.5975    3.1637    1.1037 H   0  0  0  0  0  0  0  0  0  0  0  0
   -3.3681    1.1178    3.2697 H   0  0  0  0  0  0  0  0  0  0  0  0
   -4.3674    2.4819    2.7541 H   0  0  0  0  0  0  0  0  0  0  0  0
   -4.0164    1.1606    1.6242 H   0  0  0  0  0  0  0  0  0  0  0  0
   -2.2566    4.6243    3.1107 N   0  0  0  0  0  0  0  0  0  0  0  0
   -1.8679    5.5893    4.1125 C   0  0  0  0  0  0  0  0  0  0  0  0
   -2.9062    4.9248    2.3899 H   0  0  0  0  0  0  0  0  0  0  0  0
   -2.5656    5.5386    4.9615 H   0  0  0  0  0  0  0  0  0  0  0  0
   -0.8491    5.3653    4.4614 H   0  0  0  0  0  0  0  0  0  0  0  0
   -1.8927    6.5994    3.6776 H   0  0  0  0  0  0  0  0  0  0  0  0
  1  3  1  0  0  0  0
  1  7  1  0  0  0  0
  1  2  2  0  0  0  0
 39 40  1  0  0  0  0
 40 48  1  0  0  0  0
 40 41  2  0  0  0  0
  8  9  1  0  0  0  0
  9 17  1  0  0  0  0
  9 10  2  0  0  0  0
 18 19  1  0  0  0  0
 19 38  1  0  0  0  0
 19 20  2  0  0  0  0
 39 42  1  0  0  0  0
  8 11  1  0  0  0  0
 48 49  1  0  0  0  0
 22 23  1  0  0  0  0
 21 22  1  0  0  0  0
 23 24  1  0  0  0  0
 18 21  1  0  0  0  0
 24 25  1  0  0  0  0
 38 39  1  0  0  0  0
  7  8  1  0  0  0  0
 17 18  1  0  0  0  0
  3  4  1  0  0  0  0
  3  5  1  0  0  0  0
  3  6  1  0  0  0  0
 42 45  1  0  0  0  0
 42 46  1  0  0  0  0
 42 47  1  0  0  0  0
 11 14  1  0  0  0  0
 11 15  1  0  0  0  0
 11 16  1  0  0  0  0
 49 51  1  0  0  0  0
 49 52  1  0  0  0  0
 49 53  1  0  0  0  0
 22 30  1  0  0  0  0
 22 31  1  0  0  0  0
 23 32  1  0  0  0  0
 23 33  1  0  0  0  0
 21 28  1  0  0  0  0
 21 29  1  0  0  0  0
 24 34  1  0  0  0  0
 24 35  1  0  0  0  0
 39 44  1  0  0  0  0
  8 13  1  0  0  0  0
 18 27  1  0  0  0  0
 25 36  1  0  0  0  0
 25 37  1  0  0  0  0
 48 50  1  0  0  0  0
  7 12  1  0  0  0  0
 38 43  1  0  0  0  0
 17 26  1  0  0  0  0
M  END
$$$$

  -OEChem-05262214473D

 53 52  0     1  0  0  0  0  0999 V2000
   -1.0338   -5.6785    0.1476 C   0  0  0  0  0  0  0  0  0  0  0  0
   -2.0514   -5.7797    0.8227 O   0  0  0  0  0  0  0  0  0  0  0  0
   -0.6558   -6.7819   -0.7841 C   0  0  0  0  0  0  0  0  0  0  0  0
   -0.0111   -7.5354   -0.3038 H   0  0  0  0  0  0  0  0  0  0  0  0
   -1.5317   -7.3401   -1.1520 H   0  0  0  0  0  0  0  0  0  0  0  0
   -0.1109   -6.4687   -1.6890 H   0  0  0  0  0  0  0  0  0  0  0  0
   -0.1543   -4.6083    0.1480 N   0  0  0  0  0  0  0  0  0  0  0  0
   -0.3302   -3.4398    0.9696 C   0  0  2  0  0  0  0  0  0  0  0  0
    0.2328   -2.2439    0.2131 C   0  0  0  0  0  0  0  0  0  0  0  0
    1.2097   -2.3192   -0.5294 O   0  0  0  0  0  0  0  0  0  0  0  0
    0.3557   -3.6024    2.3171 C   0  0  0  0  0  0  0  0  0  0  0  0
    0.6584   -4.6506   -0.4643 H   0  0  0  0  0  0  0  0  0  0  0  0
   -1.4091   -3.3101    1.1082 H   0  0  0  0  0  0  0  0  0  0  0  0
    1.4375   -3.7336    2.1985 H   0  0  0  0  0  0  0  0  0  0  0  0
    0.1969   -2.7243    2.9517 H   0  0  0  0  0  0  0  0  0  0  0  0
   -0.0294   -4.4803    2.8470 H   0  0  0  0  0  0  0  0  0  0  0  0
   -0.4616   -1.0893    0.5050 N   0  0  0  0  0  0  0  0  0  0  0  0
   -0.0884    0.2050   -0.0621 C   0  0  2  0  0  0  0  0  0  0  0  0
   -1.2577    1.1606    0.1579 C   0  0  0  0  0  0  0  0  0  0  0  0
   -2.1628    1.3115   -0.6604 O   0  0  0  0  0  0  0  0  0  0  0  0
    0.2218    0.1147   -1.5637 C   0  0  0  0  0  0  0  0  0  0  0  0
    1.4947   -0.6792   -1.8750 C   0  0  0  0  0  0  0  0  0  0  0  0
    1.7698   -0.7171   -3.3808 C   0  0  0  0  0  0  0  0  0  0  0  0
    3.0255   -1.5296   -3.6925 C   0  0  0  0  0  0  0  0  0  0  0  0
    3.2560   -1.5729   -5.1316 N   0  0  0  0  0  0  0  0  0  0  0  0
   -1.2794   -1.1113    1.0935 H   0  0  0  0  0  0  0  0  0  0  0  0
    0.7887    0.5820    0.4776 H   0  0  0  0  0  0  0  0  0  0  0  0
    0.3292    1.1291   -1.9701 H   0  0  0  0  0  0  0  0  0  0  0  0
   -0.6292   -0.3328   -2.0950 H   0  0  0  0  0  0  0  0  0  0  0  0
    1.4005   -1.7056   -1.5029 H   0  0  0  0  0  0  0  0  0  0  0  0
    2.3473   -0.2220   -1.3586 H   0  0  0  0  0  0  0  0  0  0  0  0
    0.9058   -1.1533   -3.8980 H   0  0  0  0  0  0  0  0  0  0  0  0
    1.8881    0.3070   -3.7568 H   0  0  0  0  0  0  0  0  0  0  0  0
    2.9205   -2.5511   -3.3110 H   0  0  0  0  0  0  0  0  0  0  0  0
    3.8965   -1.0790   -3.2050 H   0  0  0  0  0  0  0  0  0  0  0  0
    2.5223   -1.0770   -5.5812 H   0  0  0  0  0  0  0  0  0  0  0  0
    4.1328   -1.1461   -5.3205 H   0  0  0  0  0  0  0  0  0  0  0  0
   -1.1579    1.8391    1.3647 N   0  0  0  0  0  0  0  0  0  0  0  0
   -2.1247    2.8190    1.8052 C   0  0  2  0  0  0  0  0  0  0  0  0
   -1.3892    3.8681    2.6286 C   0  0  0  0  0  0  0  0  0  0  0  0
   -0.4266    3.6040    3.3460 O   0  0  0  0  0  0  0  0  0  0  0  0
   -3.2370    2.1730    2.6164 C   0  0  0  0  0  0  0  0  0  0  0  0
   -0.3771    1.6418    1.9835 H   0  0  0  0  0  0  0  0  0  0  0  0
   -2.5365    3.2846    0.9032 H   0  0  0  0  0  0  0  0  0  0  0  0
   -2.8436    1.7012    3.5242 H   0  0  0  0  0  0  0  0  0  0  0  0
   -3.9836    2.9122    2.9251 H   0  0  0  0  0  0  0  0  0  0  0  0
   -3.7455    1.3980    2.0327 H   0  0  0  0  0  0  0  0  0  0  0  0
   -1.9611    5.1263    2.5015 N   0  0  0  0  0  0  0  0  0  0  0  0
   -1.4710    6.2813    3.2170 C   0  0  0  0  0  0  0  0  0  0  0  0
   -2.7317    5.2618    1.8538 H   0  0  0  0  0  0  0  0  0  0  0  0
   -2.0218    6.3879    4.1632 H   0  0  0  0  0  0  0  0  0  0  0  0
   -0.3993    6.1535    3.4291 H   0  0  0  0  0  0  0  0  0  0  0  0
   -1.6185    7.1823    2.6035 H   0  0  0  0  0  0  0  0  0  0  0  0
  1  3  1  0  0  0  0
  1  7  1  0  0  0  0
  1  2  2  0  0  0  0
 39 40  1  0  0  0  0
 40 48  1  0  0  0  0
 40 41  2  0  0  0  0
  8  9  1  0  0  0  0
  9 17  1  0  0  0  0
  9 10  2  0  0  0  0
 18 19  1  0  0  0  0
 19 38  1  0  0  0  0
 19 20  2  0  0  0  0
 39 42  1  0  0  0  0
  8 11  1  0  0  0  0
 48 49  1  0  0  0  0
 22 23  1  0  0  0  0
 21 22  1  0  0  0  0
 23 24  1  0  0  0  0
 18 21  1  0  0  0  0
 24 25  1  0  0  0  0
 38 39  1  0  0  0  0
  7  8  1  0  0  0  0
 17 18  1  0  0  0  0
  3  4  1  0  0  0  0
  3  5  1  0  0  0  0
  3  6  1  0  0  0  0
 42 45  1  0  0  0  0
 42 46  1  0  0  0  0
 42 47  1  0  0  0  0
 11 14  1  0  0  0  0
 11 15  1  0  0  0  0
 11 16  1  0  0  0  0
 49 51  1  0  0  0  0
 49 52  1  0  0  0  0
 49 53  1  0  0  0  0
 22 30  1  0  0  0  0
 22 31  1  0  0  0  0
 23 32  1  0  0  0  0
 23 33  1  0  0  0  0
 21 28  1  0  0  0  0
 21 29  1  0  0  0  0
 24 34  1  0  0  0  0
 24 35  1  0  0  0  0
 39 44  1  0  0  0  0
  8 13  1  0  0  0  0
 18 27  1  0  0  0  0
 25 36  1  0  0  0  0
 25 37  1  0  0  0  0
 48 50  1  0  0  0  0
  7 12  1  0  0  0  0
 38 43  1  0  0  0  0
 17 26  1  0  0  0  0
M  END
$$$$

  -OEChem-05262214473D

 53 52  0     1  0  0  0  0  0999 V2000
   -1.0338   -5.6785    0.1476 C   0  0  0  0  0  0  0  0  0  0  0  0
   -2.0514   -5.7797    0.8227 O   0  0  0  0  0  0  0  0  0  0  0  0
   -0.6558   -6.7819   -0.7841 C   0  0  0  0  0  0  0  0  0  0  0  0
   -0.0111   -7.5354   -0.3038 H   0  0  0  0  0  0  0  0  0  0  0  0
   -1.5317   -7.3401   -1.1520 H   0  0  0  0  0  0  0  0  0  0  0  0
   -0.1109   -6.4687   -1.6890 H   0  0  0  0  0  0  0  0  0  0  0  0
   -0.1543   -4.6083    0.1480 N   0  0  0  0  0  0  0  0  0  0  0  0
   -0.3302   -3.4398    0.9696 C   0  0  2  0  0  0  0  0  0  0  0  0
    0.2328   -2.2439    0.2131 C   0  0  0  0  0  0  0  0  0  0  0  0
    1.2097   -2.3192   -0.5294 O   0  0  0  0  0  0  0  0  0  0  0  0
    0.3557   -3.6024    2.3171 C   0  0  0  0  0  0  0  0  0  0  0  0
    0.6584   -4.6506   -0.4643 H   0  0  0  0  0  0  0  0  0  0  0  0
   -1.4091   -3.3101    1.1082 H   0  0  0  0  0  0  0  0  0  0  0  0
    1.4375   -3.7336    2.1985 H   0  0  0  0  0  0  0  0  0  0  0  0
    0.1969   -2.7243    2.9517 H   0  0  0  0  0  0  0  0  0  0  0  0
   -0.0294   -4.4803    2.8470 H   0  0  0  0  0  0  0  0  0  0  0  0
   -0.4616   -1.0893    0.5050 N   0  0  0  0  0  0  0  0  0  0  0  0
   -0.0884    0.2050   -0.0621 C   0  0  2  0  0  0  0  0  0  0  0  0
   -1.2577    1.1606    0.1579 C   0  0  0  0  0  0  0  0  0  0  0  0
   -2.2877    1.1246   -0.5125 O   0  0  0  0  0  0  0  0  0  0  0  0
    0.2218    0.1147   -1.5637 C   0  0  0  0  0  0  0  0  0  0  0  0
    1.4947   -0.6792   -1.8750 C   0  0  0  0  0  0  0  0  0  0  0  0
    1.7698   -0.7171   -3.3808 C   0  0  0  0  0  0  0  0  0  0  0  0
    3.0255   -1.5296   -3.6925 C   0  0  0  0  0  0  0  0  0  0  0  0
    3.2560   -1.5729   -5.1316 N   0  0  0  0  0  0  0  0  0  0  0  0
   -1.2794   -1.1113    1.0935 H   0  0  0  0  0  0  0  0  0  0  0  0
    0.7887    0.5820    0.4776 H   0  0  0  0  0  0  0  0  0  0  0  0
    0.3292    1.1291   -1.9701 H   0  0  0  0  0  0  0  0  0  0  0  0
   -0.6292   -0.3328   -2.0950 H   0  0  0  0  0  0  0  0  0  0  0  0
    1.4005   -1.7056   -1.5029 H   0  0  0  0  0  0  0  0  0  0  0  0
    2.3473   -0.2220   -1.3586 H   0  0  0  0  0  0  0  0  0  0  0  0
    0.9058   -1.1533   -3.8980 H   0  0  0  0  0  0  0  0  0  0  0  0
    1.8881    0.3070   -3.7568 H   0  0  0  0  0  0  0  0  0  0  0  0
    2.9205   -2.5511   -3.3110 H   0  0  0  0  0  0  0  0  0  0  0  0
    3.8965   -1.0790   -3.2050 H   0  0  0  0  0  0  0  0  0  0  0  0
    2.5223   -1.0770   -5.5812 H   0  0  0  0  0  0  0  0  0  0  0  0
    4.1328   -1.1461   -5.3205 H   0  0  0  0  0  0  0  0  0  0  0  0
   -1.0047    2.0702    1.1754 N   0  0  0  0  0  0  0  0  0  0  0  0
   -1.9407    3.0982    1.5701 C   0  0  2  0  0  0  0  0  0  0  0  0
   -1.1416    4.3069    2.0393 C   0  0  0  0  0  0  0  0  0  0  0  0
   -0.0648    4.2129    2.6247 O   0  0  0  0  0  0  0  0  0  0  0  0
   -2.8744    2.6057    2.6649 C   0  0  0  0  0  0  0  0  0  0  0  0
   -0.1263    2.0180    1.6826 H   0  0  0  0  0  0  0  0  0  0  0  0
   -2.5145    3.3639    0.6756 H   0  0  0  0  0  0  0  0  0  0  0  0
   -2.3174    2.3347    3.5692 H   0  0  0  0  0  0  0  0  0  0  0  0
   -3.6012    3.3760    2.9428 H   0  0  0  0  0  0  0  0  0  0  0  0
   -3.4265    1.7185    2.3363 H   0  0  0  0  0  0  0  0  0  0  0  0
   -1.7930    5.5014    1.7657 N   0  0  0  0  0  0  0  0  0  0  0  0
   -1.2586    6.7868    2.1505 C   0  0  0  0  0  0  0  0  0  0  0  0
   -2.6626    5.4875    1.2409 H   0  0  0  0  0  0  0  0  0  0  0  0
   -1.6575    7.0703    3.1356 H   0  0  0  0  0  0  0  0  0  0  0  0
   -0.1615    6.7269    2.2027 H   0  0  0  0  0  0  0  0  0  0  0  0
   -1.5495    7.5425    1.4060 H   0  0  0  0  0  0  0  0  0  0  0  0
  1  3  1  0  0  0  0
  1  7  1  0  0  0  0
  1  2  2  0  0  0  0
 39 40  1  0  0  0  0
 40 48  1  0  0  0  0
 40 41  2  0  0  0  0
  8  9  1  0  0  0  0
  9 17  1  0  0  0  0
  9 10  2  0  0  0  0
 18 19  1  0  0  0  0
 19 38  1  0  0  0  0
 19 20  2  0  0  0  0
 39 42  1  0  0  0  0
  8 11  1  0  0  0  0
 48 49  1  0  0  0  0
 22 23  1  0  0  0  0
 21 22  1  0  0  0  0
 23 24  1  0  0  0  0
 18 21  1  0  0  0  0
 24 25  1  0  0  0  0
 38 39  1  0  0  0  0
  7  8  1  0  0  0  0
 17 18  1  0  0  0  0
  3  4  1  0  0  0  0
  3  5  1  0  0  0  0
  3  6  1  0  0  0  0
 42 45  1  0  0  0  0
 42 46  1  0  0  0  0
 42 47  1  0  0  0  0
 11 14  1  0  0  0  0
 11 15  1  0  0  0  0
 11 16  1  0  0  0  0
 49 51  1  0  0  0  0
 49 52  1  0  0  0  0
 49 53  1  0  0  0  0
 22 30  1  0  0  0  0
 22 31  1  0  0  0  0
 23 32  1  0  0  0  0
 23 33  1  0  0  0  0
 21 28  1  0  0  0  0
 21 29  1  0  0  0  0
 24 34  1  0  0  0  0
 24 35  1  0  0  0  0
 39 44  1  0  0  0  0
  8 13  1  0  0  0  0
 18 27  1  0  0  0  0
 25 36  1  0  0  0  0
 25 37  1  0  0  0  0
 48 50  1  0  0  0  0
  7 12  1  0  0  0  0
 38 43  1  0  0  0  0
 17 26  1  0  0  0  0
M  END
$$$$

  -OEChem-05262214473D

 53 52  0     1  0  0  0  0  0999 V2000
   -1.0338   -5.6785    0.1476 C   0  0  0  0  0  0  0  0  0  0  0  0
   -2.0514   -5.7797    0.8227 O   0  0  0  0  0  0  0  0  0  0  0  0
   -0.6558   -6.7819   -0.7841 C   0  0  0  0  0  0  0  0  0  0  0  0
   -0.0111   -7.5354   -0.3038 H   0  0  0  0  0  0  0  0  0  0  0  0
   -1.5317   -7.3401   -1.1520 H   0  0  0  0  0  0  0  0  0  0  0  0
   -0.1109   -6.4687   -1.6890 H   0  0  0  0  0  0  0  0  0  0  0  0
   -0.1543   -4.6083    0.1480 N   0  0  0  0  0  0  0  0  0  0  0  0
   -0.3302   -3.4398    0.9696 C   0  0  2  0  0  0  0  0  0  0  0  0
    0.2328   -2.2439    0.2131 C   0  0  0  0  0  0  0  0  0  0  0  0
    1.2097   -2.3192   -0.5294 O   0  0  0  0  0  0  0  0  0  0  0  0
    0.3557   -3.6024    2.3171 C   0  0  0  0  0  0  0  0  0  0  0  0
    0.6584   -4.6506   -0.4643 H   0  0  0  0  0  0  0  0  0  0  0  0
   -1.4091   -3.3101    1.1082 H   0  0  0  0  0  0  0  0  0  0  0  0
    1.4375   -3.7336    2.1985 H   0  0  0  0  0  0  0  0  0  0  0  0
    0.1969   -2.7243    2.9517 H   0  0  0  0  0  0  0  0  0  0  0  0
   -0.0294   -4.4803    2.8470 H   0  0  0  0  0  0  0  0  0  0  0  0
   -0.4616   -1.0893    0.5050 N   0  0  0  0  0  0  0  0  0  0  0  0
   -0.0884    0.2050   -0.0621 C   0  0  2  0  0  0  0  0  0  0  0  0
   -1.2577    1.1606    0.1579 C   0  0  0  0  0  0  0  0  0  0  0  0
   -2.3774    0.9688   -0.3123 O   0  0  0  0  0  0  0  0  0  0  0  0
    0.2218    0.1147   -1.5637 C   0  0  0  0  0  0  0  0  0  0  0  0
    1.4947   -0.6792   -1.8750 C   0  0  0  0  0  0  0  0  0  0  0  0
    1.7698   -0.7171   -3.3808 C   0  0  0  0  0  0  0  0  0  0  0  0
    3.0255   -1.5296   -3.6925 C   0  0  0  0  0  0  0  0  0  0  0  0
    3.2560   -1.5729   -5.1316 N   0  0  0  0  0  0  0  0  0  0  0  0
   -1.2794   -1.1113    1.0935 H   0  0  0  0  0  0  0  0  0  0  0  0
    0.7887    0.5820    0.4776 H   0  0  0  0  0  0  0  0  0  0  0  0
    0.3292    1.1291   -1.9701 H   0  0  0  0  0  0  0  0  0  0  0  0
   -0.6292   -0.3328   -2.0950 H   0  0  0  0  0  0  0  0  0  0  0  0
    1.4005   -1.7056   -1.5029 H   0  0  0  0  0  0  0  0  0  0  0  0
    2.3473   -0.2220   -1.3586 H   0  0  0  0  0  0  0  0  0  0  0  0
    0.9058   -1.1533   -3.8980 H   0  0  0  0  0  0  0  0  0  0  0  0
    1.8881    0.3070   -3.7568 H   0  0  0  0  0  0  0  0  0  0  0  0
    2.9205   -2.5511   -3.3110 H   0  0  0  0  0  0  0  0  0  0  0  0
    3.8965   -1.0790   -3.2050 H   0  0  0  0  0  0  0  0  0  0  0  0
    2.5223   -1.0770   -5.5812 H   0  0  0  0  0  0  0  0  0  0  0  0
    4.1328   -1.1461   -5.3205 H   0  0  0  0  0  0  0  0  0  0  0  0
   -0.8960    2.2616    0.9219 N   0  0  0  0  0  0  0  0  0  0  0  0
   -1.8116    3.3282    1.2579 C   0  0  2  0  0  0  0  0  0  0  0  0
   -1.0143    4.6230    1.3429 C   0  0  0  0  0  0  0  0  0  0  0  0
    0.1451    4.6715    1.7486 O   0  0  0  0  0  0  0  0  0  0  0  0
   -2.5323    3.0468    2.5671 C   0  0  0  0  0  0  0  0  0  0  0  0
    0.0531    2.3310    1.2767 H   0  0  0  0  0  0  0  0  0  0  0  0
   -2.5331    3.3962    0.4365 H   0  0  0  0  0  0  0  0  0  0  0  0
   -1.8256    2.9752    3.4019 H   0  0  0  0  0  0  0  0  0  0  0  0
   -3.2463    3.8419    2.8059 H   0  0  0  0  0  0  0  0  0  0  0  0
   -3.0811    2.1002    2.5142 H   0  0  0  0  0  0  0  0  0  0  0  0
   -1.7640    5.7241    0.9532 N   0  0  0  0  0  0  0  0  0  0  0  0
   -1.2451    7.0716    0.9856 C   0  0  0  0  0  0  0  0  0  0  0  0
   -2.7036    5.5865    0.5928 H   0  0  0  0  0  0  0  0  0  0  0  0
   -1.4977    7.5392    1.9487 H   0  0  0  0  0  0  0  0  0  0  0  0
   -0.1519    7.0464    0.8659 H   0  0  0  0  0  0  0  0  0  0  0  0
   -1.6903    7.6555    0.1667 H   0  0  0  0  0  0  0  0  0  0  0  0
  1  3  1  0  0  0  0
  1  7  1  0  0  0  0
  1  2  2  0  0  0  0
 39 40  1  0  0  0  0
 40 48  1  0  0  0  0
 40 41  2  0  0  0  0
  8  9  1  0  0  0  0
  9 17  1  0  0  0  0
  9 10  2  0  0  0  0
 18 19  1  0  0  0  0
 19 38  1  0  0  0  0
 19 20  2  0  0  0  0
 39 42  1  0  0  0  0
  8 11  1  0  0  0  0
 48 49  1  0  0  0  0
 22 23  1  0  0  0  0
 21 22  1  0  0  0  0
 23 24  1  0  0  0  0
 18 21  1  0  0  0  0
 24 25  1  0  0  0  0
 38 39  1  0  0  0  0
  7  8  1  0  0  0  0
 17 18  1  0  0  0  0
  3  4  1  0  0  0  0
  3  5  1  0  0  0  0
  3  6  1  0  0  0  0
 42 45  1  0  0  0  0
 42 46  1  0  0  0  0
 42 47  1  0  0  0  0
 11 14  1  0  0  0  0
 11 15  1  0  0  0  0
 11 16  1  0  0  0  0
 49 51  1  0  0  0  0
 49 52  1  0  0  0  0
 49 53  1  0  0  0  0
 22 30  1  0  0  0  0
 22 31  1  0  0  0  0
 23 32  1  0  0  0  0
 23 33  1  0  0  0  0
 21 28  1  0  0  0  0
 21 29  1  0  0  0  0
 24 34  1  0  0  0  0
 24 35  1  0  0  0  0
 39 44  1  0  0  0  0
  8 13  1  0  0  0  0
 18 27  1  0  0  0  0
 25 36  1  0  0  0  0
 25 37  1  0  0  0  0
 48 50  1  0  0  0  0
  7 12  1  0  0  0  0
 38 43  1  0  0  0  0
 17 26  1  0  0  0  0
M  END
$$$$

  -OEChem-05262214473D

 53 52  0     1  0  0  0  0  0999 V2000
   -1.0338   -5.6785    0.1476 C   0  0  0  0  0  0  0  0  0  0  0  0
   -2.0514   -5.7797    0.8227 O   0  0  0  0  0  0  0  0  0  0  0  0
   -0.6558   -6.7819   -0.7841 C   0  0  0  0  0  0  0  0  0  0  0  0
   -0.0111   -7.5354   -0.3038 H   0  0  0  0  0  0  0  0  0  0  0  0
   -1.5317   -7.3401   -1.1520 H   0  0  0  0  0  0  0  0  0  0  0  0
   -0.1109   -6.4687   -1.6890 H   0  0  0  0  0  0  0  0  0  0  0  0
   -0.1543   -4.6083    0.1480 N   0  0  0  0  0  0  0  0  0  0  0  0
   -0.3302   -3.4398    0.9696 C   0  0  2  0  0  0  0  0  0  0  0  0
    0.2328   -2.2439    0.2131 C   0  0  0  0  0  0  0  0  0  0  0  0
    1.2097   -2.3192   -0.5294 O   0  0  0  0  0  0  0  0  0  0  0  0
    0.3557   -3.6024    2.3171 C   0  0  0  0  0  0  0  0  0  0  0  0
    0.6584   -4.6506   -0.4643 H   0  0  0  0  0  0  0  0  0  0  0  0
   -1.4091   -3.3101    1.1082 H   0  0  0  0  0  0  0  0  0  0  0  0
    1.4375   -3.7336    2.1985 H   0  0  0  0  0  0  0  0  0  0  0  0
    0.1969   -2.7243    2.9517 H   0  0  0  0  0  0  0  0  0  0  0  0
   -0.0294   -4.4803    2.8470 H   0  0  0  0  0  0  0  0  0  0  0  0
   -0.4616   -1.0893    0.5050 N   0  0  0  0  0  0  0  0  0  0  0  0
   -0.0884    0.2050   -0.0621 C   0  0  2  0  0  0  0  0  0  0  0  0
   -1.2577    1.1606    0.1579 C   0  0  0  0  0  0  0  0  0  0  0  0
   -2.4258    0.8545   -0.0735 O   0  0  0  0  0  0  0  0  0  0  0  0
    0.2218    0.1147   -1.5637 C   0  0  0  0  0  0  0  0  0  0  0  0
    1.4947   -0.6792   -1.8750 C   0  0  0  0  0  0  0  0  0  0  0  0
    1.7698   -0.7171   -3.3808 C   0  0  0  0  0  0  0  0  0  0  0  0
    3.0255   -1.5296   -3.6925 C   0  0  0  0  0  0  0  0  0  0  0  0
    3.2560   -1.5729   -5.1316 N   0  0  0  0  0  0  0  0  0  0  0  0
   -1.2794   -1.1113    1.0935 H   0  0  0  0  0  0  0  0  0  0  0  0
    0.7887    0.5820    0.4776 H   0  0  0  0  0  0  0  0  0  0  0  0
    0.3292    1.1291   -1.9701 H   0  0  0  0  0  0  0  0  0  0  0  0
   -0.6292   -0.3328   -2.0950 H   0  0  0  0  0  0  0  0  0  0  0  0
    1.4005   -1.7056   -1.5029 H   0  0  0  0  0  0  0  0  0  0  0  0
    2.3473   -0.2220   -1.3586 H   0  0  0  0  0  0  0  0  0  0  0  0
    0.9058   -1.1533   -3.8980 H   0  0  0  0  0  0  0  0  0  0  0  0
    1.8881    0.3070   -3.7568 H   0  0  0  0  0  0  0  0  0  0  0  0
    2.9205   -2.5511   -3.3110 H   0  0  0  0  0  0  0  0  0  0  0  0
    3.8965   -1.0790   -3.2050 H   0  0  0  0  0  0  0  0  0  0  0  0
    2.5223   -1.0770   -5.5812 H   0  0  0  0  0  0  0  0  0  0  0  0
    4.1328   -1.1461   -5.3205 H   0  0  0  0  0  0  0  0  0  0  0  0
   -0.8393    2.4002    0.6214 N   0  0  0  0  0  0  0  0  0  0  0  0
   -1.7460    3.4932    0.8898 C   0  0  2  0  0  0  0  0  0  0  0  0
   -1.0159    4.7951    0.5870 C   0  0  0  0  0  0  0  0  0  0  0  0
    0.1887    4.9486    0.7774 O   0  0  0  0  0  0  0  0  0  0  0  0
   -2.2343    3.4662    2.3298 C   0  0  0  0  0  0  0  0  0  0  0  0
    0.1489    2.5596    0.7935 H   0  0  0  0  0  0  0  0  0  0  0  0
   -2.5911    3.3792    0.2022 H   0  0  0  0  0  0  0  0  0  0  0  0
   -1.4015    3.5791    3.0335 H   0  0  0  0  0  0  0  0  0  0  0  0
   -2.9431    4.2779    2.5237 H   0  0  0  0  0  0  0  0  0  0  0  0
   -2.7329    2.5171    2.5545 H   0  0  0  0  0  0  0  0  0  0  0  0
   -1.8758    5.7791    0.1196 N   0  0  0  0  0  0  0  0  0  0  0  0
   -1.4315    7.1161   -0.1982 C   0  0  0  0  0  0  0  0  0  0  0  0
   -2.8520    5.5521   -0.0461 H   0  0  0  0  0  0  0  0  0  0  0  0
   -1.5532    7.7627    0.6833 H   0  0  0  0  0  0  0  0  0  0  0  0
   -0.3713    7.0902   -0.4903 H   0  0  0  0  0  0  0  0  0  0  0  0
   -2.0314    7.5137   -1.0301 H   0  0  0  0  0  0  0  0  0  0  0  0
  1  3  1  0  0  0  0
  1  7  1  0  0  0  0
  1  2  2  0  0  0  0
 39 40  1  0  0  0  0
 40 48  1  0  0  0  0
 40 41  2  0  0  0  0
  8  9  1  0  0  0  0
  9 17  1  0  0  0  0
  9 10  2  0  0  0  0
 18 19  1  0  0  0  0
 19 38  1  0  0  0  0
 19 20  2  0  0  0  0
 39 42  1  0  0  0  0
  8 11  1  0  0  0  0
 48 49  1  0  0  0  0
 22 23  1  0  0  0  0
 21 22  1  0  0  0  0
 23 24  1  0  0  0  0
 18 21  1  0  0  0  0
 24 25  1  0  0  0  0
 38 39  1  0  0  0  0
  7  8  1  0  0  0  0
 17 18  1  0  0  0  0
  3  4  1  0  0  0  0
  3  5  1  0  0  0  0
  3  6  1  0  0  0  0
 42 45  1  0  0  0  0
 42 46  1  0  0  0  0
 42 47  1  0  0  0  0
 11 14  1  0  0  0  0
 11 15  1  0  0  0  0
 11 16  1  0  0  0  0
 49 51  1  0  0  0  0
 49 52  1  0  0  0  0
 49 53  1  0  0  0  0
 22 30  1  0  0  0  0
 22 31  1  0  0  0  0
 23 32  1  0  0  0  0
 23 33  1  0  0  0  0
 21 28  1  0  0  0  0
 21 29  1  0  0  0  0
 24 34  1  0  0  0  0
 24 35  1  0  0  0  0
 39 44  1  0  0  0  0
  8 13  1  0  0  0  0
 18 27  1  0  0  0  0
 25 36  1  0  0  0  0
 25 37  1  0  0  0  0
 48 50  1  0  0  0  0
  7 12  1  0  0  0  0
 38 43  1  0  0  0  0
 17 26  1  0  0  0  0
M  END
$$$$

  -OEChem-05262214473D

 53 52  0     1  0  0  0  0  0999 V2000
   -1.0338   -5.6785    0.1476 C   0  0  0  0  0  0  0  0  0  0  0  0
   -2.0514   -5.7797    0.8227 O   0  0  0  0  0  0  0  0  0  0  0  0
   -0.6558   -6.7819   -0.7841 C   0  0  0  0  0  0  0  0  0  0  0  0
   -0.0111   -7.5354   -0.3038 H   0  0  0  0  0  0  0  0  0  0  0  0
   -1.5317   -7.3401   -1.1520 H   0  0  0  0  0  0  0  0  0  0  0  0
   -0.1109   -6.4687   -1.6890 H   0  0  0  0  0  0  0  0  0  0  0  0
   -0.1543   -4.6083    0.1480 N   0  0  0  0  0  0  0  0  0  0  0  0
   -0.3302   -3.4398    0.9696 C   0  0  2  0  0  0  0  0  0  0  0  0
    0.2328   -2.2439    0.2131 C   0  0  0  0  0  0  0  0  0  0  0  0
    1.2097   -2.3192   -0.5294 O   0  0  0  0  0  0  0  0  0  0  0  0
    0.3557   -3.6024    2.3171 C   0  0  0  0  0  0  0  0  0  0  0  0
    0.6584   -4.6506   -0.4643 H   0  0  0  0  0  0  0  0  0  0  0  0
   -1.4091   -3.3101    1.1082 H   0  0  0  0  0  0  0  0  0  0  0  0
    1.4375   -3.7336    2.1985 H   0  0  0  0  0  0  0  0  0  0  0  0
    0.1969   -2.7243    2.9517 H   0  0  0  0  0  0  0  0  0  0  0  0
   -0.0294   -4.4803    2.8470 H   0  0  0  0  0  0  0  0  0  0  0  0
   -0.4616   -1.0893    0.5050 N   0  0  0  0  0  0  0  0  0  0  0  0
   -0.0884    0.2050   -0.0621 C   0  0  2  0  0  0  0  0  0  0  0  0
   -1.2577    1.1606    0.1579 C   0  0  0  0  0  0  0  0  0  0  0  0
   -2.4295    0.7898    0.1876 O   0  0  0  0  0  0  0  0  0  0  0  0
    0.2218    0.1147   -1.5637 C   0  0  0  0  0  0  0  0  0  0  0  0
    1.4947   -0.6792   -1.8750 C   0  0  0  0  0  0  0  0  0  0  0  0
    1.7698   -0.7171   -3.3808 C   0  0  0  0  0  0  0  0  0  0  0  0
    3.0255   -1.5296   -3.6925 C   0  0  0  0  0  0  0  0  0  0  0  0
    3.2560   -1.5729   -5.1316 N   0  0  0  0  0  0  0  0  0  0  0  0
   -1.2794   -1.1113    1.0935 H   0  0  0  0  0  0  0  0  0  0  0  0
    0.7887    0.5820    0.4776 H   0  0  0  0  0  0  0  0  0  0  0  0
    0.3292    1.1291   -1.9701 H   0  0  0  0  0  0  0  0  0  0  0  0
   -0.6292   -0.3328   -2.0950 H   0  0  0  0  0  0  0  0  0  0  0  0
    1.4005   -1.7056   -1.5029 H   0  0  0  0  0  0  0  0  0  0  0  0
    2.3473   -0.2220   -1.3586 H   0  0  0  0  0  0  0  0  0  0  0  0
    0.9058   -1.1533   -3.8980 H   0  0  0  0  0  0  0  0  0  0  0  0
    1.8881    0.3070   -3.7568 H   0  0  0  0  0  0  0  0  0  0  0  0
    2.9205   -2.5511   -3.3110 H   0  0  0  0  0  0  0  0  0  0  0  0
    3.8965   -1.0790   -3.2050 H   0  0  0  0  0  0  0  0  0  0  0  0
    2.5223   -1.0770   -5.5812 H   0  0  0  0  0  0  0  0  0  0  0  0
    4.1328   -1.1461   -5.3205 H   0  0  0  0  0  0  0  0  0  0  0  0
   -0.8383    2.4767    0.2945 N   0  0  0  0  0  0  0  0  0  0  0  0
   -1.7484    3.5821    0.4909 C   0  0  2  0  0  0  0  0  0  0  0  0
   -1.1465    4.8113   -0.1771 C   0  0  0  0  0  0  0  0  0  0  0  0
    0.0632    5.0252   -0.2227 O   0  0  0  0  0  0  0  0  0  0  0  0
   -2.0005    3.8354    1.9691 C   0  0  0  0  0  0  0  0  0  0  0  0
    0.1547    2.6881    0.2658 H   0  0  0  0  0  0  0  0  0  0  0  0
   -2.6844    3.3142   -0.0114 H   0  0  0  0  0  0  0  0  0  0  0  0
   -1.0741    4.1051    2.4892 H   0  0  0  0  0  0  0  0  0  0  0  0
   -2.7122    4.6545    2.1156 H   0  0  0  0  0  0  0  0  0  0  0  0
   -2.4056    2.9408    2.4543 H   0  0  0  0  0  0  0  0  0  0  0  0
   -2.1211    5.6627   -0.6784 N   0  0  0  0  0  0  0  0  0  0  0  0
   -1.8050    6.9173   -1.3203 C   0  0  0  0  0  0  0  0  0  0  0  0
   -3.0975    5.3866   -0.6324 H   0  0  0  0  0  0  0  0  0  0  0  0
   -1.8201    7.7256   -0.5743 H   0  0  0  0  0  0  0  0  0  0  0  0
   -0.8046    6.8554   -1.7734 H   0  0  0  0  0  0  0  0  0  0  0  0
   -2.5495    7.1266   -2.1026 H   0  0  0  0  0  0  0  0  0  0  0  0
  1  3  1  0  0  0  0
  1  7  1  0  0  0  0
  1  2  2  0  0  0  0
 39 40  1  0  0  0  0
 40 48  1  0  0  0  0
 40 41  2  0  0  0  0
  8  9  1  0  0  0  0
  9 17  1  0  0  0  0
  9 10  2  0  0  0  0
 18 19  1  0  0  0  0
 19 38  1  0  0  0  0
 19 20  2  0  0  0  0
 39 42  1  0  0  0  0
  8 11  1  0  0  0  0
 48 49  1  0  0  0  0
 22 23  1  0  0  0  0
 21 22  1  0  0  0  0
 23 24  1  0  0  0  0
 18 21  1  0  0  0  0
 24 25  1  0  0  0  0
 38 39  1  0  0  0  0
  7  8  1  0  0  0  0
 17 18  1  0  0  0  0
  3  4  1  0  0  0  0
  3  5  1  0  0  0  0
  3  6  1  0  0  0  0
 42 45  1  0  0  0  0
 42 46  1  0  0  0  0
 42 47  1  0  0  0  0
 11 14  1  0  0  0  0
 11 15  1  0  0  0  0
 11 16  1  0  0  0  0
 49 51  1  0  0  0  0
 49 52  1  0  0  0  0
 49 53  1  0  0  0  0
 22 30  1  0  0  0  0
 22 31  1  0  0  0  0
 23 32  1  0  0  0  0
 23 33  1  0  0  0  0
 21 28  1  0  0  0  0
 21 29  1  0  0  0  0
 24 34  1  0  0  0  0
 24 35  1  0  0  0  0
 39 44  1  0  0  0  0
  8 13  1  0  0  0  0
 18 27  1  0  0  0  0
 25 36  1  0  0  0  0
 25 37  1  0  0  0  0
 48 50  1  0  0  0  0
  7 12  1  0  0  0  0
 38 43  1  0  0  0  0
 17 26  1  0  0  0  0
M  END
$$$$

  -OEChem-05262214473D

 53 52  0     1  0  0  0  0  0999 V2000
   -1.0338   -5.6785    0.1476 C   0  0  0  0  0  0  0  0  0  0  0  0
   -2.0514   -5.7797    0.8227 O   0  0  0  0  0  0  0  0  0  0  0  0
   -0.6558   -6.7819   -0.7841 C   0  0  0  0  0  0  0  0  0  0  0  0
   -0.0111   -7.5354   -0.3038 H   0  0  0  0  0  0  0  0  0  0  0  0
   -1.5317   -7.3401   -1.1520 H   0  0  0  0  0  0  0  0  0  0  0  0
   -0.1109   -6.4687   -1.6890 H   0  0  0  0  0  0  0  0  0  0  0  0
   -0.1543   -4.6083    0.1480 N   0  0  0  0  0  0  0  0  0  0  0  0
   -0.3302   -3.4398    0.9696 C   0  0  2  0  0  0  0  0  0  0  0  0
    0.2328   -2.2439    0.2131 C   0  0  0  0  0  0  0  0  0  0  0  0
    1.2097   -2.3192   -0.5294 O   0  0  0  0  0  0  0  0  0  0  0  0
    0.3557   -3.6024    2.3171 C   0  0  0  0  0  0  0  0  0  0  0  0
    0.6584   -4.6506   -0.4643 H   0  0  0  0  0  0  0  0  0  0  0  0
   -1.4091   -3.3101    1.1082 H   0  0  0  0  0  0  0  0  0  0  0  0
    1.4375   -3.7336    2.1985 H   0  0  0  0  0  0  0  0  0  0  0  0
    0.1969   -2.7243    2.9517 H   0  0  0  0  0  0  0  0  0  0  0  0
   -0.0294   -4.4803    2.8470 H   0  0  0  0  0  0  0  0  0  0  0  0
   -0.4616   -1.0893    0.5050 N   0  0  0  0  0  0  0  0  0  0  0  0
   -0.0884    0.2050   -0.0621 C   0  0  2  0  0  0  0  0  0  0  0  0
   -1.2577    1.1606    0.1579 C   0  0  0  0  0  0  0  0  0  0  0  0
   -2.3885    0.7789    0.4533 O   0  0  0  0  0  0  0  0  0  0  0  0
    0.2218    0.1147   -1.5637 C   0  0  0  0  0  0  0  0  0  0  0  0
    1.4947   -0.6792   -1.8750 C   0  0  0  0  0  0  0  0  0  0  0  0
    1.7698   -0.7171   -3.3808 C   0  0  0  0  0  0  0  0  0  0  0  0
    3.0255   -1.5296   -3.6925 C   0  0  0  0  0  0  0  0  0  0  0  0
    3.2560   -1.5729   -5.1316 N   0  0  0  0  0  0  0  0  0  0  0  0
   -1.2794   -1.1113    1.0935 H   0  0  0  0  0  0  0  0  0  0  0  0
    0.7887    0.5820    0.4776 H   0  0  0  0  0  0  0  0  0  0  0  0
    0.3292    1.1291   -1.9701 H   0  0  0  0  0  0  0  0  0  0  0  0
   -0.6292   -0.3328   -2.0950 H   0  0  0  0  0  0  0  0  0  0  0  0
    1.4005   -1.7056   -1.5029 H   0  0  0  0  0  0  0  0  0  0  0  0
    2.3473   -0.2220   -1.3586 H   0  0  0  0  0  0  0  0  0  0  0  0
    0.9058   -1.1533   -3.8980 H   0  0  0  0  0  0  0  0  0  0  0  0
    1.8881    0.3070   -3.7568 H   0  0  0  0  0  0  0  0  0  0  0  0
    2.9205   -2.5511   -3.3110 H   0  0  0  0  0  0  0  0  0  0  0  0
    3.8965   -1.0790   -3.2050 H   0  0  0  0  0  0  0  0  0  0  0  0
    2.5223   -1.0770   -5.5812 H   0  0  0  0  0  0  0  0  0  0  0  0
    4.1328   -1.1461   -5.3205 H   0  0  0  0  0  0  0  0  0  0  0  0
   -0.8932    2.4857   -0.0366 N   0  0  0  0  0  0  0  0  0  0  0  0
   -1.8188    3.5887    0.0884 C   0  0  2  0  0  0  0  0  0  0  0  0
   -1.3970    4.6705   -0.8971 C   0  0  0  0  0  0  0  0  0  0  0  0
   -0.2231    4.8962   -1.1836 O   0  0  0  0  0  0  0  0  0  0  0  0
   -1.8469    4.1292    1.5096 C   0  0  0  0  0  0  0  0  0  0  0  0
    0.0699    2.7078   -0.2702 H   0  0  0  0  0  0  0  0  0  0  0  0
   -2.8067    3.2056   -0.1897 H   0  0  0  0  0  0  0  0  0  0  0  0
   -0.8656    4.5174    1.8060 H   0  0  0  0  0  0  0  0  0  0  0  0
   -2.5694    4.9459    1.6093 H   0  0  0  0  0  0  0  0  0  0  0  0
   -2.1215    3.3423    2.2204 H   0  0  0  0  0  0  0  0  0  0  0  0
   -2.4829    5.3829   -1.3864 N   0  0  0  0  0  0  0  0  0  0  0  0
   -2.3402    6.4889   -2.3043 C   0  0  0  0  0  0  0  0  0  0  0  0
   -3.4235    5.1014   -1.1261 H   0  0  0  0  0  0  0  0  0  0  0  0
   -2.2804    7.4303   -1.7384 H   0  0  0  0  0  0  0  0  0  0  0  0
   -1.4223    6.3580   -2.8960 H   0  0  0  0  0  0  0  0  0  0  0  0
   -3.2093    6.5206   -2.9778 H   0  0  0  0  0  0  0  0  0  0  0  0
  1  3  1  0  0  0  0
  1  7  1  0  0  0  0
  1  2  2  0  0  0  0
 39 40  1  0  0  0  0
 40 48  1  0  0  0  0
 40 41  2  0  0  0  0
  8  9  1  0  0  0  0
  9 17  1  0  0  0  0
  9 10  2  0  0  0  0
 18 19  1  0  0  0  0
 19 38  1  0  0  0  0
 19 20  2  0  0  0  0
 39 42  1  0  0  0  0
  8 11  1  0  0  0  0
 48 49  1  0  0  0  0
 22 23  1  0  0  0  0
 21 22  1  0  0  0  0
 23 24  1  0  0  0  0
 18 21  1  0  0  0  0
 24 25  1  0  0  0  0
 38 39  1  0  0  0  0
  7  8  1  0  0  0  0
 17 18  1  0  0  0  0
  3  4  1  0  0  0  0
  3  5  1  0  0  0  0
  3  6  1  0  0  0  0
 42 45  1  0  0  0  0
 42 46  1  0  0  0  0
 42 47  1  0  0  0  0
 11 14  1  0  0  0  0
 11 15  1  0  0  0  0
 11 16  1  0  0  0  0
 49 51  1  0  0  0  0
 49 52  1  0  0  0  0
 49 53  1  0  0  0  0
 22 30  1  0  0  0  0
 22 31  1  0  0  0  0
 23 32  1  0  0  0  0
 23 33  1  0  0  0  0
 21 28  1  0  0  0  0
 21 29  1  0  0  0  0
 24 34  1  0  0  0  0
 24 35  1  0  0  0  0
 39 44  1  0  0  0  0
  8 13  1  0  0  0  0
 18 27  1  0  0  0  0
 25 36  1  0  0  0  0
 25 37  1  0  0  0  0
 48 50  1  0  0  0  0
  7 12  1  0  0  0  0
 38 43  1  0  0  0  0
 17 26  1  0  0  0  0
M  END
$$$$
