@<TRIPOS>MOLECULE
default_name
   29    29     1     0     0
SMALL
No Charge or Current Charge


@<TRIPOS>ATOM
      1 H1          25.8330    25.3850    24.8790 H          1 ACE       0.112300
      2 CH3         25.9170    26.3090    24.3080 C.3        1 ACE      -0.366200
      3 H2          25.2320    27.0530    24.7110 H          1 ACE       0.112300
      4 H3          25.6820    26.1150    23.2630 H          1 ACE       0.112300
      5 C           27.3320    26.8220    24.4160 C.2        1 ACE       0.597200
      6 O           28.1520    26.2290    25.1040 O.2        1 ACE      -0.567900
      7 N           27.6170    27.9290    23.7360 N.am       2 HID      -0.415700
      8 H           26.8830    28.3790    23.2110 H          2 HID       0.271900
      9 CA          28.9270    28.5850    23.7300 C.3        2 HID       0.018800
     10 HA          29.3840    28.4620    24.7130 H          2 HID       0.088100
     11 CB          29.8320    27.8960    22.6920 C.3        2 HID      -0.046200
     12 HB2         29.9350    26.8410    22.9520 H          2 HID       0.040200
     13 HB3         29.3570    27.9550    21.7110 H          2 HID       0.040200
     14 CG          31.2080    28.5020    22.5940 C.2        2 HID      -0.026600
     15 ND1         31.5800    29.5550    21.7860 N.pl3      2 HID      -0.381100
     16 HD1         31.0000    30.0100    21.0970 H          2 HID       0.364900
     17 CE1         32.8550    29.8680    22.0720 C.2        2 HID       0.205700
     18 HE1         33.4290    30.6530    21.5950 H          2 HID       0.139200
     19 NE2         33.3230    29.0690    23.0420 N.2        2 HID      -0.572700
     20 CD2         32.2870    28.1940    23.3790 C.2        2 HID       0.129200
     21 HD2         32.3180    27.4330    24.1480 H          2 HID       0.114700
     22 C           28.7820    30.0930    23.4640 C.2        2 HID       0.597300
     23 O           27.8620    30.5120    22.7620 O.2        2 HID      -0.567900
     24 N           29.6970    30.9050    24.0080 N.am       3 NME      -0.415700
     25 H           30.4520    30.4800    24.5260 H          3 NME       0.271900
     26 CH3         29.7030    32.3580    23.8600 C.3        3 NME      -0.149000
     27 HH31        28.7760    32.7740    24.2610 H          3 NME       0.097600
     28 HH32        30.5500    32.7860    24.3970 H          3 NME       0.097600
     29 HH33        29.7750    32.6230    22.8040 H          3 NME       0.097600
@<TRIPOS>BOND
     1     5     6 2   
     2     5     7 am  
     3     2     3 1   
     4     2     4 1   
     5     2     5 1   
     6     1     2 1   
     7    22    23 2   
     8    22    24 am  
     9    20    21 1   
    10    19    20 1   
    11    17    18 1   
    12    17    19 2   
    13    15    16 1   
    14    15    17 1   
    15    14    15 1   
    16    14    20 2   
    17    11    12 1   
    18    11    13 1   
    19    11    14 1   
    20     9    10 1   
    21     9    11 1   
    22     9    22 1   
    23     7     8 1   
    24     7     9 1   
    25    26    27 1   
    26    26    28 1   
    27    26    29 1   
    28    24    25 1   
    29    24    26 1   
@<TRIPOS>SUBSTRUCTURE
     1 ACE         1 TEMP              0 ****  ****    0 ROOT
