@<TRIPOS>MOLECULE
default_name
   27    26     1     0     0
SMALL
No Charge or Current Charge


@<TRIPOS>ATOM
      1 N           27.3780    25.6330    23.9390 N.4        1 NIL       0.000000
      2 H1          27.7180    24.9910    24.6460 H          1 NIL       0.000000
      3 H2          27.6250    25.2370    23.0410 H          1 NIL       0.000000
      4 H3          26.3750    25.7280    24.0140 H          1 NIL       0.000000
      5 CA          28.0640    26.9380    24.1230 C.3        1 NIL       0.000000
      6 HA          27.7820    27.5970    23.3010 H          1 NIL       0.000000
      7 CB          27.6260    27.6160    25.4430 C.3        1 NIL       0.000000
      8 HB          26.5350    27.6680    25.4260 H          1 NIL       0.000000
      9 CG2         28.0360    26.7990    26.6830 C.3        1 NIL       0.000000
     10 HG21        29.1240    26.7550    26.7790 H          1 NIL       0.000000
     11 HG22        27.6400    27.2650    27.5860 H          1 NIL       0.000000
     12 HG23        27.6410    25.7840    26.6460 H          1 NIL       0.000000
     13 CG1         28.1520    29.0650    25.5290 C.3        1 NIL       0.000000
     14 HG12        28.0380    29.5400    24.5540 H          1 NIL       0.000000
     15 HG13        29.2120    29.0640    25.7890 H          1 NIL       0.000000
     16 CD1         27.4010    29.9290    26.5500 C.3        1 NIL       0.000000
     17 HD11        27.5560    29.5520    27.5600 H          1 NIL       0.000000
     18 HD12        27.7770    30.9520    26.5020 H          1 NIL       0.000000
     19 HD13        26.3340    29.9360    26.3240 H          1 NIL       0.000000
     20 C           29.5730    26.7090    24.0290 C.2        1 NIL       0.000000
     21 O           29.9820    25.5700    24.2180 O.2        1 NIL       0.000000
     22 N           30.3750    27.7290    23.7020 N.am       2 NME      -0.415700
     23 H           29.9820    28.6480    23.5580 H          2 NME       0.271900
     24 CH3         31.8280    27.6050    23.5770 C.3        2 NME      -0.149000
     25 HH31        32.0800    26.7890    22.8960 H          2 NME       0.097600
     26 HH32        32.2580    28.5310    23.1920 H          2 NME       0.097600
     27 HH33        32.2710    27.3880    24.5520 H          2 NME       0.097600
@<TRIPOS>BOND
     1    20    21 2   
     2    20    22 am  
     3    16    17 1   
     4    16    18 1   
     5    16    19 1   
     6    13    14 1   
     7    13    15 1   
     8    13    16 1   
     9     9    10 1   
    10     9    11 1   
    11     9    12 1   
    12     7     8 1   
    13     7     9 1   
    14     7    13 1   
    15     5     6 1   
    16     5     7 1   
    17     5    20 1   
    18     1     2 1   
    19     1     3 1   
    20     1     4 1   
    21     1     5 1   
    22    24    25 1   
    23    24    26 1   
    24    24    27 1   
    25    22    23 1   
    26    22    24 1   
@<TRIPOS>SUBSTRUCTURE
     1 NIL         1 TEMP              0 ****  ****    0 ROOT
