
  -OEChem-02062319113D

 49 48  0     1  0  0  0  0  0999 V2000
   -0.2867   -3.7331    3.2526 C   0  0  0  0  0  0  0  0  0  0  0  0
    0.6362   -3.5513    4.0310 O   0  0  0  0  0  0  0  0  0  0  0  0
   -1.3900   -4.7152    3.5968 C   0  0  0  0  0  0  0  0  0  0  0  0
   -1.4015   -5.5320    2.8711 H   0  0  0  0  0  0  0  0  0  0  0  0
   -1.2267   -5.1318    4.5947 H   0  0  0  0  0  0  0  0  0  0  0  0
   -2.3584   -4.2090    3.5810 H   0  0  0  0  0  0  0  0  0  0  0  0
   -0.3376   -3.0409    2.0614 N   0  0  0  0  0  0  0  0  0  0  0  0
    0.5479   -1.9205    1.7182 C   0  0  2  0  0  0  0  0  0  0  0  0
   -0.2509   -0.7183    1.1757 C   0  0  0  0  0  0  0  0  0  0  0  0
   -1.3508   -0.8923    0.6658 O   0  0  0  0  0  0  0  0  0  0  0  0
    1.5514   -2.4123    0.6722 C   0  0  0  0  0  0  0  0  0  0  0  0
   -1.2008   -3.1156    1.5247 H   0  0  0  0  0  0  0  0  0  0  0  0
    1.0934   -1.5796    2.6046 H   0  0  0  0  0  0  0  0  0  0  0  0
    1.0315   -2.7484   -0.2311 H   0  0  0  0  0  0  0  0  0  0  0  0
    2.2432   -1.6113    0.3947 H   0  0  0  0  0  0  0  0  0  0  0  0
    2.1336   -3.2487    1.0713 H   0  0  0  0  0  0  0  0  0  0  0  0
    0.2836    0.5576    1.2249 N   0  0  0  0  0  0  0  0  0  0  0  0
   -0.4075    1.7640    0.7308 C   0  0  2  0  0  0  0  0  0  0  0  0
   -0.7429    1.6908   -0.7727 C   0  0  0  0  0  0  0  0  0  0  0  0
   -1.7638    2.2043   -1.2115 O   0  0  0  0  0  0  0  0  0  0  0  0
    0.4597    3.0088    0.9954 C   0  0  0  0  0  0  0  0  0  0  0  0
    0.7295    3.2641    2.4863 C   0  0  0  0  0  0  0  0  0  0  0  0
   -0.8121    3.4571    3.4745 S   0  0  0  0  0  0  0  0  0  0  0  0
   -1.7472    4.7777    2.6028 C   0  0  0  0  0  0  0  0  0  0  0  0
    1.1426    0.6718    1.7541 H   0  0  0  0  0  0  0  0  0  0  0  0
   -1.3622    1.8638    1.2592 H   0  0  0  0  0  0  0  0  0  0  0  0
   -0.0358    3.8858    0.5669 H   0  0  0  0  0  0  0  0  0  0  0  0
    1.4178    2.8976    0.4774 H   0  0  0  0  0  0  0  0  0  0  0  0
    1.3269    4.1757    2.5865 H   0  0  0  0  0  0  0  0  0  0  0  0
    1.3164    2.4418    2.9060 H   0  0  0  0  0  0  0  0  0  0  0  0
   -2.6231    5.0664    3.1915 H   0  0  0  0  0  0  0  0  0  0  0  0
   -2.0899    4.4243    1.6255 H   0  0  0  0  0  0  0  0  0  0  0  0
   -1.1159    5.6595    2.4603 H   0  0  0  0  0  0  0  0  0  0  0  0
    0.2197    1.2362   -1.6518 N   0  0  0  0  0  0  0  0  0  0  0  0
   -0.0905    0.8108   -3.0193 C   0  0  2  0  0  0  0  0  0  0  0  0
    0.5482   -0.5639   -3.3091 C   0  0  0  0  0  0  0  0  0  0  0  0
    1.4274   -1.0013   -2.5709 O   0  0  0  0  0  0  0  0  0  0  0  0
    0.4306    1.8764   -3.9860 C   0  0  0  0  0  0  0  0  0  0  0  0
    0.9817    0.7238   -1.2101 H   0  0  0  0  0  0  0  0  0  0  0  0
   -1.1732    0.7039   -3.1480 H   0  0  0  0  0  0  0  0  0  0  0  0
    1.5145    1.9905   -3.8834 H   0  0  0  0  0  0  0  0  0  0  0  0
    0.2046    1.6015   -5.0206 H   0  0  0  0  0  0  0  0  0  0  0  0
   -0.0436    2.8396   -3.7730 H   0  0  0  0  0  0  0  0  0  0  0  0
    0.1339   -1.3164   -4.3919 N   0  0  0  0  0  0  0  0  0  0  0  0
    0.6650   -2.6395   -4.6962 C   0  0  0  0  0  0  0  0  0  0  0  0
   -0.6366   -0.9550   -4.9473 H   0  0  0  0  0  0  0  0  0  0  0  0
    1.7472   -2.5904   -4.8567 H   0  0  0  0  0  0  0  0  0  0  0  0
    0.4614   -3.3330   -3.8733 H   0  0  0  0  0  0  0  0  0  0  0  0
    0.1997   -3.0339   -5.6047 H   0  0  0  0  0  0  0  0  0  0  0  0
  1  2  2  0  0  0  0
  1  3  1  0  0  0  0
  1  7  1  0  0  0  0
  3  4  1  0  0  0  0
  3  5  1  0  0  0  0
  3  6  1  0  0  0  0
  7  8  1  0  0  0  0
  7 12  1  0  0  0  0
  8  9  1  0  0  0  0
  8 11  1  0  0  0  0
  8 13  1  0  0  0  0
  9 10  2  0  0  0  0
  9 17  1  0  0  0  0
 11 14  1  0  0  0  0
 11 15  1  0  0  0  0
 11 16  1  0  0  0  0
 17 18  1  0  0  0  0
 17 25  1  0  0  0  0
 18 19  1  0  0  0  0
 18 21  1  0  0  0  0
 18 26  1  0  0  0  0
 19 20  2  0  0  0  0
 19 34  1  0  0  0  0
 21 22  1  0  0  0  0
 21 27  1  0  0  0  0
 21 28  1  0  0  0  0
 22 23  1  0  0  0  0
 22 29  1  0  0  0  0
 22 30  1  0  0  0  0
 23 24  1  0  0  0  0
 24 31  1  0  0  0  0
 24 32  1  0  0  0  0
 24 33  1  0  0  0  0
 34 35  1  0  0  0  0
 34 39  1  0  0  0  0
 35 36  1  0  0  0  0
 35 38  1  0  0  0  0
 35 40  1  0  0  0  0
 36 37  2  0  0  0  0
 36 44  1  0  0  0  0
 38 41  1  0  0  0  0
 38 42  1  0  0  0  0
 38 43  1  0  0  0  0
 44 45  1  0  0  0  0
 44 46  1  0  0  0  0
 45 47  1  0  0  0  0
 45 48  1  0  0  0  0
 45 49  1  0  0  0  0
M  END
$$$$

  -OEChem-02062319113D

 49 48  0     1  0  0  0  0  0999 V2000
   -0.2541   -3.8281    3.1652 C   0  0  0  0  0  0  0  0  0  0  0  0
    0.7888   -3.8041    3.8000 O   0  0  0  0  0  0  0  0  0  0  0  0
   -1.3497   -4.8096    3.5365 C   0  0  0  0  0  0  0  0  0  0  0  0
   -1.5508   -5.4790    2.6966 H   0  0  0  0  0  0  0  0  0  0  0  0
   -1.0442   -5.4074    4.4001 H   0  0  0  0  0  0  0  0  0  0  0  0
   -2.2650   -4.2688    3.7893 H   0  0  0  0  0  0  0  0  0  0  0  0
   -0.4456   -2.9508    2.1192 N   0  0  0  0  0  0  0  0  0  0  0  0
    0.4681   -1.8523    1.7813 C   0  0  2  0  0  0  0  0  0  0  0  0
   -0.2926   -0.6411    1.2033 C   0  0  0  0  0  0  0  0  0  0  0  0
   -1.4415   -0.7774    0.8006 O   0  0  0  0  0  0  0  0  0  0  0  0
    1.4946   -2.3667    0.7674 C   0  0  0  0  0  0  0  0  0  0  0  0
   -1.3721   -2.9212    1.6939 H   0  0  0  0  0  0  0  0  0  0  0  0
    0.9888   -1.5150    2.6840 H   0  0  0  0  0  0  0  0  0  0  0  0
    0.9952   -2.6967   -0.1497 H   0  0  0  0  0  0  0  0  0  0  0  0
    2.2082   -1.5787    0.5085 H   0  0  0  0  0  0  0  0  0  0  0  0
    2.0505   -3.2121    1.1859 H   0  0  0  0  0  0  0  0  0  0  0  0
    0.2803    0.6197    1.2259 N   0  0  0  0  0  0  0  0  0  0  0  0
   -0.4783    1.8648    0.9954 C   0  0  2  0  0  0  0  0  0  0  0  0
   -1.1537    1.9193   -0.3900 C   0  0  0  0  0  0  0  0  0  0  0  0
   -2.2287    2.4864   -0.5373 O   0  0  0  0  0  0  0  0  0  0  0  0
    0.4459    3.0874    1.1529 C   0  0  0  0  0  0  0  0  0  0  0  0
    1.1200    3.1870    2.5302 C   0  0  0  0  0  0  0  0  0  0  0  0
   -0.0803    3.1371    3.9251 S   0  0  0  0  0  0  0  0  0  0  0  0
   -1.2731    4.4815    3.5377 C   0  0  0  0  0  0  0  0  0  0  0  0
    1.1611    0.6919    1.7262 H   0  0  0  0  0  0  0  0  0  0  0  0
   -1.2852    1.9211    1.7338 H   0  0  0  0  0  0  0  0  0  0  0  0
   -0.1385    3.9964    0.9777 H   0  0  0  0  0  0  0  0  0  0  0  0
    1.2243    3.0533    0.3836 H   0  0  0  0  0  0  0  0  0  0  0  0
    1.6814    4.1253    2.5811 H   0  0  0  0  0  0  0  0  0  0  0  0
    1.8386    2.3714    2.6538 H   0  0  0  0  0  0  0  0  0  0  0  0
   -1.9756    4.6081    4.3668 H   0  0  0  0  0  0  0  0  0  0  0  0
   -1.8449    4.2408    2.6365 H   0  0  0  0  0  0  0  0  0  0  0  0
   -0.7442    5.4260    3.3801 H   0  0  0  0  0  0  0  0  0  0  0  0
   -0.4299    1.5332   -1.5001 N   0  0  0  0  0  0  0  0  0  0  0  0
   -1.0491    1.2528   -2.7983 C   0  0  2  0  0  0  0  0  0  0  0  0
   -0.5135   -0.0769   -3.3720 C   0  0  0  0  0  0  0  0  0  0  0  0
    0.5021   -0.5849   -2.9035 O   0  0  0  0  0  0  0  0  0  0  0  0
   -0.7455    2.4219   -3.7380 C   0  0  0  0  0  0  0  0  0  0  0  0
    0.3892    0.9647   -1.2869 H   0  0  0  0  0  0  0  0  0  0  0  0
   -2.1341    1.1500   -2.6868 H   0  0  0  0  0  0  0  0  0  0  0  0
    0.3350    2.5345   -3.8720 H   0  0  0  0  0  0  0  0  0  0  0  0
   -1.2040    2.2573   -4.7175 H   0  0  0  0  0  0  0  0  0  0  0  0
   -1.1445    3.3527   -3.3221 H   0  0  0  0  0  0  0  0  0  0  0  0
   -1.1677   -0.7079   -4.4141 N   0  0  0  0  0  0  0  0  0  0  0  0
   -0.7341   -1.9815   -4.9757 C   0  0  0  0  0  0  0  0  0  0  0  0
   -2.0337   -0.2927   -4.7454 H   0  0  0  0  0  0  0  0  0  0  0  0
    0.2849   -1.8998   -5.3687 H   0  0  0  0  0  0  0  0  0  0  0  0
   -0.7554   -2.7650   -4.2108 H   0  0  0  0  0  0  0  0  0  0  0  0
   -1.3962   -2.2796   -5.7944 H   0  0  0  0  0  0  0  0  0  0  0  0
  1  2  2  0  0  0  0
  1  3  1  0  0  0  0
  1  7  1  0  0  0  0
  3  4  1  0  0  0  0
  3  5  1  0  0  0  0
  3  6  1  0  0  0  0
  7  8  1  0  0  0  0
  7 12  1  0  0  0  0
  8  9  1  0  0  0  0
  8 11  1  0  0  0  0
  8 13  1  0  0  0  0
  9 10  2  0  0  0  0
  9 17  1  0  0  0  0
 11 14  1  0  0  0  0
 11 15  1  0  0  0  0
 11 16  1  0  0  0  0
 17 18  1  0  0  0  0
 17 25  1  0  0  0  0
 18 19  1  0  0  0  0
 18 21  1  0  0  0  0
 18 26  1  0  0  0  0
 19 20  2  0  0  0  0
 19 34  1  0  0  0  0
 21 22  1  0  0  0  0
 21 27  1  0  0  0  0
 21 28  1  0  0  0  0
 22 23  1  0  0  0  0
 22 29  1  0  0  0  0
 22 30  1  0  0  0  0
 23 24  1  0  0  0  0
 24 31  1  0  0  0  0
 24 32  1  0  0  0  0
 24 33  1  0  0  0  0
 34 35  1  0  0  0  0
 34 39  1  0  0  0  0
 35 36  1  0  0  0  0
 35 38  1  0  0  0  0
 35 40  1  0  0  0  0
 36 37  2  0  0  0  0
 36 44  1  0  0  0  0
 38 41  1  0  0  0  0
 38 42  1  0  0  0  0
 38 43  1  0  0  0  0
 44 45  1  0  0  0  0
 44 46  1  0  0  0  0
 45 47  1  0  0  0  0
 45 48  1  0  0  0  0
 45 49  1  0  0  0  0
M  END
$$$$

  -OEChem-02062319113D

 49 48  0     1  0  0  0  0  0999 V2000
   -0.2407   -3.8574    3.2266 C   0  0  0  0  0  0  0  0  0  0  0  0
    0.8108   -3.8467    3.8470 O   0  0  0  0  0  0  0  0  0  0  0  0
   -1.3292   -4.8501    3.5880 C   0  0  0  0  0  0  0  0  0  0  0  0
   -1.5828   -5.4602    2.7177 H   0  0  0  0  0  0  0  0  0  0  0  0
   -0.9876   -5.5081    4.3920 H   0  0  0  0  0  0  0  0  0  0  0  0
   -2.2220   -4.3171    3.9240 H   0  0  0  0  0  0  0  0  0  0  0  0
   -0.4476   -2.9549    2.2055 N   0  0  0  0  0  0  0  0  0  0  0  0
    0.4594   -1.8461    1.8837 C   0  0  2  0  0  0  0  0  0  0  0  0
   -0.2964   -0.6553    1.2570 C   0  0  0  0  0  0  0  0  0  0  0  0
   -1.4712   -0.7846    0.9342 O   0  0  0  0  0  0  0  0  0  0  0  0
    1.5349   -2.3572    0.9195 C   0  0  0  0  0  0  0  0  0  0  0  0
   -1.3819   -2.9130    1.7987 H   0  0  0  0  0  0  0  0  0  0  0  0
    0.9368   -1.4863    2.8017 H   0  0  0  0  0  0  0  0  0  0  0  0
    1.0777   -2.7151   -0.0088 H   0  0  0  0  0  0  0  0  0  0  0  0
    2.2431   -1.5603    0.6740 H   0  0  0  0  0  0  0  0  0  0  0  0
    2.0914   -3.1830    1.3741 H   0  0  0  0  0  0  0  0  0  0  0  0
    0.2852    0.6020    1.2427 N   0  0  0  0  0  0  0  0  0  0  0  0
   -0.5004    1.8521    1.2834 C   0  0  2  0  0  0  0  0  0  0  0  0
   -1.4788    2.0194    0.1022 C   0  0  0  0  0  0  0  0  0  0  0  0
   -2.5435    2.6030    0.2624 O   0  0  0  0  0  0  0  0  0  0  0  0
    0.4425    3.0712    1.3220 C   0  0  0  0  0  0  0  0  0  0  0  0
    1.4562    3.0462    2.4770 C   0  0  0  0  0  0  0  0  0  0  0  0
    0.6683    2.7732    4.1179 S   0  0  0  0  0  0  0  0  0  0  0  0
   -0.5492    4.1440    4.2507 C   0  0  0  0  0  0  0  0  0  0  0  0
    1.2047    0.6389    1.6733 H   0  0  0  0  0  0  0  0  0  0  0  0
   -1.1155    1.8417    2.1895 H   0  0  0  0  0  0  0  0  0  0  0  0
   -0.1633    3.9801    1.4007 H   0  0  0  0  0  0  0  0  0  0  0  0
    0.9932    3.1324    0.3774 H   0  0  0  0  0  0  0  0  0  0  0  0
    1.9959    3.9987    2.4969 H   0  0  0  0  0  0  0  0  0  0  0  0
    2.1959    2.2586    2.3047 H   0  0  0  0  0  0  0  0  0  0  0  0
   -1.0048    4.1421    5.2454 H   0  0  0  0  0  0  0  0  0  0  0  0
   -1.3431    4.0283    3.5068 H   0  0  0  0  0  0  0  0  0  0  0  0
   -0.0559    5.1078    4.0941 H   0  0  0  0  0  0  0  0  0  0  0  0
   -1.0442    1.7365   -1.1772 N   0  0  0  0  0  0  0  0  0  0  0  0
   -1.9434    1.6519   -2.3310 C   0  0  2  0  0  0  0  0  0  0  0  0
   -1.5732    0.4503   -3.2255 C   0  0  0  0  0  0  0  0  0  0  0  0
   -0.4696   -0.0776   -3.1232 O   0  0  0  0  0  0  0  0  0  0  0  0
   -1.8475    2.9637   -3.1131 C   0  0  0  0  0  0  0  0  0  0  0  0
   -0.2213    1.1359   -1.2231 H   0  0  0  0  0  0  0  0  0  0  0  0
   -2.9747    1.5054   -1.9921 H   0  0  0  0  0  0  0  0  0  0  0  0
   -0.8247    3.1221   -3.4696 H   0  0  0  0  0  0  0  0  0  0  0  0
   -2.5194    2.9471   -3.9764 H   0  0  0  0  0  0  0  0  0  0  0  0
   -2.1284    3.8059   -2.4724 H   0  0  0  0  0  0  0  0  0  0  0  0
   -2.4757   -0.0394   -4.1514 N   0  0  0  0  0  0  0  0  0  0  0  0
   -2.2001   -1.1891   -5.0040 C   0  0  0  0  0  0  0  0  0  0  0  0
   -3.3975    0.3867   -4.1805 H   0  0  0  0  0  0  0  0  0  0  0  0
   -1.3309   -0.9937   -5.6406 H   0  0  0  0  0  0  0  0  0  0  0  0
   -1.9992   -2.0777   -4.3963 H   0  0  0  0  0  0  0  0  0  0  0  0
   -3.0594   -1.3981   -5.6480 H   0  0  0  0  0  0  0  0  0  0  0  0
  1  2  2  0  0  0  0
  1  3  1  0  0  0  0
  1  7  1  0  0  0  0
  3  4  1  0  0  0  0
  3  5  1  0  0  0  0
  3  6  1  0  0  0  0
  7  8  1  0  0  0  0
  7 12  1  0  0  0  0
  8  9  1  0  0  0  0
  8 11  1  0  0  0  0
  8 13  1  0  0  0  0
  9 10  2  0  0  0  0
  9 17  1  0  0  0  0
 11 14  1  0  0  0  0
 11 15  1  0  0  0  0
 11 16  1  0  0  0  0
 17 18  1  0  0  0  0
 17 25  1  0  0  0  0
 18 19  1  0  0  0  0
 18 21  1  0  0  0  0
 18 26  1  0  0  0  0
 19 20  2  0  0  0  0
 19 34  1  0  0  0  0
 21 22  1  0  0  0  0
 21 27  1  0  0  0  0
 21 28  1  0  0  0  0
 22 23  1  0  0  0  0
 22 29  1  0  0  0  0
 22 30  1  0  0  0  0
 23 24  1  0  0  0  0
 24 31  1  0  0  0  0
 24 32  1  0  0  0  0
 24 33  1  0  0  0  0
 34 35  1  0  0  0  0
 34 39  1  0  0  0  0
 35 36  1  0  0  0  0
 35 38  1  0  0  0  0
 35 40  1  0  0  0  0
 36 37  2  0  0  0  0
 36 44  1  0  0  0  0
 38 41  1  0  0  0  0
 38 42  1  0  0  0  0
 38 43  1  0  0  0  0
 44 45  1  0  0  0  0
 44 46  1  0  0  0  0
 45 47  1  0  0  0  0
 45 48  1  0  0  0  0
 45 49  1  0  0  0  0
M  END
$$$$

  -OEChem-02062319113D

 49 48  0     1  0  0  0  0  0999 V2000
   -0.2205   -3.8564    3.2632 C   0  0  0  0  0  0  0  0  0  0  0  0
    0.8215   -3.8374    3.8990 O   0  0  0  0  0  0  0  0  0  0  0  0
   -1.3173   -4.8397    3.6262 C   0  0  0  0  0  0  0  0  0  0  0  0
   -1.5744   -5.4503    2.7574 H   0  0  0  0  0  0  0  0  0  0  0  0
   -0.9816   -5.4979    4.4324 H   0  0  0  0  0  0  0  0  0  0  0  0
   -2.2066   -4.2992    3.9594 H   0  0  0  0  0  0  0  0  0  0  0  0
   -0.4100   -2.9714    2.2236 N   0  0  0  0  0  0  0  0  0  0  0  0
    0.4920   -1.8545    1.9135 C   0  0  2  0  0  0  0  0  0  0  0  0
   -0.2646   -0.6783    1.2592 C   0  0  0  0  0  0  0  0  0  0  0  0
   -1.4534   -0.8039    0.9918 O   0  0  0  0  0  0  0  0  0  0  0  0
    1.5967   -2.3610    0.9803 C   0  0  0  0  0  0  0  0  0  0  0  0
   -1.3431   -2.9271    1.8141 H   0  0  0  0  0  0  0  0  0  0  0  0
    0.9427   -1.4810    2.8398 H   0  0  0  0  0  0  0  0  0  0  0  0
    1.1658   -2.7370    0.0465 H   0  0  0  0  0  0  0  0  0  0  0  0
    2.2989   -1.5565    0.7419 H   0  0  0  0  0  0  0  0  0  0  0  0
    2.1546   -3.1733    1.4574 H   0  0  0  0  0  0  0  0  0  0  0  0
    0.3112    0.5814    1.2341 N   0  0  0  0  0  0  0  0  0  0  0  0
   -0.4528    1.8004    1.5690 C   0  0  2  0  0  0  0  0  0  0  0  0
   -1.6754    2.0724    0.6672 C   0  0  0  0  0  0  0  0  0  0  0  0
   -2.6700    2.6124    1.1356 O   0  0  0  0  0  0  0  0  0  0  0  0
    0.4751    3.0307    1.5179 C   0  0  0  0  0  0  0  0  0  0  0  0
    1.7476    2.8985    2.3691 C   0  0  0  0  0  0  0  0  0  0  0  0
    1.3962    2.3770    4.0982 S   0  0  0  0  0  0  0  0  0  0  0  0
    0.3051    3.7145    4.7317 C   0  0  0  0  0  0  0  0  0  0  0  0
    1.2726    0.5835    1.5636 H   0  0  0  0  0  0  0  0  0  0  0  0
   -0.8460    1.6881    2.5850 H   0  0  0  0  0  0  0  0  0  0  0  0
   -0.0884    3.9065    1.8561 H   0  0  0  0  0  0  0  0  0  0  0  0
    0.7703    3.2180    0.4801 H   0  0  0  0  0  0  0  0  0  0  0  0
    2.2669    3.8622    2.3857 H   0  0  0  0  0  0  0  0  0  0  0  0
    2.4263    2.1731    1.9106 H   0  0  0  0  0  0  0  0  0  0  0  0
    0.0938    3.5517    5.7928 H   0  0  0  0  0  0  0  0  0  0  0  0
   -0.6449    3.7290    4.1890 H   0  0  0  0  0  0  0  0  0  0  0  0
    0.7918    4.6877    4.6177 H   0  0  0  0  0  0  0  0  0  0  0  0
   -1.5548    1.9370   -0.7015 N   0  0  0  0  0  0  0  0  0  0  0  0
   -2.6933    2.0040   -1.6221 C   0  0  2  0  0  0  0  0  0  0  0  0
   -2.5542    0.9590   -2.7487 C   0  0  0  0  0  0  0  0  0  0  0  0
   -1.4531    0.4940   -3.0270 O   0  0  0  0  0  0  0  0  0  0  0  0
   -2.7632    3.4187   -2.2017 C   0  0  0  0  0  0  0  0  0  0  0  0
   -0.7758    1.3536   -1.0070 H   0  0  0  0  0  0  0  0  0  0  0  0
   -3.6215    1.7858   -1.0831 H   0  0  0  0  0  0  0  0  0  0  0  0
   -1.8435    3.6534   -2.7471 H   0  0  0  0  0  0  0  0  0  0  0  0
   -3.6101    3.5107   -2.8880 H   0  0  0  0  0  0  0  0  0  0  0  0
   -2.8887    4.1508   -1.3976 H   0  0  0  0  0  0  0  0  0  0  0  0
   -3.6648    0.5436   -3.4603 N   0  0  0  0  0  0  0  0  0  0  0  0
   -3.6101   -0.4720   -4.5047 C   0  0  0  0  0  0  0  0  0  0  0  0
   -4.5695    0.9023   -3.1689 H   0  0  0  0  0  0  0  0  0  0  0  0
   -2.9396   -0.1572   -5.3112 H   0  0  0  0  0  0  0  0  0  0  0  0
   -3.2488   -1.4217   -4.0964 H   0  0  0  0  0  0  0  0  0  0  0  0
   -4.6060   -0.6336   -4.9281 H   0  0  0  0  0  0  0  0  0  0  0  0
  1  2  2  0  0  0  0
  1  3  1  0  0  0  0
  1  7  1  0  0  0  0
  3  4  1  0  0  0  0
  3  5  1  0  0  0  0
  3  6  1  0  0  0  0
  7  8  1  0  0  0  0
  7 12  1  0  0  0  0
  8  9  1  0  0  0  0
  8 11  1  0  0  0  0
  8 13  1  0  0  0  0
  9 10  2  0  0  0  0
  9 17  1  0  0  0  0
 11 14  1  0  0  0  0
 11 15  1  0  0  0  0
 11 16  1  0  0  0  0
 17 18  1  0  0  0  0
 17 25  1  0  0  0  0
 18 19  1  0  0  0  0
 18 21  1  0  0  0  0
 18 26  1  0  0  0  0
 19 20  2  0  0  0  0
 19 34  1  0  0  0  0
 21 22  1  0  0  0  0
 21 27  1  0  0  0  0
 21 28  1  0  0  0  0
 22 23  1  0  0  0  0
 22 29  1  0  0  0  0
 22 30  1  0  0  0  0
 23 24  1  0  0  0  0
 24 31  1  0  0  0  0
 24 32  1  0  0  0  0
 24 33  1  0  0  0  0
 34 35  1  0  0  0  0
 34 39  1  0  0  0  0
 35 36  1  0  0  0  0
 35 38  1  0  0  0  0
 35 40  1  0  0  0  0
 36 37  2  0  0  0  0
 36 44  1  0  0  0  0
 38 41  1  0  0  0  0
 38 42  1  0  0  0  0
 38 43  1  0  0  0  0
 44 45  1  0  0  0  0
 44 46  1  0  0  0  0
 45 47  1  0  0  0  0
 45 48  1  0  0  0  0
 45 49  1  0  0  0  0
M  END
$$$$

  -OEChem-02062319113D

 49 48  0     1  0  0  0  0  0999 V2000
   -0.1864   -3.8378    3.2937 C   0  0  0  0  0  0  0  0  0  0  0  0
    0.8596   -3.8133    3.9228 O   0  0  0  0  0  0  0  0  0  0  0  0
   -1.2806   -4.8185    3.6710 C   0  0  0  0  0  0  0  0  0  0  0  0
   -1.5468   -5.4314    2.8065 H   0  0  0  0  0  0  0  0  0  0  0  0
   -0.9379   -5.4745    4.4761 H   0  0  0  0  0  0  0  0  0  0  0  0
   -2.1664   -4.2759    4.0102 H   0  0  0  0  0  0  0  0  0  0  0  0
   -0.3842   -2.9625    2.2474 N   0  0  0  0  0  0  0  0  0  0  0  0
    0.5121   -1.8444    1.9249 C   0  0  2  0  0  0  0  0  0  0  0  0
   -0.2483   -0.6820    1.2497 C   0  0  0  0  0  0  0  0  0  0  0  0
   -1.4476   -0.7996    1.0301 O   0  0  0  0  0  0  0  0  0  0  0  0
    1.6277   -2.3551    1.0070 C   0  0  0  0  0  0  0  0  0  0  0  0
   -1.3227   -2.9195    1.8501 H   0  0  0  0  0  0  0  0  0  0  0  0
    0.9551   -1.4538    2.8481 H   0  0  0  0  0  0  0  0  0  0  0  0
    1.2079   -2.7404    0.0723 H   0  0  0  0  0  0  0  0  0  0  0  0
    2.3294   -1.5503    0.7690 H   0  0  0  0  0  0  0  0  0  0  0  0
    2.1835   -3.1612    1.4969 H   0  0  0  0  0  0  0  0  0  0  0  0
    0.3229    0.5787    1.2181 N   0  0  0  0  0  0  0  0  0  0  0  0
   -0.3486    1.7378    1.8403 C   0  0  2  0  0  0  0  0  0  0  0  0
   -1.7434    2.0793    1.2736 C   0  0  0  0  0  0  0  0  0  0  0  0
   -2.6034    2.5386    2.0151 O   0  0  0  0  0  0  0  0  0  0  0  0
    0.5482    2.9866    1.7178 C   0  0  0  0  0  0  0  0  0  0  0  0
    1.9984    2.7742    2.1814 C   0  0  0  0  0  0  0  0  0  0  0  0
    2.1068    1.9737    3.8346 S   0  0  0  0  0  0  0  0  0  0  0  0
    1.2726    3.1836    4.9386 C   0  0  0  0  0  0  0  0  0  0  0  0
    1.3200    0.5464    1.4142 H   0  0  0  0  0  0  0  0  0  0  0  0
   -0.5017    1.5109    2.9011 H   0  0  0  0  0  0  0  0  0  0  0  0
    0.1005    3.7947    2.3056 H   0  0  0  0  0  0  0  0  0  0  0  0
    0.5655    3.3180    0.6741 H   0  0  0  0  0  0  0  0  0  0  0  0
    2.5084    3.7423    2.2170 H   0  0  0  0  0  0  0  0  0  0  0  0
    2.5308    2.1553    1.4528 H   0  0  0  0  0  0  0  0  0  0  0  0
    1.3299    2.8432    5.9769 H   0  0  0  0  0  0  0  0  0  0  0  0
    0.2180    3.2900    4.6677 H   0  0  0  0  0  0  0  0  0  0  0  0
    1.7566    4.1619    4.8644 H   0  0  0  0  0  0  0  0  0  0  0  0
   -1.9409    2.0939   -0.0926 N   0  0  0  0  0  0  0  0  0  0  0  0
   -3.2569    2.2542   -0.7173 C   0  0  2  0  0  0  0  0  0  0  0  0
   -3.3857    1.3743   -1.9780 C   0  0  0  0  0  0  0  0  0  0  0  0
   -2.3819    0.9959   -2.5735 O   0  0  0  0  0  0  0  0  0  0  0  0
   -3.4475    3.7312   -1.0704 C   0  0  0  0  0  0  0  0  0  0  0  0
   -1.2612    1.5533   -0.6282 H   0  0  0  0  0  0  0  0  0  0  0  0
   -4.0397    1.9429   -0.0174 H   0  0  0  0  0  0  0  0  0  0  0  0
   -2.6744    4.0582   -1.7732 H   0  0  0  0  0  0  0  0  0  0  0  0
   -4.4274    3.8925   -1.5292 H   0  0  0  0  0  0  0  0  0  0  0  0
   -3.3827    4.3470   -0.1678 H   0  0  0  0  0  0  0  0  0  0  0  0
   -4.6328    1.0155   -2.4560 N   0  0  0  0  0  0  0  0  0  0  0  0
   -4.8249    0.1507   -3.6137 C   0  0  0  0  0  0  0  0  0  0  0  0
   -5.4426    1.2967   -1.9109 H   0  0  0  0  0  0  0  0  0  0  0  0
   -4.3878    0.6057   -4.5087 H   0  0  0  0  0  0  0  0  0  0  0  0
   -4.3526   -0.8234   -3.4470 H   0  0  0  0  0  0  0  0  0  0  0  0
   -5.8922   -0.0087   -3.7941 H   0  0  0  0  0  0  0  0  0  0  0  0
  1  2  2  0  0  0  0
  1  3  1  0  0  0  0
  1  7  1  0  0  0  0
  3  4  1  0  0  0  0
  3  5  1  0  0  0  0
  3  6  1  0  0  0  0
  7  8  1  0  0  0  0
  7 12  1  0  0  0  0
  8  9  1  0  0  0  0
  8 11  1  0  0  0  0
  8 13  1  0  0  0  0
  9 10  2  0  0  0  0
  9 17  1  0  0  0  0
 11 14  1  0  0  0  0
 11 15  1  0  0  0  0
 11 16  1  0  0  0  0
 17 18  1  0  0  0  0
 17 25  1  0  0  0  0
 18 19  1  0  0  0  0
 18 21  1  0  0  0  0
 18 26  1  0  0  0  0
 19 20  2  0  0  0  0
 19 34  1  0  0  0  0
 21 22  1  0  0  0  0
 21 27  1  0  0  0  0
 21 28  1  0  0  0  0
 22 23  1  0  0  0  0
 22 29  1  0  0  0  0
 22 30  1  0  0  0  0
 23 24  1  0  0  0  0
 24 31  1  0  0  0  0
 24 32  1  0  0  0  0
 24 33  1  0  0  0  0
 34 35  1  0  0  0  0
 34 39  1  0  0  0  0
 35 36  1  0  0  0  0
 35 38  1  0  0  0  0
 35 40  1  0  0  0  0
 36 37  2  0  0  0  0
 36 44  1  0  0  0  0
 38 41  1  0  0  0  0
 38 42  1  0  0  0  0
 38 43  1  0  0  0  0
 44 45  1  0  0  0  0
 44 46  1  0  0  0  0
 45 47  1  0  0  0  0
 45 48  1  0  0  0  0
 45 49  1  0  0  0  0
M  END
$$$$

  -OEChem-02062319113D

 49 48  0     1  0  0  0  0  0999 V2000
   -0.1530   -3.8151    3.3127 C   0  0  0  0  0  0  0  0  0  0  0  0
    0.8988   -3.7910    3.9318 O   0  0  0  0  0  0  0  0  0  0  0  0
   -1.2454   -4.7915    3.7062 C   0  0  0  0  0  0  0  0  0  0  0  0
   -1.5345   -5.3972    2.8439 H   0  0  0  0  0  0  0  0  0  0  0  0
   -0.8893   -5.4554    4.4990 H   0  0  0  0  0  0  0  0  0  0  0  0
   -2.1196   -4.2454    4.0692 H   0  0  0  0  0  0  0  0  0  0  0  0
   -0.3583   -2.9427    2.2652 N   0  0  0  0  0  0  0  0  0  0  0  0
    0.5407   -1.8313    1.9282 C   0  0  2  0  0  0  0  0  0  0  0  0
   -0.2166   -0.6783    1.2336 C   0  0  0  0  0  0  0  0  0  0  0  0
   -1.4218   -0.7821    1.0417 O   0  0  0  0  0  0  0  0  0  0  0  0
    1.6603   -2.3552    1.0228 C   0  0  0  0  0  0  0  0  0  0  0  0
   -1.3006   -2.8965    1.8775 H   0  0  0  0  0  0  0  0  0  0  0  0
    0.9809   -1.4279    2.8473 H   0  0  0  0  0  0  0  0  0  0  0  0
    1.2446   -2.7563    0.0930 H   0  0  0  0  0  0  0  0  0  0  0  0
    2.3629   -1.5538    0.7756 H   0  0  0  0  0  0  0  0  0  0  0  0
    2.2154   -3.1525    1.5274 H   0  0  0  0  0  0  0  0  0  0  0  0
    0.3547    0.5805    1.1849 N   0  0  0  0  0  0  0  0  0  0  0  0
   -0.1567    1.6504    2.0638 C   0  0  2  0  0  0  0  0  0  0  0  0
   -1.6431    2.0195    1.8724 C   0  0  0  0  0  0  0  0  0  0  0  0
   -2.3104    2.3523    2.8439 O   0  0  0  0  0  0  0  0  0  0  0  0
    0.6953    2.9227    1.8806 C   0  0  0  0  0  0  0  0  0  0  0  0
    2.2130    2.6833    1.9437 C   0  0  0  0  0  0  0  0  0  0  0  0
    2.7120    1.6430    3.3775 S   0  0  0  0  0  0  0  0  0  0  0  0
    2.1816    2.6470    4.8228 C   0  0  0  0  0  0  0  0  0  0  0  0
    1.3698    0.5220    1.2177 H   0  0  0  0  0  0  0  0  0  0  0  0
   -0.0642    1.3098    3.1006 H   0  0  0  0  0  0  0  0  0  0  0  0
    0.4145    3.6429    2.6561 H   0  0  0  0  0  0  0  0  0  0  0  0
    0.4597    3.3810    0.9141 H   0  0  0  0  0  0  0  0  0  0  0  0
    2.7264    3.6486    2.0036 H   0  0  0  0  0  0  0  0  0  0  0  0
    2.5453    2.1969    1.0211 H   0  0  0  0  0  0  0  0  0  0  0  0
    2.4837    2.1527    5.7509 H   0  0  0  0  0  0  0  0  0  0  0  0
    1.0942    2.7667    4.8328 H   0  0  0  0  0  0  0  0  0  0  0  0
    2.6451    3.6373    4.7871 H   0  0  0  0  0  0  0  0  0  0  0  0
   -2.1573    2.1777    0.6011 N   0  0  0  0  0  0  0  0  0  0  0  0
   -3.5827    2.3831    0.3266 C   0  0  2  0  0  0  0  0  0  0  0  0
   -4.0067    1.6913   -0.9853 C   0  0  0  0  0  0  0  0  0  0  0  0
   -3.1793    1.4639   -1.8617 O   0  0  0  0  0  0  0  0  0  0  0  0
   -3.8522    3.8882    0.2497 C   0  0  0  0  0  0  0  0  0  0  0  0
   -1.6256    1.7141   -0.1371 H   0  0  0  0  0  0  0  0  0  0  0  0
   -4.1794    1.9478    1.1354 H   0  0  0  0  0  0  0  0  0  0  0  0
   -3.2641    4.3403   -0.5554 H   0  0  0  0  0  0  0  0  0  0  0  0
   -4.9123    4.0784    0.0574 H   0  0  0  0  0  0  0  0  0  0  0  0
   -3.5802    4.3707    1.1938 H   0  0  0  0  0  0  0  0  0  0  0  0
   -5.3278    1.3398   -1.1933 N   0  0  0  0  0  0  0  0  0  0  0  0
   -5.7892    0.6428   -2.3876 C   0  0  0  0  0  0  0  0  0  0  0  0
   -5.9791    1.4919   -0.4289 H   0  0  0  0  0  0  0  0  0  0  0  0
   -5.5613    1.2274   -3.2853 H   0  0  0  0  0  0  0  0  0  0  0  0
   -5.3037   -0.3353   -2.4713 H   0  0  0  0  0  0  0  0  0  0  0  0
   -6.8718    0.4894   -2.3422 H   0  0  0  0  0  0  0  0  0  0  0  0
  1  2  2  0  0  0  0
  1  3  1  0  0  0  0
  1  7  1  0  0  0  0
  3  4  1  0  0  0  0
  3  5  1  0  0  0  0
  3  6  1  0  0  0  0
  7  8  1  0  0  0  0
  7 12  1  0  0  0  0
  8  9  1  0  0  0  0
  8 11  1  0  0  0  0
  8 13  1  0  0  0  0
  9 10  2  0  0  0  0
  9 17  1  0  0  0  0
 11 14  1  0  0  0  0
 11 15  1  0  0  0  0
 11 16  1  0  0  0  0
 17 18  1  0  0  0  0
 17 25  1  0  0  0  0
 18 19  1  0  0  0  0
 18 21  1  0  0  0  0
 18 26  1  0  0  0  0
 19 20  2  0  0  0  0
 19 34  1  0  0  0  0
 21 22  1  0  0  0  0
 21 27  1  0  0  0  0
 21 28  1  0  0  0  0
 22 23  1  0  0  0  0
 22 29  1  0  0  0  0
 22 30  1  0  0  0  0
 23 24  1  0  0  0  0
 24 31  1  0  0  0  0
 24 32  1  0  0  0  0
 24 33  1  0  0  0  0
 34 35  1  0  0  0  0
 34 39  1  0  0  0  0
 35 36  1  0  0  0  0
 35 38  1  0  0  0  0
 35 40  1  0  0  0  0
 36 37  2  0  0  0  0
 36 44  1  0  0  0  0
 38 41  1  0  0  0  0
 38 42  1  0  0  0  0
 38 43  1  0  0  0  0
 44 45  1  0  0  0  0
 44 46  1  0  0  0  0
 45 47  1  0  0  0  0
 45 48  1  0  0  0  0
 45 49  1  0  0  0  0
M  END
$$$$

  -OEChem-02062319113D

 49 48  0     1  0  0  0  0  0999 V2000
   -0.4517   -3.7243    3.3270 C   0  0  0  0  0  0  0  0  0  0  0  0
    0.2600   -3.4588    4.2818 O   0  0  0  0  0  0  0  0  0  0  0  0
   -1.5696   -4.7392    3.4733 C   0  0  0  0  0  0  0  0  0  0  0  0
   -1.4643   -5.5217    2.7183 H   0  0  0  0  0  0  0  0  0  0  0  0
   -1.5338   -5.1995    4.4646 H   0  0  0  0  0  0  0  0  0  0  0  0
   -2.5372   -4.2475    3.3472 H   0  0  0  0  0  0  0  0  0  0  0  0
   -0.2586   -3.0959    2.1147 N   0  0  0  0  0  0  0  0  0  0  0  0
    0.6388   -1.9506    1.9077 C   0  0  2  0  0  0  0  0  0  0  0  0
   -0.1063   -0.7845    1.2280 C   0  0  0  0  0  0  0  0  0  0  0  0
   -1.0292   -0.9972    0.4555 O   0  0  0  0  0  0  0  0  0  0  0  0
    1.8177   -2.4217    1.0530 C   0  0  0  0  0  0  0  0  0  0  0  0
   -0.9713   -3.2488    1.4034 H   0  0  0  0  0  0  0  0  0  0  0  0
    1.0226   -1.5785    2.8637 H   0  0  0  0  0  0  0  0  0  0  0  0
    1.4691   -2.7732    0.0769 H   0  0  0  0  0  0  0  0  0  0  0  0
    2.5274   -1.6033    0.8971 H   0  0  0  0  0  0  0  0  0  0  0  0
    2.3423   -3.2417    1.5533 H   0  0  0  0  0  0  0  0  0  0  0  0
    0.4665    0.4511    1.0584 N   0  0  0  0  0  0  0  0  0  0  0  0
    0.2716    1.4187    2.1503 C   0  0  2  0  0  0  0  0  0  0  0  0
   -1.2100    1.7498    2.4319 C   0  0  0  0  0  0  0  0  0  0  0  0
   -1.5875    1.8831    3.5870 O   0  0  0  0  0  0  0  0  0  0  0  0
    1.0374    2.7166    1.8373 C   0  0  0  0  0  0  0  0  0  0  0  0
    2.5545    2.5082    1.7109 C   0  0  0  0  0  0  0  0  0  0  0  0
    3.3069    1.7713    3.2229 S   0  0  0  0  0  0  0  0  0  0  0  0
    2.7767    2.8834    4.5872 C   0  0  0  0  0  0  0  0  0  0  0  0
    0.1984    0.8138    0.1470 H   0  0  0  0  0  0  0  0  0  0  0  0
    0.6707    0.9898    3.0759 H   0  0  0  0  0  0  0  0  0  0  0  0
    0.8425    3.4474    2.6286 H   0  0  0  0  0  0  0  0  0  0  0  0
    0.6603    3.1453    0.9029 H   0  0  0  0  0  0  0  0  0  0  0  0
    3.0304    3.4745    1.5155 H   0  0  0  0  0  0  0  0  0  0  0  0
    2.7689    1.8588    0.8560 H   0  0  0  0  0  0  0  0  0  0  0  0
    3.2826    2.6020    5.5156 H   0  0  0  0  0  0  0  0  0  0  0  0
    1.6971    2.8089    4.7478 H   0  0  0  0  0  0  0  0  0  0  0  0
    3.0297    3.9211    4.3515 H   0  0  0  0  0  0  0  0  0  0  0  0
   -2.0883    2.0069    1.3969 N   0  0  0  0  0  0  0  0  0  0  0  0
   -3.5270    2.2309    1.5761 C   0  0  2  0  0  0  0  0  0  0  0  0
   -4.3142    1.8024    0.3204 C   0  0  0  0  0  0  0  0  0  0  0  0
   -3.7430    1.7170   -0.7614 O   0  0  0  0  0  0  0  0  0  0  0  0
   -3.7634    3.7153    1.8712 C   0  0  0  0  0  0  0  0  0  0  0  0
   -1.8004    1.7114    0.4637 H   0  0  0  0  0  0  0  0  0  0  0  0
   -3.8894    1.6299    2.4170 H   0  0  0  0  0  0  0  0  0  0  0  0
   -3.4052    4.3317    1.0404 H   0  0  0  0  0  0  0  0  0  0  0  0
   -4.8297    3.9117    2.0166 H   0  0  0  0  0  0  0  0  0  0  0  0
   -3.2314    4.0125    2.7804 H   0  0  0  0  0  0  0  0  0  0  0  0
   -5.6634    1.5109    0.4027 N   0  0  0  0  0  0  0  0  0  0  0  0
   -6.4481    1.0380   -0.7316 C   0  0  0  0  0  0  0  0  0  0  0  0
   -6.0988    1.5530    1.3196 H   0  0  0  0  0  0  0  0  0  0  0  0
   -6.4186    1.7656   -1.5496 H   0  0  0  0  0  0  0  0  0  0  0  0
   -6.0562    0.0823   -1.0957 H   0  0  0  0  0  0  0  0  0  0  0  0
   -7.4919    0.8942   -0.4367 H   0  0  0  0  0  0  0  0  0  0  0  0
  1  2  2  0  0  0  0
  1  3  1  0  0  0  0
  1  7  1  0  0  0  0
  3  4  1  0  0  0  0
  3  5  1  0  0  0  0
  3  6  1  0  0  0  0
  7  8  1  0  0  0  0
  7 12  1  0  0  0  0
  8  9  1  0  0  0  0
  8 11  1  0  0  0  0
  8 13  1  0  0  0  0
  9 10  2  0  0  0  0
  9 17  1  0  0  0  0
 11 14  1  0  0  0  0
 11 15  1  0  0  0  0
 11 16  1  0  0  0  0
 17 18  1  0  0  0  0
 17 25  1  0  0  0  0
 18 19  1  0  0  0  0
 18 21  1  0  0  0  0
 18 26  1  0  0  0  0
 19 20  2  0  0  0  0
 19 34  1  0  0  0  0
 21 22  1  0  0  0  0
 21 27  1  0  0  0  0
 21 28  1  0  0  0  0
 22 23  1  0  0  0  0
 22 29  1  0  0  0  0
 22 30  1  0  0  0  0
 23 24  1  0  0  0  0
 24 31  1  0  0  0  0
 24 32  1  0  0  0  0
 24 33  1  0  0  0  0
 34 35  1  0  0  0  0
 34 39  1  0  0  0  0
 35 36  1  0  0  0  0
 35 38  1  0  0  0  0
 35 40  1  0  0  0  0
 36 37  2  0  0  0  0
 36 44  1  0  0  0  0
 38 41  1  0  0  0  0
 38 42  1  0  0  0  0
 38 43  1  0  0  0  0
 44 45  1  0  0  0  0
 44 46  1  0  0  0  0
 45 47  1  0  0  0  0
 45 48  1  0  0  0  0
 45 49  1  0  0  0  0
M  END
$$$$

  -OEChem-02062319113D

 49 48  0     1  0  0  0  0  0999 V2000
   -0.2843   -4.1775    3.1737 C   0  0  0  0  0  0  0  0  0  0  0  0
    0.4281   -4.0299    4.1535 O   0  0  0  0  0  0  0  0  0  0  0  0
   -1.2222   -5.3666    3.0877 C   0  0  0  0  0  0  0  0  0  0  0  0
   -0.9692   -5.9780    2.2182 H   0  0  0  0  0  0  0  0  0  0  0  0
   -1.1352   -5.9812    3.9881 H   0  0  0  0  0  0  0  0  0  0  0  0
   -2.2548   -5.0214    2.9948 H   0  0  0  0  0  0  0  0  0  0  0  0
   -0.2481   -3.2619    2.1440 N   0  0  0  0  0  0  0  0  0  0  0  0
    0.5004   -1.9983    2.1786 C   0  0  2  0  0  0  0  0  0  0  0  0
   -0.2498   -0.8867    1.4112 C   0  0  0  0  0  0  0  0  0  0  0  0
   -1.1862   -1.1549    0.6730 O   0  0  0  0  0  0  0  0  0  0  0  0
    1.8924   -2.2452    1.5878 C   0  0  0  0  0  0  0  0  0  0  0  0
   -0.9436   -3.3620    1.4058 H   0  0  0  0  0  0  0  0  0  0  0  0
    0.6094   -1.6584    3.2142 H   0  0  0  0  0  0  0  0  0  0  0  0
    1.8153   -2.5616    0.5429 H   0  0  0  0  0  0  0  0  0  0  0  0
    2.4975   -1.3344    1.6340 H   0  0  0  0  0  0  0  0  0  0  0  0
    2.4090   -3.0273    2.1529 H   0  0  0  0  0  0  0  0  0  0  0  0
    0.3126    0.3357    1.1372 N   0  0  0  0  0  0  0  0  0  0  0  0
    0.4361    1.2965    2.2440 C   0  0  2  0  0  0  0  0  0  0  0  0
   -0.9157    1.6822    2.8806 C   0  0  0  0  0  0  0  0  0  0  0  0
   -1.0048    1.7712    4.0960 O   0  0  0  0  0  0  0  0  0  0  0  0
    1.1522    2.5653    1.7468 C   0  0  0  0  0  0  0  0  0  0  0  0
    2.5757    2.2943    1.2345 C   0  0  0  0  0  0  0  0  0  0  0  0
    3.6601    1.5228    2.5081 S   0  0  0  0  0  0  0  0  0  0  0  0
    3.6029    2.6961    3.9213 C   0  0  0  0  0  0  0  0  0  0  0  0
   -0.1017    0.7139    0.2889 H   0  0  0  0  0  0  0  0  0  0  0  0
    1.0370    0.8448    3.0410 H   0  0  0  0  0  0  0  0  0  0  0  0
    1.1983    3.2940    2.5621 H   0  0  0  0  0  0  0  0  0  0  0  0
    0.5680    3.0205    0.9406 H   0  0  0  0  0  0  0  0  0  0  0  0
    3.0251    3.2395    0.9139 H   0  0  0  0  0  0  0  0  0  0  0  0
    2.5366    1.6373    0.3596 H   0  0  0  0  0  0  0  0  0  0  0  0
    4.3086    2.3814    4.6961 H   0  0  0  0  0  0  0  0  0  0  0  0
    2.6004    2.7229    4.3588 H   0  0  0  0  0  0  0  0  0  0  0  0
    3.8730    3.7033    3.5903 H   0  0  0  0  0  0  0  0  0  0  0  0
   -2.0100    1.9871    2.0948 N   0  0  0  0  0  0  0  0  0  0  0  0
   -3.3534    2.2689    2.6133 C   0  0  2  0  0  0  0  0  0  0  0  0
   -4.4286    1.9768    1.5459 C   0  0  0  0  0  0  0  0  0  0  0  0
   -4.1112    1.8977    0.3639 O   0  0  0  0  0  0  0  0  0  0  0  0
   -3.4238    3.7376    3.0457 C   0  0  0  0  0  0  0  0  0  0  0  0
   -1.9532    1.7601    1.1019 H   0  0  0  0  0  0  0  0  0  0  0  0
   -3.5553    1.6243    3.4756 H   0  0  0  0  0  0  0  0  0  0  0  0
   -3.2171    4.3956    2.1956 H   0  0  0  0  0  0  0  0  0  0  0  0
   -4.4174    3.9751    3.4374 H   0  0  0  0  0  0  0  0  0  0  0  0
   -2.6888    3.9413    3.8306 H   0  0  0  0  0  0  0  0  0  0  0  0
   -5.7519    1.8034    1.9076 N   0  0  0  0  0  0  0  0  0  0  0  0
   -6.8049    1.4850    0.9507 C   0  0  0  0  0  0  0  0  0  0  0  0
   -5.9787    1.8355    2.8974 H   0  0  0  0  0  0  0  0  0  0  0  0
   -6.8567    2.2494    0.1680 H   0  0  0  0  0  0  0  0  0  0  0  0
   -6.6147    0.5137    0.4820 H   0  0  0  0  0  0  0  0  0  0  0  0
   -7.7750    1.4426    1.4551 H   0  0  0  0  0  0  0  0  0  0  0  0
  1  2  2  0  0  0  0
  1  3  1  0  0  0  0
  1  7  1  0  0  0  0
  3  4  1  0  0  0  0
  3  5  1  0  0  0  0
  3  6  1  0  0  0  0
  7  8  1  0  0  0  0
  7 12  1  0  0  0  0
  8  9  1  0  0  0  0
  8 11  1  0  0  0  0
  8 13  1  0  0  0  0
  9 10  2  0  0  0  0
  9 17  1  0  0  0  0
 11 14  1  0  0  0  0
 11 15  1  0  0  0  0
 11 16  1  0  0  0  0
 17 18  1  0  0  0  0
 17 25  1  0  0  0  0
 18 19  1  0  0  0  0
 18 21  1  0  0  0  0
 18 26  1  0  0  0  0
 19 20  2  0  0  0  0
 19 34  1  0  0  0  0
 21 22  1  0  0  0  0
 21 27  1  0  0  0  0
 21 28  1  0  0  0  0
 22 23  1  0  0  0  0
 22 29  1  0  0  0  0
 22 30  1  0  0  0  0
 23 24  1  0  0  0  0
 24 31  1  0  0  0  0
 24 32  1  0  0  0  0
 24 33  1  0  0  0  0
 34 35  1  0  0  0  0
 34 39  1  0  0  0  0
 35 36  1  0  0  0  0
 35 38  1  0  0  0  0
 35 40  1  0  0  0  0
 36 37  2  0  0  0  0
 36 44  1  0  0  0  0
 38 41  1  0  0  0  0
 38 42  1  0  0  0  0
 38 43  1  0  0  0  0
 44 45  1  0  0  0  0
 44 46  1  0  0  0  0
 45 47  1  0  0  0  0
 45 48  1  0  0  0  0
 45 49  1  0  0  0  0
M  END
$$$$

  -OEChem-02062319113D

 49 48  0     1  0  0  0  0  0999 V2000
   -0.3274   -4.1640    3.1094 C   0  0  0  0  0  0  0  0  0  0  0  0
    0.3917   -4.0194    4.0847 O   0  0  0  0  0  0  0  0  0  0  0  0
   -1.3072   -5.3206    3.0534 C   0  0  0  0  0  0  0  0  0  0  0  0
   -1.0337   -6.0013    2.2435 H   0  0  0  0  0  0  0  0  0  0  0  0
   -1.2935   -5.8708    3.9984 H   0  0  0  0  0  0  0  0  0  0  0  0
   -2.3188   -4.9459    2.8795 H   0  0  0  0  0  0  0  0  0  0  0  0
   -0.2607   -3.2751    2.0580 N   0  0  0  0  0  0  0  0  0  0  0  0
    0.5202   -2.0314    2.0698 C   0  0  2  0  0  0  0  0  0  0  0  0
   -0.2282   -0.9018    1.3270 C   0  0  0  0  0  0  0  0  0  0  0  0
   -1.1796   -1.1492    0.6011 O   0  0  0  0  0  0  0  0  0  0  0  0
    1.8821   -2.3139    1.4293 C   0  0  0  0  0  0  0  0  0  0  0  0
   -0.9668   -3.3638    1.3284 H   0  0  0  0  0  0  0  0  0  0  0  0
    0.6732   -1.6971    3.1017 H   0  0  0  0  0  0  0  0  0  0  0  0
    1.7583   -2.6283    0.3883 H   0  0  0  0  0  0  0  0  0  0  0  0
    2.5116   -1.4191    1.4513 H   0  0  0  0  0  0  0  0  0  0  0  0
    2.3982   -3.1091    1.9766 H   0  0  0  0  0  0  0  0  0  0  0  0
    0.3064    0.3448    1.1082 N   0  0  0  0  0  0  0  0  0  0  0  0
    0.7049    1.1730    2.2566 C   0  0  2  0  0  0  0  0  0  0  0  0
   -0.4605    1.4941    3.2142 C   0  0  0  0  0  0  0  0  0  0  0  0
   -0.2775    1.4396    4.4207 O   0  0  0  0  0  0  0  0  0  0  0  0
    1.3317    2.4847    1.7508 C   0  0  0  0  0  0  0  0  0  0  0  0
    2.6059    2.2635    0.9203 C   0  0  0  0  0  0  0  0  0  0  0  0
    3.9239    1.3756    1.8523 S   0  0  0  0  0  0  0  0  0  0  0  0
    4.1938    2.4015    3.3530 C   0  0  0  0  0  0  0  0  0  0  0  0
   -0.2003    0.8209    0.3660 H   0  0  0  0  0  0  0  0  0  0  0  0
    1.4538    0.6325    2.8460 H   0  0  0  0  0  0  0  0  0  0  0  0
    1.5691    3.1234    2.6073 H   0  0  0  0  0  0  0  0  0  0  0  0
    0.6009    3.0245    1.1397 H   0  0  0  0  0  0  0  0  0  0  0  0
    2.9944    3.2346    0.5975 H   0  0  0  0  0  0  0  0  0  0  0  0
    2.3658    1.6917    0.0182 H   0  0  0  0  0  0  0  0  0  0  0  0
    5.0488    2.0178    3.9176 H   0  0  0  0  0  0  0  0  0  0  0  0
    3.3130    2.3745    4.0015 H   0  0  0  0  0  0  0  0  0  0  0  0
    4.3972    3.4392    3.0727 H   0  0  0  0  0  0  0  0  0  0  0  0
   -1.6916    1.8948    2.7324 N   0  0  0  0  0  0  0  0  0  0  0  0
   -2.8785    2.1018    3.5705 C   0  0  2  0  0  0  0  0  0  0  0  0
   -4.1717    1.8638    2.7647 C   0  0  0  0  0  0  0  0  0  0  0  0
   -4.1442    1.9058    1.5395 O   0  0  0  0  0  0  0  0  0  0  0  0
   -2.8505    3.5299    4.1234 C   0  0  0  0  0  0  0  0  0  0  0  0
   -1.8615    1.7933    1.7315 H   0  0  0  0  0  0  0  0  0  0  0  0
   -2.8697    1.3899    4.4029 H   0  0  0  0  0  0  0  0  0  0  0  0
   -2.8580    4.2564    3.3047 H   0  0  0  0  0  0  0  0  0  0  0  0
   -3.7218    3.7122    4.7595 H   0  0  0  0  0  0  0  0  0  0  0  0
   -1.9485    3.6889    4.7227 H   0  0  0  0  0  0  0  0  0  0  0  0
   -5.3637    1.5947    3.4110 N   0  0  0  0  0  0  0  0  0  0  0  0
   -6.6076    1.3132    2.7047 C   0  0  0  0  0  0  0  0  0  0  0  0
   -5.3452    1.5232    4.4242 H   0  0  0  0  0  0  0  0  0  0  0  0
   -6.8914    2.1628    2.0748 H   0  0  0  0  0  0  0  0  0  0  0  0
   -6.4967    0.4267    2.0714 H   0  0  0  0  0  0  0  0  0  0  0  0
   -7.4153    1.1283    3.4191 H   0  0  0  0  0  0  0  0  0  0  0  0
  1  2  2  0  0  0  0
  1  3  1  0  0  0  0
  1  7  1  0  0  0  0
  3  4  1  0  0  0  0
  3  5  1  0  0  0  0
  3  6  1  0  0  0  0
  7  8  1  0  0  0  0
  7 12  1  0  0  0  0
  8  9  1  0  0  0  0
  8 11  1  0  0  0  0
  8 13  1  0  0  0  0
  9 10  2  0  0  0  0
  9 17  1  0  0  0  0
 11 14  1  0  0  0  0
 11 15  1  0  0  0  0
 11 16  1  0  0  0  0
 17 18  1  0  0  0  0
 17 25  1  0  0  0  0
 18 19  1  0  0  0  0
 18 21  1  0  0  0  0
 18 26  1  0  0  0  0
 19 20  2  0  0  0  0
 19 34  1  0  0  0  0
 21 22  1  0  0  0  0
 21 27  1  0  0  0  0
 21 28  1  0  0  0  0
 22 23  1  0  0  0  0
 22 29  1  0  0  0  0
 22 30  1  0  0  0  0
 23 24  1  0  0  0  0
 24 31  1  0  0  0  0
 24 32  1  0  0  0  0
 24 33  1  0  0  0  0
 34 35  1  0  0  0  0
 34 39  1  0  0  0  0
 35 36  1  0  0  0  0
 35 38  1  0  0  0  0
 35 40  1  0  0  0  0
 36 37  2  0  0  0  0
 36 44  1  0  0  0  0
 38 41  1  0  0  0  0
 38 42  1  0  0  0  0
 38 43  1  0  0  0  0
 44 45  1  0  0  0  0
 44 46  1  0  0  0  0
 45 47  1  0  0  0  0
 45 48  1  0  0  0  0
 45 49  1  0  0  0  0
M  END
$$$$

  -OEChem-02062319113D

 49 48  0     1  0  0  0  0  0999 V2000
   -0.5232   -3.9906    3.1324 C   0  0  0  0  0  0  0  0  0  0  0  0
    0.0362   -3.7361    4.1864 O   0  0  0  0  0  0  0  0  0  0  0  0
   -1.5853   -5.0724    3.0823 C   0  0  0  0  0  0  0  0  0  0  0  0
   -1.3200   -5.8210    2.3319 H   0  0  0  0  0  0  0  0  0  0  0  0
   -1.6697   -5.5635    4.0558 H   0  0  0  0  0  0  0  0  0  0  0  0
   -2.5516   -4.6324    2.8236 H   0  0  0  0  0  0  0  0  0  0  0  0
   -0.2146   -3.2894    1.9861 N   0  0  0  0  0  0  0  0  0  0  0  0
    0.5943   -2.0622    1.9589 C   0  0  2  0  0  0  0  0  0  0  0  0
   -0.1653   -0.9204    1.2458 C   0  0  0  0  0  0  0  0  0  0  0  0
   -1.1317   -1.1548    0.5356 O   0  0  0  0  0  0  0  0  0  0  0  0
    1.9093   -2.3837    1.2436 C   0  0  0  0  0  0  0  0  0  0  0  0
   -0.8416   -3.4289    1.1953 H   0  0  0  0  0  0  0  0  0  0  0  0
    0.8168   -1.7249    2.9770 H   0  0  0  0  0  0  0  0  0  0  0  0
    1.7193   -2.7023    0.2136 H   0  0  0  0  0  0  0  0  0  0  0  0
    2.5614   -1.5054    1.2207 H   0  0  0  0  0  0  0  0  0  0  0  0
    2.4354   -3.1880    1.7675 H   0  0  0  0  0  0  0  0  0  0  0  0
    0.3321    0.3513    1.0837 N   0  0  0  0  0  0  0  0  0  0  0  0
    0.9944    1.0678    2.1848 C   0  0  2  0  0  0  0  0  0  0  0  0
    0.0892    1.2776    3.4141 C   0  0  0  0  0  0  0  0  0  0  0  0
    0.5523    1.1192    4.5332 O   0  0  0  0  0  0  0  0  0  0  0  0
    1.5054    2.4289    1.6804 C   0  0  0  0  0  0  0  0  0  0  0  0
    2.5605    2.3030    0.5698 C   0  0  0  0  0  0  0  0  0  0  0  0
    4.0330    1.3228    1.0849 S   0  0  0  0  0  0  0  0  0  0  0  0
    4.6270    2.1668    2.6051 C   0  0  0  0  0  0  0  0  0  0  0  0
   -0.2408    0.8977    0.4451 H   0  0  0  0  0  0  0  0  0  0  0  0
    1.8513    0.4805    2.5297 H   0  0  0  0  0  0  0  0  0  0  0  0
    1.9349    2.9846    2.5198 H   0  0  0  0  0  0  0  0  0  0  0  0
    0.6629    3.0174    1.3028 H   0  0  0  0  0  0  0  0  0  0  0  0
    2.8897    3.3051    0.2777 H   0  0  0  0  0  0  0  0  0  0  0  0
    2.1158    1.8339   -0.3138 H   0  0  0  0  0  0  0  0  0  0  0  0
    5.5786    1.7324    2.9255 H   0  0  0  0  0  0  0  0  0  0  0  0
    3.9037    2.0498    3.4175 H   0  0  0  0  0  0  0  0  0  0  0  0
    4.7760    3.2334    2.4130 H   0  0  0  0  0  0  0  0  0  0  0  0
   -1.2155    1.7067    3.2723 N   0  0  0  0  0  0  0  0  0  0  0  0
   -2.1797    1.7752    4.3767 C   0  0  2  0  0  0  0  0  0  0  0  0
   -3.6168    1.5299    3.8740 C   0  0  0  0  0  0  0  0  0  0  0  0
   -3.8789    1.6667    2.6839 O   0  0  0  0  0  0  0  0  0  0  0  0
   -2.0716    3.1513    5.0400 C   0  0  0  0  0  0  0  0  0  0  0  0
   -1.6104    1.6973    2.3316 H   0  0  0  0  0  0  0  0  0  0  0  0
   -1.9510    0.9983    5.1144 H   0  0  0  0  0  0  0  0  0  0  0  0
   -2.2967    3.9429    4.3180 H   0  0  0  0  0  0  0  0  0  0  0  0
   -2.7744    3.2303    5.8749 H   0  0  0  0  0  0  0  0  0  0  0  0
   -1.0594    3.3084    5.4262 H   0  0  0  0  0  0  0  0  0  0  0  0
   -4.6116    1.1423    4.7520 N   0  0  0  0  0  0  0  0  0  0  0  0
   -5.9740    0.8380    4.3313 C   0  0  0  0  0  0  0  0  0  0  0  0
   -4.3497    0.9879    5.7215 H   0  0  0  0  0  0  0  0  0  0  0  0
   -6.4302    1.7083    3.8477 H   0  0  0  0  0  0  0  0  0  0  0  0
   -5.9790   -0.0000    3.6262 H   0  0  0  0  0  0  0  0  0  0  0  0
   -6.5851    0.5653    5.1972 H   0  0  0  0  0  0  0  0  0  0  0  0
  1  2  2  0  0  0  0
  1  3  1  0  0  0  0
  1  7  1  0  0  0  0
  3  4  1  0  0  0  0
  3  5  1  0  0  0  0
  3  6  1  0  0  0  0
  7  8  1  0  0  0  0
  7 12  1  0  0  0  0
  8  9  1  0  0  0  0
  8 11  1  0  0  0  0
  8 13  1  0  0  0  0
  9 10  2  0  0  0  0
  9 17  1  0  0  0  0
 11 14  1  0  0  0  0
 11 15  1  0  0  0  0
 11 16  1  0  0  0  0
 17 18  1  0  0  0  0
 17 25  1  0  0  0  0
 18 19  1  0  0  0  0
 18 21  1  0  0  0  0
 18 26  1  0  0  0  0
 19 20  2  0  0  0  0
 19 34  1  0  0  0  0
 21 22  1  0  0  0  0
 21 27  1  0  0  0  0
 21 28  1  0  0  0  0
 22 23  1  0  0  0  0
 22 29  1  0  0  0  0
 22 30  1  0  0  0  0
 23 24  1  0  0  0  0
 24 31  1  0  0  0  0
 24 32  1  0  0  0  0
 24 33  1  0  0  0  0
 34 35  1  0  0  0  0
 34 39  1  0  0  0  0
 35 36  1  0  0  0  0
 35 38  1  0  0  0  0
 35 40  1  0  0  0  0
 36 37  2  0  0  0  0
 36 44  1  0  0  0  0
 38 41  1  0  0  0  0
 38 42  1  0  0  0  0
 38 43  1  0  0  0  0
 44 45  1  0  0  0  0
 44 46  1  0  0  0  0
 45 47  1  0  0  0  0
 45 48  1  0  0  0  0
 45 49  1  0  0  0  0
M  END
$$$$

  -OEChem-02062319113D

 49 48  0     1  0  0  0  0  0999 V2000
   -1.1689   -3.0716    3.6065 C   0  0  0  0  0  0  0  0  0  0  0  0
   -1.0110   -2.2023    4.4522 O   0  0  0  0  0  0  0  0  0  0  0  0
   -2.2973   -4.0726    3.7618 C   0  0  0  0  0  0  0  0  0  0  0  0
   -1.9168   -5.0889    3.6330 H   0  0  0  0  0  0  0  0  0  0  0  0
   -2.7433   -3.9887    4.7568 H   0  0  0  0  0  0  0  0  0  0  0  0
   -3.0682   -3.8807    3.0112 H   0  0  0  0  0  0  0  0  0  0  0  0
   -0.3747   -3.1099    2.4790 N   0  0  0  0  0  0  0  0  0  0  0  0
    0.5207   -2.0039    2.1114 C   0  0  2  0  0  0  0  0  0  0  0  0
   -0.2434   -0.8423    1.4300 C   0  0  0  0  0  0  0  0  0  0  0  0
   -1.3014   -1.0296    0.8479 O   0  0  0  0  0  0  0  0  0  0  0  0
    1.5949   -2.5622    1.1750 C   0  0  0  0  0  0  0  0  0  0  0  0
   -0.7166   -3.6975    1.7237 H   0  0  0  0  0  0  0  0  0  0  0  0
    1.0127   -1.6211    3.0117 H   0  0  0  0  0  0  0  0  0  0  0  0
    1.1412   -2.9493    0.2573 H   0  0  0  0  0  0  0  0  0  0  0  0
    2.3113   -1.7802    0.9035 H   0  0  0  0  0  0  0  0  0  0  0  0
    2.1412   -3.3735    1.6660 H   0  0  0  0  0  0  0  0  0  0  0  0
    0.2764    0.4160    1.2267 N   0  0  0  0  0  0  0  0  0  0  0  0
    1.2788    1.0268    2.1138 C   0  0  2  0  0  0  0  0  0  0  0  0
    0.7759    1.1697    3.5622 C   0  0  0  0  0  0  0  0  0  0  0  0
    1.5022    0.8156    4.4783 O   0  0  0  0  0  0  0  0  0  0  0  0
    1.6876    2.4052    1.5661 C   0  0  0  0  0  0  0  0  0  0  0  0
    2.3653    2.3278    0.1892 C   0  0  0  0  0  0  0  0  0  0  0  0
    3.8805    1.2791    0.1973 S   0  0  0  0  0  0  0  0  0  0  0  0
    4.9500    2.0424    1.4827 C   0  0  0  0  0  0  0  0  0  0  0  0
   -0.3446    1.0214    0.6959 H   0  0  0  0  0  0  0  0  0  0  0  0
    2.1665    0.3871    2.1497 H   0  0  0  0  0  0  0  0  0  0  0  0
    2.3710    2.8842    2.2743 H   0  0  0  0  0  0  0  0  0  0  0  0
    0.8027    3.0450    1.4905 H   0  0  0  0  0  0  0  0  0  0  0  0
    2.6374    3.3383   -0.1319 H   0  0  0  0  0  0  0  0  0  0  0  0
    1.6622    1.9283   -0.5488 H   0  0  0  0  0  0  0  0  0  0  0  0
    5.9310    1.5581    1.4873 H   0  0  0  0  0  0  0  0  0  0  0  0
    4.5039    1.9257    2.4748 H   0  0  0  0  0  0  0  0  0  0  0  0
    5.0874    3.1084    1.2788 H   0  0  0  0  0  0  0  0  0  0  0  0
   -0.4918    1.6496    3.8238 N   0  0  0  0  0  0  0  0  0  0  0  0
   -1.1870    1.4138    5.0940 C   0  0  2  0  0  0  0  0  0  0  0  0
   -2.6535    1.0210    4.8267 C   0  0  0  0  0  0  0  0  0  0  0  0
   -3.4238    1.8352    4.3301 O   0  0  0  0  0  0  0  0  0  0  0  0
   -1.0852    2.6792    5.9501 C   0  0  0  0  0  0  0  0  0  0  0  0
   -1.0809    1.8418    3.0165 H   0  0  0  0  0  0  0  0  0  0  0  0
   -0.7209    0.5849    5.6387 H   0  0  0  0  0  0  0  0  0  0  0  0
   -1.5293    3.5342    5.4303 H   0  0  0  0  0  0  0  0  0  0  0  0
   -1.6097    2.5377    6.8998 H   0  0  0  0  0  0  0  0  0  0  0  0
   -0.0361    2.9062    6.1635 H   0  0  0  0  0  0  0  0  0  0  0  0
   -3.0754   -0.2773    5.0339 N   0  0  0  0  0  0  0  0  0  0  0  0
   -4.3738   -0.7613    4.5840 C   0  0  0  0  0  0  0  0  0  0  0  0
   -2.3281   -0.9654    5.1639 H   0  0  0  0  0  0  0  0  0  0  0  0
   -5.1785   -0.1347    4.9830 H   0  0  0  0  0  0  0  0  0  0  0  0
   -4.4265   -0.7499    3.4904 H   0  0  0  0  0  0  0  0  0  0  0  0
   -4.5338   -1.7864    4.9309 H   0  0  0  0  0  0  0  0  0  0  0  0
  1  2  2  0  0  0  0
  1  3  1  0  0  0  0
  1  7  1  0  0  0  0
  3  4  1  0  0  0  0
  3  5  1  0  0  0  0
  3  6  1  0  0  0  0
  7  8  1  0  0  0  0
  7 12  1  0  0  0  0
  8  9  1  0  0  0  0
  8 11  1  0  0  0  0
  8 13  1  0  0  0  0
  9 10  2  0  0  0  0
  9 17  1  0  0  0  0
 11 14  1  0  0  0  0
 11 15  1  0  0  0  0
 11 16  1  0  0  0  0
 17 18  1  0  0  0  0
 17 25  1  0  0  0  0
 18 19  1  0  0  0  0
 18 21  1  0  0  0  0
 18 26  1  0  0  0  0
 19 20  2  0  0  0  0
 19 34  1  0  0  0  0
 21 22  1  0  0  0  0
 21 27  1  0  0  0  0
 21 28  1  0  0  0  0
 22 23  1  0  0  0  0
 22 29  1  0  0  0  0
 22 30  1  0  0  0  0
 23 24  1  0  0  0  0
 24 31  1  0  0  0  0
 24 32  1  0  0  0  0
 24 33  1  0  0  0  0
 34 35  1  0  0  0  0
 34 39  1  0  0  0  0
 35 36  1  0  0  0  0
 35 38  1  0  0  0  0
 35 40  1  0  0  0  0
 36 37  2  0  0  0  0
 36 44  1  0  0  0  0
 38 41  1  0  0  0  0
 38 42  1  0  0  0  0
 38 43  1  0  0  0  0
 44 45  1  0  0  0  0
 44 46  1  0  0  0  0
 45 47  1  0  0  0  0
 45 48  1  0  0  0  0
 45 49  1  0  0  0  0
M  END
$$$$

  -OEChem-02062319113D

 49 48  0     1  0  0  0  0  0999 V2000
   -0.8752   -3.2287    3.6775 C   0  0  0  0  0  0  0  0  0  0  0  0
   -0.4484   -2.5333    4.5885 O   0  0  0  0  0  0  0  0  0  0  0  0
   -2.0579   -4.1445    3.9279 C   0  0  0  0  0  0  0  0  0  0  0  0
   -1.8239   -5.1572    3.5912 H   0  0  0  0  0  0  0  0  0  0  0  0
   -2.2933   -4.1760    4.9952 H   0  0  0  0  0  0  0  0  0  0  0  0
   -2.9326   -3.7793    3.3837 H   0  0  0  0  0  0  0  0  0  0  0  0
   -0.3329   -3.1534    2.4113 N   0  0  0  0  0  0  0  0  0  0  0  0
    0.5885   -2.0863    1.9928 C   0  0  2  0  0  0  0  0  0  0  0  0
   -0.1709   -0.9056    1.3384 C   0  0  0  0  0  0  0  0  0  0  0  0
   -1.2592   -1.0739    0.8089 O   0  0  0  0  0  0  0  0  0  0  0  0
    1.5827   -2.6939    1.0010 C   0  0  0  0  0  0  0  0  0  0  0  0
   -0.8878   -3.5845    1.6760 H   0  0  0  0  0  0  0  0  0  0  0  0
    1.1501   -1.7192    2.8564 H   0  0  0  0  0  0  0  0  0  0  0  0
    1.0613   -3.0701    0.1150 H   0  0  0  0  0  0  0  0  0  0  0  0
    2.3121   -1.9435    0.6809 H   0  0  0  0  0  0  0  0  0  0  0  0
    2.1240   -3.5232    1.4670 H   0  0  0  0  0  0  0  0  0  0  0  0
    0.3193    0.3734    1.1882 N   0  0  0  0  0  0  0  0  0  0  0  0
    1.4952    0.9244    1.8809 C   0  0  2  0  0  0  0  0  0  0  0  0
    1.3356    0.9086    3.4121 C   0  0  0  0  0  0  0  0  0  0  0  0
    2.2414    0.4629    4.1003 O   0  0  0  0  0  0  0  0  0  0  0  0
    1.7588    2.3623    1.4000 C   0  0  0  0  0  0  0  0  0  0  0  0
    2.1453    2.4359   -0.0853 C   0  0  0  0  0  0  0  0  0  0  0  0
    3.6667    1.4730   -0.4758 S   0  0  0  0  0  0  0  0  0  0  0  0
    4.9459    2.1760    0.6412 C   0  0  0  0  0  0  0  0  0  0  0  0
   -0.3135    1.0015    0.6993 H   0  0  0  0  0  0  0  0  0  0  0  0
    2.3699    0.3085    1.6481 H   0  0  0  0  0  0  0  0  0  0  0  0
    2.5620    2.8011    2.0004 H   0  0  0  0  0  0  0  0  0  0  0  0
    0.8646    2.9721    1.5656 H   0  0  0  0  0  0  0  0  0  0  0  0
    2.3103    3.4829   -0.3589 H   0  0  0  0  0  0  0  0  0  0  0  0
    1.3227    2.0619   -0.7028 H   0  0  0  0  0  0  0  0  0  0  0  0
    5.9282    1.7651    0.3894 H   0  0  0  0  0  0  0  0  0  0  0  0
    4.7252    1.9269    1.6835 H   0  0  0  0  0  0  0  0  0  0  0  0
    4.9853    3.2643    0.5366 H   0  0  0  0  0  0  0  0  0  0  0  0
    0.1556    1.3230    3.9966 N   0  0  0  0  0  0  0  0  0  0  0  0
   -0.2573    0.9077    5.3415 C   0  0  2  0  0  0  0  0  0  0  0  0
   -1.7662    0.5941    5.3629 C   0  0  0  0  0  0  0  0  0  0  0  0
   -2.5622    1.4103    4.9107 O   0  0  0  0  0  0  0  0  0  0  0  0
    0.0848    2.0240    6.3312 C   0  0  0  0  0  0  0  0  0  0  0  0
   -0.5946    1.5958    3.3637 H   0  0  0  0  0  0  0  0  0  0  0  0
    0.2750   -0.0033    5.6373 H   0  0  0  0  0  0  0  0  0  0  0  0
   -0.4343    2.9495    6.0616 H   0  0  0  0  0  0  0  0  0  0  0  0
   -0.2148    1.7389    7.3443 H   0  0  0  0  0  0  0  0  0  0  0  0
    1.1626    2.2135    6.3287 H   0  0  0  0  0  0  0  0  0  0  0  0
   -2.2219   -0.6277    5.8164 N   0  0  0  0  0  0  0  0  0  0  0  0
   -3.6139   -1.0371    5.6873 C   0  0  0  0  0  0  0  0  0  0  0  0
   -1.5108   -1.3626    5.8546 H   0  0  0  0  0  0  0  0  0  0  0  0
   -4.2698   -0.3345    6.2117 H   0  0  0  0  0  0  0  0  0  0  0  0
   -3.9062   -1.0735    4.6328 H   0  0  0  0  0  0  0  0  0  0  0  0
   -3.7559   -2.0305    6.1231 H   0  0  0  0  0  0  0  0  0  0  0  0
  1  2  2  0  0  0  0
  1  3  1  0  0  0  0
  1  7  1  0  0  0  0
  3  4  1  0  0  0  0
  3  5  1  0  0  0  0
  3  6  1  0  0  0  0
  7  8  1  0  0  0  0
  7 12  1  0  0  0  0
  8  9  1  0  0  0  0
  8 11  1  0  0  0  0
  8 13  1  0  0  0  0
  9 10  2  0  0  0  0
  9 17  1  0  0  0  0
 11 14  1  0  0  0  0
 11 15  1  0  0  0  0
 11 16  1  0  0  0  0
 17 18  1  0  0  0  0
 17 25  1  0  0  0  0
 18 19  1  0  0  0  0
 18 21  1  0  0  0  0
 18 26  1  0  0  0  0
 19 20  2  0  0  0  0
 19 34  1  0  0  0  0
 21 22  1  0  0  0  0
 21 27  1  0  0  0  0
 21 28  1  0  0  0  0
 22 23  1  0  0  0  0
 22 29  1  0  0  0  0
 22 30  1  0  0  0  0
 23 24  1  0  0  0  0
 24 31  1  0  0  0  0
 24 32  1  0  0  0  0
 24 33  1  0  0  0  0
 34 35  1  0  0  0  0
 34 39  1  0  0  0  0
 35 36  1  0  0  0  0
 35 38  1  0  0  0  0
 35 40  1  0  0  0  0
 36 37  2  0  0  0  0
 36 44  1  0  0  0  0
 38 41  1  0  0  0  0
 38 42  1  0  0  0  0
 38 43  1  0  0  0  0
 44 45  1  0  0  0  0
 44 46  1  0  0  0  0
 45 47  1  0  0  0  0
 45 48  1  0  0  0  0
 45 49  1  0  0  0  0
M  END
$$$$

  -OEChem-02062319113D

 49 48  0     1  0  0  0  0  0999 V2000
   -0.5923   -3.4565    3.6572 C   0  0  0  0  0  0  0  0  0  0  0  0
    0.0627   -2.9563    4.5610 O   0  0  0  0  0  0  0  0  0  0  0  0
   -1.7872   -4.3273    3.9954 C   0  0  0  0  0  0  0  0  0  0  0  0
   -1.6937   -5.2983    3.5028 H   0  0  0  0  0  0  0  0  0  0  0  0
   -1.8467   -4.4860    5.0757 H   0  0  0  0  0  0  0  0  0  0  0  0
   -2.7067   -3.8420    3.6586 H   0  0  0  0  0  0  0  0  0  0  0  0
   -0.2901   -3.2077    2.3340 N   0  0  0  0  0  0  0  0  0  0  0  0
    0.6450   -2.1642    1.8864 C   0  0  2  0  0  0  0  0  0  0  0  0
   -0.1099   -0.9674    1.2541 C   0  0  0  0  0  0  0  0  0  0  0  0
   -1.2177   -1.1248    0.7620 O   0  0  0  0  0  0  0  0  0  0  0  0
    1.5891   -2.7954    0.8611 C   0  0  0  0  0  0  0  0  0  0  0  0
   -1.0042   -3.4842    1.6632 H   0  0  0  0  0  0  0  0  0  0  0  0
    1.2421   -1.8119    2.7294 H   0  0  0  0  0  0  0  0  0  0  0  0
    1.0281   -3.1582   -0.0060 H   0  0  0  0  0  0  0  0  0  0  0  0
    2.3261   -2.0637    0.5166 H   0  0  0  0  0  0  0  0  0  0  0  0
    2.1247   -3.6380    1.3090 H   0  0  0  0  0  0  0  0  0  0  0  0
    0.3508    0.3288    1.1512 N   0  0  0  0  0  0  0  0  0  0  0  0
    1.6487    0.8447    1.6181 C   0  0  2  0  0  0  0  0  0  0  0  0
    1.8446    0.6703    3.1346 C   0  0  0  0  0  0  0  0  0  0  0  0
    2.8656    0.1444    3.5515 O   0  0  0  0  0  0  0  0  0  0  0  0
    1.7716    2.3360    1.2563 C   0  0  0  0  0  0  0  0  0  0  0  0
    1.8090    2.5890   -0.2585 C   0  0  0  0  0  0  0  0  0  0  0  0
    3.2127    1.7321   -1.0876 S   0  0  0  0  0  0  0  0  0  0  0  0
    4.7038    2.3870   -0.2357 C   0  0  0  0  0  0  0  0  0  0  0  0
   -0.2696    0.9433    0.6302 H   0  0  0  0  0  0  0  0  0  0  0  0
    2.4546    0.2905    1.1266 H   0  0  0  0  0  0  0  0  0  0  0  0
    2.6829    2.7418    1.7071 H   0  0  0  0  0  0  0  0  0  0  0  0
    0.9280    2.8850    1.6877 H   0  0  0  0  0  0  0  0  0  0  0  0
    1.8971    3.6652   -0.4386 H   0  0  0  0  0  0  0  0  0  0  0  0
    0.8718    2.2568   -0.7155 H   0  0  0  0  0  0  0  0  0  0  0  0
    5.6073    2.0348   -0.7422 H   0  0  0  0  0  0  0  0  0  0  0  0
    4.7359    2.0448    0.8030 H   0  0  0  0  0  0  0  0  0  0  0  0
    4.6993    3.4808   -0.2492 H   0  0  0  0  0  0  0  0  0  0  0  0
    0.8205    0.9884    4.0032 N   0  0  0  0  0  0  0  0  0  0  0  0
    0.6901    0.4028    5.3417 C   0  0  2  0  0  0  0  0  0  0  0  0
   -0.7964    0.1744    5.6830 C   0  0  0  0  0  0  0  0  0  0  0  0
   -1.6250    1.0279    5.3825 O   0  0  0  0  0  0  0  0  0  0  0  0
    1.3416    1.3401    6.3616 C   0  0  0  0  0  0  0  0  0  0  0  0
   -0.0431    1.3289    3.5815 H   0  0  0  0  0  0  0  0  0  0  0  0
    1.1945   -0.5694    5.3771 H   0  0  0  0  0  0  0  0  0  0  0  0
    0.8532    2.3197    6.3495 H   0  0  0  0  0  0  0  0  0  0  0  0
    1.2594    0.9215    7.3692 H   0  0  0  0  0  0  0  0  0  0  0  0
    2.4024    1.4753    6.1286 H   0  0  0  0  0  0  0  0  0  0  0  0
   -1.2110   -1.0037    6.2719 N   0  0  0  0  0  0  0  0  0  0  0  0
   -2.6177   -1.3218    6.4803 C   0  0  0  0  0  0  0  0  0  0  0  0
   -0.5567   -1.7837    6.1765 H   0  0  0  0  0  0  0  0  0  0  0  0
   -3.1087   -0.5342    7.0615 H   0  0  0  0  0  0  0  0  0  0  0  0
   -3.1336   -1.4248    5.5201 H   0  0  0  0  0  0  0  0  0  0  0  0
   -2.7126   -2.2628    7.0306 H   0  0  0  0  0  0  0  0  0  0  0  0
  1  2  2  0  0  0  0
  1  3  1  0  0  0  0
  1  7  1  0  0  0  0
  3  4  1  0  0  0  0
  3  5  1  0  0  0  0
  3  6  1  0  0  0  0
  7  8  1  0  0  0  0
  7 12  1  0  0  0  0
  8  9  1  0  0  0  0
  8 11  1  0  0  0  0
  8 13  1  0  0  0  0
  9 10  2  0  0  0  0
  9 17  1  0  0  0  0
 11 14  1  0  0  0  0
 11 15  1  0  0  0  0
 11 16  1  0  0  0  0
 17 18  1  0  0  0  0
 17 25  1  0  0  0  0
 18 19  1  0  0  0  0
 18 21  1  0  0  0  0
 18 26  1  0  0  0  0
 19 20  2  0  0  0  0
 19 34  1  0  0  0  0
 21 22  1  0  0  0  0
 21 27  1  0  0  0  0
 21 28  1  0  0  0  0
 22 23  1  0  0  0  0
 22 29  1  0  0  0  0
 22 30  1  0  0  0  0
 23 24  1  0  0  0  0
 24 31  1  0  0  0  0
 24 32  1  0  0  0  0
 24 33  1  0  0  0  0
 34 35  1  0  0  0  0
 34 39  1  0  0  0  0
 35 36  1  0  0  0  0
 35 38  1  0  0  0  0
 35 40  1  0  0  0  0
 36 37  2  0  0  0  0
 36 44  1  0  0  0  0
 38 41  1  0  0  0  0
 38 42  1  0  0  0  0
 38 43  1  0  0  0  0
 44 45  1  0  0  0  0
 44 46  1  0  0  0  0
 45 47  1  0  0  0  0
 45 48  1  0  0  0  0
 45 49  1  0  0  0  0
M  END
$$$$

  -OEChem-02062319113D

 49 48  0     1  0  0  0  0  0999 V2000
   -0.3148   -3.7077    3.5692 C   0  0  0  0  0  0  0  0  0  0  0  0
    0.5591   -3.4271    4.3785 O   0  0  0  0  0  0  0  0  0  0  0  0
   -1.4953   -4.5540    4.0058 C   0  0  0  0  0  0  0  0  0  0  0  0
   -1.5794   -5.4359    3.3662 H   0  0  0  0  0  0  0  0  0  0  0  0
   -1.3635   -4.8820    5.0405 H   0  0  0  0  0  0  0  0  0  0  0  0
   -2.4173   -3.9714    3.9344 H   0  0  0  0  0  0  0  0  0  0  0  0
   -0.2639   -3.2315    2.2753 N   0  0  0  0  0  0  0  0  0  0  0  0
    0.6684   -2.1932    1.8112 C   0  0  2  0  0  0  0  0  0  0  0  0
   -0.0920   -0.9875    1.2005 C   0  0  0  0  0  0  0  0  0  0  0  0
   -1.2375   -1.1287    0.7978 O   0  0  0  0  0  0  0  0  0  0  0  0
    1.5955   -2.8249    0.7718 C   0  0  0  0  0  0  0  0  0  0  0  0
   -1.1098   -3.3522    1.7200 H   0  0  0  0  0  0  0  0  0  0  0  0
    1.2721   -1.8464    2.6491 H   0  0  0  0  0  0  0  0  0  0  0  0
    1.0228   -3.1732   -0.0936 H   0  0  0  0  0  0  0  0  0  0  0  0
    2.3394   -2.0997    0.4292 H   0  0  0  0  0  0  0  0  0  0  0  0
    2.1246   -3.6782    1.2077 H   0  0  0  0  0  0  0  0  0  0  0  0
    0.3440    0.3208    1.1246 N   0  0  0  0  0  0  0  0  0  0  0  0
    1.7228    0.8041    1.3222 C   0  0  2  0  0  0  0  0  0  0  0  0
    2.2743    0.4816    2.7219 C   0  0  0  0  0  0  0  0  0  0  0  0
    3.3289   -0.1256    2.8306 O   0  0  0  0  0  0  0  0  0  0  0  0
    1.7685    2.3287    1.1072 C   0  0  0  0  0  0  0  0  0  0  0  0
    1.4354    2.7496   -0.3319 C   0  0  0  0  0  0  0  0  0  0  0  0
    2.5799    2.0118   -1.5714 S   0  0  0  0  0  0  0  0  0  0  0  0
    4.2447    2.5847   -1.0435 C   0  0  0  0  0  0  0  0  0  0  0  0
   -0.3117    0.9220    0.6321 H   0  0  0  0  0  0  0  0  0  0  0  0
    2.3828    0.3188    0.5958 H   0  0  0  0  0  0  0  0  0  0  0  0
    2.7664    2.6988    1.3637 H   0  0  0  0  0  0  0  0  0  0  0  0
    1.0614    2.8128    1.7891 H   0  0  0  0  0  0  0  0  0  0  0  0
    1.4915    3.8405   -0.4060 H   0  0  0  0  0  0  0  0  0  0  0  0
    0.4099    2.4576   -0.5782 H   0  0  0  0  0  0  0  0  0  0  0  0
    4.9895    2.3105   -1.7967 H   0  0  0  0  0  0  0  0  0  0  0  0
    4.5277    2.1206   -0.0942 H   0  0  0  0  0  0  0  0  0  0  0  0
    4.2535    3.6722   -0.9236 H   0  0  0  0  0  0  0  0  0  0  0  0
    1.4814    0.7022    3.8300 N   0  0  0  0  0  0  0  0  0  0  0  0
    1.6094   -0.0463    5.0852 C   0  0  2  0  0  0  0  0  0  0  0  0
    0.2207   -0.2449    5.7276 C   0  0  0  0  0  0  0  0  0  0  0  0
   -0.6197    0.6445    5.6355 O   0  0  0  0  0  0  0  0  0  0  0  0
    2.5350    0.7217    6.0306 C   0  0  0  0  0  0  0  0  0  0  0  0
    0.5651    1.1155    3.6551 H   0  0  0  0  0  0  0  0  0  0  0  0
    2.0353   -1.0372    4.8916 H   0  0  0  0  0  0  0  0  0  0  0  0
    2.1291    1.7168    6.2385 H   0  0  0  0  0  0  0  0  0  0  0  0
    2.6426    0.1835    6.9772 H   0  0  0  0  0  0  0  0  0  0  0  0
    3.5268    0.8347    5.5818 H   0  0  0  0  0  0  0  0  0  0  0  0
   -0.1081   -1.4311    6.3534 N   0  0  0  0  0  0  0  0  0  0  0  0
   -1.4526   -1.7083    6.8413 C   0  0  0  0  0  0  0  0  0  0  0  0
    0.4748   -2.2314    6.0970 H   0  0  0  0  0  0  0  0  0  0  0  0
   -1.7547   -0.9608    7.5822 H   0  0  0  0  0  0  0  0  0  0  0  0
   -2.1704   -1.6961    6.0147 H   0  0  0  0  0  0  0  0  0  0  0  0
   -1.4840   -2.6936    7.3157 H   0  0  0  0  0  0  0  0  0  0  0  0
  1  2  2  0  0  0  0
  1  3  1  0  0  0  0
  1  7  1  0  0  0  0
  3  4  1  0  0  0  0
  3  5  1  0  0  0  0
  3  6  1  0  0  0  0
  7  8  1  0  0  0  0
  7 12  1  0  0  0  0
  8  9  1  0  0  0  0
  8 11  1  0  0  0  0
  8 13  1  0  0  0  0
  9 10  2  0  0  0  0
  9 17  1  0  0  0  0
 11 14  1  0  0  0  0
 11 15  1  0  0  0  0
 11 16  1  0  0  0  0
 17 18  1  0  0  0  0
 17 25  1  0  0  0  0
 18 19  1  0  0  0  0
 18 21  1  0  0  0  0
 18 26  1  0  0  0  0
 19 20  2  0  0  0  0
 19 34  1  0  0  0  0
 21 22  1  0  0  0  0
 21 27  1  0  0  0  0
 21 28  1  0  0  0  0
 22 23  1  0  0  0  0
 22 29  1  0  0  0  0
 22 30  1  0  0  0  0
 23 24  1  0  0  0  0
 24 31  1  0  0  0  0
 24 32  1  0  0  0  0
 24 33  1  0  0  0  0
 34 35  1  0  0  0  0
 34 39  1  0  0  0  0
 35 36  1  0  0  0  0
 35 38  1  0  0  0  0
 35 40  1  0  0  0  0
 36 37  2  0  0  0  0
 36 44  1  0  0  0  0
 38 41  1  0  0  0  0
 38 42  1  0  0  0  0
 38 43  1  0  0  0  0
 44 45  1  0  0  0  0
 44 46  1  0  0  0  0
 45 47  1  0  0  0  0
 45 48  1  0  0  0  0
 45 49  1  0  0  0  0
M  END
$$$$

  -OEChem-02062319113D

 49 48  0     1  0  0  0  0  0999 V2000
   -0.1077   -3.9175    3.3570 C   0  0  0  0  0  0  0  0  0  0  0  0
    0.9462   -3.8337    3.9738 O   0  0  0  0  0  0  0  0  0  0  0  0
   -1.2367   -4.7688    3.9049 C   0  0  0  0  0  0  0  0  0  0  0  0
   -1.5515   -5.4994    3.1558 H   0  0  0  0  0  0  0  0  0  0  0  0
   -0.9078   -5.3036    4.8003 H   0  0  0  0  0  0  0  0  0  0  0  0
   -2.0879   -4.1344    4.1646 H   0  0  0  0  0  0  0  0  0  0  0  0
   -0.2955   -3.2054    2.1908 N   0  0  0  0  0  0  0  0  0  0  0  0
    0.6343   -2.1864    1.6872 C   0  0  2  0  0  0  0  0  0  0  0  0
   -0.1147   -0.9673    1.0910 C   0  0  0  0  0  0  0  0  0  0  0  0
   -1.2886   -1.0779    0.7680 O   0  0  0  0  0  0  0  0  0  0  0  0
    1.5317   -2.8373    0.6318 C   0  0  0  0  0  0  0  0  0  0  0  0
   -1.2354   -3.1979    1.7960 H   0  0  0  0  0  0  0  0  0  0  0  0
    1.2522   -1.8430    2.5134 H   0  0  0  0  0  0  0  0  0  0  0  0
    0.9332   -3.2026   -0.2086 H   0  0  0  0  0  0  0  0  0  0  0  0
    2.2648   -2.1198    0.2518 H   0  0  0  0  0  0  0  0  0  0  0  0
    2.0751   -3.6816    1.0677 H   0  0  0  0  0  0  0  0  0  0  0  0
    0.3134    0.3463    1.0723 N   0  0  0  0  0  0  0  0  0  0  0  0
    1.7181    0.7955    1.0268 C   0  0  2  0  0  0  0  0  0  0  0  0
    2.5633    0.3251    2.2253 C   0  0  0  0  0  0  0  0  0  0  0  0
    3.5948   -0.3004    2.0335 O   0  0  0  0  0  0  0  0  0  0  0  0
    1.7563    2.3345    0.9712 C   0  0  0  0  0  0  0  0  0  0  0  0
    1.1033    2.9184   -0.2910 C   0  0  0  0  0  0  0  0  0  0  0  0
    1.8707    2.2918   -1.8429 S   0  0  0  0  0  0  0  0  0  0  0  0
    3.6422    2.7540   -1.6838 C   0  0  0  0  0  0  0  0  0  0  0  0
   -0.3801    0.9526    0.6411 H   0  0  0  0  0  0  0  0  0  0  0  0
    2.1909    0.3898    0.1259 H   0  0  0  0  0  0  0  0  0  0  0  0
    2.7973    2.6697    1.0192 H   0  0  0  0  0  0  0  0  0  0  0  0
    1.2466    2.7416    1.8510 H   0  0  0  0  0  0  0  0  0  0  0  0
    1.1951    4.0090   -0.2666 H   0  0  0  0  0  0  0  0  0  0  0  0
    0.0349    2.6821   -0.3035 H   0  0  0  0  0  0  0  0  0  0  0  0
    4.1703    2.5342   -2.6164 H   0  0  0  0  0  0  0  0  0  0  0  0
    4.1167    2.1874   -0.8773 H   0  0  0  0  0  0  0  0  0  0  0  0
    3.7388    3.8227   -1.4712 H   0  0  0  0  0  0  0  0  0  0  0  0
    2.0442    0.4263    3.5012 N   0  0  0  0  0  0  0  0  0  0  0  0
    2.4554   -0.4146    4.6316 C   0  0  2  0  0  0  0  0  0  0  0  0
    1.2558   -0.6544    5.5722 C   0  0  0  0  0  0  0  0  0  0  0  0
    0.4680    0.2616    5.7868 O   0  0  0  0  0  0  0  0  0  0  0  0
    3.5990    0.2756    5.3783 C   0  0  0  0  0  0  0  0  0  0  0  0
    1.1322    0.8753    3.5881 H   0  0  0  0  0  0  0  0  0  0  0  0
    2.8021   -1.3893    4.2702 H   0  0  0  0  0  0  0  0  0  0  0  0
    3.2794    1.2546    5.7493 H   0  0  0  0  0  0  0  0  0  0  0  0
    3.9189   -0.3327    6.2298 H   0  0  0  0  0  0  0  0  0  0  0  0
    4.4561    0.4172    4.7126 H   0  0  0  0  0  0  0  0  0  0  0  0
    1.0138   -1.9002    6.1168 N   0  0  0  0  0  0  0  0  0  0  0  0
   -0.1918   -2.1941    6.8809 C   0  0  0  0  0  0  0  0  0  0  0  0
    1.4662   -2.6830    5.6382 H   0  0  0  0  0  0  0  0  0  0  0  0
   -0.2828   -1.5129    7.7335 H   0  0  0  0  0  0  0  0  0  0  0  0
   -1.0801   -2.0901    6.2493 H   0  0  0  0  0  0  0  0  0  0  0  0
   -0.1538   -3.2189    7.2625 H   0  0  0  0  0  0  0  0  0  0  0  0
  1  2  2  0  0  0  0
  1  3  1  0  0  0  0
  1  7  1  0  0  0  0
  3  4  1  0  0  0  0
  3  5  1  0  0  0  0
  3  6  1  0  0  0  0
  7  8  1  0  0  0  0
  7 12  1  0  0  0  0
  8  9  1  0  0  0  0
  8 11  1  0  0  0  0
  8 13  1  0  0  0  0
  9 10  2  0  0  0  0
  9 17  1  0  0  0  0
 11 14  1  0  0  0  0
 11 15  1  0  0  0  0
 11 16  1  0  0  0  0
 17 18  1  0  0  0  0
 17 25  1  0  0  0  0
 18 19  1  0  0  0  0
 18 21  1  0  0  0  0
 18 26  1  0  0  0  0
 19 20  2  0  0  0  0
 19 34  1  0  0  0  0
 21 22  1  0  0  0  0
 21 27  1  0  0  0  0
 21 28  1  0  0  0  0
 22 23  1  0  0  0  0
 22 29  1  0  0  0  0
 22 30  1  0  0  0  0
 23 24  1  0  0  0  0
 24 31  1  0  0  0  0
 24 32  1  0  0  0  0
 24 33  1  0  0  0  0
 34 35  1  0  0  0  0
 34 39  1  0  0  0  0
 35 36  1  0  0  0  0
 35 38  1  0  0  0  0
 35 40  1  0  0  0  0
 36 37  2  0  0  0  0
 36 44  1  0  0  0  0
 38 41  1  0  0  0  0
 38 42  1  0  0  0  0
 38 43  1  0  0  0  0
 44 45  1  0  0  0  0
 44 46  1  0  0  0  0
 45 47  1  0  0  0  0
 45 48  1  0  0  0  0
 45 49  1  0  0  0  0
M  END
$$$$

  -OEChem-02062319113D

 49 48  0     1  0  0  0  0  0999 V2000
   -0.0786   -3.9618    3.1205 C   0  0  0  0  0  0  0  0  0  0  0  0
    1.0651   -4.0148    3.5520 O   0  0  0  0  0  0  0  0  0  0  0  0
   -1.1748   -4.7730    3.7839 C   0  0  0  0  0  0  0  0  0  0  0  0
   -1.6493   -5.4303    3.0512 H   0  0  0  0  0  0  0  0  0  0  0  0
   -0.7567   -5.3849    4.5881 H   0  0  0  0  0  0  0  0  0  0  0  0
   -1.9293   -4.1039    4.2052 H   0  0  0  0  0  0  0  0  0  0  0  0
   -0.3812   -3.1518    2.0456 N   0  0  0  0  0  0  0  0  0  0  0  0
    0.5556   -2.1859    1.4608 C   0  0  2  0  0  0  0  0  0  0  0  0
   -0.1620   -0.9363    0.8947 C   0  0  0  0  0  0  0  0  0  0  0  0
   -1.3502   -1.0078    0.6161 O   0  0  0  0  0  0  0  0  0  0  0  0
    1.3463   -2.8901    0.3546 C   0  0  0  0  0  0  0  0  0  0  0  0
   -1.3616   -3.0609    1.7816 H   0  0  0  0  0  0  0  0  0  0  0  0
    1.2389   -1.8659    2.2407 H   0  0  0  0  0  0  0  0  0  0  0  0
    0.6708   -3.2596   -0.4233 H   0  0  0  0  0  0  0  0  0  0  0  0
    2.0636   -2.2042   -0.1053 H   0  0  0  0  0  0  0  0  0  0  0  0
    1.9009   -3.7387    0.7673 H   0  0  0  0  0  0  0  0  0  0  0  0
    0.2659    0.3759    0.9684 N   0  0  0  0  0  0  0  0  0  0  0  0
    1.6482    0.8237    0.7050 C   0  0  2  0  0  0  0  0  0  0  0  0
    2.7154    0.2118    1.6339 C   0  0  0  0  0  0  0  0  0  0  0  0
    3.6915   -0.3512    1.1623 O   0  0  0  0  0  0  0  0  0  0  0  0
    1.7142    2.3576    0.8378 C   0  0  0  0  0  0  0  0  0  0  0  0
    0.8117    3.1049   -0.1557 C   0  0  0  0  0  0  0  0  0  0  0  0
    1.1615    2.6637   -1.9086 S   0  0  0  0  0  0  0  0  0  0  0  0
    2.9450    3.0521   -2.1207 C   0  0  0  0  0  0  0  0  0  0  0  0
   -0.4695    0.9980    0.6410 H   0  0  0  0  0  0  0  0  0  0  0  0
    1.9208    0.5372   -0.3164 H   0  0  0  0  0  0  0  0  0  0  0  0
    2.7484    2.6855    0.6912 H   0  0  0  0  0  0  0  0  0  0  0  0
    1.4263    2.6442    1.8549 H   0  0  0  0  0  0  0  0  0  0  0  0
    0.9574    4.1820   -0.0265 H   0  0  0  0  0  0  0  0  0  0  0  0
   -0.2393    2.8914    0.0613 H   0  0  0  0  0  0  0  0  0  0  0  0
    3.2303    2.9334   -3.1701 H   0  0  0  0  0  0  0  0  0  0  0  0
    3.5599    2.3775   -1.5181 H   0  0  0  0  0  0  0  0  0  0  0  0
    3.1481    4.0833   -1.8178 H   0  0  0  0  0  0  0  0  0  0  0  0
    2.4725    0.1514    2.9922 N   0  0  0  0  0  0  0  0  0  0  0  0
    3.1210   -0.7846    3.9186 C   0  0  2  0  0  0  0  0  0  0  0  0
    2.1578   -1.1414    5.0725 C   0  0  0  0  0  0  0  0  0  0  0  0
    1.2201   -0.3911    5.3301 O   0  0  0  0  0  0  0  0  0  0  0  0
    4.3994   -0.1430    4.4630 C   0  0  0  0  0  0  0  0  0  0  0  0
    1.5807    0.5348    3.3098 H   0  0  0  0  0  0  0  0  0  0  0  0
    3.3754   -1.7132    3.3956 H   0  0  0  0  0  0  0  0  0  0  0  0
    4.1658    0.7876    4.9897 H   0  0  0  0  0  0  0  0  0  0  0  0
    4.9006   -0.8217    5.1598 H   0  0  0  0  0  0  0  0  0  0  0  0
    5.0897    0.0828    3.6444 H   0  0  0  0  0  0  0  0  0  0  0  0
    2.3218   -2.3051    5.7988 N   0  0  0  0  0  0  0  0  0  0  0  0
    1.3432   -2.7510    6.7827 C   0  0  0  0  0  0  0  0  0  0  0  0
    2.9070   -3.0154    5.3651 H   0  0  0  0  0  0  0  0  0  0  0  0
    1.1629   -1.9700    7.5290 H   0  0  0  0  0  0  0  0  0  0  0  0
    0.3948   -2.9978    6.2940 H   0  0  0  0  0  0  0  0  0  0  0  0
    1.7101   -3.6418    7.3014 H   0  0  0  0  0  0  0  0  0  0  0  0
  1  2  2  0  0  0  0
  1  3  1  0  0  0  0
  1  7  1  0  0  0  0
  3  4  1  0  0  0  0
  3  5  1  0  0  0  0
  3  6  1  0  0  0  0
  7  8  1  0  0  0  0
  7 12  1  0  0  0  0
  8  9  1  0  0  0  0
  8 11  1  0  0  0  0
  8 13  1  0  0  0  0
  9 10  2  0  0  0  0
  9 17  1  0  0  0  0
 11 14  1  0  0  0  0
 11 15  1  0  0  0  0
 11 16  1  0  0  0  0
 17 18  1  0  0  0  0
 17 25  1  0  0  0  0
 18 19  1  0  0  0  0
 18 21  1  0  0  0  0
 18 26  1  0  0  0  0
 19 20  2  0  0  0  0
 19 34  1  0  0  0  0
 21 22  1  0  0  0  0
 21 27  1  0  0  0  0
 21 28  1  0  0  0  0
 22 23  1  0  0  0  0
 22 29  1  0  0  0  0
 22 30  1  0  0  0  0
 23 24  1  0  0  0  0
 24 31  1  0  0  0  0
 24 32  1  0  0  0  0
 24 33  1  0  0  0  0
 34 35  1  0  0  0  0
 34 39  1  0  0  0  0
 35 36  1  0  0  0  0
 35 38  1  0  0  0  0
 35 40  1  0  0  0  0
 36 37  2  0  0  0  0
 36 44  1  0  0  0  0
 38 41  1  0  0  0  0
 38 42  1  0  0  0  0
 38 43  1  0  0  0  0
 44 45  1  0  0  0  0
 44 46  1  0  0  0  0
 45 47  1  0  0  0  0
 45 48  1  0  0  0  0
 45 49  1  0  0  0  0
M  END
$$$$

  -OEChem-02062319113D

 49 48  0     1  0  0  0  0  0999 V2000
   -0.1971   -3.9987    2.9801 C   0  0  0  0  0  0  0  0  0  0  0  0
    0.9791   -4.1967    3.2474 O   0  0  0  0  0  0  0  0  0  0  0  0
   -1.2708   -4.7982    3.6933 C   0  0  0  0  0  0  0  0  0  0  0  0
   -1.1304   -5.8640    3.4965 H   0  0  0  0  0  0  0  0  0  0  0  0
   -1.2091   -4.6210    4.7700 H   0  0  0  0  0  0  0  0  0  0  0  0
   -2.2641   -4.5045    3.3455 H   0  0  0  0  0  0  0  0  0  0  0  0
   -0.5440   -3.0550    2.0356 N   0  0  0  0  0  0  0  0  0  0  0  0
    0.4080   -2.1374    1.3989 C   0  0  2  0  0  0  0  0  0  0  0  0
   -0.2775   -0.8571    0.8635 C   0  0  0  0  0  0  0  0  0  0  0  0
   -1.4839   -0.8746    0.6656 O   0  0  0  0  0  0  0  0  0  0  0  0
    1.0960   -2.8815    0.2475 C   0  0  0  0  0  0  0  0  0  0  0  0
   -1.5350   -2.8725    1.8831 H   0  0  0  0  0  0  0  0  0  0  0  0
    1.1434   -1.8470    2.1458 H   0  0  0  0  0  0  0  0  0  0  0  0
    1.8088   -2.2329   -0.2676 H   0  0  0  0  0  0  0  0  0  0  0  0
    0.3542   -3.2239   -0.4810 H   0  0  0  0  0  0  0  0  0  0  0  0
    1.6400   -3.7525    0.6250 H   0  0  0  0  0  0  0  0  0  0  0  0
    0.1836    0.4390    0.9861 N   0  0  0  0  0  0  0  0  0  0  0  0
    1.4833    0.8887    0.4482 C   0  0  2  0  0  0  0  0  0  0  0  0
    2.7194    0.1658    1.0189 C   0  0  0  0  0  0  0  0  0  0  0  0
    3.5641   -0.2993    0.2687 O   0  0  0  0  0  0  0  0  0  0  0  0
    1.6419    2.3997    0.7070 C   0  0  0  0  0  0  0  0  0  0  0  0
    0.5611    3.2603    0.0342 C   0  0  0  0  0  0  0  0  0  0  0  0
    0.4594    2.9870   -1.7840 S   0  0  0  0  0  0  0  0  0  0  0  0
    2.1603    3.3274   -2.3926 C   0  0  0  0  0  0  0  0  0  0  0  0
   -0.5890    1.0773    0.8072 H   0  0  0  0  0  0  0  0  0  0  0  0
    1.4923    0.7057   -0.6319 H   0  0  0  0  0  0  0  0  0  0  0  0
    2.6244    2.7226    0.3478 H   0  0  0  0  0  0  0  0  0  0  0  0
    1.6159    2.5859    1.7859 H   0  0  0  0  0  0  0  0  0  0  0  0
    0.7807    4.3163    0.2214 H   0  0  0  0  0  0  0  0  0  0  0  0
   -0.4158    3.0486    0.4797 H   0  0  0  0  0  0  0  0  0  0  0  0
    2.1775    3.2949   -3.4861 H   0  0  0  0  0  0  0  0  0  0  0  0
    2.8623    2.5782   -2.0147 H   0  0  0  0  0  0  0  0  0  0  0  0
    2.4899    4.3185   -2.0673 H   0  0  0  0  0  0  0  0  0  0  0  0
    2.8172   -0.0452    2.3794 N   0  0  0  0  0  0  0  0  0  0  0  0
    3.6980   -1.0323    3.0146 C   0  0  2  0  0  0  0  0  0  0  0  0
    3.0696   -1.5435    4.3298 C   0  0  0  0  0  0  0  0  0  0  0  0
    2.1730   -0.8940    4.8614 O   0  0  0  0  0  0  0  0  0  0  0  0
    5.0581   -0.3833    3.2837 C   0  0  0  0  0  0  0  0  0  0  0  0
    2.0341    0.2798    2.9491 H   0  0  0  0  0  0  0  0  0  0  0  0
    3.8299   -1.8938    2.3508 H   0  0  0  0  0  0  0  0  0  0  0  0
    4.9450    0.4782    3.9493 H   0  0  0  0  0  0  0  0  0  0  0  0
    5.7385   -1.1000    3.7537 H   0  0  0  0  0  0  0  0  0  0  0  0
    5.5087   -0.0432    2.3460 H   0  0  0  0  0  0  0  0  0  0  0  0
    3.4939   -2.7270    4.9029 N   0  0  0  0  0  0  0  0  0  0  0  0
    2.8213   -3.3239    6.0501 C   0  0  0  0  0  0  0  0  0  0  0  0
    4.0769   -3.3272    4.3268 H   0  0  0  0  0  0  0  0  0  0  0  0
    2.8517   -2.6449    6.9085 H   0  0  0  0  0  0  0  0  0  0  0  0
    1.7756   -3.5431    5.8113 H   0  0  0  0  0  0  0  0  0  0  0  0
    3.3149   -4.2585    6.3321 H   0  0  0  0  0  0  0  0  0  0  0  0
  1  2  2  0  0  0  0
  1  3  1  0  0  0  0
  1  7  1  0  0  0  0
  3  4  1  0  0  0  0
  3  5  1  0  0  0  0
  3  6  1  0  0  0  0
  7  8  1  0  0  0  0
  7 12  1  0  0  0  0
  8  9  1  0  0  0  0
  8 11  1  0  0  0  0
  8 13  1  0  0  0  0
  9 10  2  0  0  0  0
  9 17  1  0  0  0  0
 11 14  1  0  0  0  0
 11 15  1  0  0  0  0
 11 16  1  0  0  0  0
 17 18  1  0  0  0  0
 17 25  1  0  0  0  0
 18 19  1  0  0  0  0
 18 21  1  0  0  0  0
 18 26  1  0  0  0  0
 19 20  2  0  0  0  0
 19 34  1  0  0  0  0
 21 22  1  0  0  0  0
 21 27  1  0  0  0  0
 21 28  1  0  0  0  0
 22 23  1  0  0  0  0
 22 29  1  0  0  0  0
 22 30  1  0  0  0  0
 23 24  1  0  0  0  0
 24 31  1  0  0  0  0
 24 32  1  0  0  0  0
 24 33  1  0  0  0  0
 34 35  1  0  0  0  0
 34 39  1  0  0  0  0
 35 36  1  0  0  0  0
 35 38  1  0  0  0  0
 35 40  1  0  0  0  0
 36 37  2  0  0  0  0
 36 44  1  0  0  0  0
 38 41  1  0  0  0  0
 38 42  1  0  0  0  0
 38 43  1  0  0  0  0
 44 45  1  0  0  0  0
 44 46  1  0  0  0  0
 45 47  1  0  0  0  0
 45 48  1  0  0  0  0
 45 49  1  0  0  0  0
M  END
$$$$

  -OEChem-02062319113D

 49 48  0     1  0  0  0  0  0999 V2000
   -0.1765   -4.0261    2.8828 C   0  0  0  0  0  0  0  0  0  0  0  0
    1.0077   -4.2623    3.0715 O   0  0  0  0  0  0  0  0  0  0  0  0
   -1.2360   -4.8284    3.6134 C   0  0  0  0  0  0  0  0  0  0  0  0
   -1.9277   -5.2743    2.8949 H   0  0  0  0  0  0  0  0  0  0  0  0
   -0.7693   -5.6279    4.1957 H   0  0  0  0  0  0  0  0  0  0  0  0
   -1.7946   -4.1778    4.2905 H   0  0  0  0  0  0  0  0  0  0  0  0
   -0.5553   -3.0382    1.9982 N   0  0  0  0  0  0  0  0  0  0  0  0
    0.3770   -2.1581    1.2837 C   0  0  2  0  0  0  0  0  0  0  0  0
   -0.3119   -0.8677    0.7772 C   0  0  0  0  0  0  0  0  0  0  0  0
   -1.5249   -0.8757    0.6242 O   0  0  0  0  0  0  0  0  0  0  0  0
    0.9527   -2.9414    0.0963 C   0  0  0  0  0  0  0  0  0  0  0  0
   -1.5508   -2.8494    1.8862 H   0  0  0  0  0  0  0  0  0  0  0  0
    1.1751   -1.8755    1.9705 H   0  0  0  0  0  0  0  0  0  0  0  0
    0.1452   -3.2893   -0.5557 H   0  0  0  0  0  0  0  0  0  0  0  0
    1.6262   -2.3187   -0.4966 H   0  0  0  0  0  0  0  0  0  0  0  0
    1.5147   -3.8122    0.4469 H   0  0  0  0  0  0  0  0  0  0  0  0
    0.1486    0.4195    0.9660 N   0  0  0  0  0  0  0  0  0  0  0  0
    1.2962    0.9406    0.1971 C   0  0  2  0  0  0  0  0  0  0  0  0
    2.6139    0.1657    0.3924 C   0  0  0  0  0  0  0  0  0  0  0  0
    3.2440   -0.2376   -0.5733 O   0  0  0  0  0  0  0  0  0  0  0  0
    1.5391    2.4121    0.5880 C   0  0  0  0  0  0  0  0  0  0  0  0
    0.3358    3.3319    0.3290 C   0  0  0  0  0  0  0  0  0  0  0  0
   -0.2291    3.2824   -1.4218 S   0  0  0  0  0  0  0  0  0  0  0  0
    1.2356    3.8584   -2.3703 C   0  0  0  0  0  0  0  0  0  0  0  0
   -0.6579    1.0411    0.9479 H   0  0  0  0  0  0  0  0  0  0  0  0
    1.0553    0.8858   -0.8704 H   0  0  0  0  0  0  0  0  0  0  0  0
    2.4005    2.7910    0.0290 H   0  0  0  0  0  0  0  0  0  0  0  0
    1.7950    2.4658    1.6516 H   0  0  0  0  0  0  0  0  0  0  0  0
    0.6114    4.3603    0.5836 H   0  0  0  0  0  0  0  0  0  0  0  0
   -0.4969    3.0488    0.9804 H   0  0  0  0  0  0  0  0  0  0  0  0
    0.9745    3.9720   -3.4268 H   0  0  0  0  0  0  0  0  0  0  0  0
    2.0535    3.1360   -2.2927 H   0  0  0  0  0  0  0  0  0  0  0  0
    1.5784    4.8248   -1.9890 H   0  0  0  0  0  0  0  0  0  0  0  0
    3.0046   -0.1902    1.6667 N   0  0  0  0  0  0  0  0  0  0  0  0
    3.9956   -1.2177    2.0050 C   0  0  2  0  0  0  0  0  0  0  0  0
    3.7350   -1.7488    3.4326 C   0  0  0  0  0  0  0  0  0  0  0  0
    3.0676   -1.0737    4.2116 O   0  0  0  0  0  0  0  0  0  0  0  0
    5.4017   -0.6184    1.9032 C   0  0  0  0  0  0  0  0  0  0  0  0
    2.4016    0.1141    2.4331 H   0  0  0  0  0  0  0  0  0  0  0  0
    3.9058   -2.0586    1.3091 H   0  0  0  0  0  0  0  0  0  0  0  0
    5.5051    0.2308    2.5860 H   0  0  0  0  0  0  0  0  0  0  0  0
    6.1568   -1.3672    2.1610 H   0  0  0  0  0  0  0  0  0  0  0  0
    5.5959   -0.2711    0.8836 H   0  0  0  0  0  0  0  0  0  0  0  0
    4.2178   -2.9800    3.8336 N   0  0  0  0  0  0  0  0  0  0  0  0
    3.8436   -3.5886    5.1048 C   0  0  0  0  0  0  0  0  0  0  0  0
    4.6041   -3.5801    3.1110 H   0  0  0  0  0  0  0  0  0  0  0  0
    4.1346   -2.9425    5.9397 H   0  0  0  0  0  0  0  0  0  0  0  0
    2.7619   -3.7540    5.1475 H   0  0  0  0  0  0  0  0  0  0  0  0
    4.3456   -4.5533    5.2251 H   0  0  0  0  0  0  0  0  0  0  0  0
  1  2  2  0  0  0  0
  1  3  1  0  0  0  0
  1  7  1  0  0  0  0
  3  4  1  0  0  0  0
  3  5  1  0  0  0  0
  3  6  1  0  0  0  0
  7  8  1  0  0  0  0
  7 12  1  0  0  0  0
  8  9  1  0  0  0  0
  8 11  1  0  0  0  0
  8 13  1  0  0  0  0
  9 10  2  0  0  0  0
  9 17  1  0  0  0  0
 11 14  1  0  0  0  0
 11 15  1  0  0  0  0
 11 16  1  0  0  0  0
 17 18  1  0  0  0  0
 17 25  1  0  0  0  0
 18 19  1  0  0  0  0
 18 21  1  0  0  0  0
 18 26  1  0  0  0  0
 19 20  2  0  0  0  0
 19 34  1  0  0  0  0
 21 22  1  0  0  0  0
 21 27  1  0  0  0  0
 21 28  1  0  0  0  0
 22 23  1  0  0  0  0
 22 29  1  0  0  0  0
 22 30  1  0  0  0  0
 23 24  1  0  0  0  0
 24 31  1  0  0  0  0
 24 32  1  0  0  0  0
 24 33  1  0  0  0  0
 34 35  1  0  0  0  0
 34 39  1  0  0  0  0
 35 36  1  0  0  0  0
 35 38  1  0  0  0  0
 35 40  1  0  0  0  0
 36 37  2  0  0  0  0
 36 44  1  0  0  0  0
 38 41  1  0  0  0  0
 38 42  1  0  0  0  0
 38 43  1  0  0  0  0
 44 45  1  0  0  0  0
 44 46  1  0  0  0  0
 45 47  1  0  0  0  0
 45 48  1  0  0  0  0
 45 49  1  0  0  0  0
M  END
$$$$

  -OEChem-02062319113D

 49 48  0     1  0  0  0  0  0999 V2000
   -0.2987   -3.9340    3.0695 C   0  0  0  0  0  0  0  0  0  0  0  0
    0.8766   -4.0855    3.3600 O   0  0  0  0  0  0  0  0  0  0  0  0
   -1.3556   -4.8270    3.6916 C   0  0  0  0  0  0  0  0  0  0  0  0
   -1.9107   -5.3507    2.9094 H   0  0  0  0  0  0  0  0  0  0  0  0
   -0.8854   -5.5673    4.3451 H   0  0  0  0  0  0  0  0  0  0  0  0
   -2.0512   -4.2263    4.2827 H   0  0  0  0  0  0  0  0  0  0  0  0
   -0.6711   -2.9611    2.1652 N   0  0  0  0  0  0  0  0  0  0  0  0
    0.2670   -2.1026    1.4306 C   0  0  2  0  0  0  0  0  0  0  0  0
   -0.4563   -0.8248    0.9439 C   0  0  0  0  0  0  0  0  0  0  0  0
   -1.3391   -0.9403    0.1077 O   0  0  0  0  0  0  0  0  0  0  0  0
    0.8229   -2.9258    0.2572 C   0  0  0  0  0  0  0  0  0  0  0  0
   -1.6472   -2.9437    1.8750 H   0  0  0  0  0  0  0  0  0  0  0  0
    1.0886   -1.8036    2.0886 H   0  0  0  0  0  0  0  0  0  0  0  0
    1.4666   -2.3175   -0.3811 H   0  0  0  0  0  0  0  0  0  0  0  0
    0.0055   -3.3145   -0.3589 H   0  0  0  0  0  0  0  0  0  0  0  0
    1.4097   -3.7712    0.6292 H   0  0  0  0  0  0  0  0  0  0  0  0
    0.0267    0.4593    1.1405 N   0  0  0  0  0  0  0  0  0  0  0  0
    0.9078    1.0619    0.1168 C   0  0  2  0  0  0  0  0  0  0  0  0
    2.2207    0.2976   -0.1435 C   0  0  0  0  0  0  0  0  0  0  0  0
    2.5933    0.0474   -1.2792 O   0  0  0  0  0  0  0  0  0  0  0  0
    1.2443    2.5089    0.5234 C   0  0  0  0  0  0  0  0  0  0  0  0
    0.0209    3.4379    0.5158 C   0  0  0  0  0  0  0  0  0  0  0  0
   -0.7368    3.6190   -1.1540 S   0  0  0  0  0  0  0  0  0  0  0  0
    0.6505    4.0875   -2.2647 C   0  0  0  0  0  0  0  0  0  0  0  0
    0.3788    0.5797    2.0849 H   0  0  0  0  0  0  0  0  0  0  0  0
    0.3661    1.0778   -0.8362 H   0  0  0  0  0  0  0  0  0  0  0  0
    2.0003    2.9119   -0.1574 H   0  0  0  0  0  0  0  0  0  0  0  0
    1.6836    2.5105    1.5259 H   0  0  0  0  0  0  0  0  0  0  0  0
    0.3253    4.4280    0.8695 H   0  0  0  0  0  0  0  0  0  0  0  0
   -0.7373    3.0602    1.2094 H   0  0  0  0  0  0  0  0  0  0  0  0
    0.2639    4.3430   -3.2558 H   0  0  0  0  0  0  0  0  0  0  0  0
    1.3526    3.2556   -2.3741 H   0  0  0  0  0  0  0  0  0  0  0  0
    1.1840    4.9539   -1.8634 H   0  0  0  0  0  0  0  0  0  0  0  0
    2.9653   -0.1573    0.9261 N   0  0  0  0  0  0  0  0  0  0  0  0
    4.0704   -1.1171    0.8510 C   0  0  2  0  0  0  0  0  0  0  0  0
    4.1408   -1.9170    2.1682 C   0  0  0  0  0  0  0  0  0  0  0  0
    3.6295   -1.4419    3.1785 O   0  0  0  0  0  0  0  0  0  0  0  0
    5.3766   -0.3577    0.6039 C   0  0  0  0  0  0  0  0  0  0  0  0
    2.6187    0.0401    1.8633 H   0  0  0  0  0  0  0  0  0  0  0  0
    3.8993   -1.8226    0.0312 H   0  0  0  0  0  0  0  0  0  0  0  0
    5.5663    0.3532    1.4146 H   0  0  0  0  0  0  0  0  0  0  0  0
    6.2196   -1.0531    0.5459 H   0  0  0  0  0  0  0  0  0  0  0  0
    5.3203    0.1954   -0.3391 H   0  0  0  0  0  0  0  0  0  0  0  0
    4.7212   -3.1699    2.2091 N   0  0  0  0  0  0  0  0  0  0  0  0
    4.6441   -4.0353    3.3802 C   0  0  0  0  0  0  0  0  0  0  0  0
    5.0407   -3.5679    1.3311 H   0  0  0  0  0  0  0  0  0  0  0  0
    5.0434   -3.5256    4.2634 H   0  0  0  0  0  0  0  0  0  0  0  0
    3.6056   -4.3206    3.5789 H   0  0  0  0  0  0  0  0  0  0  0  0
    5.2284   -4.9456    3.2159 H   0  0  0  0  0  0  0  0  0  0  0  0
  1  2  2  0  0  0  0
  1  3  1  0  0  0  0
  1  7  1  0  0  0  0
  3  4  1  0  0  0  0
  3  5  1  0  0  0  0
  3  6  1  0  0  0  0
  7  8  1  0  0  0  0
  7 12  1  0  0  0  0
  8  9  1  0  0  0  0
  8 11  1  0  0  0  0
  8 13  1  0  0  0  0
  9 10  2  0  0  0  0
  9 17  1  0  0  0  0
 11 14  1  0  0  0  0
 11 15  1  0  0  0  0
 11 16  1  0  0  0  0
 17 18  1  0  0  0  0
 17 25  1  0  0  0  0
 18 19  1  0  0  0  0
 18 21  1  0  0  0  0
 18 26  1  0  0  0  0
 19 20  2  0  0  0  0
 19 34  1  0  0  0  0
 21 22  1  0  0  0  0
 21 27  1  0  0  0  0
 21 28  1  0  0  0  0
 22 23  1  0  0  0  0
 22 29  1  0  0  0  0
 22 30  1  0  0  0  0
 23 24  1  0  0  0  0
 24 31  1  0  0  0  0
 24 32  1  0  0  0  0
 24 33  1  0  0  0  0
 34 35  1  0  0  0  0
 34 39  1  0  0  0  0
 35 36  1  0  0  0  0
 35 38  1  0  0  0  0
 35 40  1  0  0  0  0
 36 37  2  0  0  0  0
 36 44  1  0  0  0  0
 38 41  1  0  0  0  0
 38 42  1  0  0  0  0
 38 43  1  0  0  0  0
 44 45  1  0  0  0  0
 44 46  1  0  0  0  0
 45 47  1  0  0  0  0
 45 48  1  0  0  0  0
 45 49  1  0  0  0  0
M  END
$$$$

  -OEChem-02062319113D

 49 48  0     1  0  0  0  0  0999 V2000
    0.2703   -1.9226    3.3717 C   0  0  0  0  0  0  0  0  0  0  0  0
    0.8470   -0.8746    3.1132 O   0  0  0  0  0  0  0  0  0  0  0  0
   -0.1451   -2.2380    4.7955 C   0  0  0  0  0  0  0  0  0  0  0  0
   -1.2297   -2.3597    4.8513 H   0  0  0  0  0  0  0  0  0  0  0  0
    0.3357   -3.1616    5.1282 H   0  0  0  0  0  0  0  0  0  0  0  0
    0.1525   -1.4263    5.4653 H   0  0  0  0  0  0  0  0  0  0  0  0
   -0.0510   -2.7899    2.3484 N   0  0  0  0  0  0  0  0  0  0  0  0
    0.4857   -2.7010    0.9791 C   0  0  2  0  0  0  0  0  0  0  0  0
   -0.1928   -1.6058    0.1111 C   0  0  0  0  0  0  0  0  0  0  0  0
   -0.3576   -1.8007   -1.0842 O   0  0  0  0  0  0  0  0  0  0  0  0
    0.3568   -4.1021    0.3668 C   0  0  0  0  0  0  0  0  0  0  0  0
   -0.5047   -3.6587    2.6188 H   0  0  0  0  0  0  0  0  0  0  0  0
    1.5515   -2.4684    1.0276 H   0  0  0  0  0  0  0  0  0  0  0  0
    0.8092   -4.1262   -0.6296 H   0  0  0  0  0  0  0  0  0  0  0  0
   -0.6959   -4.3876    0.2743 H   0  0  0  0  0  0  0  0  0  0  0  0
    0.8706   -4.8408    0.9899 H   0  0  0  0  0  0  0  0  0  0  0  0
   -0.1584   -0.2850    0.5242 N   0  0  0  0  0  0  0  0  0  0  0  0
    0.7444    0.6644   -0.1573 C   0  0  2  0  0  0  0  0  0  0  0  0
    2.2372    0.2846   -0.0777 C   0  0  0  0  0  0  0  0  0  0  0  0
    2.9587    0.3735   -1.0634 O   0  0  0  0  0  0  0  0  0  0  0  0
    0.5572    2.0645    0.4543 C   0  0  0  0  0  0  0  0  0  0  0  0
   -0.8196    2.6743    0.1549 C   0  0  0  0  0  0  0  0  0  0  0  0
   -1.1306    2.9223   -1.6453 S   0  0  0  0  0  0  0  0  0  0  0  0
    0.3724    3.7616   -2.2893 C   0  0  0  0  0  0  0  0  0  0  0  0
   -0.0908   -0.2315    1.5416 H   0  0  0  0  0  0  0  0  0  0  0  0
    0.4834    0.6971   -1.2213 H   0  0  0  0  0  0  0  0  0  0  0  0
    1.3342    2.7352    0.0751 H   0  0  0  0  0  0  0  0  0  0  0  0
    0.6892    2.0038    1.5394 H   0  0  0  0  0  0  0  0  0  0  0  0
   -0.8918    3.6439    0.6573 H   0  0  0  0  0  0  0  0  0  0  0  0
   -1.6056    2.0320    0.5645 H   0  0  0  0  0  0  0  0  0  0  0  0
    0.2117    4.0679   -3.3274 H   0  0  0  0  0  0  0  0  0  0  0  0
    1.2320    3.0853   -2.2597 H   0  0  0  0  0  0  0  0  0  0  0  0
    0.5972    4.6501   -1.6925 H   0  0  0  0  0  0  0  0  0  0  0  0
    2.7958   -0.1349    1.1160 N   0  0  0  0  0  0  0  0  0  0  0  0
    4.1548   -0.6767    1.2390 C   0  0  2  0  0  0  0  0  0  0  0  0
    4.2633   -2.0943    0.6264 C   0  0  0  0  0  0  0  0  0  0  0  0
    4.3168   -3.0977    1.3292 O   0  0  0  0  0  0  0  0  0  0  0  0
    4.5244   -0.6436    2.7267 C   0  0  0  0  0  0  0  0  0  0  0  0
    2.1532   -0.2785    1.8996 H   0  0  0  0  0  0  0  0  0  0  0  0
    4.8586   -0.0310    0.7030 H   0  0  0  0  0  0  0  0  0  0  0  0
    3.8348   -1.2630    3.3093 H   0  0  0  0  0  0  0  0  0  0  0  0
    5.5400   -1.0246    2.8737 H   0  0  0  0  0  0  0  0  0  0  0  0
    4.4794    0.3813    3.1081 H   0  0  0  0  0  0  0  0  0  0  0  0
    4.1951   -2.2363   -0.7454 N   0  0  0  0  0  0  0  0  0  0  0  0
    4.1282   -3.5217   -1.4268 C   0  0  0  0  0  0  0  0  0  0  0  0
    3.9543   -1.3881   -1.2668 H   0  0  0  0  0  0  0  0  0  0  0  0
    5.0304   -4.1083   -1.2256 H   0  0  0  0  0  0  0  0  0  0  0  0
    3.2550   -4.0901   -1.0919 H   0  0  0  0  0  0  0  0  0  0  0  0
    4.0490   -3.3703   -2.5078 H   0  0  0  0  0  0  0  0  0  0  0  0
  1  2  2  0  0  0  0
  1  3  1  0  0  0  0
  1  7  1  0  0  0  0
  3  4  1  0  0  0  0
  3  5  1  0  0  0  0
  3  6  1  0  0  0  0
  7  8  1  0  0  0  0
  7 12  1  0  0  0  0
  8  9  1  0  0  0  0
  8 11  1  0  0  0  0
  8 13  1  0  0  0  0
  9 10  2  0  0  0  0
  9 17  1  0  0  0  0
 11 14  1  0  0  0  0
 11 15  1  0  0  0  0
 11 16  1  0  0  0  0
 17 18  1  0  0  0  0
 17 25  1  0  0  0  0
 18 19  1  0  0  0  0
 18 21  1  0  0  0  0
 18 26  1  0  0  0  0
 19 20  2  0  0  0  0
 19 34  1  0  0  0  0
 21 22  1  0  0  0  0
 21 27  1  0  0  0  0
 21 28  1  0  0  0  0
 22 23  1  0  0  0  0
 22 29  1  0  0  0  0
 22 30  1  0  0  0  0
 23 24  1  0  0  0  0
 24 31  1  0  0  0  0
 24 32  1  0  0  0  0
 24 33  1  0  0  0  0
 34 35  1  0  0  0  0
 34 39  1  0  0  0  0
 35 36  1  0  0  0  0
 35 38  1  0  0  0  0
 35 40  1  0  0  0  0
 36 37  2  0  0  0  0
 36 44  1  0  0  0  0
 38 41  1  0  0  0  0
 38 42  1  0  0  0  0
 38 43  1  0  0  0  0
 44 45  1  0  0  0  0
 44 46  1  0  0  0  0
 45 47  1  0  0  0  0
 45 48  1  0  0  0  0
 45 49  1  0  0  0  0
M  END
$$$$

  -OEChem-02062319113D

 49 48  0     1  0  0  0  0  0999 V2000
    0.5808   -1.9330    3.1434 C   0  0  0  0  0  0  0  0  0  0  0  0
    1.2276   -0.9514    2.8039 O   0  0  0  0  0  0  0  0  0  0  0  0
    0.3148   -2.2040    4.6117 C   0  0  0  0  0  0  0  0  0  0  0  0
   -0.7614   -2.2349    4.7996 H   0  0  0  0  0  0  0  0  0  0  0  0
    0.7554   -3.1619    4.8993 H   0  0  0  0  0  0  0  0  0  0  0  0
    0.7558   -1.4150    5.2278 H   0  0  0  0  0  0  0  0  0  0  0  0
    0.0293   -2.7483    2.1764 N   0  0  0  0  0  0  0  0  0  0  0  0
    0.4118   -2.7271    0.7523 C   0  0  2  0  0  0  0  0  0  0  0  0
   -0.2232   -1.5710   -0.0653 C   0  0  0  0  0  0  0  0  0  0  0  0
   -0.3915   -1.6983   -1.2695 O   0  0  0  0  0  0  0  0  0  0  0  0
    0.0457   -4.1045    0.1832 C   0  0  0  0  0  0  0  0  0  0  0  0
   -0.4773   -3.5634    2.5119 H   0  0  0  0  0  0  0  0  0  0  0  0
    1.4978   -2.6151    0.6761 H   0  0  0  0  0  0  0  0  0  0  0  0
   -1.0382   -4.2551    0.2071 H   0  0  0  0  0  0  0  0  0  0  0  0
    0.3817   -4.1923   -0.8548 H   0  0  0  0  0  0  0  0  0  0  0  0
    0.5267   -4.8988    0.7627 H   0  0  0  0  0  0  0  0  0  0  0  0
   -0.2021   -0.2880    0.4525 N   0  0  0  0  0  0  0  0  0  0  0  0
    0.4713    0.7942   -0.2889 C   0  0  2  0  0  0  0  0  0  0  0  0
    1.9700    0.5089   -0.5106 C   0  0  0  0  0  0  0  0  0  0  0  0
    2.4913    0.6989   -1.6024 O   0  0  0  0  0  0  0  0  0  0  0  0
    0.3266    2.1138    0.4903 C   0  0  0  0  0  0  0  0  0  0  0  0
   -1.1247    2.6049    0.5877 C   0  0  0  0  0  0  0  0  0  0  0  0
   -1.8799    2.9585   -1.0555 S   0  0  0  0  0  0  0  0  0  0  0  0
   -0.6816    4.0649   -1.9029 C   0  0  0  0  0  0  0  0  0  0  0  0
    0.0059   -0.2968    1.4513 H   0  0  0  0  0  0  0  0  0  0  0  0
    0.0088    0.9004   -1.2769 H   0  0  0  0  0  0  0  0  0  0  0  0
    0.9345    2.8866    0.0104 H   0  0  0  0  0  0  0  0  0  0  0  0
    0.7211    1.9786    1.5028 H   0  0  0  0  0  0  0  0  0  0  0  0
   -1.1481    3.5201    1.1877 H   0  0  0  0  0  0  0  0  0  0  0  0
   -1.7354    1.8577    1.1044 H   0  0  0  0  0  0  0  0  0  0  0  0
   -1.1124    4.4320   -2.8391 H   0  0  0  0  0  0  0  0  0  0  0  0
    0.2404    3.5246   -2.1376 H   0  0  0  0  0  0  0  0  0  0  0  0
   -0.4400    4.9226   -1.2685 H   0  0  0  0  0  0  0  0  0  0  0  0
    2.7499    0.0298    0.5269 N   0  0  0  0  0  0  0  0  0  0  0  0
    4.0988   -0.5164    0.3355 C   0  0  2  0  0  0  0  0  0  0  0  0
    4.0502   -1.9041   -0.3475 C   0  0  0  0  0  0  0  0  0  0  0  0
    4.2601   -2.9380    0.2773 O   0  0  0  0  0  0  0  0  0  0  0  0
    4.7774   -0.5500    1.7097 C   0  0  0  0  0  0  0  0  0  0  0  0
    2.2581   -0.2190    1.3893 H   0  0  0  0  0  0  0  0  0  0  0  0
    4.6808    0.1497   -0.3104 H   0  0  0  0  0  0  0  0  0  0  0  0
    4.2210   -1.1928    2.3998 H   0  0  0  0  0  0  0  0  0  0  0  0
    5.7967   -0.9387    1.6195 H   0  0  0  0  0  0  0  0  0  0  0  0
    4.8272    0.4574    2.1343 H   0  0  0  0  0  0  0  0  0  0  0  0
    3.6476   -1.9845   -1.6658 N   0  0  0  0  0  0  0  0  0  0  0  0
    3.3599   -3.2375   -2.3495 C   0  0  0  0  0  0  0  0  0  0  0  0
    3.3021   -1.1118   -2.0757 H   0  0  0  0  0  0  0  0  0  0  0  0
    4.2296   -3.9019   -2.3172 H   0  0  0  0  0  0  0  0  0  0  0  0
    2.5110   -3.7433   -1.8801 H   0  0  0  0  0  0  0  0  0  0  0  0
    3.1128   -3.0449   -3.3980 H   0  0  0  0  0  0  0  0  0  0  0  0
  1  2  2  0  0  0  0
  1  3  1  0  0  0  0
  1  7  1  0  0  0  0
  3  4  1  0  0  0  0
  3  5  1  0  0  0  0
  3  6  1  0  0  0  0
  7  8  1  0  0  0  0
  7 12  1  0  0  0  0
  8  9  1  0  0  0  0
  8 11  1  0  0  0  0
  8 13  1  0  0  0  0
  9 10  2  0  0  0  0
  9 17  1  0  0  0  0
 11 14  1  0  0  0  0
 11 15  1  0  0  0  0
 11 16  1  0  0  0  0
 17 18  1  0  0  0  0
 17 25  1  0  0  0  0
 18 19  1  0  0  0  0
 18 21  1  0  0  0  0
 18 26  1  0  0  0  0
 19 20  2  0  0  0  0
 19 34  1  0  0  0  0
 21 22  1  0  0  0  0
 21 27  1  0  0  0  0
 21 28  1  0  0  0  0
 22 23  1  0  0  0  0
 22 29  1  0  0  0  0
 22 30  1  0  0  0  0
 23 24  1  0  0  0  0
 24 31  1  0  0  0  0
 24 32  1  0  0  0  0
 24 33  1  0  0  0  0
 34 35  1  0  0  0  0
 34 39  1  0  0  0  0
 35 36  1  0  0  0  0
 35 38  1  0  0  0  0
 35 40  1  0  0  0  0
 36 37  2  0  0  0  0
 36 44  1  0  0  0  0
 38 41  1  0  0  0  0
 38 42  1  0  0  0  0
 38 43  1  0  0  0  0
 44 45  1  0  0  0  0
 44 46  1  0  0  0  0
 45 47  1  0  0  0  0
 45 48  1  0  0  0  0
 45 49  1  0  0  0  0
M  END
$$$$

  -OEChem-02062319113D

 49 48  0     1  0  0  0  0  0999 V2000
   -0.7260   -3.8638    3.3916 C   0  0  0  0  0  0  0  0  0  0  0  0
    0.0792   -3.7903    4.3066 O   0  0  0  0  0  0  0  0  0  0  0  0
   -1.8254   -4.9083    3.4258 C   0  0  0  0  0  0  0  0  0  0  0  0
   -1.7175   -5.5913    2.5797 H   0  0  0  0  0  0  0  0  0  0  0  0
   -1.7690   -5.4842    4.3539 H   0  0  0  0  0  0  0  0  0  0  0  0
   -2.8030   -4.4227    3.3708 H   0  0  0  0  0  0  0  0  0  0  0  0
   -0.6474   -2.9884    2.3295 N   0  0  0  0  0  0  0  0  0  0  0  0
    0.2519   -1.8286    2.2775 C   0  0  2  0  0  0  0  0  0  0  0  0
   -0.4413   -0.6104    1.6241 C   0  0  0  0  0  0  0  0  0  0  0  0
   -1.4387   -0.8011    0.9390 O   0  0  0  0  0  0  0  0  0  0  0  0
    1.5146   -2.2500    1.5262 C   0  0  0  0  0  0  0  0  0  0  0  0
   -1.4223   -2.9914    1.6664 H   0  0  0  0  0  0  0  0  0  0  0  0
    0.5280   -1.5293    3.2943 H   0  0  0  0  0  0  0  0  0  0  0  0
    1.2762   -2.5078    0.4894 H   0  0  0  0  0  0  0  0  0  0  0  0
    2.2518   -1.4430    1.5330 H   0  0  0  0  0  0  0  0  0  0  0  0
    1.9671   -3.1243    2.0054 H   0  0  0  0  0  0  0  0  0  0  0  0
    0.2154    0.6025    1.4914 N   0  0  0  0  0  0  0  0  0  0  0  0
    0.1620    1.3839    0.2373 C   0  0  2  0  0  0  0  0  0  0  0  0
    0.7146    0.6802   -1.0209 C   0  0  0  0  0  0  0  0  0  0  0  0
    0.1959    0.8852   -2.1097 O   0  0  0  0  0  0  0  0  0  0  0  0
    0.9167    2.7135    0.4310 C   0  0  0  0  0  0  0  0  0  0  0  0
    0.2977    3.6219    1.5050 C   0  0  0  0  0  0  0  0  0  0  0  0
   -1.4520    4.0767    1.1508 S   0  0  0  0  0  0  0  0  0  0  0  0
   -1.4352    4.7071   -0.5756 C   0  0  0  0  0  0  0  0  0  0  0  0
    1.0569    0.6945    2.0520 H   0  0  0  0  0  0  0  0  0  0  0  0
   -0.8896    1.6034    0.0203 H   0  0  0  0  0  0  0  0  0  0  0  0
    0.9384    3.2557   -0.5198 H   0  0  0  0  0  0  0  0  0  0  0  0
    1.9559    2.5029    0.7030 H   0  0  0  0  0  0  0  0  0  0  0  0
    0.8898    4.5399    1.5732 H   0  0  0  0  0  0  0  0  0  0  0  0
    0.3429    3.1300    2.4814 H   0  0  0  0  0  0  0  0  0  0  0  0
   -2.4145    5.1239   -0.8290 H   0  0  0  0  0  0  0  0  0  0  0  0
   -1.2128    3.8984   -1.2784 H   0  0  0  0  0  0  0  0  0  0  0  0
   -0.6816    5.4919   -0.6870 H   0  0  0  0  0  0  0  0  0  0  0  0
    1.9102   -0.0132   -0.9828 N   0  0  0  0  0  0  0  0  0  0  0  0
    2.5378   -0.6585   -2.1433 C   0  0  2  0  0  0  0  0  0  0  0  0
    3.4558   -1.8202   -1.7145 C   0  0  0  0  0  0  0  0  0  0  0  0
    3.9183   -1.8447   -0.5790 O   0  0  0  0  0  0  0  0  0  0  0  0
    3.3466    0.3882   -2.9174 C   0  0  0  0  0  0  0  0  0  0  0  0
    2.3296   -0.1911   -0.0734 H   0  0  0  0  0  0  0  0  0  0  0  0
    1.7600   -1.0713   -2.7947 H   0  0  0  0  0  0  0  0  0  0  0  0
    4.1236    0.8205   -2.2787 H   0  0  0  0  0  0  0  0  0  0  0  0
    3.8256   -0.0660   -3.7901 H   0  0  0  0  0  0  0  0  0  0  0  0
    2.6942    1.1948   -3.2662 H   0  0  0  0  0  0  0  0  0  0  0  0
    3.7575   -2.8417   -2.5954 N   0  0  0  0  0  0  0  0  0  0  0  0
    4.5905   -3.9841   -2.2392 C   0  0  0  0  0  0  0  0  0  0  0  0
    3.3345   -2.8096   -3.5190 H   0  0  0  0  0  0  0  0  0  0  0  0
    5.5899   -3.6505   -1.9408 H   0  0  0  0  0  0  0  0  0  0  0  0
    4.1423   -4.5415   -1.4100 H   0  0  0  0  0  0  0  0  0  0  0  0
    4.6934   -4.6601   -3.0936 H   0  0  0  0  0  0  0  0  0  0  0  0
  1  2  2  0  0  0  0
  1  3  1  0  0  0  0
  1  7  1  0  0  0  0
  3  4  1  0  0  0  0
  3  5  1  0  0  0  0
  3  6  1  0  0  0  0
  7  8  1  0  0  0  0
  7 12  1  0  0  0  0
  8  9  1  0  0  0  0
  8 11  1  0  0  0  0
  8 13  1  0  0  0  0
  9 10  2  0  0  0  0
  9 17  1  0  0  0  0
 11 14  1  0  0  0  0
 11 15  1  0  0  0  0
 11 16  1  0  0  0  0
 17 18  1  0  0  0  0
 17 25  1  0  0  0  0
 18 19  1  0  0  0  0
 18 21  1  0  0  0  0
 18 26  1  0  0  0  0
 19 20  2  0  0  0  0
 19 34  1  0  0  0  0
 21 22  1  0  0  0  0
 21 27  1  0  0  0  0
 21 28  1  0  0  0  0
 22 23  1  0  0  0  0
 22 29  1  0  0  0  0
 22 30  1  0  0  0  0
 23 24  1  0  0  0  0
 24 31  1  0  0  0  0
 24 32  1  0  0  0  0
 24 33  1  0  0  0  0
 34 35  1  0  0  0  0
 34 39  1  0  0  0  0
 35 36  1  0  0  0  0
 35 38  1  0  0  0  0
 35 40  1  0  0  0  0
 36 37  2  0  0  0  0
 36 44  1  0  0  0  0
 38 41  1  0  0  0  0
 38 42  1  0  0  0  0
 38 43  1  0  0  0  0
 44 45  1  0  0  0  0
 44 46  1  0  0  0  0
 45 47  1  0  0  0  0
 45 48  1  0  0  0  0
 45 49  1  0  0  0  0
M  END
$$$$

  -OEChem-02062319113D

 49 48  0     1  0  0  0  0  0999 V2000
   -0.5116   -3.8452    3.4044 C   0  0  0  0  0  0  0  0  0  0  0  0
    0.3619   -3.7351    4.2503 O   0  0  0  0  0  0  0  0  0  0  0  0
   -1.6037   -4.8853    3.5676 C   0  0  0  0  0  0  0  0  0  0  0  0
   -1.5833   -5.5821    2.7263 H   0  0  0  0  0  0  0  0  0  0  0  0
   -1.4541   -5.4465    4.4942 H   0  0  0  0  0  0  0  0  0  0  0  0
   -2.5809   -4.3976    3.6046 H   0  0  0  0  0  0  0  0  0  0  0  0
   -0.5162   -3.0157    2.3034 N   0  0  0  0  0  0  0  0  0  0  0  0
    0.3742   -1.8606    2.1323 C   0  0  2  0  0  0  0  0  0  0  0  0
   -0.3720   -0.6678    1.4979 C   0  0  0  0  0  0  0  0  0  0  0  0
   -1.4044   -0.8682    0.8701 O   0  0  0  0  0  0  0  0  0  0  0  0
    1.5565   -2.2987    1.2656 C   0  0  0  0  0  0  0  0  0  0  0  0
   -1.3350   -3.0529    1.6969 H   0  0  0  0  0  0  0  0  0  0  0  0
    0.7470   -1.5285    3.1071 H   0  0  0  0  0  0  0  0  0  0  0  0
    1.2107   -2.6033    0.2727 H   0  0  0  0  0  0  0  0  0  0  0  0
    2.2764   -1.4833    1.1509 H   0  0  0  0  0  0  0  0  0  0  0  0
    2.0725   -3.1459    1.7285 H   0  0  0  0  0  0  0  0  0  0  0  0
    0.2373    0.5712    1.4020 N   0  0  0  0  0  0  0  0  0  0  0  0
   -0.0698    1.5325    0.3247 C   0  0  2  0  0  0  0  0  0  0  0  0
    0.2159    1.0104   -1.0992 C   0  0  0  0  0  0  0  0  0  0  0  0
   -0.4873    1.3678   -2.0346 O   0  0  0  0  0  0  0  0  0  0  0  0
    0.7199    2.8358    0.5505 C   0  0  0  0  0  0  0  0  0  0  0  0
    0.3603    3.5507    1.8623 C   0  0  0  0  0  0  0  0  0  0  0  0
   -1.4231    3.9973    1.9798 S   0  0  0  0  0  0  0  0  0  0  0  0
   -1.7838    4.8984    0.4188 C   0  0  0  0  0  0  0  0  0  0  0  0
    1.1194    0.6738    1.8943 H   0  0  0  0  0  0  0  0  0  0  0  0
   -1.1425    1.7547    0.3587 H   0  0  0  0  0  0  0  0  0  0  0  0
    0.5357    3.5162   -0.2870 H   0  0  0  0  0  0  0  0  0  0  0  0
    1.7918    2.6138    0.5513 H   0  0  0  0  0  0  0  0  0  0  0  0
    0.9558    4.4658    1.9405 H   0  0  0  0  0  0  0  0  0  0  0  0
    0.6208    2.9164    2.7151 H   0  0  0  0  0  0  0  0  0  0  0  0
   -2.7968    5.3103    0.4518 H   0  0  0  0  0  0  0  0  0  0  0  0
   -1.7148    4.2230   -0.4393 H   0  0  0  0  0  0  0  0  0  0  0  0
   -1.0761    5.7212    0.2819 H   0  0  0  0  0  0  0  0  0  0  0  0
    1.3933    0.3413   -1.3758 N   0  0  0  0  0  0  0  0  0  0  0  0
    1.7367   -0.2190   -2.6882 C   0  0  2  0  0  0  0  0  0  0  0  0
    2.5955   -1.4908   -2.5410 C   0  0  0  0  0  0  0  0  0  0  0  0
    3.1986   -1.7020   -1.4937 O   0  0  0  0  0  0  0  0  0  0  0  0
    2.4901    0.8444   -3.4923 C   0  0  0  0  0  0  0  0  0  0  0  0
    1.9275   -0.0048   -0.5818 H   0  0  0  0  0  0  0  0  0  0  0  0
    0.8216   -0.4973   -3.2223 H   0  0  0  0  0  0  0  0  0  0  0  0
    3.4087    1.1368   -2.9735 H   0  0  0  0  0  0  0  0  0  0  0  0
    2.7551    0.4610   -4.4822 H   0  0  0  0  0  0  0  0  0  0  0  0
    1.8654    1.7335   -3.6235 H   0  0  0  0  0  0  0  0  0  0  0  0
    2.6822   -2.4066   -3.5728 N   0  0  0  0  0  0  0  0  0  0  0  0
    3.4384   -3.6494   -3.4773 C   0  0  0  0  0  0  0  0  0  0  0  0
    2.1381   -2.2249   -4.4116 H   0  0  0  0  0  0  0  0  0  0  0  0
    4.4886   -3.4429   -3.2454 H   0  0  0  0  0  0  0  0  0  0  0  0
    3.0235   -4.2908   -2.6926 H   0  0  0  0  0  0  0  0  0  0  0  0
    3.3958   -4.1921   -4.4265 H   0  0  0  0  0  0  0  0  0  0  0  0
  1  2  2  0  0  0  0
  1  3  1  0  0  0  0
  1  7  1  0  0  0  0
  3  4  1  0  0  0  0
  3  5  1  0  0  0  0
  3  6  1  0  0  0  0
  7  8  1  0  0  0  0
  7 12  1  0  0  0  0
  8  9  1  0  0  0  0
  8 11  1  0  0  0  0
  8 13  1  0  0  0  0
  9 10  2  0  0  0  0
  9 17  1  0  0  0  0
 11 14  1  0  0  0  0
 11 15  1  0  0  0  0
 11 16  1  0  0  0  0
 17 18  1  0  0  0  0
 17 25  1  0  0  0  0
 18 19  1  0  0  0  0
 18 21  1  0  0  0  0
 18 26  1  0  0  0  0
 19 20  2  0  0  0  0
 19 34  1  0  0  0  0
 21 22  1  0  0  0  0
 21 27  1  0  0  0  0
 21 28  1  0  0  0  0
 22 23  1  0  0  0  0
 22 29  1  0  0  0  0
 22 30  1  0  0  0  0
 23 24  1  0  0  0  0
 24 31  1  0  0  0  0
 24 32  1  0  0  0  0
 24 33  1  0  0  0  0
 34 35  1  0  0  0  0
 34 39  1  0  0  0  0
 35 36  1  0  0  0  0
 35 38  1  0  0  0  0
 35 40  1  0  0  0  0
 36 37  2  0  0  0  0
 36 44  1  0  0  0  0
 38 41  1  0  0  0  0
 38 42  1  0  0  0  0
 38 43  1  0  0  0  0
 44 45  1  0  0  0  0
 44 46  1  0  0  0  0
 45 47  1  0  0  0  0
 45 48  1  0  0  0  0
 45 49  1  0  0  0  0
M  END
$$$$

  -OEChem-02062319113D

 49 48  0     1  0  0  0  0  0999 V2000
   -0.3758   -3.7893    3.3673 C   0  0  0  0  0  0  0  0  0  0  0  0
    0.5377   -3.6446    4.1643 O   0  0  0  0  0  0  0  0  0  0  0  0
   -1.4819   -4.7877    3.6512 C   0  0  0  0  0  0  0  0  0  0  0  0
   -1.5330   -5.5276    2.8488 H   0  0  0  0  0  0  0  0  0  0  0  0
   -1.2901   -5.3045    4.5956 H   0  0  0  0  0  0  0  0  0  0  0  0
   -2.4416   -4.2700    3.7218 H   0  0  0  0  0  0  0  0  0  0  0  0
   -0.4157   -3.0339    2.2150 N   0  0  0  0  0  0  0  0  0  0  0  0
    0.4791   -1.9034    1.9359 C   0  0  2  0  0  0  0  0  0  0  0  0
   -0.2966   -0.7095    1.3422 C   0  0  0  0  0  0  0  0  0  0  0  0
   -1.3680   -0.8966    0.7791 O   0  0  0  0  0  0  0  0  0  0  0  0
    1.5632   -2.3847    0.9686 C   0  0  0  0  0  0  0  0  0  0  0  0
   -1.2668   -3.0872    1.6565 H   0  0  0  0  0  0  0  0  0  0  0  0
    0.9510   -1.5569    2.8616 H   0  0  0  0  0  0  0  0  0  0  0  0
    1.1150   -2.7299    0.0312 H   0  0  0  0  0  0  0  0  0  0  0  0
    2.2656   -1.5774    0.7409 H   0  0  0  0  0  0  0  0  0  0  0  0
    2.1243   -3.2136    1.4116 H   0  0  0  0  0  0  0  0  0  0  0  0
    0.2706    0.5523    1.3105 N   0  0  0  0  0  0  0  0  0  0  0  0
   -0.2503    1.6659    0.4945 C   0  0  2  0  0  0  0  0  0  0  0  0
   -0.2654    1.3670   -1.0182 C   0  0  0  0  0  0  0  0  0  0  0  0
   -1.1403    1.8371   -1.7334 O   0  0  0  0  0  0  0  0  0  0  0  0
    0.5751    2.9406    0.7517 C   0  0  0  0  0  0  0  0  0  0  0  0
    0.5175    3.4272    2.2082 C   0  0  0  0  0  0  0  0  0  0  0  0
   -1.1967    3.7613    2.7938 S   0  0  0  0  0  0  0  0  0  0  0  0
   -1.9234    4.8572    1.5094 C   0  0  0  0  0  0  0  0  0  0  0  0
    1.1588    0.6696    1.7884 H   0  0  0  0  0  0  0  0  0  0  0  0
   -1.2916    1.8466    0.7826 H   0  0  0  0  0  0  0  0  0  0  0  0
    0.2124    3.7386    0.0959 H   0  0  0  0  0  0  0  0  0  0  0  0
    1.6198    2.7553    0.4821 H   0  0  0  0  0  0  0  0  0  0  0  0
    1.1032    4.3478    2.2961 H   0  0  0  0  0  0  0  0  0  0  0  0
    0.9756    2.6844    2.8681 H   0  0  0  0  0  0  0  0  0  0  0  0
   -2.9047    5.2135    1.8364 H   0  0  0  0  0  0  0  0  0  0  0  0
   -2.0504    4.3148    0.5676 H   0  0  0  0  0  0  0  0  0  0  0  0
   -1.2770    5.7225    1.3362 H   0  0  0  0  0  0  0  0  0  0  0  0
    0.8357    0.7765   -1.6073 N   0  0  0  0  0  0  0  0  0  0  0  0
    0.8537    0.2923   -2.9915 C   0  0  2  0  0  0  0  0  0  0  0  0
    1.6049   -1.0517   -3.0909 C   0  0  0  0  0  0  0  0  0  0  0  0
    2.3226   -1.4215   -2.1660 O   0  0  0  0  0  0  0  0  0  0  0  0
    1.5187    1.3562   -3.8685 C   0  0  0  0  0  0  0  0  0  0  0  0
    1.4788    0.3095   -0.9706 H   0  0  0  0  0  0  0  0  0  0  0  0
   -0.1705    0.1232   -3.3419 H   0  0  0  0  0  0  0  0  0  0  0  0
    2.5486    1.5330   -3.5423 H   0  0  0  0  0  0  0  0  0  0  0  0
    1.5334    1.0372   -4.9150 H   0  0  0  0  0  0  0  0  0  0  0  0
    0.9654    2.2987   -3.8030 H   0  0  0  0  0  0  0  0  0  0  0  0
    1.4649   -1.8564   -4.2062 N   0  0  0  0  0  0  0  0  0  0  0  0
    2.0988   -3.1628   -4.3347 C   0  0  0  0  0  0  0  0  0  0  0  0
    0.8236   -1.5472   -4.9313 H   0  0  0  0  0  0  0  0  0  0  0  0
    3.1848   -3.0755   -4.2253 H   0  0  0  0  0  0  0  0  0  0  0  0
    1.7213   -3.8481   -3.5688 H   0  0  0  0  0  0  0  0  0  0  0  0
    1.8859   -3.5916   -5.3185 H   0  0  0  0  0  0  0  0  0  0  0  0
  1  2  2  0  0  0  0
  1  3  1  0  0  0  0
  1  7  1  0  0  0  0
  3  4  1  0  0  0  0
  3  5  1  0  0  0  0
  3  6  1  0  0  0  0
  7  8  1  0  0  0  0
  7 12  1  0  0  0  0
  8  9  1  0  0  0  0
  8 11  1  0  0  0  0
  8 13  1  0  0  0  0
  9 10  2  0  0  0  0
  9 17  1  0  0  0  0
 11 14  1  0  0  0  0
 11 15  1  0  0  0  0
 11 16  1  0  0  0  0
 17 18  1  0  0  0  0
 17 25  1  0  0  0  0
 18 19  1  0  0  0  0
 18 21  1  0  0  0  0
 18 26  1  0  0  0  0
 19 20  2  0  0  0  0
 19 34  1  0  0  0  0
 21 22  1  0  0  0  0
 21 27  1  0  0  0  0
 21 28  1  0  0  0  0
 22 23  1  0  0  0  0
 22 29  1  0  0  0  0
 22 30  1  0  0  0  0
 23 24  1  0  0  0  0
 24 31  1  0  0  0  0
 24 32  1  0  0  0  0
 24 33  1  0  0  0  0
 34 35  1  0  0  0  0
 34 39  1  0  0  0  0
 35 36  1  0  0  0  0
 35 38  1  0  0  0  0
 35 40  1  0  0  0  0
 36 37  2  0  0  0  0
 36 44  1  0  0  0  0
 38 41  1  0  0  0  0
 38 42  1  0  0  0  0
 38 43  1  0  0  0  0
 44 45  1  0  0  0  0
 44 46  1  0  0  0  0
 45 47  1  0  0  0  0
 45 48  1  0  0  0  0
 45 49  1  0  0  0  0
M  END
$$$$
