
  -OEChem-02062319033D

 49 48  0     1  0  0  0  0  0999 V2000
   -0.0561   -5.3799    2.6949 C   0  0  0  0  0  0  0  0  0  0  0  0
    0.7325   -5.0736    3.5815 O   0  0  0  0  0  0  0  0  0  0  0  0
   -1.0067   -6.5099    2.9135 C   0  0  0  0  0  0  0  0  0  0  0  0
   -0.5910   -7.4777    2.5899 H   0  0  0  0  0  0  0  0  0  0  0  0
   -1.2629   -6.6440    3.9767 H   0  0  0  0  0  0  0  0  0  0  0  0
   -1.9729   -6.4206    2.3918 H   0  0  0  0  0  0  0  0  0  0  0  0
   -0.1735   -4.7694    1.4571 N   0  0  0  0  0  0  0  0  0  0  0  0
    0.6439   -3.6603    1.0409 C   0  0  2  0  0  0  0  0  0  0  0  0
   -0.2788   -2.5625    0.5280 C   0  0  0  0  0  0  0  0  0  0  0  0
   -1.4197   -2.7791    0.1251 O   0  0  0  0  0  0  0  0  0  0  0  0
    1.6395   -4.0779   -0.0301 C   0  0  0  0  0  0  0  0  0  0  0  0
   -0.8741   -5.1235    0.8083 H   0  0  0  0  0  0  0  0  0  0  0  0
    1.1738   -3.3062    1.9318 H   0  0  0  0  0  0  0  0  0  0  0  0
    1.1270   -4.4358   -0.9305 H   0  0  0  0  0  0  0  0  0  0  0  0
    2.2797   -3.2400   -0.3251 H   0  0  0  0  0  0  0  0  0  0  0  0
    2.2827   -4.8880    0.3303 H   0  0  0  0  0  0  0  0  0  0  0  0
    0.3351   -1.3153    0.5316 N   0  0  0  0  0  0  0  0  0  0  0  0
   -0.3308   -0.1164    0.0920 C   0  0  2  0  0  0  0  0  0  0  0  0
   -0.7418   -0.2903   -1.3669 C   0  0  0  0  0  0  0  0  0  0  0  0
   -1.8600    0.0012   -1.7862 O   0  0  0  0  0  0  0  0  0  0  0  0
    0.5225    1.1380    0.3245 C   0  0  0  0  0  0  0  0  0  0  0  0
    0.7583    1.4550    1.8031 C   0  0  0  0  0  0  0  0  0  0  0  0
   -0.8212    1.7605    2.6492 S   0  0  0  0  0  0  0  0  0  0  0  0
   -1.2436    3.3273    1.8540 C   0  0  0  0  0  0  0  0  0  0  0  0
    1.2823   -1.2306    0.8940 H   0  0  0  0  0  0  0  0  0  0  0  0
   -1.2442   -0.0435    0.6949 H   0  0  0  0  0  0  0  0  0  0  0  0
    0.0221    1.9901   -0.1549 H   0  0  0  0  0  0  0  0  0  0  0  0
    1.4894    1.0113   -0.1792 H   0  0  0  0  0  0  0  0  0  0  0  0
    1.3789    2.3486    1.9185 H   0  0  0  0  0  0  0  0  0  0  0  0
    1.2586    0.6240    2.3093 H   0  0  0  0  0  0  0  0  0  0  0  0
   -2.1979    3.6945    2.2395 H   0  0  0  0  0  0  0  0  0  0  0  0
   -1.3269    3.1845    0.7737 H   0  0  0  0  0  0  0  0  0  0  0  0
   -0.4668    4.0683    2.0578 H   0  0  0  0  0  0  0  0  0  0  0  0
    0.2741   -0.8384   -2.1368 N   0  0  0  0  0  0  0  0  0  0  0  0
    0.1210   -1.1108   -3.5467 C   0  0  2  0  0  0  0  0  0  0  0  0
    0.8192   -2.4301   -3.8493 C   0  0  0  0  0  0  0  0  0  0  0  0
    1.7088   -2.8962   -3.1405 O   0  0  0  0  0  0  0  0  0  0  0  0
    0.6951    0.0146   -4.3932 C   0  0  0  0  0  0  0  0  0  0  0  0
    1.1785   -1.0234   -1.7132 H   0  0  0  0  0  0  0  0  0  0  0  0
   -0.9533   -1.2141   -3.7341 H   0  0  0  0  0  0  0  0  0  0  0  0
    1.7708    0.1333   -4.2190 H   0  0  0  0  0  0  0  0  0  0  0  0
    0.5527   -0.1800   -5.4613 H   0  0  0  0  0  0  0  0  0  0  0  0
    0.2124    0.9681   -4.1530 H   0  0  0  0  0  0  0  0  0  0  0  0
    0.3622   -3.0043   -5.0272 N   0  0  0  0  0  0  0  0  0  0  0  0
    0.8779   -4.2533   -5.5371 C   0  0  0  0  0  0  0  0  0  0  0  0
   -0.3916   -2.5577   -5.5412 H   0  0  0  0  0  0  0  0  0  0  0  0
    1.7039   -4.0519   -6.2350 H   0  0  0  0  0  0  0  0  0  0  0  0
    1.2456   -4.8665   -4.7012 H   0  0  0  0  0  0  0  0  0  0  0  0
    0.0769   -4.7931   -6.0633 H   0  0  0  0  0  0  0  0  0  0  0  0
  1  3  1  0  0  0  0
  1  7  1  0  0  0  0
  1  2  2  0  0  0  0
 35 36  1  0  0  0  0
 36 44  1  0  0  0  0
 36 37  2  0  0  0  0
  8  9  1  0  0  0  0
  9 17  1  0  0  0  0
  9 10  2  0  0  0  0
 18 19  1  0  0  0  0
 19 34  1  0  0  0  0
 19 20  2  0  0  0  0
 35 38  1  0  0  0  0
  8 11  1  0  0  0  0
 44 45  1  0  0  0  0
 23 24  1  0  0  0  0
 21 22  1  0  0  0  0
 18 21  1  0  0  0  0
 22 23  1  0  0  0  0
 34 35  1  0  0  0  0
  7  8  1  0  0  0  0
 17 18  1  0  0  0  0
  3  4  1  0  0  0  0
  3  5  1  0  0  0  0
  3  6  1  0  0  0  0
 38 41  1  0  0  0  0
 38 42  1  0  0  0  0
 38 43  1  0  0  0  0
 11 14  1  0  0  0  0
 11 15  1  0  0  0  0
 11 16  1  0  0  0  0
 45 47  1  0  0  0  0
 45 48  1  0  0  0  0
 45 49  1  0  0  0  0
 24 31  1  0  0  0  0
 24 32  1  0  0  0  0
 24 33  1  0  0  0  0
 21 27  1  0  0  0  0
 21 28  1  0  0  0  0
 22 29  1  0  0  0  0
 22 30  1  0  0  0  0
 35 40  1  0  0  0  0
  8 13  1  0  0  0  0
 18 26  1  0  0  0  0
 44 46  1  0  0  0  0
  7 12  1  0  0  0  0
 34 39  1  0  0  0  0
 17 25  1  0  0  0  0
M  END
$$$$

  -OEChem-02062319033D

 49 48  0     1  0  0  0  0  0999 V2000
   -0.0561   -5.3799    2.6949 C   0  0  0  0  0  0  0  0  0  0  0  0
    0.7325   -5.0736    3.5815 O   0  0  0  0  0  0  0  0  0  0  0  0
   -1.0067   -6.5099    2.9135 C   0  0  0  0  0  0  0  0  0  0  0  0
   -0.5910   -7.4777    2.5899 H   0  0  0  0  0  0  0  0  0  0  0  0
   -1.2629   -6.6440    3.9767 H   0  0  0  0  0  0  0  0  0  0  0  0
   -1.9729   -6.4206    2.3918 H   0  0  0  0  0  0  0  0  0  0  0  0
   -0.1735   -4.7694    1.4571 N   0  0  0  0  0  0  0  0  0  0  0  0
    0.6439   -3.6603    1.0409 C   0  0  2  0  0  0  0  0  0  0  0  0
   -0.2788   -2.5625    0.5280 C   0  0  0  0  0  0  0  0  0  0  0  0
   -1.4197   -2.7791    0.1251 O   0  0  0  0  0  0  0  0  0  0  0  0
    1.6395   -4.0779   -0.0301 C   0  0  0  0  0  0  0  0  0  0  0  0
   -0.8741   -5.1235    0.8083 H   0  0  0  0  0  0  0  0  0  0  0  0
    1.1738   -3.3062    1.9318 H   0  0  0  0  0  0  0  0  0  0  0  0
    1.1270   -4.4358   -0.9305 H   0  0  0  0  0  0  0  0  0  0  0  0
    2.2797   -3.2400   -0.3251 H   0  0  0  0  0  0  0  0  0  0  0  0
    2.2827   -4.8880    0.3303 H   0  0  0  0  0  0  0  0  0  0  0  0
    0.3351   -1.3153    0.5316 N   0  0  0  0  0  0  0  0  0  0  0  0
   -0.3993   -0.0836    0.3987 C   0  0  2  0  0  0  0  0  0  0  0  0
   -1.1400   -0.0955   -0.9350 C   0  0  0  0  0  0  0  0  0  0  0  0
   -2.3212    0.2262   -1.0470 O   0  0  0  0  0  0  0  0  0  0  0  0
    0.5007    1.1480    0.5686 C   0  0  0  0  0  0  0  0  0  0  0  0
    1.0776    1.2973    1.9784 C   0  0  0  0  0  0  0  0  0  0  0  0
   -0.2581    1.4819    3.1973 S   0  0  0  0  0  0  0  0  0  0  0  0
   -0.8336    3.1230    2.7064 C   0  0  0  0  0  0  0  0  0  0  0  0
    1.3416   -1.2591    0.6715 H   0  0  0  0  0  0  0  0  0  0  0  0
   -1.1466   -0.0930    1.2015 H   0  0  0  0  0  0  0  0  0  0  0  0
   -0.0863    2.0421    0.3193 H   0  0  0  0  0  0  0  0  0  0  0  0
    1.3225    1.0933   -0.1569 H   0  0  0  0  0  0  0  0  0  0  0  0
    1.7194    2.1806    2.0480 H   0  0  0  0  0  0  0  0  0  0  0  0
    1.6710    0.4212    2.2561 H   0  0  0  0  0  0  0  0  0  0  0  0
   -1.6674    3.4302    3.3424 H   0  0  0  0  0  0  0  0  0  0  0  0
   -1.1673    3.1034    1.6660 H   0  0  0  0  0  0  0  0  0  0  0  0
   -0.0212    3.8468    2.8077 H   0  0  0  0  0  0  0  0  0  0  0  0
   -0.3379   -0.5376   -1.9771 N   0  0  0  0  0  0  0  0  0  0  0  0
   -0.8176   -0.6494   -3.3346 C   0  0  2  0  0  0  0  0  0  0  0  0
   -0.2258   -1.9154   -3.9399 C   0  0  0  0  0  0  0  0  0  0  0  0
    0.7980   -2.4469   -3.5151 O   0  0  0  0  0  0  0  0  0  0  0  0
   -0.4415    0.5734   -4.1569 C   0  0  0  0  0  0  0  0  0  0  0  0
    0.6378   -0.7570   -1.7991 H   0  0  0  0  0  0  0  0  0  0  0  0
   -1.9074   -0.7458   -3.2780 H   0  0  0  0  0  0  0  0  0  0  0  0
    0.6466    0.6866   -4.2248 H   0  0  0  0  0  0  0  0  0  0  0  0
   -0.8305    0.5000   -5.1778 H   0  0  0  0  0  0  0  0  0  0  0  0
   -0.8429    1.4863   -3.7037 H   0  0  0  0  0  0  0  0  0  0  0  0
   -0.9513   -2.3577   -5.0373 N   0  0  0  0  0  0  0  0  0  0  0  0
   -0.5842   -3.5329   -5.7924 C   0  0  0  0  0  0  0  0  0  0  0  0
   -1.7981   -1.8661   -5.3076 H   0  0  0  0  0  0  0  0  0  0  0  0
    0.0597   -3.2414   -6.6353 H   0  0  0  0  0  0  0  0  0  0  0  0
   -0.0403   -4.2323   -5.1404 H   0  0  0  0  0  0  0  0  0  0  0  0
   -1.4924   -4.0204   -6.1764 H   0  0  0  0  0  0  0  0  0  0  0  0
  1  3  1  0  0  0  0
  1  7  1  0  0  0  0
  1  2  2  0  0  0  0
 35 36  1  0  0  0  0
 36 44  1  0  0  0  0
 36 37  2  0  0  0  0
  8  9  1  0  0  0  0
  9 17  1  0  0  0  0
  9 10  2  0  0  0  0
 18 19  1  0  0  0  0
 19 34  1  0  0  0  0
 19 20  2  0  0  0  0
 35 38  1  0  0  0  0
  8 11  1  0  0  0  0
 44 45  1  0  0  0  0
 23 24  1  0  0  0  0
 21 22  1  0  0  0  0
 18 21  1  0  0  0  0
 22 23  1  0  0  0  0
 34 35  1  0  0  0  0
  7  8  1  0  0  0  0
 17 18  1  0  0  0  0
  3  4  1  0  0  0  0
  3  5  1  0  0  0  0
  3  6  1  0  0  0  0
 38 41  1  0  0  0  0
 38 42  1  0  0  0  0
 38 43  1  0  0  0  0
 11 14  1  0  0  0  0
 11 15  1  0  0  0  0
 11 16  1  0  0  0  0
 45 47  1  0  0  0  0
 45 48  1  0  0  0  0
 45 49  1  0  0  0  0
 24 31  1  0  0  0  0
 24 32  1  0  0  0  0
 24 33  1  0  0  0  0
 21 27  1  0  0  0  0
 21 28  1  0  0  0  0
 22 29  1  0  0  0  0
 22 30  1  0  0  0  0
 35 40  1  0  0  0  0
  8 13  1  0  0  0  0
 18 26  1  0  0  0  0
 44 46  1  0  0  0  0
  7 12  1  0  0  0  0
 34 39  1  0  0  0  0
 17 25  1  0  0  0  0
M  END
$$$$

  -OEChem-02062319033D

 49 48  0     1  0  0  0  0  0999 V2000
   -0.0561   -5.3799    2.6949 C   0  0  0  0  0  0  0  0  0  0  0  0
    0.7325   -5.0736    3.5815 O   0  0  0  0  0  0  0  0  0  0  0  0
   -1.0067   -6.5099    2.9135 C   0  0  0  0  0  0  0  0  0  0  0  0
   -0.5910   -7.4777    2.5899 H   0  0  0  0  0  0  0  0  0  0  0  0
   -1.2629   -6.6440    3.9767 H   0  0  0  0  0  0  0  0  0  0  0  0
   -1.9729   -6.4206    2.3918 H   0  0  0  0  0  0  0  0  0  0  0  0
   -0.1735   -4.7694    1.4571 N   0  0  0  0  0  0  0  0  0  0  0  0
    0.6439   -3.6603    1.0409 C   0  0  2  0  0  0  0  0  0  0  0  0
   -0.2788   -2.5625    0.5280 C   0  0  0  0  0  0  0  0  0  0  0  0
   -1.4197   -2.7791    0.1251 O   0  0  0  0  0  0  0  0  0  0  0  0
    1.6395   -4.0779   -0.0301 C   0  0  0  0  0  0  0  0  0  0  0  0
   -0.8741   -5.1235    0.8083 H   0  0  0  0  0  0  0  0  0  0  0  0
    1.1738   -3.3062    1.9318 H   0  0  0  0  0  0  0  0  0  0  0  0
    1.1270   -4.4358   -0.9305 H   0  0  0  0  0  0  0  0  0  0  0  0
    2.2797   -3.2400   -0.3251 H   0  0  0  0  0  0  0  0  0  0  0  0
    2.2827   -4.8880    0.3303 H   0  0  0  0  0  0  0  0  0  0  0  0
    0.3351   -1.3153    0.5316 N   0  0  0  0  0  0  0  0  0  0  0  0
   -0.3942   -0.0870    0.7146 C   0  0  2  0  0  0  0  0  0  0  0  0
   -1.4245    0.0430   -0.4030 C   0  0  0  0  0  0  0  0  0  0  0  0
   -2.5952    0.3586   -0.2001 O   0  0  0  0  0  0  0  0  0  0  0  0
    0.5364    1.1297    0.8106 C   0  0  0  0  0  0  0  0  0  0  0  0
    1.4268    1.1252    2.0555 C   0  0  0  0  0  0  0  0  0  0  0  0
    0.4132    1.1504    3.5641 S   0  0  0  0  0  0  0  0  0  0  0  0
   -0.2394    2.8286    3.4113 C   0  0  0  0  0  0  0  0  0  0  0  0
    1.3472   -1.2612    0.4395 H   0  0  0  0  0  0  0  0  0  0  0  0
   -0.9347   -0.1986    1.6625 H   0  0  0  0  0  0  0  0  0  0  0  0
   -0.0809    2.0381    0.8083 H   0  0  0  0  0  0  0  0  0  0  0  0
    1.1665    1.1700   -0.0872 H   0  0  0  0  0  0  0  0  0  0  0  0
    2.0785    2.0038    2.0747 H   0  0  0  0  0  0  0  0  0  0  0  0
    2.0572    0.2316    2.0858 H   0  0  0  0  0  0  0  0  0  0  0  0
   -0.8987    3.0493    4.2543 H   0  0  0  0  0  0  0  0  0  0  0  0
   -0.8059    2.9232    2.4816 H   0  0  0  0  0  0  0  0  0  0  0  0
    0.5835    3.5475    3.4033 H   0  0  0  0  0  0  0  0  0  0  0  0
   -0.8921   -0.2658   -1.6465 N   0  0  0  0  0  0  0  0  0  0  0  0
   -1.6754   -0.2285   -2.8591 C   0  0  2  0  0  0  0  0  0  0  0  0
   -1.2567   -1.4087   -3.7260 C   0  0  0  0  0  0  0  0  0  0  0  0
   -0.1691   -1.9706   -3.6141 O   0  0  0  0  0  0  0  0  0  0  0  0
   -1.4848    1.0854   -3.6008 C   0  0  0  0  0  0  0  0  0  0  0  0
    0.0953   -0.4902   -1.7261 H   0  0  0  0  0  0  0  0  0  0  0  0
   -2.7233   -0.3462   -2.5624 H   0  0  0  0  0  0  0  0  0  0  0  0
   -0.4409    1.2209   -3.9061 H   0  0  0  0  0  0  0  0  0  0  0  0
   -2.1012    1.1236   -4.5050 H   0  0  0  0  0  0  0  0  0  0  0  0
   -1.7583    1.9347   -2.9655 H   0  0  0  0  0  0  0  0  0  0  0  0
   -2.2228   -1.7330   -4.6681 N   0  0  0  0  0  0  0  0  0  0  0  0
   -2.0562   -2.8089   -5.6171 C   0  0  0  0  0  0  0  0  0  0  0  0
   -3.1028   -1.2257   -4.6764 H   0  0  0  0  0  0  0  0  0  0  0  0
   -1.6220   -2.4140   -6.5474 H   0  0  0  0  0  0  0  0  0  0  0  0
   -1.3848   -3.5704   -5.1936 H   0  0  0  0  0  0  0  0  0  0  0  0
   -3.0349   -3.2621   -5.8329 H   0  0  0  0  0  0  0  0  0  0  0  0
  1  3  1  0  0  0  0
  1  7  1  0  0  0  0
  1  2  2  0  0  0  0
 35 36  1  0  0  0  0
 36 44  1  0  0  0  0
 36 37  2  0  0  0  0
  8  9  1  0  0  0  0
  9 17  1  0  0  0  0
  9 10  2  0  0  0  0
 18 19  1  0  0  0  0
 19 34  1  0  0  0  0
 19 20  2  0  0  0  0
 35 38  1  0  0  0  0
  8 11  1  0  0  0  0
 44 45  1  0  0  0  0
 23 24  1  0  0  0  0
 21 22  1  0  0  0  0
 18 21  1  0  0  0  0
 22 23  1  0  0  0  0
 34 35  1  0  0  0  0
  7  8  1  0  0  0  0
 17 18  1  0  0  0  0
  3  4  1  0  0  0  0
  3  5  1  0  0  0  0
  3  6  1  0  0  0  0
 38 41  1  0  0  0  0
 38 42  1  0  0  0  0
 38 43  1  0  0  0  0
 11 14  1  0  0  0  0
 11 15  1  0  0  0  0
 11 16  1  0  0  0  0
 45 47  1  0  0  0  0
 45 48  1  0  0  0  0
 45 49  1  0  0  0  0
 24 31  1  0  0  0  0
 24 32  1  0  0  0  0
 24 33  1  0  0  0  0
 21 27  1  0  0  0  0
 21 28  1  0  0  0  0
 22 29  1  0  0  0  0
 22 30  1  0  0  0  0
 35 40  1  0  0  0  0
  8 13  1  0  0  0  0
 18 26  1  0  0  0  0
 44 46  1  0  0  0  0
  7 12  1  0  0  0  0
 34 39  1  0  0  0  0
 17 25  1  0  0  0  0
M  END
$$$$

  -OEChem-02062319033D

 49 48  0     1  0  0  0  0  0999 V2000
   -0.0561   -5.3799    2.6949 C   0  0  0  0  0  0  0  0  0  0  0  0
    0.7325   -5.0736    3.5815 O   0  0  0  0  0  0  0  0  0  0  0  0
   -1.0067   -6.5099    2.9135 C   0  0  0  0  0  0  0  0  0  0  0  0
   -0.5910   -7.4777    2.5899 H   0  0  0  0  0  0  0  0  0  0  0  0
   -1.2629   -6.6440    3.9767 H   0  0  0  0  0  0  0  0  0  0  0  0
   -1.9729   -6.4206    2.3918 H   0  0  0  0  0  0  0  0  0  0  0  0
   -0.1735   -4.7694    1.4571 N   0  0  0  0  0  0  0  0  0  0  0  0
    0.6439   -3.6603    1.0409 C   0  0  2  0  0  0  0  0  0  0  0  0
   -0.2788   -2.5625    0.5280 C   0  0  0  0  0  0  0  0  0  0  0  0
   -1.4197   -2.7791    0.1251 O   0  0  0  0  0  0  0  0  0  0  0  0
    1.6395   -4.0779   -0.0301 C   0  0  0  0  0  0  0  0  0  0  0  0
   -0.8741   -5.1235    0.8083 H   0  0  0  0  0  0  0  0  0  0  0  0
    1.1738   -3.3062    1.9318 H   0  0  0  0  0  0  0  0  0  0  0  0
    1.1270   -4.4358   -0.9305 H   0  0  0  0  0  0  0  0  0  0  0  0
    2.2797   -3.2400   -0.3251 H   0  0  0  0  0  0  0  0  0  0  0  0
    2.2827   -4.8880    0.3303 H   0  0  0  0  0  0  0  0  0  0  0  0
    0.3351   -1.3153    0.5316 N   0  0  0  0  0  0  0  0  0  0  0  0
   -0.3159   -0.1264    1.0182 C   0  0  2  0  0  0  0  0  0  0  0  0
   -1.5758    0.1158    0.1928 C   0  0  0  0  0  0  0  0  0  0  0  0
   -2.6633    0.3896    0.6966 O   0  0  0  0  0  0  0  0  0  0  0  0
    0.6271    1.0845    1.0340 C   0  0  0  0  0  0  0  0  0  0  0  0
    1.7822    0.9504    2.0292 C   0  0  0  0  0  0  0  0  0  0  0  0
    1.1470    0.7888    3.7247 S   0  0  0  0  0  0  0  0  0  0  0  0
    0.4984    2.4640    3.9205 C   0  0  0  0  0  0  0  0  0  0  0  0
    1.2987   -1.2367    0.2138 H   0  0  0  0  0  0  0  0  0  0  0  0
   -0.6228   -0.3532    2.0465 H   0  0  0  0  0  0  0  0  0  0  0  0
    0.0378    1.9783    1.2790 H   0  0  0  0  0  0  0  0  0  0  0  0
    1.0319    1.2359    0.0251 H   0  0  0  0  0  0  0  0  0  0  0  0
    2.4317    1.8301    1.9970 H   0  0  0  0  0  0  0  0  0  0  0  0
    2.3908    0.0682    1.8099 H   0  0  0  0  0  0  0  0  0  0  0  0
    0.0558    2.5776    4.9131 H   0  0  0  0  0  0  0  0  0  0  0  0
   -0.2673    2.6562    3.1648 H   0  0  0  0  0  0  0  0  0  0  0  0
    1.3061    3.1907    3.8039 H   0  0  0  0  0  0  0  0  0  0  0  0
   -1.3508   -0.0414   -1.1673 N   0  0  0  0  0  0  0  0  0  0  0  0
   -2.3938    0.1231   -2.1525 C   0  0  2  0  0  0  0  0  0  0  0  0
   -2.2030   -0.9443   -3.2220 C   0  0  0  0  0  0  0  0  0  0  0  0
   -1.1265   -1.4999   -3.4307 O   0  0  0  0  0  0  0  0  0  0  0  0
   -2.3638    1.5156   -2.7629 C   0  0  0  0  0  0  0  0  0  0  0  0
   -0.4119   -0.2412   -1.4992 H   0  0  0  0  0  0  0  0  0  0  0  0
   -3.3456   -0.0426   -1.6361 H   0  0  0  0  0  0  0  0  0  0  0  0
   -1.4177    1.6999   -3.2846 H   0  0  0  0  0  0  0  0  0  0  0  0
   -3.1728    1.6481   -3.4888 H   0  0  0  0  0  0  0  0  0  0  0  0
   -2.4713    2.2829   -1.9886 H   0  0  0  0  0  0  0  0  0  0  0  0
   -3.3656   -1.1725   -3.9448 N   0  0  0  0  0  0  0  0  0  0  0  0
   -3.4378   -2.1305   -5.0232 C   0  0  0  0  0  0  0  0  0  0  0  0
   -4.2169   -0.6801   -3.6905 H   0  0  0  0  0  0  0  0  0  0  0  0
   -3.2265   -1.6258   -5.9775 H   0  0  0  0  0  0  0  0  0  0  0  0
   -2.6963   -2.9259   -4.8572 H   0  0  0  0  0  0  0  0  0  0  0  0
   -4.4457   -2.5700   -5.0562 H   0  0  0  0  0  0  0  0  0  0  0  0
  1  3  1  0  0  0  0
  1  7  1  0  0  0  0
  1  2  2  0  0  0  0
 35 36  1  0  0  0  0
 36 44  1  0  0  0  0
 36 37  2  0  0  0  0
  8  9  1  0  0  0  0
  9 17  1  0  0  0  0
  9 10  2  0  0  0  0
 18 19  1  0  0  0  0
 19 34  1  0  0  0  0
 19 20  2  0  0  0  0
 35 38  1  0  0  0  0
  8 11  1  0  0  0  0
 44 45  1  0  0  0  0
 23 24  1  0  0  0  0
 21 22  1  0  0  0  0
 18 21  1  0  0  0  0
 22 23  1  0  0  0  0
 34 35  1  0  0  0  0
  7  8  1  0  0  0  0
 17 18  1  0  0  0  0
  3  4  1  0  0  0  0
  3  5  1  0  0  0  0
  3  6  1  0  0  0  0
 38 41  1  0  0  0  0
 38 42  1  0  0  0  0
 38 43  1  0  0  0  0
 11 14  1  0  0  0  0
 11 15  1  0  0  0  0
 11 16  1  0  0  0  0
 45 47  1  0  0  0  0
 45 48  1  0  0  0  0
 45 49  1  0  0  0  0
 24 31  1  0  0  0  0
 24 32  1  0  0  0  0
 24 33  1  0  0  0  0
 21 27  1  0  0  0  0
 21 28  1  0  0  0  0
 22 29  1  0  0  0  0
 22 30  1  0  0  0  0
 35 40  1  0  0  0  0
  8 13  1  0  0  0  0
 18 26  1  0  0  0  0
 44 46  1  0  0  0  0
  7 12  1  0  0  0  0
 34 39  1  0  0  0  0
 17 25  1  0  0  0  0
M  END
$$$$

  -OEChem-02062319033D

 49 48  0     1  0  0  0  0  0999 V2000
   -0.0561   -5.3799    2.6949 C   0  0  0  0  0  0  0  0  0  0  0  0
    0.7325   -5.0736    3.5815 O   0  0  0  0  0  0  0  0  0  0  0  0
   -1.0067   -6.5099    2.9135 C   0  0  0  0  0  0  0  0  0  0  0  0
   -0.5910   -7.4777    2.5899 H   0  0  0  0  0  0  0  0  0  0  0  0
   -1.2629   -6.6440    3.9767 H   0  0  0  0  0  0  0  0  0  0  0  0
   -1.9729   -6.4206    2.3918 H   0  0  0  0  0  0  0  0  0  0  0  0
   -0.1735   -4.7694    1.4571 N   0  0  0  0  0  0  0  0  0  0  0  0
    0.6439   -3.6603    1.0409 C   0  0  2  0  0  0  0  0  0  0  0  0
   -0.2788   -2.5625    0.5280 C   0  0  0  0  0  0  0  0  0  0  0  0
   -1.4197   -2.7791    0.1251 O   0  0  0  0  0  0  0  0  0  0  0  0
    1.6395   -4.0779   -0.0301 C   0  0  0  0  0  0  0  0  0  0  0  0
   -0.8741   -5.1235    0.8083 H   0  0  0  0  0  0  0  0  0  0  0  0
    1.1738   -3.3062    1.9318 H   0  0  0  0  0  0  0  0  0  0  0  0
    1.1270   -4.4358   -0.9305 H   0  0  0  0  0  0  0  0  0  0  0  0
    2.2797   -3.2400   -0.3251 H   0  0  0  0  0  0  0  0  0  0  0  0
    2.2827   -4.8880    0.3303 H   0  0  0  0  0  0  0  0  0  0  0  0
    0.3351   -1.3153    0.5316 N   0  0  0  0  0  0  0  0  0  0  0  0
   -0.1698   -0.1991    1.2887 C   0  0  2  0  0  0  0  0  0  0  0  0
   -1.5837    0.1180    0.8117 C   0  0  0  0  0  0  0  0  0  0  0  0
   -2.5208    0.3169    1.5821 O   0  0  0  0  0  0  0  0  0  0  0  0
    0.7666    1.0153    1.2236 C   0  0  0  0  0  0  0  0  0  0  0  0
    2.1194    0.7848    1.9014 C   0  0  0  0  0  0  0  0  0  0  0  0
    1.8934    0.4216    3.6680 S   0  0  0  0  0  0  0  0  0  0  0  0
    1.3296    2.0541    4.1994 C   0  0  0  0  0  0  0  0  0  0  0  0
    1.1995   -1.1873    0.0099 H   0  0  0  0  0  0  0  0  0  0  0  0
   -0.2324   -0.5462    2.3273 H   0  0  0  0  0  0  0  0  0  0  0  0
    0.2619    1.8668    1.6993 H   0  0  0  0  0  0  0  0  0  0  0  0
    0.9279    1.2866    0.1724 H   0  0  0  0  0  0  0  0  0  0  0  0
    2.7550    1.6715    1.8200 H   0  0  0  0  0  0  0  0  0  0  0  0
    2.6491   -0.0579    1.4473 H   0  0  0  0  0  0  0  0  0  0  0  0
    1.1311    2.0473    5.2739 H   0  0  0  0  0  0  0  0  0  0  0  0
    0.4119    2.3205    3.6692 H   0  0  0  0  0  0  0  0  0  0  0  0
    2.0973    2.8007    3.9824 H   0  0  0  0  0  0  0  0  0  0  0  0
   -1.6827    0.1203   -0.5723 N   0  0  0  0  0  0  0  0  0  0  0  0
   -2.9238    0.3814   -1.2629 C   0  0  2  0  0  0  0  0  0  0  0  0
   -3.0004   -0.5540   -2.4624 C   0  0  0  0  0  0  0  0  0  0  0  0
   -2.0090   -1.0668   -2.9775 O   0  0  0  0  0  0  0  0  0  0  0  0
   -3.0186    1.8349   -1.7002 C   0  0  0  0  0  0  0  0  0  0  0  0
   -0.8492   -0.0270   -1.1337 H   0  0  0  0  0  0  0  0  0  0  0  0
   -3.7317    0.1444   -0.5621 H   0  0  0  0  0  0  0  0  0  0  0  0
   -2.2172    2.0910   -2.4028 H   0  0  0  0  0  0  0  0  0  0  0  0
   -3.9723    2.0380   -2.1984 H   0  0  0  0  0  0  0  0  0  0  0  0
   -2.9334    2.5071   -0.8396 H   0  0  0  0  0  0  0  0  0  0  0  0
   -4.3019   -0.7146   -2.9167 N   0  0  0  0  0  0  0  0  0  0  0  0
   -4.6349   -1.5441   -4.0512 C   0  0  0  0  0  0  0  0  0  0  0  0
   -5.0644   -0.2666   -2.4171 H   0  0  0  0  0  0  0  0  0  0  0  0
   -4.6446   -0.9307   -4.9643 H   0  0  0  0  0  0  0  0  0  0  0  0
   -3.8854   -2.3426   -4.1539 H   0  0  0  0  0  0  0  0  0  0  0  0
   -5.6284   -1.9911   -3.8994 H   0  0  0  0  0  0  0  0  0  0  0  0
  1  3  1  0  0  0  0
  1  7  1  0  0  0  0
  1  2  2  0  0  0  0
 35 36  1  0  0  0  0
 36 44  1  0  0  0  0
 36 37  2  0  0  0  0
  8  9  1  0  0  0  0
  9 17  1  0  0  0  0
  9 10  2  0  0  0  0
 18 19  1  0  0  0  0
 19 34  1  0  0  0  0
 19 20  2  0  0  0  0
 35 38  1  0  0  0  0
  8 11  1  0  0  0  0
 44 45  1  0  0  0  0
 23 24  1  0  0  0  0
 21 22  1  0  0  0  0
 18 21  1  0  0  0  0
 22 23  1  0  0  0  0
 34 35  1  0  0  0  0
  7  8  1  0  0  0  0
 17 18  1  0  0  0  0
  3  4  1  0  0  0  0
  3  5  1  0  0  0  0
  3  6  1  0  0  0  0
 38 41  1  0  0  0  0
 38 42  1  0  0  0  0
 38 43  1  0  0  0  0
 11 14  1  0  0  0  0
 11 15  1  0  0  0  0
 11 16  1  0  0  0  0
 45 47  1  0  0  0  0
 45 48  1  0  0  0  0
 45 49  1  0  0  0  0
 24 31  1  0  0  0  0
 24 32  1  0  0  0  0
 24 33  1  0  0  0  0
 21 27  1  0  0  0  0
 21 28  1  0  0  0  0
 22 29  1  0  0  0  0
 22 30  1  0  0  0  0
 35 40  1  0  0  0  0
  8 13  1  0  0  0  0
 18 26  1  0  0  0  0
 44 46  1  0  0  0  0
  7 12  1  0  0  0  0
 34 39  1  0  0  0  0
 17 25  1  0  0  0  0
M  END
$$$$

  -OEChem-02062319033D

 49 48  0     1  0  0  0  0  0999 V2000
   -0.0561   -5.3799    2.6949 C   0  0  0  0  0  0  0  0  0  0  0  0
    0.7325   -5.0736    3.5815 O   0  0  0  0  0  0  0  0  0  0  0  0
   -1.0067   -6.5099    2.9135 C   0  0  0  0  0  0  0  0  0  0  0  0
   -0.5910   -7.4777    2.5899 H   0  0  0  0  0  0  0  0  0  0  0  0
   -1.2629   -6.6440    3.9767 H   0  0  0  0  0  0  0  0  0  0  0  0
   -1.9729   -6.4206    2.3918 H   0  0  0  0  0  0  0  0  0  0  0  0
   -0.1735   -4.7694    1.4571 N   0  0  0  0  0  0  0  0  0  0  0  0
    0.6439   -3.6603    1.0409 C   0  0  2  0  0  0  0  0  0  0  0  0
   -0.2788   -2.5625    0.5280 C   0  0  0  0  0  0  0  0  0  0  0  0
   -1.4197   -2.7791    0.1251 O   0  0  0  0  0  0  0  0  0  0  0  0
    1.6395   -4.0779   -0.0301 C   0  0  0  0  0  0  0  0  0  0  0  0
   -0.8741   -5.1235    0.8083 H   0  0  0  0  0  0  0  0  0  0  0  0
    1.1738   -3.3062    1.9318 H   0  0  0  0  0  0  0  0  0  0  0  0
    1.1270   -4.4358   -0.9305 H   0  0  0  0  0  0  0  0  0  0  0  0
    2.2797   -3.2400   -0.3251 H   0  0  0  0  0  0  0  0  0  0  0  0
    2.2827   -4.8880    0.3303 H   0  0  0  0  0  0  0  0  0  0  0  0
    0.3351   -1.3153    0.5316 N   0  0  0  0  0  0  0  0  0  0  0  0
    0.0343   -0.3002    1.5078 C   0  0  2  0  0  0  0  0  0  0  0  0
   -1.4476    0.0493    1.4116 C   0  0  0  0  0  0  0  0  0  0  0  0
   -2.1775    0.1457    2.3961 O   0  0  0  0  0  0  0  0  0  0  0  0
    0.9454    0.9268    1.3664 C   0  0  0  0  0  0  0  0  0  0  0  0
    2.4156    0.6396    1.6806 C   0  0  0  0  0  0  0  0  0  0  0  0
    2.6014    0.0738    3.3980 S   0  0  0  0  0  0  0  0  0  0  0  0
    2.1974    1.6269    4.2289 C   0  0  0  0  0  0  0  0  0  0  0  0
    1.0563   -1.1163   -0.1584 H   0  0  0  0  0  0  0  0  0  0  0  0
    0.2101   -0.7644    2.4858 H   0  0  0  0  0  0  0  0  0  0  0  0
    0.5760    1.7113    2.0405 H   0  0  0  0  0  0  0  0  0  0  0  0
    0.8617    1.3188    0.3446 H   0  0  0  0  0  0  0  0  0  0  0  0
    3.0262    1.5388    1.5559 H   0  0  0  0  0  0  0  0  0  0  0  0
    2.8145   -0.1381    1.0227 H   0  0  0  0  0  0  0  0  0  0  0  0
    2.2539    1.4946    5.3121 H   0  0  0  0  0  0  0  0  0  0  0  0
    1.1852    1.9390    3.9603 H   0  0  0  0  0  0  0  0  0  0  0  0
    2.9033    2.4042    3.9264 H   0  0  0  0  0  0  0  0  0  0  0  0
   -1.8653    0.2083    0.0980 N   0  0  0  0  0  0  0  0  0  0  0  0
   -3.2294    0.5290   -0.2511 C   0  0  2  0  0  0  0  0  0  0  0  0
   -3.5945   -0.2643   -1.4988 C   0  0  0  0  0  0  0  0  0  0  0  0
   -2.7565   -0.7008   -2.2852 O   0  0  0  0  0  0  0  0  0  0  0  0
   -3.4045    2.0214   -0.4852 C   0  0  0  0  0  0  0  0  0  0  0  0
   -1.1870    0.1379   -0.6546 H   0  0  0  0  0  0  0  0  0  0  0  0
   -3.8554    0.2021    0.5864 H   0  0  0  0  0  0  0  0  0  0  0  0
   -2.7849    2.3674   -1.3206 H   0  0  0  0  0  0  0  0  0  0  0  0
   -4.4451    2.2665   -0.7218 H   0  0  0  0  0  0  0  0  0  0  0  0
   -3.1132    2.5921    0.4032 H   0  0  0  0  0  0  0  0  0  0  0  0
   -4.9679   -0.3904   -1.6539 N   0  0  0  0  0  0  0  0  0  0  0  0
   -5.5659   -1.0895   -2.7673 C   0  0  0  0  0  0  0  0  0  0  0  0
   -5.5877   -0.0132   -0.9430 H   0  0  0  0  0  0  0  0  0  0  0  0
   -5.7794   -0.3761   -3.5769 H   0  0  0  0  0  0  0  0  0  0  0  0
   -4.8710   -1.8604   -3.1319 H   0  0  0  0  0  0  0  0  0  0  0  0
   -6.5026   -1.5649   -2.4411 H   0  0  0  0  0  0  0  0  0  0  0  0
  1  3  1  0  0  0  0
  1  7  1  0  0  0  0
  1  2  2  0  0  0  0
 35 36  1  0  0  0  0
 36 44  1  0  0  0  0
 36 37  2  0  0  0  0
  8  9  1  0  0  0  0
  9 17  1  0  0  0  0
  9 10  2  0  0  0  0
 18 19  1  0  0  0  0
 19 34  1  0  0  0  0
 19 20  2  0  0  0  0
 35 38  1  0  0  0  0
  8 11  1  0  0  0  0
 44 45  1  0  0  0  0
 23 24  1  0  0  0  0
 21 22  1  0  0  0  0
 18 21  1  0  0  0  0
 22 23  1  0  0  0  0
 34 35  1  0  0  0  0
  7  8  1  0  0  0  0
 17 18  1  0  0  0  0
  3  4  1  0  0  0  0
  3  5  1  0  0  0  0
  3  6  1  0  0  0  0
 38 41  1  0  0  0  0
 38 42  1  0  0  0  0
 38 43  1  0  0  0  0
 11 14  1  0  0  0  0
 11 15  1  0  0  0  0
 11 16  1  0  0  0  0
 45 47  1  0  0  0  0
 45 48  1  0  0  0  0
 45 49  1  0  0  0  0
 24 31  1  0  0  0  0
 24 32  1  0  0  0  0
 24 33  1  0  0  0  0
 21 27  1  0  0  0  0
 21 28  1  0  0  0  0
 22 29  1  0  0  0  0
 22 30  1  0  0  0  0
 35 40  1  0  0  0  0
  8 13  1  0  0  0  0
 18 26  1  0  0  0  0
 44 46  1  0  0  0  0
  7 12  1  0  0  0  0
 34 39  1  0  0  0  0
 17 25  1  0  0  0  0
M  END
$$$$

  -OEChem-02062319033D

 49 48  0     1  0  0  0  0  0999 V2000
   -0.0561   -5.3799    2.6949 C   0  0  0  0  0  0  0  0  0  0  0  0
    0.7325   -5.0736    3.5815 O   0  0  0  0  0  0  0  0  0  0  0  0
   -1.0067   -6.5099    2.9135 C   0  0  0  0  0  0  0  0  0  0  0  0
   -0.5910   -7.4777    2.5899 H   0  0  0  0  0  0  0  0  0  0  0  0
   -1.2629   -6.6440    3.9767 H   0  0  0  0  0  0  0  0  0  0  0  0
   -1.9729   -6.4206    2.3918 H   0  0  0  0  0  0  0  0  0  0  0  0
   -0.1735   -4.7694    1.4571 N   0  0  0  0  0  0  0  0  0  0  0  0
    0.6439   -3.6603    1.0409 C   0  0  2  0  0  0  0  0  0  0  0  0
   -0.2788   -2.5625    0.5280 C   0  0  0  0  0  0  0  0  0  0  0  0
   -1.4197   -2.7791    0.1251 O   0  0  0  0  0  0  0  0  0  0  0  0
    1.6395   -4.0779   -0.0301 C   0  0  0  0  0  0  0  0  0  0  0  0
   -0.8741   -5.1235    0.8083 H   0  0  0  0  0  0  0  0  0  0  0  0
    1.1738   -3.3062    1.9318 H   0  0  0  0  0  0  0  0  0  0  0  0
    1.1270   -4.4358   -0.9305 H   0  0  0  0  0  0  0  0  0  0  0  0
    2.2797   -3.2400   -0.3251 H   0  0  0  0  0  0  0  0  0  0  0  0
    2.2827   -4.8880    0.3303 H   0  0  0  0  0  0  0  0  0  0  0  0
    0.3351   -1.3153    0.5316 N   0  0  0  0  0  0  0  0  0  0  0  0
    0.2823   -0.4227    1.6605 C   0  0  2  0  0  0  0  0  0  0  0  0
   -1.1768   -0.0855    1.9516 C   0  0  0  0  0  0  0  0  0  0  0  0
   -1.6568   -0.1126    3.0830 O   0  0  0  0  0  0  0  0  0  0  0  0
    1.1514    0.8252    1.4527 C   0  0  0  0  0  0  0  0  0  0  0  0
    2.6505    0.5248    1.3820 C   0  0  0  0  0  0  0  0  0  0  0  0
    3.2228   -0.2307    2.9330 S   0  0  0  0  0  0  0  0  0  0  0  0
    3.0428    1.2114    4.0070 C   0  0  0  0  0  0  0  0  0  0  0  0
    0.8788   -1.0287   -0.2796 H   0  0  0  0  0  0  0  0  0  0  0  0
    0.6745   -0.9931    2.5113 H   0  0  0  0  0  0  0  0  0  0  0  0
    0.9587    1.5222    2.2793 H   0  0  0  0  0  0  0  0  0  0  0  0
    0.8376    1.3301    0.5300 H   0  0  0  0  0  0  0  0  0  0  0  0
    3.2270    1.4409    1.2226 H   0  0  0  0  0  0  0  0  0  0  0  0
    2.8757   -0.1669    0.5649 H   0  0  0  0  0  0  0  0  0  0  0  0
    3.3477    0.9571    5.0251 H   0  0  0  0  0  0  0  0  0  0  0  0
    2.0000    1.5378    4.0183 H   0  0  0  0  0  0  0  0  0  0  0  0
    3.6691    2.0281    3.6399 H   0  0  0  0  0  0  0  0  0  0  0  0
   -1.8861    0.2165    0.7980 N   0  0  0  0  0  0  0  0  0  0  0  0
   -3.2897    0.5556    0.8141 C   0  0  2  0  0  0  0  0  0  0  0  0
   -3.9448   -0.0950   -0.3971 C   0  0  0  0  0  0  0  0  0  0  0  0
   -3.3180   -0.4269   -1.4011 O   0  0  0  0  0  0  0  0  0  0  0  0
   -3.4952    2.0624    0.7993 C   0  0  0  0  0  0  0  0  0  0  0  0
   -1.4020    0.2422   -0.0946 H   0  0  0  0  0  0  0  0  0  0  0  0
   -3.7083    0.1264    1.7310 H   0  0  0  0  0  0  0  0  0  0  0  0
   -3.0822    2.5103   -0.1119 H   0  0  0  0  0  0  0  0  0  0  0  0
   -4.5591    2.3182    0.8405 H   0  0  0  0  0  0  0  0  0  0  0  0
   -2.9982    2.5319    1.6551 H   0  0  0  0  0  0  0  0  0  0  0  0
   -5.3181   -0.2220   -0.2424 N   0  0  0  0  0  0  0  0  0  0  0  0
   -6.1673   -0.7977   -1.2590 C   0  0  0  0  0  0  0  0  0  0  0  0
   -5.7510    0.0627    0.6313 H   0  0  0  0  0  0  0  0  0  0  0  0
   -6.5539    0.0004   -1.9098 H   0  0  0  0  0  0  0  0  0  0  0  0
   -5.5861   -1.5120   -1.8607 H   0  0  0  0  0  0  0  0  0  0  0  0
   -7.0087   -1.3206   -0.7808 H   0  0  0  0  0  0  0  0  0  0  0  0
  1  3  1  0  0  0  0
  1  7  1  0  0  0  0
  1  2  2  0  0  0  0
 35 36  1  0  0  0  0
 36 44  1  0  0  0  0
 36 37  2  0  0  0  0
  8  9  1  0  0  0  0
  9 17  1  0  0  0  0
  9 10  2  0  0  0  0
 18 19  1  0  0  0  0
 19 34  1  0  0  0  0
 19 20  2  0  0  0  0
 35 38  1  0  0  0  0
  8 11  1  0  0  0  0
 44 45  1  0  0  0  0
 23 24  1  0  0  0  0
 21 22  1  0  0  0  0
 18 21  1  0  0  0  0
 22 23  1  0  0  0  0
 34 35  1  0  0  0  0
  7  8  1  0  0  0  0
 17 18  1  0  0  0  0
  3  4  1  0  0  0  0
  3  5  1  0  0  0  0
  3  6  1  0  0  0  0
 38 41  1  0  0  0  0
 38 42  1  0  0  0  0
 38 43  1  0  0  0  0
 11 14  1  0  0  0  0
 11 15  1  0  0  0  0
 11 16  1  0  0  0  0
 45 47  1  0  0  0  0
 45 48  1  0  0  0  0
 45 49  1  0  0  0  0
 24 31  1  0  0  0  0
 24 32  1  0  0  0  0
 24 33  1  0  0  0  0
 21 27  1  0  0  0  0
 21 28  1  0  0  0  0
 22 29  1  0  0  0  0
 22 30  1  0  0  0  0
 35 40  1  0  0  0  0
  8 13  1  0  0  0  0
 18 26  1  0  0  0  0
 44 46  1  0  0  0  0
  7 12  1  0  0  0  0
 34 39  1  0  0  0  0
 17 25  1  0  0  0  0
M  END
$$$$

  -OEChem-02062319033D

 49 48  0     1  0  0  0  0  0999 V2000
   -0.0561   -5.3799    2.6949 C   0  0  0  0  0  0  0  0  0  0  0  0
    0.7325   -5.0736    3.5815 O   0  0  0  0  0  0  0  0  0  0  0  0
   -1.0067   -6.5099    2.9135 C   0  0  0  0  0  0  0  0  0  0  0  0
   -0.5910   -7.4777    2.5899 H   0  0  0  0  0  0  0  0  0  0  0  0
   -1.2629   -6.6440    3.9767 H   0  0  0  0  0  0  0  0  0  0  0  0
   -1.9729   -6.4206    2.3918 H   0  0  0  0  0  0  0  0  0  0  0  0
   -0.1735   -4.7694    1.4571 N   0  0  0  0  0  0  0  0  0  0  0  0
    0.6439   -3.6603    1.0409 C   0  0  2  0  0  0  0  0  0  0  0  0
   -0.2788   -2.5625    0.5280 C   0  0  0  0  0  0  0  0  0  0  0  0
   -1.4197   -2.7791    0.1251 O   0  0  0  0  0  0  0  0  0  0  0  0
    1.6395   -4.0779   -0.0301 C   0  0  0  0  0  0  0  0  0  0  0  0
   -0.8741   -5.1235    0.8083 H   0  0  0  0  0  0  0  0  0  0  0  0
    1.1738   -3.3062    1.9318 H   0  0  0  0  0  0  0  0  0  0  0  0
    1.1270   -4.4358   -0.9305 H   0  0  0  0  0  0  0  0  0  0  0  0
    2.2797   -3.2400   -0.3251 H   0  0  0  0  0  0  0  0  0  0  0  0
    2.2827   -4.8880    0.3303 H   0  0  0  0  0  0  0  0  0  0  0  0
    0.3351   -1.3153    0.5316 N   0  0  0  0  0  0  0  0  0  0  0  0
    0.5574   -0.5583    1.7364 C   0  0  2  0  0  0  0  0  0  0  0  0
   -0.7898   -0.2773    2.3949 C   0  0  0  0  0  0  0  0  0  0  0  0
   -0.9941   -0.4402    3.5961 O   0  0  0  0  0  0  0  0  0  0  0  0
    1.3704    0.7174    1.4766 C   0  0  0  0  0  0  0  0  0  0  0  0
    2.8081    0.4483    1.0259 C   0  0  0  0  0  0  0  0  0  0  0  0
    3.7153   -0.4713    2.3048 S   0  0  0  0  0  0  0  0  0  0  0  0
    3.8082    0.8360    3.5489 C   0  0  0  0  0  0  0  0  0  0  0  0
    0.6792   -0.9302   -0.3454 H   0  0  0  0  0  0  0  0  0  0  0  0
    1.1291   -1.2165    2.4019 H   0  0  0  0  0  0  0  0  0  0  0  0
    1.3839    1.3126    2.3995 H   0  0  0  0  0  0  0  0  0  0  0  0
    0.8574    1.3198    0.7159 H   0  0  0  0  0  0  0  0  0  0  0  0
    3.3435    1.3846    0.8429 H   0  0  0  0  0  0  0  0  0  0  0  0
    2.8285   -0.1424    0.1053 H   0  0  0  0  0  0  0  0  0  0  0  0
    4.3378    0.4714    4.4325 H   0  0  0  0  0  0  0  0  0  0  0  0
    2.8007    1.1442    3.8393 H   0  0  0  0  0  0  0  0  0  0  0  0
    4.3425    1.6980    3.1423 H   0  0  0  0  0  0  0  0  0  0  0  0
   -1.7436    0.1445    1.4798 N   0  0  0  0  0  0  0  0  0  0  0  0
   -3.1007    0.4596    1.8601 C   0  0  2  0  0  0  0  0  0  0  0  0
   -4.0274   -0.0576    0.7678 C   0  0  0  0  0  0  0  0  0  0  0  0
   -3.6553   -0.2638   -0.3855 O   0  0  0  0  0  0  0  0  0  0  0  0
   -3.2846    1.9551    2.0658 C   0  0  0  0  0  0  0  0  0  0  0  0
   -1.4798    0.2787    0.5082 H   0  0  0  0  0  0  0  0  0  0  0  0
   -3.3003   -0.0774    2.7938 H   0  0  0  0  0  0  0  0  0  0  0  0
   -3.0888    2.5100    1.1410 H   0  0  0  0  0  0  0  0  0  0  0  0
   -4.3064    2.1895    2.3818 H   0  0  0  0  0  0  0  0  0  0  0  0
   -2.5964    2.3308    2.8307 H   0  0  0  0  0  0  0  0  0  0  0  0
   -5.3288   -0.2209    1.2216 N   0  0  0  0  0  0  0  0  0  0  0  0
   -6.3981   -0.6887    0.3709 C   0  0  0  0  0  0  0  0  0  0  0  0
   -5.5432   -0.0440    2.1985 H   0  0  0  0  0  0  0  0  0  0  0  0
   -6.9150    0.1730   -0.0767 H   0  0  0  0  0  0  0  0  0  0  0  0
   -5.9818   -1.3213   -0.4269 H   0  0  0  0  0  0  0  0  0  0  0  0
   -7.1121   -1.2746    0.9684 H   0  0  0  0  0  0  0  0  0  0  0  0
  1  3  1  0  0  0  0
  1  7  1  0  0  0  0
  1  2  2  0  0  0  0
 35 36  1  0  0  0  0
 36 44  1  0  0  0  0
 36 37  2  0  0  0  0
  8  9  1  0  0  0  0
  9 17  1  0  0  0  0
  9 10  2  0  0  0  0
 18 19  1  0  0  0  0
 19 34  1  0  0  0  0
 19 20  2  0  0  0  0
 35 38  1  0  0  0  0
  8 11  1  0  0  0  0
 44 45  1  0  0  0  0
 23 24  1  0  0  0  0
 21 22  1  0  0  0  0
 18 21  1  0  0  0  0
 22 23  1  0  0  0  0
 34 35  1  0  0  0  0
  7  8  1  0  0  0  0
 17 18  1  0  0  0  0
  3  4  1  0  0  0  0
  3  5  1  0  0  0  0
  3  6  1  0  0  0  0
 38 41  1  0  0  0  0
 38 42  1  0  0  0  0
 38 43  1  0  0  0  0
 11 14  1  0  0  0  0
 11 15  1  0  0  0  0
 11 16  1  0  0  0  0
 45 47  1  0  0  0  0
 45 48  1  0  0  0  0
 45 49  1  0  0  0  0
 24 31  1  0  0  0  0
 24 32  1  0  0  0  0
 24 33  1  0  0  0  0
 21 27  1  0  0  0  0
 21 28  1  0  0  0  0
 22 29  1  0  0  0  0
 22 30  1  0  0  0  0
 35 40  1  0  0  0  0
  8 13  1  0  0  0  0
 18 26  1  0  0  0  0
 44 46  1  0  0  0  0
  7 12  1  0  0  0  0
 34 39  1  0  0  0  0
 17 25  1  0  0  0  0
M  END
$$$$

  -OEChem-02062319033D

 49 48  0     1  0  0  0  0  0999 V2000
   -0.0561   -5.3799    2.6949 C   0  0  0  0  0  0  0  0  0  0  0  0
    0.7325   -5.0736    3.5815 O   0  0  0  0  0  0  0  0  0  0  0  0
   -1.0067   -6.5099    2.9135 C   0  0  0  0  0  0  0  0  0  0  0  0
   -0.5910   -7.4777    2.5899 H   0  0  0  0  0  0  0  0  0  0  0  0
   -1.2629   -6.6440    3.9767 H   0  0  0  0  0  0  0  0  0  0  0  0
   -1.9729   -6.4206    2.3918 H   0  0  0  0  0  0  0  0  0  0  0  0
   -0.1735   -4.7694    1.4571 N   0  0  0  0  0  0  0  0  0  0  0  0
    0.6439   -3.6603    1.0409 C   0  0  2  0  0  0  0  0  0  0  0  0
   -0.2788   -2.5625    0.5280 C   0  0  0  0  0  0  0  0  0  0  0  0
   -1.4197   -2.7791    0.1251 O   0  0  0  0  0  0  0  0  0  0  0  0
    1.6395   -4.0779   -0.0301 C   0  0  0  0  0  0  0  0  0  0  0  0
   -0.8741   -5.1235    0.8083 H   0  0  0  0  0  0  0  0  0  0  0  0
    1.1738   -3.3062    1.9318 H   0  0  0  0  0  0  0  0  0  0  0  0
    1.1270   -4.4358   -0.9305 H   0  0  0  0  0  0  0  0  0  0  0  0
    2.2797   -3.2400   -0.3251 H   0  0  0  0  0  0  0  0  0  0  0  0
    2.2827   -4.8880    0.3303 H   0  0  0  0  0  0  0  0  0  0  0  0
    0.3351   -1.3153    0.5316 N   0  0  0  0  0  0  0  0  0  0  0  0
    0.8409   -0.6978    1.7303 C   0  0  2  0  0  0  0  0  0  0  0  0
   -0.3128   -0.5129    2.7113 C   0  0  0  0  0  0  0  0  0  0  0  0
   -0.2347   -0.8149    3.9004 O   0  0  0  0  0  0  0  0  0  0  0  0
    1.5876    0.6106    1.4365 C   0  0  0  0  0  0  0  0  0  0  0  0
    2.8778    0.4151    0.6366 C   0  0  0  0  0  0  0  0  0  0  0  0
    4.0452   -0.6316    1.5561 S   0  0  0  0  0  0  0  0  0  0  0  0
    4.4413    0.5262    2.8858 C   0  0  0  0  0  0  0  0  0  0  0  0
    0.4710   -0.8277   -0.3513 H   0  0  0  0  0  0  0  0  0  0  0  0
    1.5430   -1.4195    2.1651 H   0  0  0  0  0  0  0  0  0  0  0  0
    1.8227    1.0966    2.3929 H   0  0  0  0  0  0  0  0  0  0  0  0
    0.9198    1.2886    0.8898 H   0  0  0  0  0  0  0  0  0  0  0  0
    3.3680    1.3737    0.4426 H   0  0  0  0  0  0  0  0  0  0  0  0
    2.6761   -0.0662   -0.3249 H   0  0  0  0  0  0  0  0  0  0  0  0
    5.1570    0.0706    3.5746 H   0  0  0  0  0  0  0  0  0  0  0  0
    3.5329    0.7849    3.4354 H   0  0  0  0  0  0  0  0  0  0  0  0
    4.8776    1.4366    2.4676 H   0  0  0  0  0  0  0  0  0  0  0  0
   -1.4476   -0.0030    2.0971 N   0  0  0  0  0  0  0  0  0  0  0  0
   -2.6751    0.2474    2.8156 C   0  0  2  0  0  0  0  0  0  0  0  0
   -3.8367   -0.1547    1.9165 C   0  0  0  0  0  0  0  0  0  0  0  0
   -3.7453   -0.2225    0.6925 O   0  0  0  0  0  0  0  0  0  0  0  0
   -2.7869    1.7069    3.2280 C   0  0  0  0  0  0  0  0  0  0  0  0
   -1.4150    0.2451    1.1127 H   0  0  0  0  0  0  0  0  0  0  0  0
   -2.6592   -0.3955    3.7023 H   0  0  0  0  0  0  0  0  0  0  0  0
   -2.8042    2.3665    2.3527 H   0  0  0  0  0  0  0  0  0  0  0  0
   -3.7044    1.8891    3.7973 H   0  0  0  0  0  0  0  0  0  0  0  0
   -1.9352    2.0025    3.8501 H   0  0  0  0  0  0  0  0  0  0  0  0
   -4.9991   -0.3871    2.6382 N   0  0  0  0  0  0  0  0  0  0  0  0
   -6.2427   -0.7699    2.0113 C   0  0  0  0  0  0  0  0  0  0  0  0
   -4.9785   -0.3261    3.6519 H   0  0  0  0  0  0  0  0  0  0  0  0
   -6.8383    0.1299    1.7976 H   0  0  0  0  0  0  0  0  0  0  0  0
   -6.0312   -1.3012    1.0717 H   0  0  0  0  0  0  0  0  0  0  0  0
   -6.8059   -1.4302    2.6872 H   0  0  0  0  0  0  0  0  0  0  0  0
  1  3  1  0  0  0  0
  1  7  1  0  0  0  0
  1  2  2  0  0  0  0
 35 36  1  0  0  0  0
 36 44  1  0  0  0  0
 36 37  2  0  0  0  0
  8  9  1  0  0  0  0
  9 17  1  0  0  0  0
  9 10  2  0  0  0  0
 18 19  1  0  0  0  0
 19 34  1  0  0  0  0
 19 20  2  0  0  0  0
 35 38  1  0  0  0  0
  8 11  1  0  0  0  0
 44 45  1  0  0  0  0
 23 24  1  0  0  0  0
 21 22  1  0  0  0  0
 18 21  1  0  0  0  0
 22 23  1  0  0  0  0
 34 35  1  0  0  0  0
  7  8  1  0  0  0  0
 17 18  1  0  0  0  0
  3  4  1  0  0  0  0
  3  5  1  0  0  0  0
  3  6  1  0  0  0  0
 38 41  1  0  0  0  0
 38 42  1  0  0  0  0
 38 43  1  0  0  0  0
 11 14  1  0  0  0  0
 11 15  1  0  0  0  0
 11 16  1  0  0  0  0
 45 47  1  0  0  0  0
 45 48  1  0  0  0  0
 45 49  1  0  0  0  0
 24 31  1  0  0  0  0
 24 32  1  0  0  0  0
 24 33  1  0  0  0  0
 21 27  1  0  0  0  0
 21 28  1  0  0  0  0
 22 29  1  0  0  0  0
 22 30  1  0  0  0  0
 35 40  1  0  0  0  0
  8 13  1  0  0  0  0
 18 26  1  0  0  0  0
 44 46  1  0  0  0  0
  7 12  1  0  0  0  0
 34 39  1  0  0  0  0
 17 25  1  0  0  0  0
M  END
$$$$

  -OEChem-02062319033D

 49 48  0     1  0  0  0  0  0999 V2000
   -0.0561   -5.3799    2.6949 C   0  0  0  0  0  0  0  0  0  0  0  0
    0.7325   -5.0736    3.5815 O   0  0  0  0  0  0  0  0  0  0  0  0
   -1.0067   -6.5099    2.9135 C   0  0  0  0  0  0  0  0  0  0  0  0
   -0.5910   -7.4777    2.5899 H   0  0  0  0  0  0  0  0  0  0  0  0
   -1.2629   -6.6440    3.9767 H   0  0  0  0  0  0  0  0  0  0  0  0
   -1.9729   -6.4206    2.3918 H   0  0  0  0  0  0  0  0  0  0  0  0
   -0.1735   -4.7694    1.4571 N   0  0  0  0  0  0  0  0  0  0  0  0
    0.6439   -3.6603    1.0409 C   0  0  2  0  0  0  0  0  0  0  0  0
   -0.2788   -2.5625    0.5280 C   0  0  0  0  0  0  0  0  0  0  0  0
   -1.4197   -2.7791    0.1251 O   0  0  0  0  0  0  0  0  0  0  0  0
    1.6395   -4.0779   -0.0301 C   0  0  0  0  0  0  0  0  0  0  0  0
   -0.8741   -5.1235    0.8083 H   0  0  0  0  0  0  0  0  0  0  0  0
    1.1738   -3.3062    1.9318 H   0  0  0  0  0  0  0  0  0  0  0  0
    1.1270   -4.4358   -0.9305 H   0  0  0  0  0  0  0  0  0  0  0  0
    2.2797   -3.2400   -0.3251 H   0  0  0  0  0  0  0  0  0  0  0  0
    2.2827   -4.8880    0.3303 H   0  0  0  0  0  0  0  0  0  0  0  0
    0.3351   -1.3153    0.5316 N   0  0  0  0  0  0  0  0  0  0  0  0
    1.1133   -0.8316    1.6427 C   0  0  2  0  0  0  0  0  0  0  0  0
    0.2215   -0.7764    2.8792 C   0  0  0  0  0  0  0  0  0  0  0  0
    0.5698   -1.2110    3.9751 O   0  0  0  0  0  0  0  0  0  0  0  0
    1.7882    0.5122    1.3351 C   0  0  0  0  0  0  0  0  0  0  0  0
    2.8547    0.4276    0.2406 C   0  0  0  0  0  0  0  0  0  0  0  0
    4.1902   -0.7006    0.7380 S   0  0  0  0  0  0  0  0  0  0  0  0
    4.8991    0.3032    2.0628 C   0  0  0  0  0  0  0  0  0  0  0  0
    0.2685   -0.7282   -0.2970 H   0  0  0  0  0  0  0  0  0  0  0  0
    1.8879   -1.5883    1.8171 H   0  0  0  0  0  0  0  0  0  0  0  0
    2.2452    0.8891    2.2600 H   0  0  0  0  0  0  0  0  0  0  0  0
    1.0204    1.2387    1.0396 H   0  0  0  0  0  0  0  0  0  0  0  0
    3.2987    1.4089    0.0490 H   0  0  0  0  0  0  0  0  0  0  0  0
    2.4290    0.0564   -0.6964 H   0  0  0  0  0  0  0  0  0  0  0  0
    5.7493   -0.2179    2.5099 H   0  0  0  0  0  0  0  0  0  0  0  0
    4.1466    0.4846    2.8342 H   0  0  0  0  0  0  0  0  0  0  0  0
    5.2380    1.2615    1.6617 H   0  0  0  0  0  0  0  0  0  0  0  0
   -1.0183   -0.2157    2.6077 N   0  0  0  0  0  0  0  0  0  0  0  0
   -2.0420   -0.0664    3.6154 C   0  0  2  0  0  0  0  0  0  0  0  0
   -3.3857   -0.3797    2.9706 C   0  0  0  0  0  0  0  0  0  0  0  0
   -3.5820   -0.3060    1.7594 O   0  0  0  0  0  0  0  0  0  0  0  0
   -2.0362    1.3346    4.2066 C   0  0  0  0  0  0  0  0  0  0  0  0
   -1.2120    0.1436    1.6777 H   0  0  0  0  0  0  0  0  0  0  0  0
   -1.8289   -0.8062    4.3947 H   0  0  0  0  0  0  0  0  0  0  0  0
   -2.2479    2.0895    3.4406 H   0  0  0  0  0  0  0  0  0  0  0  0
   -2.7940    1.4376    4.9904 H   0  0  0  0  0  0  0  0  0  0  0  0
   -1.0596    1.5693    4.6436 H   0  0  0  0  0  0  0  0  0  0  0  0
   -4.3516   -0.7095    3.9111 N   0  0  0  0  0  0  0  0  0  0  0  0
   -5.7116   -1.0356    3.5505 C   0  0  0  0  0  0  0  0  0  0  0  0
   -4.0953   -0.7643    4.8925 H   0  0  0  0  0  0  0  0  0  0  0  0
   -6.3289   -0.1259    3.5852 H   0  0  0  0  0  0  0  0  0  0  0  0
   -5.7309   -1.4531    2.5330 H   0  0  0  0  0  0  0  0  0  0  0  0
   -6.1108   -1.7768    4.2586 H   0  0  0  0  0  0  0  0  0  0  0  0
  1  3  1  0  0  0  0
  1  7  1  0  0  0  0
  1  2  2  0  0  0  0
 35 36  1  0  0  0  0
 36 44  1  0  0  0  0
 36 37  2  0  0  0  0
  8  9  1  0  0  0  0
  9 17  1  0  0  0  0
  9 10  2  0  0  0  0
 18 19  1  0  0  0  0
 19 34  1  0  0  0  0
 19 20  2  0  0  0  0
 35 38  1  0  0  0  0
  8 11  1  0  0  0  0
 44 45  1  0  0  0  0
 23 24  1  0  0  0  0
 21 22  1  0  0  0  0
 18 21  1  0  0  0  0
 22 23  1  0  0  0  0
 34 35  1  0  0  0  0
  7  8  1  0  0  0  0
 17 18  1  0  0  0  0
  3  4  1  0  0  0  0
  3  5  1  0  0  0  0
  3  6  1  0  0  0  0
 38 41  1  0  0  0  0
 38 42  1  0  0  0  0
 38 43  1  0  0  0  0
 11 14  1  0  0  0  0
 11 15  1  0  0  0  0
 11 16  1  0  0  0  0
 45 47  1  0  0  0  0
 45 48  1  0  0  0  0
 45 49  1  0  0  0  0
 24 31  1  0  0  0  0
 24 32  1  0  0  0  0
 24 33  1  0  0  0  0
 21 27  1  0  0  0  0
 21 28  1  0  0  0  0
 22 29  1  0  0  0  0
 22 30  1  0  0  0  0
 35 40  1  0  0  0  0
  8 13  1  0  0  0  0
 18 26  1  0  0  0  0
 44 46  1  0  0  0  0
  7 12  1  0  0  0  0
 34 39  1  0  0  0  0
 17 25  1  0  0  0  0
M  END
$$$$

  -OEChem-02062319033D

 49 48  0     1  0  0  0  0  0999 V2000
   -0.0561   -5.3799    2.6949 C   0  0  0  0  0  0  0  0  0  0  0  0
    0.7325   -5.0736    3.5815 O   0  0  0  0  0  0  0  0  0  0  0  0
   -1.0067   -6.5099    2.9135 C   0  0  0  0  0  0  0  0  0  0  0  0
   -0.5910   -7.4777    2.5899 H   0  0  0  0  0  0  0  0  0  0  0  0
   -1.2629   -6.6440    3.9767 H   0  0  0  0  0  0  0  0  0  0  0  0
   -1.9729   -6.4206    2.3918 H   0  0  0  0  0  0  0  0  0  0  0  0
   -0.1735   -4.7694    1.4571 N   0  0  0  0  0  0  0  0  0  0  0  0
    0.6439   -3.6603    1.0409 C   0  0  2  0  0  0  0  0  0  0  0  0
   -0.2788   -2.5625    0.5280 C   0  0  0  0  0  0  0  0  0  0  0  0
   -1.4197   -2.7791    0.1251 O   0  0  0  0  0  0  0  0  0  0  0  0
    1.6395   -4.0779   -0.0301 C   0  0  0  0  0  0  0  0  0  0  0  0
   -0.8741   -5.1235    0.8083 H   0  0  0  0  0  0  0  0  0  0  0  0
    1.1738   -3.3062    1.9318 H   0  0  0  0  0  0  0  0  0  0  0  0
    1.1270   -4.4358   -0.9305 H   0  0  0  0  0  0  0  0  0  0  0  0
    2.2797   -3.2400   -0.3251 H   0  0  0  0  0  0  0  0  0  0  0  0
    2.2827   -4.8880    0.3303 H   0  0  0  0  0  0  0  0  0  0  0  0
    0.3351   -1.3153    0.5316 N   0  0  0  0  0  0  0  0  0  0  0  0
    1.3562   -0.9507    1.4794 C   0  0  2  0  0  0  0  0  0  0  0  0
    0.7768   -1.0497    2.8872 C   0  0  0  0  0  0  0  0  0  0  0  0
    1.3645   -1.6017    3.8152 O   0  0  0  0  0  0  0  0  0  0  0  0
    1.9584    0.4288    1.1794 C   0  0  0  0  0  0  0  0  0  0  0  0
    2.7404    0.4849   -0.1351 C   0  0  0  0  0  0  0  0  0  0  0  0
    4.1403   -0.6737   -0.0938 S   0  0  0  0  0  0  0  0  0  0  0  0
    5.1504    0.1822    1.1361 C   0  0  0  0  0  0  0  0  0  0  0  0
    0.0854   -0.6384   -0.1862 H   0  0  0  0  0  0  0  0  0  0  0  0
    2.1404   -1.7114    1.3815 H   0  0  0  0  0  0  0  0  0  0  0  0
    2.6226    0.7040    2.0097 H   0  0  0  0  0  0  0  0  0  0  0  0
    1.1524    1.1734    1.1553 H   0  0  0  0  0  0  0  0  0  0  0  0
    3.1403    1.4879   -0.3110 H   0  0  0  0  0  0  0  0  0  0  0  0
    2.1040    0.2172   -0.9838 H   0  0  0  0  0  0  0  0  0  0  0  0
    6.0743   -0.3745    1.3109 H   0  0  0  0  0  0  0  0  0  0  0  0
    4.6000    0.2636    2.0767 H   0  0  0  0  0  0  0  0  0  0  0  0
    5.3991    1.1847    0.7796 H   0  0  0  0  0  0  0  0  0  0  0  0
   -0.4849   -0.4793    2.9770 N   0  0  0  0  0  0  0  0  0  0  0  0
   -1.2445   -0.4606    4.2050 C   0  0  2  0  0  0  0  0  0  0  0  0
   -2.7052   -0.7172    3.8584 C   0  0  0  0  0  0  0  0  0  0  0  0
   -3.1764   -0.5084    2.7424 O   0  0  0  0  0  0  0  0  0  0  0  0
   -1.0836    0.8637    4.9351 C   0  0  0  0  0  0  0  0  0  0  0  0
   -0.8846   -0.0189    2.1647 H   0  0  0  0  0  0  0  0  0  0  0  0
   -0.8658   -1.2815    4.8237 H   0  0  0  0  0  0  0  0  0  0  0  0
   -1.4577    1.6981    4.3306 H   0  0  0  0  0  0  0  0  0  0  0  0
   -1.6372    0.8658    5.8798 H   0  0  0  0  0  0  0  0  0  0  0  0
   -0.0293    1.0607    5.1572 H   0  0  0  0  0  0  0  0  0  0  0  0
   -3.4304   -1.1658    4.9534 N   0  0  0  0  0  0  0  0  0  0  0  0
   -4.8410   -1.4679    4.8835 C   0  0  0  0  0  0  0  0  0  0  0  0
   -2.9539   -1.3288    5.8355 H   0  0  0  0  0  0  0  0  0  0  0  0
   -5.4217   -0.5769    5.1644 H   0  0  0  0  0  0  0  0  0  0  0  0
   -5.1015   -1.7667    3.8574 H   0  0  0  0  0  0  0  0  0  0  0  0
   -5.0743   -2.2907    5.5754 H   0  0  0  0  0  0  0  0  0  0  0  0
  1  3  1  0  0  0  0
  1  7  1  0  0  0  0
  1  2  2  0  0  0  0
 35 36  1  0  0  0  0
 36 44  1  0  0  0  0
 36 37  2  0  0  0  0
  8  9  1  0  0  0  0
  9 17  1  0  0  0  0
  9 10  2  0  0  0  0
 18 19  1  0  0  0  0
 19 34  1  0  0  0  0
 19 20  2  0  0  0  0
 35 38  1  0  0  0  0
  8 11  1  0  0  0  0
 44 45  1  0  0  0  0
 23 24  1  0  0  0  0
 21 22  1  0  0  0  0
 18 21  1  0  0  0  0
 22 23  1  0  0  0  0
 34 35  1  0  0  0  0
  7  8  1  0  0  0  0
 17 18  1  0  0  0  0
  3  4  1  0  0  0  0
  3  5  1  0  0  0  0
  3  6  1  0  0  0  0
 38 41  1  0  0  0  0
 38 42  1  0  0  0  0
 38 43  1  0  0  0  0
 11 14  1  0  0  0  0
 11 15  1  0  0  0  0
 11 16  1  0  0  0  0
 45 47  1  0  0  0  0
 45 48  1  0  0  0  0
 45 49  1  0  0  0  0
 24 31  1  0  0  0  0
 24 32  1  0  0  0  0
 24 33  1  0  0  0  0
 21 27  1  0  0  0  0
 21 28  1  0  0  0  0
 22 29  1  0  0  0  0
 22 30  1  0  0  0  0
 35 40  1  0  0  0  0
  8 13  1  0  0  0  0
 18 26  1  0  0  0  0
 44 46  1  0  0  0  0
  7 12  1  0  0  0  0
 34 39  1  0  0  0  0
 17 25  1  0  0  0  0
M  END
$$$$

  -OEChem-02062319033D

 49 48  0     1  0  0  0  0  0999 V2000
   -0.0561   -5.3799    2.6949 C   0  0  0  0  0  0  0  0  0  0  0  0
    0.7325   -5.0736    3.5815 O   0  0  0  0  0  0  0  0  0  0  0  0
   -1.0067   -6.5099    2.9135 C   0  0  0  0  0  0  0  0  0  0  0  0
   -0.5910   -7.4777    2.5899 H   0  0  0  0  0  0  0  0  0  0  0  0
   -1.2629   -6.6440    3.9767 H   0  0  0  0  0  0  0  0  0  0  0  0
   -1.9729   -6.4206    2.3918 H   0  0  0  0  0  0  0  0  0  0  0  0
   -0.1735   -4.7694    1.4571 N   0  0  0  0  0  0  0  0  0  0  0  0
    0.6439   -3.6603    1.0409 C   0  0  2  0  0  0  0  0  0  0  0  0
   -0.2788   -2.5625    0.5280 C   0  0  0  0  0  0  0  0  0  0  0  0
   -1.4197   -2.7791    0.1251 O   0  0  0  0  0  0  0  0  0  0  0  0
    1.6395   -4.0779   -0.0301 C   0  0  0  0  0  0  0  0  0  0  0  0
   -0.8741   -5.1235    0.8083 H   0  0  0  0  0  0  0  0  0  0  0  0
    1.1738   -3.3062    1.9318 H   0  0  0  0  0  0  0  0  0  0  0  0
    1.1270   -4.4358   -0.9305 H   0  0  0  0  0  0  0  0  0  0  0  0
    2.2797   -3.2400   -0.3251 H   0  0  0  0  0  0  0  0  0  0  0  0
    2.2827   -4.8880    0.3303 H   0  0  0  0  0  0  0  0  0  0  0  0
    0.3351   -1.3153    0.5316 N   0  0  0  0  0  0  0  0  0  0  0  0
    1.5531   -1.0470    1.2518 C   0  0  2  0  0  0  0  0  0  0  0  0
    1.3152   -1.3143    2.7348 C   0  0  0  0  0  0  0  0  0  0  0  0
    2.0952   -1.9603    3.4316 O   0  0  0  0  0  0  0  0  0  0  0  0
    2.0867    0.3662    0.9799 C   0  0  0  0  0  0  0  0  0  0  0  0
    2.5427    0.5831   -0.4649 C   0  0  0  0  0  0  0  0  0  0  0  0
    3.8989   -0.5527   -0.8826 S   0  0  0  0  0  0  0  0  0  0  0  0
    5.1780    0.1714    0.1688 C   0  0  0  0  0  0  0  0  0  0  0  0
   -0.0657   -0.5645   -0.0263 H   0  0  0  0  0  0  0  0  0  0  0  0
    2.2832   -1.7802    0.8881 H   0  0  0  0  0  0  0  0  0  0  0  0
    2.9291    0.5542    1.6592 H   0  0  0  0  0  0  0  0  0  0  0  0
    1.3068    1.0972    1.2290 H   0  0  0  0  0  0  0  0  0  0  0  0
    2.9037    1.6052   -0.6130 H   0  0  0  0  0  0  0  0  0  0  0  0
    1.7232    0.4052   -1.1676 H   0  0  0  0  0  0  0  0  0  0  0  0
    6.1100   -0.3885    0.0595 H   0  0  0  0  0  0  0  0  0  0  0  0
    4.8621    0.1370    1.2144 H   0  0  0  0  0  0  0  0  0  0  0  0
    5.3499    1.2114   -0.1187 H   0  0  0  0  0  0  0  0  0  0  0  0
    0.1163   -0.7758    3.1797 N   0  0  0  0  0  0  0  0  0  0  0  0
   -0.3370   -0.9082    4.5444 C   0  0  2  0  0  0  0  0  0  0  0  0
   -1.8414   -1.1442    4.5193 C   0  0  0  0  0  0  0  0  0  0  0  0
   -2.5563   -0.8160    3.5747 O   0  0  0  0  0  0  0  0  0  0  0  0
    0.0060    0.3262    5.3636 C   0  0  0  0  0  0  0  0  0  0  0  0
   -0.4552   -0.2313    2.5405 H   0  0  0  0  0  0  0  0  0  0  0  0
    0.1645   -1.7889    4.9602 H   0  0  0  0  0  0  0  0  0  0  0  0
   -0.4875    1.2188    4.9621 H   0  0  0  0  0  0  0  0  0  0  0  0
   -0.3129    0.2125    6.4050 H   0  0  0  0  0  0  0  0  0  0  0  0
    1.0856    0.5114    5.3559 H   0  0  0  0  0  0  0  0  0  0  0  0
   -2.2982   -1.7252    5.6941 N   0  0  0  0  0  0  0  0  0  0  0  0
   -3.6902   -2.0373    5.9196 C   0  0  0  0  0  0  0  0  0  0  0  0
   -1.6320   -1.9810    6.4169 H   0  0  0  0  0  0  0  0  0  0  0  0
   -4.1783   -1.1925    6.4276 H   0  0  0  0  0  0  0  0  0  0  0  0
   -4.1857   -2.2206    4.9547 H   0  0  0  0  0  0  0  0  0  0  0  0
   -3.7670   -2.9369    6.5479 H   0  0  0  0  0  0  0  0  0  0  0  0
  1  3  1  0  0  0  0
  1  7  1  0  0  0  0
  1  2  2  0  0  0  0
 35 36  1  0  0  0  0
 36 44  1  0  0  0  0
 36 37  2  0  0  0  0
  8  9  1  0  0  0  0
  9 17  1  0  0  0  0
  9 10  2  0  0  0  0
 18 19  1  0  0  0  0
 19 34  1  0  0  0  0
 19 20  2  0  0  0  0
 35 38  1  0  0  0  0
  8 11  1  0  0  0  0
 44 45  1  0  0  0  0
 23 24  1  0  0  0  0
 21 22  1  0  0  0  0
 18 21  1  0  0  0  0
 22 23  1  0  0  0  0
 34 35  1  0  0  0  0
  7  8  1  0  0  0  0
 17 18  1  0  0  0  0
  3  4  1  0  0  0  0
  3  5  1  0  0  0  0
  3  6  1  0  0  0  0
 38 41  1  0  0  0  0
 38 42  1  0  0  0  0
 38 43  1  0  0  0  0
 11 14  1  0  0  0  0
 11 15  1  0  0  0  0
 11 16  1  0  0  0  0
 45 47  1  0  0  0  0
 45 48  1  0  0  0  0
 45 49  1  0  0  0  0
 24 31  1  0  0  0  0
 24 32  1  0  0  0  0
 24 33  1  0  0  0  0
 21 27  1  0  0  0  0
 21 28  1  0  0  0  0
 22 29  1  0  0  0  0
 22 30  1  0  0  0  0
 35 40  1  0  0  0  0
  8 13  1  0  0  0  0
 18 26  1  0  0  0  0
 44 46  1  0  0  0  0
  7 12  1  0  0  0  0
 34 39  1  0  0  0  0
 17 25  1  0  0  0  0
M  END
$$$$

  -OEChem-02062319033D

 49 48  0     1  0  0  0  0  0999 V2000
   -0.0561   -5.3799    2.6949 C   0  0  0  0  0  0  0  0  0  0  0  0
    0.7325   -5.0736    3.5815 O   0  0  0  0  0  0  0  0  0  0  0  0
   -1.0067   -6.5099    2.9135 C   0  0  0  0  0  0  0  0  0  0  0  0
   -0.5910   -7.4777    2.5899 H   0  0  0  0  0  0  0  0  0  0  0  0
   -1.2629   -6.6440    3.9767 H   0  0  0  0  0  0  0  0  0  0  0  0
   -1.9729   -6.4206    2.3918 H   0  0  0  0  0  0  0  0  0  0  0  0
   -0.1735   -4.7694    1.4571 N   0  0  0  0  0  0  0  0  0  0  0  0
    0.6439   -3.6603    1.0409 C   0  0  2  0  0  0  0  0  0  0  0  0
   -0.2788   -2.5625    0.5280 C   0  0  0  0  0  0  0  0  0  0  0  0
   -1.4197   -2.7791    0.1251 O   0  0  0  0  0  0  0  0  0  0  0  0
    1.6395   -4.0779   -0.0301 C   0  0  0  0  0  0  0  0  0  0  0  0
   -0.8741   -5.1235    0.8083 H   0  0  0  0  0  0  0  0  0  0  0  0
    1.1738   -3.3062    1.9318 H   0  0  0  0  0  0  0  0  0  0  0  0
    1.1270   -4.4358   -0.9305 H   0  0  0  0  0  0  0  0  0  0  0  0
    2.2797   -3.2400   -0.3251 H   0  0  0  0  0  0  0  0  0  0  0  0
    2.2827   -4.8880    0.3303 H   0  0  0  0  0  0  0  0  0  0  0  0
    0.3351   -1.3153    0.5316 N   0  0  0  0  0  0  0  0  0  0  0  0
    1.6904   -1.1138    0.9751 C   0  0  2  0  0  0  0  0  0  0  0  0
    1.8000   -1.5521    2.4323 C   0  0  0  0  0  0  0  0  0  0  0  0
    2.7122   -2.2623    2.8504 O   0  0  0  0  0  0  0  0  0  0  0  0
    2.1644    0.3286    0.7503 C   0  0  0  0  0  0  0  0  0  0  0  0
    2.2751    0.7156   -0.7264 C   0  0  0  0  0  0  0  0  0  0  0  0
    3.4825   -0.3458   -1.5746 S   0  0  0  0  0  0  0  0  0  0  0  0
    4.9800    0.2715   -0.7732 C   0  0  0  0  0  0  0  0  0  0  0  0
   -0.1747   -0.5114    0.1716 H   0  0  0  0  0  0  0  0  0  0  0  0
    2.3066   -1.7903    0.3705 H   0  0  0  0  0  0  0  0  0  0  0  0
    3.1438    0.4497    1.2324 H   0  0  0  0  0  0  0  0  0  0  0  0
    1.4731    1.0152    1.2555 H   0  0  0  0  0  0  0  0  0  0  0  0
    2.6049    1.7529   -0.8363 H   0  0  0  0  0  0  0  0  0  0  0  0
    1.3126    0.6075   -1.2352 H   0  0  0  0  0  0  0  0  0  0  0  0
    5.8538   -0.2590   -1.1592 H   0  0  0  0  0  0  0  0  0  0  0  0
    4.9152    0.1134    0.3062 H   0  0  0  0  0  0  0  0  0  0  0  0
    5.0938    1.3399   -0.9718 H   0  0  0  0  0  0  0  0  0  0  0  0
    0.7443   -1.0849    3.2019 N   0  0  0  0  0  0  0  0  0  0  0  0
    0.6186   -1.3788    4.6102 C   0  0  2  0  0  0  0  0  0  0  0  0
   -0.8534   -1.6316    4.9084 C   0  0  0  0  0  0  0  0  0  0  0  0
   -1.7638   -1.2078    4.1994 O   0  0  0  0  0  0  0  0  0  0  0  0
    1.1584   -0.2413    5.4631 C   0  0  0  0  0  0  0  0  0  0  0  0
    0.0469   -0.4792    2.7795 H   0  0  0  0  0  0  0  0  0  0  0  0
    1.1916   -2.2940    4.7947 H   0  0  0  0  0  0  0  0  0  0  0  0
    0.5966    0.6842    5.2919 H   0  0  0  0  0  0  0  0  0  0  0  0
    1.0886   -0.4777    6.5300 H   0  0  0  0  0  0  0  0  0  0  0  0
    2.2089   -0.0411    5.2262 H   0  0  0  0  0  0  0  0  0  0  0  0
   -1.0322   -2.3494    6.0827 N   0  0  0  0  0  0  0  0  0  0  0  0
   -2.3377   -2.7049    6.5880 C   0  0  0  0  0  0  0  0  0  0  0  0
   -0.2197   -2.6767    6.5969 H   0  0  0  0  0  0  0  0  0  0  0  0
   -2.6835   -1.9306    7.2887 H   0  0  0  0  0  0  0  0  0  0  0  0
   -3.0460   -2.7838    5.7501 H   0  0  0  0  0  0  0  0  0  0  0  0
   -2.2780   -3.6713    7.1099 H   0  0  0  0  0  0  0  0  0  0  0  0
  1  3  1  0  0  0  0
  1  7  1  0  0  0  0
  1  2  2  0  0  0  0
 35 36  1  0  0  0  0
 36 44  1  0  0  0  0
 36 37  2  0  0  0  0
  8  9  1  0  0  0  0
  9 17  1  0  0  0  0
  9 10  2  0  0  0  0
 18 19  1  0  0  0  0
 19 34  1  0  0  0  0
 19 20  2  0  0  0  0
 35 38  1  0  0  0  0
  8 11  1  0  0  0  0
 44 45  1  0  0  0  0
 23 24  1  0  0  0  0
 21 22  1  0  0  0  0
 18 21  1  0  0  0  0
 22 23  1  0  0  0  0
 34 35  1  0  0  0  0
  7  8  1  0  0  0  0
 17 18  1  0  0  0  0
  3  4  1  0  0  0  0
  3  5  1  0  0  0  0
  3  6  1  0  0  0  0
 38 41  1  0  0  0  0
 38 42  1  0  0  0  0
 38 43  1  0  0  0  0
 11 14  1  0  0  0  0
 11 15  1  0  0  0  0
 11 16  1  0  0  0  0
 45 47  1  0  0  0  0
 45 48  1  0  0  0  0
 45 49  1  0  0  0  0
 24 31  1  0  0  0  0
 24 32  1  0  0  0  0
 24 33  1  0  0  0  0
 21 27  1  0  0  0  0
 21 28  1  0  0  0  0
 22 29  1  0  0  0  0
 22 30  1  0  0  0  0
 35 40  1  0  0  0  0
  8 13  1  0  0  0  0
 18 26  1  0  0  0  0
 44 46  1  0  0  0  0
  7 12  1  0  0  0  0
 34 39  1  0  0  0  0
 17 25  1  0  0  0  0
M  END
$$$$

  -OEChem-02062319033D

 49 48  0     1  0  0  0  0  0999 V2000
   -0.0561   -5.3799    2.6949 C   0  0  0  0  0  0  0  0  0  0  0  0
    0.7325   -5.0736    3.5815 O   0  0  0  0  0  0  0  0  0  0  0  0
   -1.0067   -6.5099    2.9135 C   0  0  0  0  0  0  0  0  0  0  0  0
   -0.5910   -7.4777    2.5899 H   0  0  0  0  0  0  0  0  0  0  0  0
   -1.2629   -6.6440    3.9767 H   0  0  0  0  0  0  0  0  0  0  0  0
   -1.9729   -6.4206    2.3918 H   0  0  0  0  0  0  0  0  0  0  0  0
   -0.1735   -4.7694    1.4571 N   0  0  0  0  0  0  0  0  0  0  0  0
    0.6439   -3.6603    1.0409 C   0  0  2  0  0  0  0  0  0  0  0  0
   -0.2788   -2.5625    0.5280 C   0  0  0  0  0  0  0  0  0  0  0  0
   -1.4197   -2.7791    0.1251 O   0  0  0  0  0  0  0  0  0  0  0  0
    1.6395   -4.0779   -0.0301 C   0  0  0  0  0  0  0  0  0  0  0  0
   -0.8741   -5.1235    0.8083 H   0  0  0  0  0  0  0  0  0  0  0  0
    1.1738   -3.3062    1.9318 H   0  0  0  0  0  0  0  0  0  0  0  0
    1.1270   -4.4358   -0.9305 H   0  0  0  0  0  0  0  0  0  0  0  0
    2.2797   -3.2400   -0.3251 H   0  0  0  0  0  0  0  0  0  0  0  0
    2.2827   -4.8880    0.3303 H   0  0  0  0  0  0  0  0  0  0  0  0
    0.3351   -1.3153    0.5316 N   0  0  0  0  0  0  0  0  0  0  0  0
    1.7588   -1.1466    0.6684 C   0  0  2  0  0  0  0  0  0  0  0  0
    2.1982   -1.7469    2.0003 C   0  0  0  0  0  0  0  0  0  0  0  0
    3.1733   -2.4872    2.1112 O   0  0  0  0  0  0  0  0  0  0  0  0
    2.1862    0.3186    0.5061 C   0  0  0  0  0  0  0  0  0  0  0  0
    1.9558    0.8733   -0.9016 C   0  0  0  0  0  0  0  0  0  0  0  0
    2.9195   -0.0671   -2.1227 S   0  0  0  0  0  0  0  0  0  0  0  0
    4.5699    0.4757   -1.6257 C   0  0  0  0  0  0  0  0  0  0  0  0
   -0.2340   -0.4829    0.3942 H   0  0  0  0  0  0  0  0  0  0  0  0
    2.2090   -1.7408   -0.1361 H   0  0  0  0  0  0  0  0  0  0  0  0
    3.2522    0.3977    0.7582 H   0  0  0  0  0  0  0  0  0  0  0  0
    1.6400    0.9332    1.2332 H   0  0  0  0  0  0  0  0  0  0  0  0
    2.2644    1.9209   -0.9658 H   0  0  0  0  0  0  0  0  0  0  0  0
    0.9002    0.8103   -1.1821 H   0  0  0  0  0  0  0  0  0  0  0  0
    5.3234    0.0053   -2.2621 H   0  0  0  0  0  0  0  0  0  0  0  0
    4.7556    0.1945   -0.5861 H   0  0  0  0  0  0  0  0  0  0  0  0
    4.6482    1.5614   -1.7218 H   0  0  0  0  0  0  0  0  0  0  0  0
    1.3562   -1.3857    3.0423 N   0  0  0  0  0  0  0  0  0  0  0  0
    1.5573   -1.8402    4.3982 C   0  0  2  0  0  0  0  0  0  0  0  0
    0.1917   -2.1462    4.9990 C   0  0  0  0  0  0  0  0  0  0  0  0
   -0.8530   -1.6572    4.5741 O   0  0  0  0  0  0  0  0  0  0  0  0
    2.2950   -0.8001    5.2268 C   0  0  0  0  0  0  0  0  0  0  0  0
    0.5877   -0.7456    2.8655 H   0  0  0  0  0  0  0  0  0  0  0  0
    2.1457   -2.7623    4.3387 H   0  0  0  0  0  0  0  0  0  0  0  0
    1.7207    0.1309    5.2977 H   0  0  0  0  0  0  0  0  0  0  0  0
    2.4718   -1.1577    6.2465 H   0  0  0  0  0  0  0  0  0  0  0  0
    3.2642   -0.5593    4.7770 H   0  0  0  0  0  0  0  0  0  0  0  0
    0.2813   -2.9959    6.0927 N   0  0  0  0  0  0  0  0  0  0  0  0
   -0.8756   -3.4252    6.8432 C   0  0  0  0  0  0  0  0  0  0  0  0
    1.1867   -3.3683    6.3634 H   0  0  0  0  0  0  0  0  0  0  0  0
   -1.0393   -2.7411    7.6889 H   0  0  0  0  0  0  0  0  0  0  0  0
   -1.7601   -3.4179    6.1894 H   0  0  0  0  0  0  0  0  0  0  0  0
   -0.7088   -4.4440    7.2230 H   0  0  0  0  0  0  0  0  0  0  0  0
  1  3  1  0  0  0  0
  1  7  1  0  0  0  0
  1  2  2  0  0  0  0
 35 36  1  0  0  0  0
 36 44  1  0  0  0  0
 36 37  2  0  0  0  0
  8  9  1  0  0  0  0
  9 17  1  0  0  0  0
  9 10  2  0  0  0  0
 18 19  1  0  0  0  0
 19 34  1  0  0  0  0
 19 20  2  0  0  0  0
 35 38  1  0  0  0  0
  8 11  1  0  0  0  0
 44 45  1  0  0  0  0
 23 24  1  0  0  0  0
 21 22  1  0  0  0  0
 18 21  1  0  0  0  0
 22 23  1  0  0  0  0
 34 35  1  0  0  0  0
  7  8  1  0  0  0  0
 17 18  1  0  0  0  0
  3  4  1  0  0  0  0
  3  5  1  0  0  0  0
  3  6  1  0  0  0  0
 38 41  1  0  0  0  0
 38 42  1  0  0  0  0
 38 43  1  0  0  0  0
 11 14  1  0  0  0  0
 11 15  1  0  0  0  0
 11 16  1  0  0  0  0
 45 47  1  0  0  0  0
 45 48  1  0  0  0  0
 45 49  1  0  0  0  0
 24 31  1  0  0  0  0
 24 32  1  0  0  0  0
 24 33  1  0  0  0  0
 21 27  1  0  0  0  0
 21 28  1  0  0  0  0
 22 29  1  0  0  0  0
 22 30  1  0  0  0  0
 35 40  1  0  0  0  0
  8 13  1  0  0  0  0
 18 26  1  0  0  0  0
 44 46  1  0  0  0  0
  7 12  1  0  0  0  0
 34 39  1  0  0  0  0
 17 25  1  0  0  0  0
M  END
$$$$

  -OEChem-02062319033D

 49 48  0     1  0  0  0  0  0999 V2000
   -0.0561   -5.3799    2.6949 C   0  0  0  0  0  0  0  0  0  0  0  0
    0.7325   -5.0736    3.5815 O   0  0  0  0  0  0  0  0  0  0  0  0
   -1.0067   -6.5099    2.9135 C   0  0  0  0  0  0  0  0  0  0  0  0
   -0.5910   -7.4777    2.5899 H   0  0  0  0  0  0  0  0  0  0  0  0
   -1.2629   -6.6440    3.9767 H   0  0  0  0  0  0  0  0  0  0  0  0
   -1.9729   -6.4206    2.3918 H   0  0  0  0  0  0  0  0  0  0  0  0
   -0.1735   -4.7694    1.4571 N   0  0  0  0  0  0  0  0  0  0  0  0
    0.6439   -3.6603    1.0409 C   0  0  2  0  0  0  0  0  0  0  0  0
   -0.2788   -2.5625    0.5280 C   0  0  0  0  0  0  0  0  0  0  0  0
   -1.4197   -2.7791    0.1251 O   0  0  0  0  0  0  0  0  0  0  0  0
    1.6395   -4.0779   -0.0301 C   0  0  0  0  0  0  0  0  0  0  0  0
   -0.8741   -5.1235    0.8083 H   0  0  0  0  0  0  0  0  0  0  0  0
    1.1738   -3.3062    1.9318 H   0  0  0  0  0  0  0  0  0  0  0  0
    1.1270   -4.4358   -0.9305 H   0  0  0  0  0  0  0  0  0  0  0  0
    2.2797   -3.2400   -0.3251 H   0  0  0  0  0  0  0  0  0  0  0  0
    2.2827   -4.8880    0.3303 H   0  0  0  0  0  0  0  0  0  0  0  0
    0.3351   -1.3153    0.5316 N   0  0  0  0  0  0  0  0  0  0  0  0
    1.7537   -1.1432    0.3525 C   0  0  2  0  0  0  0  0  0  0  0  0
    2.4827   -1.8854    1.4684 C   0  0  0  0  0  0  0  0  0  0  0  0
    3.4473   -2.6197    1.2643 O   0  0  0  0  0  0  0  0  0  0  0  0
    2.1505    0.3369    0.2641 C   0  0  0  0  0  0  0  0  0  0  0  0
    1.6066    1.0454   -0.9788 C   0  0  0  0  0  0  0  0  0  0  0  0
    2.2482    0.2644   -2.4895 S   0  0  0  0  0  0  0  0  0  0  0  0
    3.9757    0.7702   -2.3305 C   0  0  0  0  0  0  0  0  0  0  0  0
   -0.2396   -0.4808    0.6262 H   0  0  0  0  0  0  0  0  0  0  0  0
    1.9971   -1.6352   -0.5971 H   0  0  0  0  0  0  0  0  0  0  0  0
    3.2468    0.4017    0.2692 H   0  0  0  0  0  0  0  0  0  0  0  0
    1.7960    0.8566    1.1635 H   0  0  0  0  0  0  0  0  0  0  0  0
    1.9053    2.0977   -0.9925 H   0  0  0  0  0  0  0  0  0  0  0  0
    0.5140    0.9999   -1.0117 H   0  0  0  0  0  0  0  0  0  0  0  0
    4.5547    0.3862   -3.1740 H   0  0  0  0  0  0  0  0  0  0  0  0
    4.3942    0.3747   -1.4016 H   0  0  0  0  0  0  0  0  0  0  0  0
    4.0435    1.8607   -2.3174 H   0  0  0  0  0  0  0  0  0  0  0  0
    1.9104   -1.6575    2.7116 N   0  0  0  0  0  0  0  0  0  0  0  0
    2.4151   -2.2611    3.9226 C   0  0  2  0  0  0  0  0  0  0  0  0
    1.2225   -2.6530    4.7850 C   0  0  0  0  0  0  0  0  0  0  0  0
    0.1141   -2.1334    4.6731 O   0  0  0  0  0  0  0  0  0  0  0  0
    3.3383   -1.3120    4.6707 C   0  0  0  0  0  0  0  0  0  0  0  0
    1.1301   -1.0124    2.7925 H   0  0  0  0  0  0  0  0  0  0  0  0
    2.9616   -3.1619    3.6231 H   0  0  0  0  0  0  0  0  0  0  0  0
    2.8082   -0.4034    4.9790 H   0  0  0  0  0  0  0  0  0  0  0  0
    3.7425   -1.7813    5.5737 H   0  0  0  0  0  0  0  0  0  0  0  0
    4.1796   -1.0077    4.0387 H   0  0  0  0  0  0  0  0  0  0  0  0
    1.5527   -3.6207    5.7235 N   0  0  0  0  0  0  0  0  0  0  0  0
    0.5964   -4.1493    6.6680 C   0  0  0  0  0  0  0  0  0  0  0  0
    2.4914   -4.0087    5.7321 H   0  0  0  0  0  0  0  0  0  0  0  0
    0.6424   -3.5686    7.6011 H   0  0  0  0  0  0  0  0  0  0  0  0
   -0.4156   -4.0798    6.2426 H   0  0  0  0  0  0  0  0  0  0  0  0
    0.8338   -5.2023    6.8795 H   0  0  0  0  0  0  0  0  0  0  0  0
  1  3  1  0  0  0  0
  1  7  1  0  0  0  0
  1  2  2  0  0  0  0
 35 36  1  0  0  0  0
 36 44  1  0  0  0  0
 36 37  2  0  0  0  0
  8  9  1  0  0  0  0
  9 17  1  0  0  0  0
  9 10  2  0  0  0  0
 18 19  1  0  0  0  0
 19 34  1  0  0  0  0
 19 20  2  0  0  0  0
 35 38  1  0  0  0  0
  8 11  1  0  0  0  0
 44 45  1  0  0  0  0
 23 24  1  0  0  0  0
 21 22  1  0  0  0  0
 18 21  1  0  0  0  0
 22 23  1  0  0  0  0
 34 35  1  0  0  0  0
  7  8  1  0  0  0  0
 17 18  1  0  0  0  0
  3  4  1  0  0  0  0
  3  5  1  0  0  0  0
  3  6  1  0  0  0  0
 38 41  1  0  0  0  0
 38 42  1  0  0  0  0
 38 43  1  0  0  0  0
 11 14  1  0  0  0  0
 11 15  1  0  0  0  0
 11 16  1  0  0  0  0
 45 47  1  0  0  0  0
 45 48  1  0  0  0  0
 45 49  1  0  0  0  0
 24 31  1  0  0  0  0
 24 32  1  0  0  0  0
 24 33  1  0  0  0  0
 21 27  1  0  0  0  0
 21 28  1  0  0  0  0
 22 29  1  0  0  0  0
 22 30  1  0  0  0  0
 35 40  1  0  0  0  0
  8 13  1  0  0  0  0
 18 26  1  0  0  0  0
 44 46  1  0  0  0  0
  7 12  1  0  0  0  0
 34 39  1  0  0  0  0
 17 25  1  0  0  0  0
M  END
$$$$

  -OEChem-02062319033D

 49 48  0     1  0  0  0  0  0999 V2000
   -0.0561   -5.3799    2.6949 C   0  0  0  0  0  0  0  0  0  0  0  0
    0.7325   -5.0736    3.5815 O   0  0  0  0  0  0  0  0  0  0  0  0
   -1.0067   -6.5099    2.9135 C   0  0  0  0  0  0  0  0  0  0  0  0
   -0.5910   -7.4777    2.5899 H   0  0  0  0  0  0  0  0  0  0  0  0
   -1.2629   -6.6440    3.9767 H   0  0  0  0  0  0  0  0  0  0  0  0
   -1.9729   -6.4206    2.3918 H   0  0  0  0  0  0  0  0  0  0  0  0
   -0.1735   -4.7694    1.4571 N   0  0  0  0  0  0  0  0  0  0  0  0
    0.6439   -3.6603    1.0409 C   0  0  2  0  0  0  0  0  0  0  0  0
   -0.2788   -2.5625    0.5280 C   0  0  0  0  0  0  0  0  0  0  0  0
   -1.4197   -2.7791    0.1251 O   0  0  0  0  0  0  0  0  0  0  0  0
    1.6395   -4.0779   -0.0301 C   0  0  0  0  0  0  0  0  0  0  0  0
   -0.8741   -5.1235    0.8083 H   0  0  0  0  0  0  0  0  0  0  0  0
    1.1738   -3.3062    1.9318 H   0  0  0  0  0  0  0  0  0  0  0  0
    1.1270   -4.4358   -0.9305 H   0  0  0  0  0  0  0  0  0  0  0  0
    2.2797   -3.2400   -0.3251 H   0  0  0  0  0  0  0  0  0  0  0  0
    2.2827   -4.8880    0.3303 H   0  0  0  0  0  0  0  0  0  0  0  0
    0.3351   -1.3153    0.5316 N   0  0  0  0  0  0  0  0  0  0  0  0
    1.6754   -1.1038    0.0489 C   0  0  2  0  0  0  0  0  0  0  0  0
    2.6341   -1.9582    0.8726 C   0  0  0  0  0  0  0  0  0  0  0  0
    3.5154   -2.6506    0.3676 O   0  0  0  0  0  0  0  0  0  0  0  0
    2.0598    0.3821    0.0407 C   0  0  0  0  0  0  0  0  0  0  0  0
    1.2512    1.2202   -0.9525 C   0  0  0  0  0  0  0  0  0  0  0  0
    1.5144    0.6260   -2.6501 S   0  0  0  0  0  0  0  0  0  0  0  0
    3.2379    1.1348   -2.8397 C   0  0  0  0  0  0  0  0  0  0  0  0
   -0.1911   -0.5053    0.8519 H   0  0  0  0  0  0  0  0  0  0  0  0
    1.6853   -1.4807   -0.9811 H   0  0  0  0  0  0  0  0  0  0  0  0
    3.1281    0.4615   -0.2015 H   0  0  0  0  0  0  0  0  0  0  0  0
    1.9306    0.7906    1.0512 H   0  0  0  0  0  0  0  0  0  0  0  0
    1.5520    2.2714   -0.9148 H   0  0  0  0  0  0  0  0  0  0  0  0
    0.1804    1.1634   -0.7359 H   0  0  0  0  0  0  0  0  0  0  0  0
    3.6001    0.8579   -3.8328 H   0  0  0  0  0  0  0  0  0  0  0  0
    3.8555    0.6418   -2.0849 H   0  0  0  0  0  0  0  0  0  0  0  0
    3.3209    2.2175   -2.7180 H   0  0  0  0  0  0  0  0  0  0  0  0
    2.3691   -1.8820    2.2324 N   0  0  0  0  0  0  0  0  0  0  0  0
    3.1334   -2.6127    3.2160 C   0  0  2  0  0  0  0  0  0  0  0  0
    2.1689   -3.1174    4.2811 C   0  0  0  0  0  0  0  0  0  0  0  0
    1.0715   -2.6042    4.4897 O   0  0  0  0  0  0  0  0  0  0  0  0
    4.2173   -1.7423    3.8328 C   0  0  0  0  0  0  0  0  0  0  0  0
    1.6373   -1.2613    2.5655 H   0  0  0  0  0  0  0  0  0  0  0  0
    3.5839   -3.4656    2.6967 H   0  0  0  0  0  0  0  0  0  0  0  0
    3.7850   -0.8825    4.3575 H   0  0  0  0  0  0  0  0  0  0  0  0
    4.8141   -2.3058    4.5575 H   0  0  0  0  0  0  0  0  0  0  0  0
    4.8926   -1.3559    3.0618 H   0  0  0  0  0  0  0  0  0  0  0  0
    2.6956   -4.1812    5.0002 N   0  0  0  0  0  0  0  0  0  0  0  0
    1.9780   -4.8276    6.0741 C   0  0  0  0  0  0  0  0  0  0  0  0
    3.6055   -4.5542    4.7462 H   0  0  0  0  0  0  0  0  0  0  0  0
    2.2470   -4.3567    7.0311 H   0  0  0  0  0  0  0  0  0  0  0  0
    0.8958   -4.7244    5.9061 H   0  0  0  0  0  0  0  0  0  0  0  0
    2.2445   -5.8945    6.1029 H   0  0  0  0  0  0  0  0  0  0  0  0
  1  3  1  0  0  0  0
  1  7  1  0  0  0  0
  1  2  2  0  0  0  0
 35 36  1  0  0  0  0
 36 44  1  0  0  0  0
 36 37  2  0  0  0  0
  8  9  1  0  0  0  0
  9 17  1  0  0  0  0
  9 10  2  0  0  0  0
 18 19  1  0  0  0  0
 19 34  1  0  0  0  0
 19 20  2  0  0  0  0
 35 38  1  0  0  0  0
  8 11  1  0  0  0  0
 44 45  1  0  0  0  0
 23 24  1  0  0  0  0
 21 22  1  0  0  0  0
 18 21  1  0  0  0  0
 22 23  1  0  0  0  0
 34 35  1  0  0  0  0
  7  8  1  0  0  0  0
 17 18  1  0  0  0  0
  3  4  1  0  0  0  0
  3  5  1  0  0  0  0
  3  6  1  0  0  0  0
 38 41  1  0  0  0  0
 38 42  1  0  0  0  0
 38 43  1  0  0  0  0
 11 14  1  0  0  0  0
 11 15  1  0  0  0  0
 11 16  1  0  0  0  0
 45 47  1  0  0  0  0
 45 48  1  0  0  0  0
 45 49  1  0  0  0  0
 24 31  1  0  0  0  0
 24 32  1  0  0  0  0
 24 33  1  0  0  0  0
 21 27  1  0  0  0  0
 21 28  1  0  0  0  0
 22 29  1  0  0  0  0
 22 30  1  0  0  0  0
 35 40  1  0  0  0  0
  8 13  1  0  0  0  0
 18 26  1  0  0  0  0
 44 46  1  0  0  0  0
  7 12  1  0  0  0  0
 34 39  1  0  0  0  0
 17 25  1  0  0  0  0
M  END
$$$$

  -OEChem-02062319033D

 49 48  0     1  0  0  0  0  0999 V2000
   -0.0561   -5.3799    2.6949 C   0  0  0  0  0  0  0  0  0  0  0  0
    0.7325   -5.0736    3.5815 O   0  0  0  0  0  0  0  0  0  0  0  0
   -1.0067   -6.5099    2.9135 C   0  0  0  0  0  0  0  0  0  0  0  0
   -0.5910   -7.4777    2.5899 H   0  0  0  0  0  0  0  0  0  0  0  0
   -1.2629   -6.6440    3.9767 H   0  0  0  0  0  0  0  0  0  0  0  0
   -1.9729   -6.4206    2.3918 H   0  0  0  0  0  0  0  0  0  0  0  0
   -0.1735   -4.7694    1.4571 N   0  0  0  0  0  0  0  0  0  0  0  0
    0.6439   -3.6603    1.0409 C   0  0  2  0  0  0  0  0  0  0  0  0
   -0.2788   -2.5625    0.5280 C   0  0  0  0  0  0  0  0  0  0  0  0
   -1.4197   -2.7791    0.1251 O   0  0  0  0  0  0  0  0  0  0  0  0
    1.6395   -4.0779   -0.0301 C   0  0  0  0  0  0  0  0  0  0  0  0
   -0.8741   -5.1235    0.8083 H   0  0  0  0  0  0  0  0  0  0  0  0
    1.1738   -3.3062    1.9318 H   0  0  0  0  0  0  0  0  0  0  0  0
    1.1270   -4.4358   -0.9305 H   0  0  0  0  0  0  0  0  0  0  0  0
    2.2797   -3.2400   -0.3251 H   0  0  0  0  0  0  0  0  0  0  0  0
    2.2827   -4.8880    0.3303 H   0  0  0  0  0  0  0  0  0  0  0  0
    0.3351   -1.3153    0.5316 N   0  0  0  0  0  0  0  0  0  0  0  0
    1.5293   -1.0311   -0.2216 C   0  0  2  0  0  0  0  0  0  0  0  0
    2.6420   -1.9603    0.2537 C   0  0  0  0  0  0  0  0  0  0  0  0
    3.3729   -2.5780   -0.5179 O   0  0  0  0  0  0  0  0  0  0  0  0
    1.9203    0.4513   -0.1488 C   0  0  0  0  0  0  0  0  0  0  0  0
    0.9140    1.3858   -0.8246 C   0  0  0  0  0  0  0  0  0  0  0  0
    0.7680    0.9932   -2.5934 S   0  0  0  0  0  0  0  0  0  0  0  0
    2.4068    1.5446   -3.1186 C   0  0  0  0  0  0  0  0  0  0  0  0
   -0.0919   -0.5547    1.0558 H   0  0  0  0  0  0  0  0  0  0  0  0
    1.2948   -1.2877   -1.2619 H   0  0  0  0  0  0  0  0  0  0  0  0
    2.9040    0.5730   -0.6218 H   0  0  0  0  0  0  0  0  0  0  0  0
    2.0346    0.7399    0.9039 H   0  0  0  0  0  0  0  0  0  0  0  0
    1.2288    2.4300   -0.7378 H   0  0  0  0  0  0  0  0  0  0  0  0
   -0.0779    1.2895   -0.3733 H   0  0  0  0  0  0  0  0  0  0  0  0
    2.5248    1.3882   -4.1936 H   0  0  0  0  0  0  0  0  0  0  0  0
    3.1764    0.9775   -2.5892 H   0  0  0  0  0  0  0  0  0  0  0  0
    2.5296    2.6074   -2.8965 H   0  0  0  0  0  0  0  0  0  0  0  0
    2.7011   -2.0437    1.6374 N   0  0  0  0  0  0  0  0  0  0  0  0
    3.6635   -2.8710    2.3265 C   0  0  2  0  0  0  0  0  0  0  0  0
    2.9663   -3.5077    3.5214 C   0  0  0  0  0  0  0  0  0  0  0  0
    1.9541   -3.0373    4.0364 O   0  0  0  0  0  0  0  0  0  0  0  0
    4.8720   -2.0615    2.7701 C   0  0  0  0  0  0  0  0  0  0  0  0
    2.0747   -1.4756    2.2000 H   0  0  0  0  0  0  0  0  0  0  0  0
    3.9700   -3.6526    1.6227 H   0  0  0  0  0  0  0  0  0  0  0  0
    4.5846   -1.2735    3.4757 H   0  0  0  0  0  0  0  0  0  0  0  0
    5.6136   -2.6957    3.2671 H   0  0  0  0  0  0  0  0  0  0  0  0
    5.3547   -1.5801    1.9128 H   0  0  0  0  0  0  0  0  0  0  0  0
    3.6319   -4.6391    3.9721 N   0  0  0  0  0  0  0  0  0  0  0  0
    3.1751   -5.4141    5.1021 C   0  0  0  0  0  0  0  0  0  0  0  0
    4.4531   -4.9678    3.4728 H   0  0  0  0  0  0  0  0  0  0  0  0
    3.6650   -5.0518    6.0179 H   0  0  0  0  0  0  0  0  0  0  0  0
    2.0849   -5.3077    5.2029 H   0  0  0  0  0  0  0  0  0  0  0  0
    3.4272   -6.4734    4.9460 H   0  0  0  0  0  0  0  0  0  0  0  0
  1  3  1  0  0  0  0
  1  7  1  0  0  0  0
  1  2  2  0  0  0  0
 35 36  1  0  0  0  0
 36 44  1  0  0  0  0
 36 37  2  0  0  0  0
  8  9  1  0  0  0  0
  9 17  1  0  0  0  0
  9 10  2  0  0  0  0
 18 19  1  0  0  0  0
 19 34  1  0  0  0  0
 19 20  2  0  0  0  0
 35 38  1  0  0  0  0
  8 11  1  0  0  0  0
 44 45  1  0  0  0  0
 23 24  1  0  0  0  0
 21 22  1  0  0  0  0
 18 21  1  0  0  0  0
 22 23  1  0  0  0  0
 34 35  1  0  0  0  0
  7  8  1  0  0  0  0
 17 18  1  0  0  0  0
  3  4  1  0  0  0  0
  3  5  1  0  0  0  0
  3  6  1  0  0  0  0
 38 41  1  0  0  0  0
 38 42  1  0  0  0  0
 38 43  1  0  0  0  0
 11 14  1  0  0  0  0
 11 15  1  0  0  0  0
 11 16  1  0  0  0  0
 45 47  1  0  0  0  0
 45 48  1  0  0  0  0
 45 49  1  0  0  0  0
 24 31  1  0  0  0  0
 24 32  1  0  0  0  0
 24 33  1  0  0  0  0
 21 27  1  0  0  0  0
 21 28  1  0  0  0  0
 22 29  1  0  0  0  0
 22 30  1  0  0  0  0
 35 40  1  0  0  0  0
  8 13  1  0  0  0  0
 18 26  1  0  0  0  0
 44 46  1  0  0  0  0
  7 12  1  0  0  0  0
 34 39  1  0  0  0  0
 17 25  1  0  0  0  0
M  END
$$$$

  -OEChem-02062319033D

 49 48  0     1  0  0  0  0  0999 V2000
   -0.0561   -5.3799    2.6949 C   0  0  0  0  0  0  0  0  0  0  0  0
    0.7325   -5.0736    3.5815 O   0  0  0  0  0  0  0  0  0  0  0  0
   -1.0067   -6.5099    2.9135 C   0  0  0  0  0  0  0  0  0  0  0  0
   -0.5910   -7.4777    2.5899 H   0  0  0  0  0  0  0  0  0  0  0  0
   -1.2629   -6.6440    3.9767 H   0  0  0  0  0  0  0  0  0  0  0  0
   -1.9729   -6.4206    2.3918 H   0  0  0  0  0  0  0  0  0  0  0  0
   -0.1735   -4.7694    1.4571 N   0  0  0  0  0  0  0  0  0  0  0  0
    0.6439   -3.6603    1.0409 C   0  0  2  0  0  0  0  0  0  0  0  0
   -0.2788   -2.5625    0.5280 C   0  0  0  0  0  0  0  0  0  0  0  0
   -1.4197   -2.7791    0.1251 O   0  0  0  0  0  0  0  0  0  0  0  0
    1.6395   -4.0779   -0.0301 C   0  0  0  0  0  0  0  0  0  0  0  0
   -0.8741   -5.1235    0.8083 H   0  0  0  0  0  0  0  0  0  0  0  0
    1.1738   -3.3062    1.9318 H   0  0  0  0  0  0  0  0  0  0  0  0
    1.1270   -4.4358   -0.9305 H   0  0  0  0  0  0  0  0  0  0  0  0
    2.2797   -3.2400   -0.3251 H   0  0  0  0  0  0  0  0  0  0  0  0
    2.2827   -4.8880    0.3303 H   0  0  0  0  0  0  0  0  0  0  0  0
    0.3351   -1.3153    0.5316 N   0  0  0  0  0  0  0  0  0  0  0  0
    1.3252   -0.9300   -0.4407 C   0  0  2  0  0  0  0  0  0  0  0  0
    2.5059   -1.8916   -0.3462 C   0  0  0  0  0  0  0  0  0  0  0  0
    3.0296   -2.4067   -1.3319 O   0  0  0  0  0  0  0  0  0  0  0  0
    1.7414    0.5398   -0.2916 C   0  0  0  0  0  0  0  0  0  0  0  0
    0.6178    1.5310   -0.6039 C   0  0  0  0  0  0  0  0  0  0  0  0
    0.0600    1.3409   -2.3234 S   0  0  0  0  0  0  0  0  0  0  0  0
    1.5389    1.9719   -3.1481 C   0  0  0  0  0  0  0  0  0  0  0  0
    0.0513   -0.6256    1.2240 H   0  0  0  0  0  0  0  0  0  0  0  0
    0.8523   -1.0694   -1.4204 H   0  0  0  0  0  0  0  0  0  0  0  0
    2.5899    0.7285   -0.9630 H   0  0  0  0  0  0  0  0  0  0  0  0
    2.1008    0.7077    0.7317 H   0  0  0  0  0  0  0  0  0  0  0  0
    0.9576    2.5627   -0.4737 H   0  0  0  0  0  0  0  0  0  0  0  0
   -0.2433    1.3697    0.0514 H   0  0  0  0  0  0  0  0  0  0  0  0
    1.4021    1.9409   -4.2318 H   0  0  0  0  0  0  0  0  0  0  0  0
    2.4031    1.3589   -2.8804 H   0  0  0  0  0  0  0  0  0  0  0  0
    1.7236    3.0040   -2.8405 H   0  0  0  0  0  0  0  0  0  0  0  0
    2.8837   -2.1316    0.9671 N   0  0  0  0  0  0  0  0  0  0  0  0
    3.9691   -3.0186    1.3146 C   0  0  2  0  0  0  0  0  0  0  0  0
    3.5603   -3.7974    2.5579 C   0  0  0  0  0  0  0  0  0  0  0  0
    2.7015   -3.4032    3.3442 O   0  0  0  0  0  0  0  0  0  0  0  0
    5.2579   -2.2480    1.5551 C   0  0  0  0  0  0  0  0  0  0  0  0
    2.4124   -1.6405    1.7210 H   0  0  0  0  0  0  0  0  0  0  0  0
    4.0937   -3.7102    0.4743 H   0  0  0  0  0  0  0  0  0  0  0  0
    5.1523   -1.5499    2.3935 H   0  0  0  0  0  0  0  0  0  0  0  0
    6.0864   -2.9242    1.7905 H   0  0  0  0  0  0  0  0  0  0  0  0
    5.5344   -1.6651    0.6700 H   0  0  0  0  0  0  0  0  0  0  0  0
    4.2978   -4.9633    2.7093 N   0  0  0  0  0  0  0  0  0  0  0  0
    4.1061   -5.8687    3.8182 C   0  0  0  0  0  0  0  0  0  0  0  0
    4.9764   -5.2212    1.9988 H   0  0  0  0  0  0  0  0  0  0  0  0
    4.7999   -5.6065    4.6305 H   0  0  0  0  0  0  0  0  0  0  0  0
    3.0706   -5.7899    4.1808 H   0  0  0  0  0  0  0  0  0  0  0  0
    4.3014   -6.8995    3.4877 H   0  0  0  0  0  0  0  0  0  0  0  0
  1  3  1  0  0  0  0
  1  7  1  0  0  0  0
  1  2  2  0  0  0  0
 35 36  1  0  0  0  0
 36 44  1  0  0  0  0
 36 37  2  0  0  0  0
  8  9  1  0  0  0  0
  9 17  1  0  0  0  0
  9 10  2  0  0  0  0
 18 19  1  0  0  0  0
 19 34  1  0  0  0  0
 19 20  2  0  0  0  0
 35 38  1  0  0  0  0
  8 11  1  0  0  0  0
 44 45  1  0  0  0  0
 23 24  1  0  0  0  0
 21 22  1  0  0  0  0
 18 21  1  0  0  0  0
 22 23  1  0  0  0  0
 34 35  1  0  0  0  0
  7  8  1  0  0  0  0
 17 18  1  0  0  0  0
  3  4  1  0  0  0  0
  3  5  1  0  0  0  0
  3  6  1  0  0  0  0
 38 41  1  0  0  0  0
 38 42  1  0  0  0  0
 38 43  1  0  0  0  0
 11 14  1  0  0  0  0
 11 15  1  0  0  0  0
 11 16  1  0  0  0  0
 45 47  1  0  0  0  0
 45 48  1  0  0  0  0
 45 49  1  0  0  0  0
 24 31  1  0  0  0  0
 24 32  1  0  0  0  0
 24 33  1  0  0  0  0
 21 27  1  0  0  0  0
 21 28  1  0  0  0  0
 22 29  1  0  0  0  0
 22 30  1  0  0  0  0
 35 40  1  0  0  0  0
  8 13  1  0  0  0  0
 18 26  1  0  0  0  0
 44 46  1  0  0  0  0
  7 12  1  0  0  0  0
 34 39  1  0  0  0  0
 17 25  1  0  0  0  0
M  END
$$$$

  -OEChem-02062319033D

 49 48  0     1  0  0  0  0  0999 V2000
   -0.0561   -5.3799    2.6949 C   0  0  0  0  0  0  0  0  0  0  0  0
    0.7325   -5.0736    3.5815 O   0  0  0  0  0  0  0  0  0  0  0  0
   -1.0067   -6.5099    2.9135 C   0  0  0  0  0  0  0  0  0  0  0  0
   -0.5910   -7.4777    2.5899 H   0  0  0  0  0  0  0  0  0  0  0  0
   -1.2629   -6.6440    3.9767 H   0  0  0  0  0  0  0  0  0  0  0  0
   -1.9729   -6.4206    2.3918 H   0  0  0  0  0  0  0  0  0  0  0  0
   -0.1735   -4.7694    1.4571 N   0  0  0  0  0  0  0  0  0  0  0  0
    0.6439   -3.6603    1.0409 C   0  0  2  0  0  0  0  0  0  0  0  0
   -0.2788   -2.5625    0.5280 C   0  0  0  0  0  0  0  0  0  0  0  0
   -1.4197   -2.7791    0.1251 O   0  0  0  0  0  0  0  0  0  0  0  0
    1.6395   -4.0779   -0.0301 C   0  0  0  0  0  0  0  0  0  0  0  0
   -0.8741   -5.1235    0.8083 H   0  0  0  0  0  0  0  0  0  0  0  0
    1.1738   -3.3062    1.9318 H   0  0  0  0  0  0  0  0  0  0  0  0
    1.1270   -4.4358   -0.9305 H   0  0  0  0  0  0  0  0  0  0  0  0
    2.2797   -3.2400   -0.3251 H   0  0  0  0  0  0  0  0  0  0  0  0
    2.2827   -4.8880    0.3303 H   0  0  0  0  0  0  0  0  0  0  0  0
    0.3351   -1.3153    0.5316 N   0  0  0  0  0  0  0  0  0  0  0  0
    1.0772   -0.8075   -0.5934 C   0  0  2  0  0  0  0  0  0  0  0  0
    2.2351   -1.7568   -0.8862 C   0  0  0  0  0  0  0  0  0  0  0  0
    2.5089   -2.1485   -2.0188 O   0  0  0  0  0  0  0  0  0  0  0  0
    1.5355    0.6414   -0.3779 C   0  0  0  0  0  0  0  0  0  0  0  0
    0.3829    1.6457   -0.3053 C   0  0  0  0  0  0  0  0  0  0  0  0
   -0.5614    1.6455   -1.8584 S   0  0  0  0  0  0  0  0  0  0  0  0
    0.6935    2.3874   -2.9263 C   0  0  0  0  0  0  0  0  0  0  0  0
    0.2288   -0.7133    1.3452 H   0  0  0  0  0  0  0  0  0  0  0  0
    0.3879   -0.8408   -1.4459 H   0  0  0  0  0  0  0  0  0  0  0  0
    2.2072    0.9176   -1.2018 H   0  0  0  0  0  0  0  0  0  0  0  0
    2.1249    0.6964    0.5463 H   0  0  0  0  0  0  0  0  0  0  0  0
    0.7568    2.6606   -0.1404 H   0  0  0  0  0  0  0  0  0  0  0  0
   -0.3045    1.3985    0.5091 H   0  0  0  0  0  0  0  0  0  0  0  0
    0.3083    2.4784   -3.9448 H   0  0  0  0  0  0  0  0  0  0  0  0
    1.5883    1.7601   -2.9384 H   0  0  0  0  0  0  0  0  0  0  0  0
    0.9578    3.3801   -2.5540 H   0  0  0  0  0  0  0  0  0  0  0  0
    2.9045   -2.1399    0.2672 N   0  0  0  0  0  0  0  0  0  0  0  0
    4.0294   -3.0452    0.2494 C   0  0  2  0  0  0  0  0  0  0  0  0
    3.9106   -3.9667    1.4562 C   0  0  0  0  0  0  0  0  0  0  0  0
    3.2631   -3.6771    2.4601 O   0  0  0  0  0  0  0  0  0  0  0  0
    5.3486   -2.2890    0.2706 C   0  0  0  0  0  0  0  0  0  0  0  0
    2.6275   -1.7447    1.1610 H   0  0  0  0  0  0  0  0  0  0  0  0
    3.9466   -3.6345   -0.6703 H   0  0  0  0  0  0  0  0  0  0  0  0
    5.4496   -1.6928    1.1848 H   0  0  0  0  0  0  0  0  0  0  0  0
    6.2004   -2.9759    0.2283 H   0  0  0  0  0  0  0  0  0  0  0  0
    5.4195   -1.6049   -0.5819 H   0  0  0  0  0  0  0  0  0  0  0  0
    4.6481   -5.1317    1.2978 N   0  0  0  0  0  0  0  0  0  0  0  0
    4.7075   -6.1604    2.3099 C   0  0  0  0  0  0  0  0  0  0  0  0
    5.1397   -5.2971    0.4245 H   0  0  0  0  0  0  0  0  0  0  0  0
    5.5743   -5.9829    2.9634 H   0  0  0  0  0  0  0  0  0  0  0  0
    3.7856   -6.1383    2.9096 H   0  0  0  0  0  0  0  0  0  0  0  0
    4.8075   -7.1439    1.8274 H   0  0  0  0  0  0  0  0  0  0  0  0
  1  3  1  0  0  0  0
  1  7  1  0  0  0  0
  1  2  2  0  0  0  0
 35 36  1  0  0  0  0
 36 44  1  0  0  0  0
 36 37  2  0  0  0  0
  8  9  1  0  0  0  0
  9 17  1  0  0  0  0
  9 10  2  0  0  0  0
 18 19  1  0  0  0  0
 19 34  1  0  0  0  0
 19 20  2  0  0  0  0
 35 38  1  0  0  0  0
  8 11  1  0  0  0  0
 44 45  1  0  0  0  0
 23 24  1  0  0  0  0
 21 22  1  0  0  0  0
 18 21  1  0  0  0  0
 22 23  1  0  0  0  0
 34 35  1  0  0  0  0
  7  8  1  0  0  0  0
 17 18  1  0  0  0  0
  3  4  1  0  0  0  0
  3  5  1  0  0  0  0
  3  6  1  0  0  0  0
 38 41  1  0  0  0  0
 38 42  1  0  0  0  0
 38 43  1  0  0  0  0
 11 14  1  0  0  0  0
 11 15  1  0  0  0  0
 11 16  1  0  0  0  0
 45 47  1  0  0  0  0
 45 48  1  0  0  0  0
 45 49  1  0  0  0  0
 24 31  1  0  0  0  0
 24 32  1  0  0  0  0
 24 33  1  0  0  0  0
 21 27  1  0  0  0  0
 21 28  1  0  0  0  0
 22 29  1  0  0  0  0
 22 30  1  0  0  0  0
 35 40  1  0  0  0  0
  8 13  1  0  0  0  0
 18 26  1  0  0  0  0
 44 46  1  0  0  0  0
  7 12  1  0  0  0  0
 34 39  1  0  0  0  0
 17 25  1  0  0  0  0
M  END
$$$$

  -OEChem-02062319033D

 49 48  0     1  0  0  0  0  0999 V2000
   -0.0561   -5.3799    2.6949 C   0  0  0  0  0  0  0  0  0  0  0  0
    0.7325   -5.0736    3.5815 O   0  0  0  0  0  0  0  0  0  0  0  0
   -1.0067   -6.5099    2.9135 C   0  0  0  0  0  0  0  0  0  0  0  0
   -0.5910   -7.4777    2.5899 H   0  0  0  0  0  0  0  0  0  0  0  0
   -1.2629   -6.6440    3.9767 H   0  0  0  0  0  0  0  0  0  0  0  0
   -1.9729   -6.4206    2.3918 H   0  0  0  0  0  0  0  0  0  0  0  0
   -0.1735   -4.7694    1.4571 N   0  0  0  0  0  0  0  0  0  0  0  0
    0.6439   -3.6603    1.0409 C   0  0  2  0  0  0  0  0  0  0  0  0
   -0.2788   -2.5625    0.5280 C   0  0  0  0  0  0  0  0  0  0  0  0
   -1.4197   -2.7791    0.1251 O   0  0  0  0  0  0  0  0  0  0  0  0
    1.6395   -4.0779   -0.0301 C   0  0  0  0  0  0  0  0  0  0  0  0
   -0.8741   -5.1235    0.8083 H   0  0  0  0  0  0  0  0  0  0  0  0
    1.1738   -3.3062    1.9318 H   0  0  0  0  0  0  0  0  0  0  0  0
    1.1270   -4.4358   -0.9305 H   0  0  0  0  0  0  0  0  0  0  0  0
    2.2797   -3.2400   -0.3251 H   0  0  0  0  0  0  0  0  0  0  0  0
    2.2827   -4.8880    0.3303 H   0  0  0  0  0  0  0  0  0  0  0  0
    0.3351   -1.3153    0.5316 N   0  0  0  0  0  0  0  0  0  0  0  0
    0.8021   -0.6719   -0.6693 C   0  0  2  0  0  0  0  0  0  0  0  0
    1.8480   -1.5651   -1.3295 C   0  0  0  0  0  0  0  0  0  0  0  0
    1.8463   -1.8209   -2.5319 O   0  0  0  0  0  0  0  0  0  0  0  0
    1.3165    0.7492   -0.4019 C   0  0  0  0  0  0  0  0  0  0  0  0
    0.2252    1.7223    0.0508 C   0  0  0  0  0  0  0  0  0  0  0  0
   -1.0539    1.8861   -1.2302 S   0  0  0  0  0  0  0  0  0  0  0  0
   -0.0719    2.7628   -2.4682 C   0  0  0  0  0  0  0  0  0  0  0  0
    0.4284   -0.8118    1.4110 H   0  0  0  0  0  0  0  0  0  0  0  0
   -0.0667   -0.6173   -1.3365 H   0  0  0  0  0  0  0  0  0  0  0  0
    1.7820    1.1272   -1.3220 H   0  0  0  0  0  0  0  0  0  0  0  0
    2.1050    0.7067    0.3604 H   0  0  0  0  0  0  0  0  0  0  0  0
    0.6402    2.7169    0.2393 H   0  0  0  0  0  0  0  0  0  0  0  0
   -0.2573    1.3739    0.9688 H   0  0  0  0  0  0  0  0  0  0  0  0
   -0.6819    2.9641   -3.3521 H   0  0  0  0  0  0  0  0  0  0  0  0
    0.7875    2.1538   -2.7594 H   0  0  0  0  0  0  0  0  0  0  0  0
    0.2844    3.7101   -2.0564 H   0  0  0  0  0  0  0  0  0  0  0  0
    2.7620   -2.0678   -0.4147 N   0  0  0  0  0  0  0  0  0  0  0  0
    3.8403   -2.9492   -0.7966 C   0  0  2  0  0  0  0  0  0  0  0  0
    3.9932   -4.0040    0.2913 C   0  0  0  0  0  0  0  0  0  0  0  0
    3.6003   -3.8402    1.4445 O   0  0  0  0  0  0  0  0  0  0  0  0
    5.1380   -2.1818   -0.9959 C   0  0  0  0  0  0  0  0  0  0  0  0
    2.7053   -1.7813    0.5582 H   0  0  0  0  0  0  0  0  0  0  0  0
    3.5386   -3.4307   -1.7331 H   0  0  0  0  0  0  0  0  0  0  0  0
    5.4562   -1.6925   -0.0681 H   0  0  0  0  0  0  0  0  0  0  0  0
    5.9477   -2.8472   -1.3131 H   0  0  0  0  0  0  0  0  0  0  0  0
    5.0177   -1.4038   -1.7575 H   0  0  0  0  0  0  0  0  0  0  0  0
    4.6587   -5.1328   -0.1661 N   0  0  0  0  0  0  0  0  0  0  0  0
    4.9383   -6.2694    0.6800 C   0  0  0  0  0  0  0  0  0  0  0  0
    4.9319   -5.1904   -1.1428 H   0  0  0  0  0  0  0  0  0  0  0  0
    5.9354   -6.1555    1.1303 H   0  0  0  0  0  0  0  0  0  0  0  0
    4.1813   -6.3290    1.4758 H   0  0  0  0  0  0  0  0  0  0  0  0
    4.9109   -7.1898    0.0782 H   0  0  0  0  0  0  0  0  0  0  0  0
  1  3  1  0  0  0  0
  1  7  1  0  0  0  0
  1  2  2  0  0  0  0
 35 36  1  0  0  0  0
 36 44  1  0  0  0  0
 36 37  2  0  0  0  0
  8  9  1  0  0  0  0
  9 17  1  0  0  0  0
  9 10  2  0  0  0  0
 18 19  1  0  0  0  0
 19 34  1  0  0  0  0
 19 20  2  0  0  0  0
 35 38  1  0  0  0  0
  8 11  1  0  0  0  0
 44 45  1  0  0  0  0
 23 24  1  0  0  0  0
 21 22  1  0  0  0  0
 18 21  1  0  0  0  0
 22 23  1  0  0  0  0
 34 35  1  0  0  0  0
  7  8  1  0  0  0  0
 17 18  1  0  0  0  0
  3  4  1  0  0  0  0
  3  5  1  0  0  0  0
  3  6  1  0  0  0  0
 38 41  1  0  0  0  0
 38 42  1  0  0  0  0
 38 43  1  0  0  0  0
 11 14  1  0  0  0  0
 11 15  1  0  0  0  0
 11 16  1  0  0  0  0
 45 47  1  0  0  0  0
 45 48  1  0  0  0  0
 45 49  1  0  0  0  0
 24 31  1  0  0  0  0
 24 32  1  0  0  0  0
 24 33  1  0  0  0  0
 21 27  1  0  0  0  0
 21 28  1  0  0  0  0
 22 29  1  0  0  0  0
 22 30  1  0  0  0  0
 35 40  1  0  0  0  0
  8 13  1  0  0  0  0
 18 26  1  0  0  0  0
 44 46  1  0  0  0  0
  7 12  1  0  0  0  0
 34 39  1  0  0  0  0
 17 25  1  0  0  0  0
M  END
$$$$

  -OEChem-02062319033D

 49 48  0     1  0  0  0  0  0999 V2000
   -0.0561   -5.3799    2.6949 C   0  0  0  0  0  0  0  0  0  0  0  0
    0.7325   -5.0736    3.5815 O   0  0  0  0  0  0  0  0  0  0  0  0
   -1.0067   -6.5099    2.9135 C   0  0  0  0  0  0  0  0  0  0  0  0
   -0.5910   -7.4777    2.5899 H   0  0  0  0  0  0  0  0  0  0  0  0
   -1.2629   -6.6440    3.9767 H   0  0  0  0  0  0  0  0  0  0  0  0
   -1.9729   -6.4206    2.3918 H   0  0  0  0  0  0  0  0  0  0  0  0
   -0.1735   -4.7694    1.4571 N   0  0  0  0  0  0  0  0  0  0  0  0
    0.6439   -3.6603    1.0409 C   0  0  2  0  0  0  0  0  0  0  0  0
   -0.2788   -2.5625    0.5280 C   0  0  0  0  0  0  0  0  0  0  0  0
   -1.4197   -2.7791    0.1251 O   0  0  0  0  0  0  0  0  0  0  0  0
    1.6395   -4.0779   -0.0301 C   0  0  0  0  0  0  0  0  0  0  0  0
   -0.8741   -5.1235    0.8083 H   0  0  0  0  0  0  0  0  0  0  0  0
    1.1738   -3.3062    1.9318 H   0  0  0  0  0  0  0  0  0  0  0  0
    1.1270   -4.4358   -0.9305 H   0  0  0  0  0  0  0  0  0  0  0  0
    2.2797   -3.2400   -0.3251 H   0  0  0  0  0  0  0  0  0  0  0  0
    2.2827   -4.8880    0.3303 H   0  0  0  0  0  0  0  0  0  0  0  0
    0.3351   -1.3153    0.5316 N   0  0  0  0  0  0  0  0  0  0  0  0
    0.5187   -0.5324   -0.6632 C   0  0  2  0  0  0  0  0  0  0  0  0
    1.3710   -1.3294   -1.6459 C   0  0  0  0  0  0  0  0  0  0  0  0
    1.0868   -1.4462   -2.8362 O   0  0  0  0  0  0  0  0  0  0  0  0
    1.0993    0.8560   -0.3618 C   0  0  0  0  0  0  0  0  0  0  0  0
    0.1556    1.7555    0.4401 C   0  0  0  0  0  0  0  0  0  0  0  0
   -1.3839    2.0464   -0.4815 S   0  0  0  0  0  0  0  0  0  0  0  0
   -0.7050    3.0725   -1.8050 C   0  0  0  0  0  0  0  0  0  0  0  0
    0.6366   -0.9142    1.4170 H   0  0  0  0  0  0  0  0  0  0  0  0
   -0.4806   -0.4143   -1.0997 H   0  0  0  0  0  0  0  0  0  0  0  0
    1.3431    1.3432   -1.3154 H   0  0  0  0  0  0  0  0  0  0  0  0
    2.0427    0.7379    0.1866 H   0  0  0  0  0  0  0  0  0  0  0  0
    0.6158    2.7278    0.6396 H   0  0  0  0  0  0  0  0  0  0  0  0
   -0.1050    1.2977    1.3990 H   0  0  0  0  0  0  0  0  0  0  0  0
   -1.5010    3.3649   -2.4942 H   0  0  0  0  0  0  0  0  0  0  0  0
    0.0554    2.5130   -2.3555 H   0  0  0  0  0  0  0  0  0  0  0  0
   -0.2507    3.9716   -1.3817 H   0  0  0  0  0  0  0  0  0  0  0  0
    2.4660   -1.9204   -1.0319 N   0  0  0  0  0  0  0  0  0  0  0  0
    3.4147   -2.7370   -1.7520 C   0  0  2  0  0  0  0  0  0  0  0  0
    3.8026   -3.9069   -0.8574 C   0  0  0  0  0  0  0  0  0  0  0  0
    3.6904   -3.8815    0.3665 O   0  0  0  0  0  0  0  0  0  0  0  0
    4.6404   -1.9336   -2.1580 C   0  0  0  0  0  0  0  0  0  0  0  0
    2.6405   -1.7477   -0.0463 H   0  0  0  0  0  0  0  0  0  0  0  0
    2.8976   -3.1126   -2.6417 H   0  0  0  0  0  0  0  0  0  0  0  0
    5.1716   -1.5490   -1.2798 H   0  0  0  0  0  0  0  0  0  0  0  0
    5.3457   -2.5468   -2.7286 H   0  0  0  0  0  0  0  0  0  0  0  0
    4.3565   -1.0755   -2.7768 H   0  0  0  0  0  0  0  0  0  0  0  0
    4.3291   -4.9665   -1.5828 N   0  0  0  0  0  0  0  0  0  0  0  0
    4.7829   -6.1883   -0.9605 C   0  0  0  0  0  0  0  0  0  0  0  0
    4.3671   -4.9083   -2.5962 H   0  0  0  0  0  0  0  0  0  0  0  0
    5.8587   -6.1124   -0.7439 H   0  0  0  0  0  0  0  0  0  0  0  0
    4.2307   -6.3490   -0.0228 H   0  0  0  0  0  0  0  0  0  0  0  0
    4.6047   -7.0342   -1.6406 H   0  0  0  0  0  0  0  0  0  0  0  0
  1  3  1  0  0  0  0
  1  7  1  0  0  0  0
  1  2  2  0  0  0  0
 35 36  1  0  0  0  0
 36 44  1  0  0  0  0
 36 37  2  0  0  0  0
  8  9  1  0  0  0  0
  9 17  1  0  0  0  0
  9 10  2  0  0  0  0
 18 19  1  0  0  0  0
 19 34  1  0  0  0  0
 19 20  2  0  0  0  0
 35 38  1  0  0  0  0
  8 11  1  0  0  0  0
 44 45  1  0  0  0  0
 23 24  1  0  0  0  0
 21 22  1  0  0  0  0
 18 21  1  0  0  0  0
 22 23  1  0  0  0  0
 34 35  1  0  0  0  0
  7  8  1  0  0  0  0
 17 18  1  0  0  0  0
  3  4  1  0  0  0  0
  3  5  1  0  0  0  0
  3  6  1  0  0  0  0
 38 41  1  0  0  0  0
 38 42  1  0  0  0  0
 38 43  1  0  0  0  0
 11 14  1  0  0  0  0
 11 15  1  0  0  0  0
 11 16  1  0  0  0  0
 45 47  1  0  0  0  0
 45 48  1  0  0  0  0
 45 49  1  0  0  0  0
 24 31  1  0  0  0  0
 24 32  1  0  0  0  0
 24 33  1  0  0  0  0
 21 27  1  0  0  0  0
 21 28  1  0  0  0  0
 22 29  1  0  0  0  0
 22 30  1  0  0  0  0
 35 40  1  0  0  0  0
  8 13  1  0  0  0  0
 18 26  1  0  0  0  0
 44 46  1  0  0  0  0
  7 12  1  0  0  0  0
 34 39  1  0  0  0  0
 17 25  1  0  0  0  0
M  END
$$$$

  -OEChem-02062319033D

 49 48  0     1  0  0  0  0  0999 V2000
   -0.0561   -5.3799    2.6949 C   0  0  0  0  0  0  0  0  0  0  0  0
    0.7325   -5.0736    3.5815 O   0  0  0  0  0  0  0  0  0  0  0  0
   -1.0067   -6.5099    2.9135 C   0  0  0  0  0  0  0  0  0  0  0  0
   -0.5910   -7.4777    2.5899 H   0  0  0  0  0  0  0  0  0  0  0  0
   -1.2629   -6.6440    3.9767 H   0  0  0  0  0  0  0  0  0  0  0  0
   -1.9729   -6.4206    2.3918 H   0  0  0  0  0  0  0  0  0  0  0  0
   -0.1735   -4.7694    1.4571 N   0  0  0  0  0  0  0  0  0  0  0  0
    0.6439   -3.6603    1.0409 C   0  0  2  0  0  0  0  0  0  0  0  0
   -0.2788   -2.5625    0.5280 C   0  0  0  0  0  0  0  0  0  0  0  0
   -1.4197   -2.7791    0.1251 O   0  0  0  0  0  0  0  0  0  0  0  0
    1.6395   -4.0779   -0.0301 C   0  0  0  0  0  0  0  0  0  0  0  0
   -0.8741   -5.1235    0.8083 H   0  0  0  0  0  0  0  0  0  0  0  0
    1.1738   -3.3062    1.9318 H   0  0  0  0  0  0  0  0  0  0  0  0
    1.1270   -4.4358   -0.9305 H   0  0  0  0  0  0  0  0  0  0  0  0
    2.2797   -3.2400   -0.3251 H   0  0  0  0  0  0  0  0  0  0  0  0
    2.2827   -4.8880    0.3303 H   0  0  0  0  0  0  0  0  0  0  0  0
    0.3351   -1.3153    0.5316 N   0  0  0  0  0  0  0  0  0  0  0  0
    0.2462   -0.3986   -0.5756 C   0  0  2  0  0  0  0  0  0  0  0  0
    0.8367   -1.0659   -1.8138 C   0  0  0  0  0  0  0  0  0  0  0  0
    0.2823   -1.0500   -2.9109 O   0  0  0  0  0  0  0  0  0  0  0  0
    0.8987    0.9545   -0.2604 C   0  0  0  0  0  0  0  0  0  0  0  0
    0.1787    1.7430    0.8361 C   0  0  0  0  0  0  0  0  0  0  0  0
   -1.5288    2.1154    0.3366 S   0  0  0  0  0  0  0  0  0  0  0  0
   -1.1628    3.2955   -0.9821 C   0  0  0  0  0  0  0  0  0  0  0  0
    0.8391   -1.0138    1.3627 H   0  0  0  0  0  0  0  0  0  0  0  0
   -0.8255   -0.2455   -0.7517 H   0  0  0  0  0  0  0  0  0  0  0  0
    0.9207    1.5507   -1.1825 H   0  0  0  0  0  0  0  0  0  0  0  0
    1.9421    0.7878    0.0367 H   0  0  0  0  0  0  0  0  0  0  0  0
    0.6851    2.6926    1.0332 H   0  0  0  0  0  0  0  0  0  0  0  0
    0.1421    1.1751    1.7705 H   0  0  0  0  0  0  0  0  0  0  0  0
   -2.0933    3.6534   -1.4295 H   0  0  0  0  0  0  0  0  0  0  0  0
   -0.5583    2.8134   -1.7543 H   0  0  0  0  0  0  0  0  0  0  0  0
   -0.6111    4.1467   -0.5758 H   0  0  0  0  0  0  0  0  0  0  0  0
    2.0366   -1.7076   -1.5426 N   0  0  0  0  0  0  0  0  0  0  0  0
    2.7816   -2.4231   -2.5518 C   0  0  2  0  0  0  0  0  0  0  0  0
    3.3516   -3.6820   -1.9115 C   0  0  0  0  0  0  0  0  0  0  0  0
    3.5270   -3.7981   -0.7004 O   0  0  0  0  0  0  0  0  0  0  0  0
    3.8897   -1.5613   -3.1367 C   0  0  0  0  0  0  0  0  0  0  0  0
    2.4375   -1.6462   -0.6113 H   0  0  0  0  0  0  0  0  0  0  0  0
    2.0672   -2.7020   -3.3341 H   0  0  0  0  0  0  0  0  0  0  0  0
    4.6153   -1.2721   -2.3677 H   0  0  0  0  0  0  0  0  0  0  0  0
    4.4353   -2.0953   -3.9217 H   0  0  0  0  0  0  0  0  0  0  0  0
    3.4809   -0.6423   -3.5703 H   0  0  0  0  0  0  0  0  0  0  0  0
    3.6815   -4.6442   -2.8557 N   0  0  0  0  0  0  0  0  0  0  0  0
    4.2518   -5.9225   -2.4996 C   0  0  0  0  0  0  0  0  0  0  0  0
    3.4840   -4.4701   -3.8367 H   0  0  0  0  0  0  0  0  0  0  0  0
    5.3494   -5.8566   -2.5316 H   0  0  0  0  0  0  0  0  0  0  0  0
    3.9305   -6.1971   -1.4841 H   0  0  0  0  0  0  0  0  0  0  0  0
    3.9096   -6.6877   -3.2120 H   0  0  0  0  0  0  0  0  0  0  0  0
  1  3  1  0  0  0  0
  1  7  1  0  0  0  0
  1  2  2  0  0  0  0
 35 36  1  0  0  0  0
 36 44  1  0  0  0  0
 36 37  2  0  0  0  0
  8  9  1  0  0  0  0
  9 17  1  0  0  0  0
  9 10  2  0  0  0  0
 18 19  1  0  0  0  0
 19 34  1  0  0  0  0
 19 20  2  0  0  0  0
 35 38  1  0  0  0  0
  8 11  1  0  0  0  0
 44 45  1  0  0  0  0
 23 24  1  0  0  0  0
 21 22  1  0  0  0  0
 18 21  1  0  0  0  0
 22 23  1  0  0  0  0
 34 35  1  0  0  0  0
  7  8  1  0  0  0  0
 17 18  1  0  0  0  0
  3  4  1  0  0  0  0
  3  5  1  0  0  0  0
  3  6  1  0  0  0  0
 38 41  1  0  0  0  0
 38 42  1  0  0  0  0
 38 43  1  0  0  0  0
 11 14  1  0  0  0  0
 11 15  1  0  0  0  0
 11 16  1  0  0  0  0
 45 47  1  0  0  0  0
 45 48  1  0  0  0  0
 45 49  1  0  0  0  0
 24 31  1  0  0  0  0
 24 32  1  0  0  0  0
 24 33  1  0  0  0  0
 21 27  1  0  0  0  0
 21 28  1  0  0  0  0
 22 29  1  0  0  0  0
 22 30  1  0  0  0  0
 35 40  1  0  0  0  0
  8 13  1  0  0  0  0
 18 26  1  0  0  0  0
 44 46  1  0  0  0  0
  7 12  1  0  0  0  0
 34 39  1  0  0  0  0
 17 25  1  0  0  0  0
M  END
$$$$

  -OEChem-02062319033D

 49 48  0     1  0  0  0  0  0999 V2000
   -0.0561   -5.3799    2.6949 C   0  0  0  0  0  0  0  0  0  0  0  0
    0.7325   -5.0736    3.5815 O   0  0  0  0  0  0  0  0  0  0  0  0
   -1.0067   -6.5099    2.9135 C   0  0  0  0  0  0  0  0  0  0  0  0
   -0.5910   -7.4777    2.5899 H   0  0  0  0  0  0  0  0  0  0  0  0
   -1.2629   -6.6440    3.9767 H   0  0  0  0  0  0  0  0  0  0  0  0
   -1.9729   -6.4206    2.3918 H   0  0  0  0  0  0  0  0  0  0  0  0
   -0.1735   -4.7694    1.4571 N   0  0  0  0  0  0  0  0  0  0  0  0
    0.6439   -3.6603    1.0409 C   0  0  2  0  0  0  0  0  0  0  0  0
   -0.2788   -2.5625    0.5280 C   0  0  0  0  0  0  0  0  0  0  0  0
   -1.4197   -2.7791    0.1251 O   0  0  0  0  0  0  0  0  0  0  0  0
    1.6395   -4.0779   -0.0301 C   0  0  0  0  0  0  0  0  0  0  0  0
   -0.8741   -5.1235    0.8083 H   0  0  0  0  0  0  0  0  0  0  0  0
    1.1738   -3.3062    1.9318 H   0  0  0  0  0  0  0  0  0  0  0  0
    1.1270   -4.4358   -0.9305 H   0  0  0  0  0  0  0  0  0  0  0  0
    2.2797   -3.2400   -0.3251 H   0  0  0  0  0  0  0  0  0  0  0  0
    2.2827   -4.8880    0.3303 H   0  0  0  0  0  0  0  0  0  0  0  0
    0.3351   -1.3153    0.5316 N   0  0  0  0  0  0  0  0  0  0  0  0
    0.0033   -0.2795   -0.4123 C   0  0  2  0  0  0  0  0  0  0  0  0
    0.2814   -0.7926   -1.8219 C   0  0  0  0  0  0  0  0  0  0  0  0
   -0.5123   -0.6594   -2.7511 O   0  0  0  0  0  0  0  0  0  0  0  0
    0.7285    1.0378   -0.1047 C   0  0  0  0  0  0  0  0  0  0  0  0
    0.2930    1.6857    1.2118 C   0  0  0  0  0  0  0  0  0  0  0  0
   -1.4789    2.0885    1.1684 S   0  0  0  0  0  0  0  0  0  0  0  0
   -1.4140    3.4166   -0.0553 C   0  0  0  0  0  0  0  0  0  0  0  0
    1.0222   -1.1036    1.2518 H   0  0  0  0  0  0  0  0  0  0  0  0
   -1.0780   -0.1225   -0.3161 H   0  0  0  0  0  0  0  0  0  0  0  0
    0.5433    1.7358   -0.9322 H   0  0  0  0  0  0  0  0  0  0  0  0
    1.8101    0.8531   -0.0790 H   0  0  0  0  0  0  0  0  0  0  0  0
    0.8435    2.6136    1.3932 H   0  0  0  0  0  0  0  0  0  0  0  0
    0.4672    1.0143    2.0579 H   0  0  0  0  0  0  0  0  0  0  0  0
   -2.4183    3.8100   -0.2306 H   0  0  0  0  0  0  0  0  0  0  0  0
   -1.0117    3.0344   -0.9968 H   0  0  0  0  0  0  0  0  0  0  0  0
   -0.7722    4.2235    0.3063 H   0  0  0  0  0  0  0  0  0  0  0  0
    1.5032   -1.4440   -1.9119 N   0  0  0  0  0  0  0  0  0  0  0  0
    1.9842   -2.0290   -3.1415 C   0  0  2  0  0  0  0  0  0  0  0  0
    2.6710   -3.3445   -2.7993 C   0  0  0  0  0  0  0  0  0  0  0  0
    3.1215   -3.5957   -1.6835 O   0  0  0  0  0  0  0  0  0  0  0  0
    2.9371   -1.0904   -3.8651 C   0  0  0  0  0  0  0  0  0  0  0  0
    2.1101   -1.4837   -1.0984 H   0  0  0  0  0  0  0  0  0  0  0  0
    1.1041   -2.2267   -3.7631 H   0  0  0  0  0  0  0  0  0  0  0  0
    3.8251   -0.8806   -3.2577 H   0  0  0  0  0  0  0  0  0  0  0  0
    3.2785   -1.5235   -4.8111 H   0  0  0  0  0  0  0  0  0  0  0  0
    2.4506   -0.1337   -4.0840 H   0  0  0  0  0  0  0  0  0  0  0  0
    2.7603   -4.1878   -3.8980 N   0  0  0  0  0  0  0  0  0  0  0  0
    3.3812   -5.4902   -3.8327 C   0  0  0  0  0  0  0  0  0  0  0  0
    2.3425   -3.9056   -4.7798 H   0  0  0  0  0  0  0  0  0  0  0  0
    4.4421   -5.4056   -4.1108 H   0  0  0  0  0  0  0  0  0  0  0  0
    3.3010   -5.8836   -2.8085 H   0  0  0  0  0  0  0  0  0  0  0  0
    2.8731   -6.1738   -4.5288 H   0  0  0  0  0  0  0  0  0  0  0  0
  1  3  1  0  0  0  0
  1  7  1  0  0  0  0
  1  2  2  0  0  0  0
 35 36  1  0  0  0  0
 36 44  1  0  0  0  0
 36 37  2  0  0  0  0
  8  9  1  0  0  0  0
  9 17  1  0  0  0  0
  9 10  2  0  0  0  0
 18 19  1  0  0  0  0
 19 34  1  0  0  0  0
 19 20  2  0  0  0  0
 35 38  1  0  0  0  0
  8 11  1  0  0  0  0
 44 45  1  0  0  0  0
 23 24  1  0  0  0  0
 21 22  1  0  0  0  0
 18 21  1  0  0  0  0
 22 23  1  0  0  0  0
 34 35  1  0  0  0  0
  7  8  1  0  0  0  0
 17 18  1  0  0  0  0
  3  4  1  0  0  0  0
  3  5  1  0  0  0  0
  3  6  1  0  0  0  0
 38 41  1  0  0  0  0
 38 42  1  0  0  0  0
 38 43  1  0  0  0  0
 11 14  1  0  0  0  0
 11 15  1  0  0  0  0
 11 16  1  0  0  0  0
 45 47  1  0  0  0  0
 45 48  1  0  0  0  0
 45 49  1  0  0  0  0
 24 31  1  0  0  0  0
 24 32  1  0  0  0  0
 24 33  1  0  0  0  0
 21 27  1  0  0  0  0
 21 28  1  0  0  0  0
 22 29  1  0  0  0  0
 22 30  1  0  0  0  0
 35 40  1  0  0  0  0
  8 13  1  0  0  0  0
 18 26  1  0  0  0  0
 44 46  1  0  0  0  0
  7 12  1  0  0  0  0
 34 39  1  0  0  0  0
 17 25  1  0  0  0  0
M  END
$$$$

  -OEChem-02062319033D

 49 48  0     1  0  0  0  0  0999 V2000
   -0.0561   -5.3799    2.6949 C   0  0  0  0  0  0  0  0  0  0  0  0
    0.7325   -5.0736    3.5815 O   0  0  0  0  0  0  0  0  0  0  0  0
   -1.0067   -6.5099    2.9135 C   0  0  0  0  0  0  0  0  0  0  0  0
   -0.5910   -7.4777    2.5899 H   0  0  0  0  0  0  0  0  0  0  0  0
   -1.2629   -6.6440    3.9767 H   0  0  0  0  0  0  0  0  0  0  0  0
   -1.9729   -6.4206    2.3918 H   0  0  0  0  0  0  0  0  0  0  0  0
   -0.1735   -4.7694    1.4571 N   0  0  0  0  0  0  0  0  0  0  0  0
    0.6439   -3.6603    1.0409 C   0  0  2  0  0  0  0  0  0  0  0  0
   -0.2788   -2.5625    0.5280 C   0  0  0  0  0  0  0  0  0  0  0  0
   -1.4197   -2.7791    0.1251 O   0  0  0  0  0  0  0  0  0  0  0  0
    1.6395   -4.0779   -0.0301 C   0  0  0  0  0  0  0  0  0  0  0  0
   -0.8741   -5.1235    0.8083 H   0  0  0  0  0  0  0  0  0  0  0  0
    1.1738   -3.3062    1.9318 H   0  0  0  0  0  0  0  0  0  0  0  0
    1.1270   -4.4358   -0.9305 H   0  0  0  0  0  0  0  0  0  0  0  0
    2.2797   -3.2400   -0.3251 H   0  0  0  0  0  0  0  0  0  0  0  0
    2.2827   -4.8880    0.3303 H   0  0  0  0  0  0  0  0  0  0  0  0
    0.3351   -1.3153    0.5316 N   0  0  0  0  0  0  0  0  0  0  0  0
   -0.1935   -0.1832   -0.1847 C   0  0  2  0  0  0  0  0  0  0  0  0
   -0.2570   -0.5280   -1.6694 C   0  0  0  0  0  0  0  0  0  0  0  0
   -1.2431   -0.3008   -2.3674 O   0  0  0  0  0  0  0  0  0  0  0  0
    0.6001    1.1004    0.0948 C   0  0  0  0  0  0  0  0  0  0  0  0
    0.4907    1.5874    1.5417 C   0  0  0  0  0  0  0  0  0  0  0  0
   -1.2376    1.9675    1.9572 S   0  0  0  0  0  0  0  0  0  0  0  0
   -1.4416    3.4274    0.9120 C   0  0  0  0  0  0  0  0  0  0  0  0
    1.1733   -1.1775    1.0920 H   0  0  0  0  0  0  0  0  0  0  0  0
   -1.2208   -0.0536    0.1773 H   0  0  0  0  0  0  0  0  0  0  0  0
    0.2368    1.8856   -0.5817 H   0  0  0  0  0  0  0  0  0  0  0  0
    1.6557    0.9294   -0.1526 H   0  0  0  0  0  0  0  0  0  0  0  0
    1.0801    2.4963    1.6952 H   0  0  0  0  0  0  0  0  0  0  0  0
    0.8479    0.8263    2.2417 H   0  0  0  0  0  0  0  0  0  0  0  0
   -2.4540    3.8240    1.0208 H   0  0  0  0  0  0  0  0  0  0  0  0
   -1.2739    3.1610   -0.1345 H   0  0  0  0  0  0  0  0  0  0  0  0
   -0.7230    4.1967    1.2046 H   0  0  0  0  0  0  0  0  0  0  0  0
    0.9020   -1.1475   -2.1145 N   0  0  0  0  0  0  0  0  0  0  0  0
    1.0767   -1.5814   -3.4808 C   0  0  2  0  0  0  0  0  0  0  0  0
    1.8073   -2.9175   -3.4603 C   0  0  0  0  0  0  0  0  0  0  0  0
    2.5013   -3.2881   -2.5157 O   0  0  0  0  0  0  0  0  0  0  0  0
    1.8475   -0.5528   -4.2937 C   0  0  0  0  0  0  0  0  0  0  0  0
    1.6807   -1.2713   -1.4742 H   0  0  0  0  0  0  0  0  0  0  0  0
    0.0738   -1.7192   -3.8995 H   0  0  0  0  0  0  0  0  0  0  0  0
    2.8549   -0.4013   -3.8892 H   0  0  0  0  0  0  0  0  0  0  0  0
    1.9543   -0.8702   -5.3362 H   0  0  0  0  0  0  0  0  0  0  0  0
    1.3357    0.4156   -4.2827 H   0  0  0  0  0  0  0  0  0  0  0  0
    1.6281   -3.6285   -4.6386 N   0  0  0  0  0  0  0  0  0  0  0  0
    2.2304   -4.9209   -4.8687 C   0  0  0  0  0  0  0  0  0  0  0  0
    1.0207   -3.2533   -5.3611 H   0  0  0  0  0  0  0  0  0  0  0  0
    3.1987   -4.7900   -5.3740 H   0  0  0  0  0  0  0  0  0  0  0  0
    2.3853   -5.4297   -3.9058 H   0  0  0  0  0  0  0  0  0  0  0  0
    1.5659   -5.5276   -5.5013 H   0  0  0  0  0  0  0  0  0  0  0  0
  1  3  1  0  0  0  0
  1  7  1  0  0  0  0
  1  2  2  0  0  0  0
 35 36  1  0  0  0  0
 36 44  1  0  0  0  0
 36 37  2  0  0  0  0
  8  9  1  0  0  0  0
  9 17  1  0  0  0  0
  9 10  2  0  0  0  0
 18 19  1  0  0  0  0
 19 34  1  0  0  0  0
 19 20  2  0  0  0  0
 35 38  1  0  0  0  0
  8 11  1  0  0  0  0
 44 45  1  0  0  0  0
 23 24  1  0  0  0  0
 21 22  1  0  0  0  0
 18 21  1  0  0  0  0
 22 23  1  0  0  0  0
 34 35  1  0  0  0  0
  7  8  1  0  0  0  0
 17 18  1  0  0  0  0
  3  4  1  0  0  0  0
  3  5  1  0  0  0  0
  3  6  1  0  0  0  0
 38 41  1  0  0  0  0
 38 42  1  0  0  0  0
 38 43  1  0  0  0  0
 11 14  1  0  0  0  0
 11 15  1  0  0  0  0
 11 16  1  0  0  0  0
 45 47  1  0  0  0  0
 45 48  1  0  0  0  0
 45 49  1  0  0  0  0
 24 31  1  0  0  0  0
 24 32  1  0  0  0  0
 24 33  1  0  0  0  0
 21 27  1  0  0  0  0
 21 28  1  0  0  0  0
 22 29  1  0  0  0  0
 22 30  1  0  0  0  0
 35 40  1  0  0  0  0
  8 13  1  0  0  0  0
 18 26  1  0  0  0  0
 44 46  1  0  0  0  0
  7 12  1  0  0  0  0
 34 39  1  0  0  0  0
 17 25  1  0  0  0  0
M  END
$$$$
