@<TRIPOS>MOLECULE
default_name
   39    38     1     0     0
SMALL
No Charge or Current Charge


@<TRIPOS>ATOM
      1 H1          28.2730    23.9290    26.0360 H          1 ACE       0.112300
      2 CH3         28.1960    24.9670    26.3540 C.3        1 ACE      -0.366200
      3 H2          28.9320    25.1770    27.1260 H          1 ACE       0.112300
      4 H3          27.1970    25.1690    26.7350 H          1 ACE       0.112300
      5 C           28.4650    25.8670    25.1700 C.2        1 ACE       0.597200
      6 O           28.6880    25.3680    24.0700 O.2        1 ACE      -0.567900
      7 N           28.4110    27.1750    25.4110 N.am       2 CCY      -0.567900
      8 H           28.2090    27.4960    26.3490 H          2 CCY      -0.567900
      9 CA          28.7000    28.2710    24.4840 C.3        2 CCY      -0.567900
     10 HA          29.6400    28.0580    23.9790 H          2 CCY      -0.567900
     11 CB          27.5860    28.3800    23.4280 C.3        2 CCY      -0.567900
     12 HB2         27.4920    27.4210    22.9200 H          2 CCY      -0.567900
     13 HB3         27.9380    29.1060    22.6940 H          2 CCY      -0.567900
     14 SG          25.9350    28.9370    23.9550 S.3        2 CCY      -0.567900
     15 C           28.9020    29.5900    25.2570 C.2        2 CCY      -0.567900
     16 O           28.6370    29.5830    26.4830 O.co2      2 CCY      -0.567900
     17 OXT         29.3380    30.5650    24.6070 O.co2      2 CCY      -0.567900
     18 H1          23.2570    21.2000    23.8150 H          3 ACE       0.112300
     19 CH3         23.4850    22.0090    23.1230 C.3        3 ACE      -0.366200
     20 H2          22.7720    22.0050    22.3020 H          3 ACE       0.112300
     21 H3          24.4960    21.8850    22.7390 H          3 ACE       0.112300
     22 C           23.3960    23.3250    23.8610 C.2        3 ACE       0.597200
     23 O           23.1010    23.3440    25.0490 O.2        3 ACE      -0.567900
     24 N           23.6530    24.4220    23.1520 N.am       4 CYX      -0.415700
     25 H           23.8430    24.3310    22.1650 H          4 CYX       0.271900
     26 CA          23.6590    25.7850    23.6870 C.3        4 CYX       0.042900
     27 HA          22.8980    25.8640    24.4640 H          4 CYX       0.076600
     28 CB          25.0300    26.0320    24.3360 C.3        4 CYX      -0.079000
     29 HB2         25.2190    25.2080    25.0260 H          4 CYX       0.091000
     30 HB3         25.8050    25.9910    23.5700 H          4 CYX       0.091000
     31 SG          25.2470    27.5550    25.2930 S.3        4 CYX      -0.108100
     32 C           23.3130    26.8010    22.5810 C.2        4 CYX       0.597300
     33 O           23.3610    26.4650    21.3950 O.2        4 CYX      -0.567900
     34 N           22.9350    28.0270    22.9620 N.am       5 NME      -0.415700
     35 H           22.9840    28.2430    23.9470 H          5 NME       0.271900
     36 CH3         22.6070    29.1150    22.0420 C.3        5 NME      -0.149000
     37 HH31        23.5280    29.5400    21.6390 H          5 NME       0.097600
     38 HH32        22.0020    28.7360    21.2160 H          5 NME       0.097600
     39 HH33        22.0550    29.8960    22.5650 H          5 NME       0.097600
@<TRIPOS>BOND
     1     5     6 2   
     2     5     7 am  
     3     2     3 1   
     4     2     4 1   
     5     2     5 1   
     6     1     2 1   
     7    15    16 1   
     8    15    17 1   
     9    14    31 1   
    10    11    12 1   
    11    11    13 1   
    12    11    14 1   
    13     9    10 1   
    14     9    11 1   
    15     9    15 1   
    16     7     8 1   
    17     7     9 1   
    18    22    23 2   
    19    22    24 am  
    20    19    20 1   
    21    19    21 1   
    22    19    22 1   
    23    18    19 1   
    24    32    33 2   
    25    32    34 am  
    26    28    29 1   
    27    28    30 1   
    28    28    31 1   
    29    26    27 1   
    30    26    28 1   
    31    26    32 1   
    32    24    25 1   
    33    24    26 1   
    34    36    37 1   
    35    36    38 1   
    36    36    39 1   
    37    34    35 1   
    38    34    36 1   
@<TRIPOS>SUBSTRUCTURE
     1 ACE         1 TEMP              0 ****  ****    0 ROOT
