
  -OEChem-02062319103D

 53 52  0     1  0  0  0  0  0999 V2000
   -1.0310   -4.8532   -1.1685 C   0  0  0  0  0  0  0  0  0  0  0  0
   -2.1777   -4.8496   -0.7491 O   0  0  0  0  0  0  0  0  0  0  0  0
   -0.5755   -5.9421   -2.1216 C   0  0  0  0  0  0  0  0  0  0  0  0
    0.2938   -6.4599   -1.7092 H   0  0  0  0  0  0  0  0  0  0  0  0
   -1.3781   -6.6691   -2.2746 H   0  0  0  0  0  0  0  0  0  0  0  0
   -0.3070   -5.5053   -3.0868 H   0  0  0  0  0  0  0  0  0  0  0  0
   -0.1493   -3.8623   -0.7915 N   0  0  0  0  0  0  0  0  0  0  0  0
   -0.5342   -2.6487   -0.0588 C   0  0  2  0  0  0  0  0  0  0  0  0
   -0.0029   -1.3781   -0.7517 C   0  0  0  0  0  0  0  0  0  0  0  0
    0.9669   -1.4446   -1.4966 O   0  0  0  0  0  0  0  0  0  0  0  0
    0.0264   -2.7535    1.3613 C   0  0  0  0  0  0  0  0  0  0  0  0
    0.7364   -3.8244   -1.2942 H   0  0  0  0  0  0  0  0  0  0  0  0
   -1.6243   -2.5628   -0.0060 H   0  0  0  0  0  0  0  0  0  0  0  0
    1.1191   -2.8229    1.3395 H   0  0  0  0  0  0  0  0  0  0  0  0
   -0.2515   -1.8747    1.9513 H   0  0  0  0  0  0  0  0  0  0  0  0
   -0.3700   -3.6437    1.8594 H   0  0  0  0  0  0  0  0  0  0  0  0
   -0.6310   -0.1594   -0.5606 N   0  0  0  0  0  0  0  0  0  0  0  0
   -0.1937    1.1061   -1.1804 C   0  0  2  0  0  0  0  0  0  0  0  0
    1.2443    1.4943   -0.7792 C   0  0  0  0  0  0  0  0  0  0  0  0
    1.9996    2.0281   -1.5806 O   0  0  0  0  0  0  0  0  0  0  0  0
   -1.1651    2.2329   -0.7934 C   0  0  0  0  0  0  0  0  0  0  0  0
   -2.5733    2.0019   -1.3609 C   0  0  0  0  0  0  0  0  0  0  0  0
   -3.4936    3.1707   -0.9930 C   0  0  0  0  0  0  0  0  0  0  0  0
   -4.8980    2.9505   -1.5487 C   0  0  0  0  0  0  0  0  0  0  0  0
   -5.7351    4.0940   -1.1763 N   0  0  0  0  0  0  0  0  0  0  0  0
   -1.4584   -0.1535    0.0291 H   0  0  0  0  0  0  0  0  0  0  0  0
   -0.1986    0.9897   -2.2703 H   0  0  0  0  0  0  0  0  0  0  0  0
   -0.7775    3.1810   -1.1831 H   0  0  0  0  0  0  0  0  0  0  0  0
   -1.2142    2.3190    0.2973 H   0  0  0  0  0  0  0  0  0  0  0  0
   -2.9928    1.0720   -0.9640 H   0  0  0  0  0  0  0  0  0  0  0  0
   -2.5175    1.9079   -2.4509 H   0  0  0  0  0  0  0  0  0  0  0  0
   -3.5448    3.2693    0.0962 H   0  0  0  0  0  0  0  0  0  0  0  0
   -3.0836    4.1017   -1.3983 H   0  0  0  0  0  0  0  0  0  0  0  0
   -5.3246    2.0268   -1.1418 H   0  0  0  0  0  0  0  0  0  0  0  0
   -4.8620    2.8534   -2.6397 H   0  0  0  0  0  0  0  0  0  0  0  0
   -5.7992    4.1876   -0.1626 H   0  0  0  0  0  0  0  0  0  0  0  0
   -5.3867    4.9554   -1.5975 H   0  0  0  0  0  0  0  0  0  0  0  0
    1.6178    1.3881    0.5457 N   0  0  0  0  0  0  0  0  0  0  0  0
    3.0145    1.3903    0.9877 C   0  0  2  0  0  0  0  0  0  0  0  0
    3.2596    0.2485    1.9977 C   0  0  0  0  0  0  0  0  0  0  0  0
    2.3083   -0.3612    2.4805 O   0  0  0  0  0  0  0  0  0  0  0  0
    3.3196    2.7542    1.6108 C   0  0  0  0  0  0  0  0  0  0  0  0
    0.9885    0.8281    1.1187 H   0  0  0  0  0  0  0  0  0  0  0  0
    3.6815    1.2244    0.1346 H   0  0  0  0  0  0  0  0  0  0  0  0
    2.6744    2.9332    2.4767 H   0  0  0  0  0  0  0  0  0  0  0  0
    4.3629    2.8039    1.9358 H   0  0  0  0  0  0  0  0  0  0  0  0
    3.1481    3.5488    0.8776 H   0  0  0  0  0  0  0  0  0  0  0  0
    4.5454   -0.1016    2.3651 N   0  0  0  0  0  0  0  0  0  0  0  0
    4.8468   -1.1834    3.2947 C   0  0  0  0  0  0  0  0  0  0  0  0
    5.3126    0.3906    1.9162 H   0  0  0  0  0  0  0  0  0  0  0  0
    4.3849   -0.9922    4.2690 H   0  0  0  0  0  0  0  0  0  0  0  0
    4.4718   -2.1367    2.9077 H   0  0  0  0  0  0  0  0  0  0  0  0
    5.9283   -1.2693    3.4371 H   0  0  0  0  0  0  0  0  0  0  0  0
  1  2  2  0  0  0  0
  1  3  1  0  0  0  0
  1  7  1  0  0  0  0
  3  4  1  0  0  0  0
  3  5  1  0  0  0  0
  3  6  1  0  0  0  0
  7  8  1  0  0  0  0
  7 12  1  0  0  0  0
  8  9  1  0  0  0  0
  8 11  1  0  0  0  0
  8 13  1  0  0  0  0
  9 10  2  0  0  0  0
  9 17  1  0  0  0  0
 11 14  1  0  0  0  0
 11 15  1  0  0  0  0
 11 16  1  0  0  0  0
 17 18  1  0  0  0  0
 17 26  1  0  0  0  0
 18 19  1  0  0  0  0
 18 21  1  0  0  0  0
 18 27  1  0  0  0  0
 19 20  2  0  0  0  0
 19 38  1  0  0  0  0
 21 22  1  0  0  0  0
 21 28  1  0  0  0  0
 21 29  1  0  0  0  0
 22 23  1  0  0  0  0
 22 30  1  0  0  0  0
 22 31  1  0  0  0  0
 23 24  1  0  0  0  0
 23 32  1  0  0  0  0
 23 33  1  0  0  0  0
 24 25  1  0  0  0  0
 24 34  1  0  0  0  0
 24 35  1  0  0  0  0
 25 36  1  0  0  0  0
 25 37  1  0  0  0  0
 38 39  1  0  0  0  0
 38 43  1  0  0  0  0
 39 40  1  0  0  0  0
 39 42  1  0  0  0  0
 39 44  1  0  0  0  0
 40 41  2  0  0  0  0
 40 48  1  0  0  0  0
 42 45  1  0  0  0  0
 42 46  1  0  0  0  0
 42 47  1  0  0  0  0
 48 49  1  0  0  0  0
 48 50  1  0  0  0  0
 49 51  1  0  0  0  0
 49 52  1  0  0  0  0
 49 53  1  0  0  0  0
M  END
$$$$

  -OEChem-02062319103D

 53 52  0     1  0  0  0  0  0999 V2000
   -1.0107   -4.8571   -1.1292 C   0  0  0  0  0  0  0  0  0  0  0  0
   -2.1309   -4.8690   -0.6433 O   0  0  0  0  0  0  0  0  0  0  0  0
   -0.5954   -5.9409   -2.1066 C   0  0  0  0  0  0  0  0  0  0  0  0
    0.2866   -6.4650   -1.7303 H   0  0  0  0  0  0  0  0  0  0  0  0
   -1.4060   -6.6637   -2.2357 H   0  0  0  0  0  0  0  0  0  0  0  0
   -0.3614   -5.4976   -3.0777 H   0  0  0  0  0  0  0  0  0  0  0  0
   -0.1238   -3.8518   -0.8054 N   0  0  0  0  0  0  0  0  0  0  0  0
   -0.4851   -2.6435   -0.0516 C   0  0  2  0  0  0  0  0  0  0  0  0
    0.0384   -1.3663   -0.7384 C   0  0  0  0  0  0  0  0  0  0  0  0
    0.9539   -1.4408   -1.5485 O   0  0  0  0  0  0  0  0  0  0  0  0
    0.1036   -2.7638    1.3554 C   0  0  0  0  0  0  0  0  0  0  0  0
    0.7297   -3.8000   -1.3603 H   0  0  0  0  0  0  0  0  0  0  0  0
   -1.5737   -2.5536    0.0235 H   0  0  0  0  0  0  0  0  0  0  0  0
    1.1955   -2.8343    1.3102 H   0  0  0  0  0  0  0  0  0  0  0  0
   -0.1617   -1.8904    1.9587 H   0  0  0  0  0  0  0  0  0  0  0  0
   -0.2844   -3.6587    1.8521 H   0  0  0  0  0  0  0  0  0  0  0  0
   -0.6146   -0.1593   -0.5517 N   0  0  0  0  0  0  0  0  0  0  0  0
   -0.3992    1.0366   -1.3895 C   0  0  2  0  0  0  0  0  0  0  0  0
    1.0613    1.5331   -1.3582 C   0  0  0  0  0  0  0  0  0  0  0  0
    1.5851    2.0046   -2.3590 O   0  0  0  0  0  0  0  0  0  0  0  0
   -1.3396    2.1642   -0.9330 C   0  0  0  0  0  0  0  0  0  0  0  0
   -2.8169    1.8108   -1.1584 C   0  0  0  0  0  0  0  0  0  0  0  0
   -3.7139    2.9811   -0.7414 C   0  0  0  0  0  0  0  0  0  0  0  0
   -5.1865    2.6376   -0.9484 C   0  0  0  0  0  0  0  0  0  0  0  0
   -5.9976    3.7908   -0.5499 N   0  0  0  0  0  0  0  0  0  0  0  0
   -1.4322   -0.1782    0.0510 H   0  0  0  0  0  0  0  0  0  0  0  0
   -0.6236    0.7854   -2.4324 H   0  0  0  0  0  0  0  0  0  0  0  0
   -1.1032    3.0717   -1.5003 H   0  0  0  0  0  0  0  0  0  0  0  0
   -1.1670    2.3825    0.1263 H   0  0  0  0  0  0  0  0  0  0  0  0
   -3.0853    0.9231   -0.5772 H   0  0  0  0  0  0  0  0  0  0  0  0
   -2.9810    1.5834   -2.2173 H   0  0  0  0  0  0  0  0  0  0  0  0
   -3.5411    3.2188    0.3133 H   0  0  0  0  0  0  0  0  0  0  0  0
   -3.4605    3.8662   -1.3343 H   0  0  0  0  0  0  0  0  0  0  0  0
   -5.4585    1.7628   -0.3472 H   0  0  0  0  0  0  0  0  0  0  0  0
   -5.3741    2.3957   -2.0004 H   0  0  0  0  0  0  0  0  0  0  0  0
   -5.8623    4.0117    0.4366 H   0  0  0  0  0  0  0  0  0  0  0  0
   -5.7923    4.6020   -1.1337 H   0  0  0  0  0  0  0  0  0  0  0  0
    1.7128    1.6095   -0.1434 N   0  0  0  0  0  0  0  0  0  0  0  0
    3.1668    1.7402   -0.0213 C   0  0  2  0  0  0  0  0  0  0  0  0
    3.7065    0.7647    1.0473 C   0  0  0  0  0  0  0  0  0  0  0  0
    2.9311    0.1915    1.8089 O   0  0  0  0  0  0  0  0  0  0  0  0
    3.4921    3.1911    0.3401 C   0  0  0  0  0  0  0  0  0  0  0  0
    1.2654    1.0857    0.6078 H   0  0  0  0  0  0  0  0  0  0  0  0
    3.6493    1.4866   -0.9716 H   0  0  0  0  0  0  0  0  0  0  0  0
    3.0323    3.4590    1.2965 H   0  0  0  0  0  0  0  0  0  0  0  0
    4.5736    3.3352    0.4194 H   0  0  0  0  0  0  0  0  0  0  0  0
    3.1094    3.8654   -0.4326 H   0  0  0  0  0  0  0  0  0  0  0  0
    5.0640    0.5270    1.1580 N   0  0  0  0  0  0  0  0  0  0  0  0
    5.6394   -0.3947    2.1300 C   0  0  0  0  0  0  0  0  0  0  0  0
    5.6770    0.9853    0.4898 H   0  0  0  0  0  0  0  0  0  0  0  0
    5.4061   -0.0710    3.1498 H   0  0  0  0  0  0  0  0  0  0  0  0
    5.2437   -1.4049    1.9816 H   0  0  0  0  0  0  0  0  0  0  0  0
    6.7275   -0.4303    2.0194 H   0  0  0  0  0  0  0  0  0  0  0  0
  1  2  2  0  0  0  0
  1  3  1  0  0  0  0
  1  7  1  0  0  0  0
  3  4  1  0  0  0  0
  3  5  1  0  0  0  0
  3  6  1  0  0  0  0
  7  8  1  0  0  0  0
  7 12  1  0  0  0  0
  8  9  1  0  0  0  0
  8 11  1  0  0  0  0
  8 13  1  0  0  0  0
  9 10  2  0  0  0  0
  9 17  1  0  0  0  0
 11 14  1  0  0  0  0
 11 15  1  0  0  0  0
 11 16  1  0  0  0  0
 17 18  1  0  0  0  0
 17 26  1  0  0  0  0
 18 19  1  0  0  0  0
 18 21  1  0  0  0  0
 18 27  1  0  0  0  0
 19 20  2  0  0  0  0
 19 38  1  0  0  0  0
 21 22  1  0  0  0  0
 21 28  1  0  0  0  0
 21 29  1  0  0  0  0
 22 23  1  0  0  0  0
 22 30  1  0  0  0  0
 22 31  1  0  0  0  0
 23 24  1  0  0  0  0
 23 32  1  0  0  0  0
 23 33  1  0  0  0  0
 24 25  1  0  0  0  0
 24 34  1  0  0  0  0
 24 35  1  0  0  0  0
 25 36  1  0  0  0  0
 25 37  1  0  0  0  0
 38 39  1  0  0  0  0
 38 43  1  0  0  0  0
 39 40  1  0  0  0  0
 39 42  1  0  0  0  0
 39 44  1  0  0  0  0
 40 41  2  0  0  0  0
 40 48  1  0  0  0  0
 42 45  1  0  0  0  0
 42 46  1  0  0  0  0
 42 47  1  0  0  0  0
 48 49  1  0  0  0  0
 48 50  1  0  0  0  0
 49 51  1  0  0  0  0
 49 52  1  0  0  0  0
 49 53  1  0  0  0  0
M  END
$$$$

  -OEChem-02062319103D

 53 52  0     1  0  0  0  0  0999 V2000
   -0.9937   -4.8844   -1.1049 C   0  0  0  0  0  0  0  0  0  0  0  0
   -2.0822   -4.9271   -0.5531 O   0  0  0  0  0  0  0  0  0  0  0  0
   -0.6036   -5.9580   -2.1036 C   0  0  0  0  0  0  0  0  0  0  0  0
    0.2999   -6.4709   -1.7650 H   0  0  0  0  0  0  0  0  0  0  0  0
   -1.4088   -6.6913   -2.2038 H   0  0  0  0  0  0  0  0  0  0  0  0
   -0.4139   -5.5078   -3.0811 H   0  0  0  0  0  0  0  0  0  0  0  0
   -0.1202   -3.8525   -0.8341 N   0  0  0  0  0  0  0  0  0  0  0  0
   -0.4738   -2.6551   -0.0605 C   0  0  2  0  0  0  0  0  0  0  0  0
    0.0561   -1.3684   -0.7260 C   0  0  0  0  0  0  0  0  0  0  0  0
    0.9220   -1.4475   -1.5883 O   0  0  0  0  0  0  0  0  0  0  0  0
    0.1096   -2.8036    1.3461 C   0  0  0  0  0  0  0  0  0  0  0  0
    0.7005   -3.7768   -1.4345 H   0  0  0  0  0  0  0  0  0  0  0  0
   -1.5624   -2.5619    0.0119 H   0  0  0  0  0  0  0  0  0  0  0  0
    1.2007   -2.8847    1.3013 H   0  0  0  0  0  0  0  0  0  0  0  0
   -0.1496   -1.9381    1.9633 H   0  0  0  0  0  0  0  0  0  0  0  0
   -0.2879   -3.7028    1.8275 H   0  0  0  0  0  0  0  0  0  0  0  0
   -0.6091   -0.1696   -0.5284 N   0  0  0  0  0  0  0  0  0  0  0  0
   -0.6325    0.9238   -1.5206 C   0  0  2  0  0  0  0  0  0  0  0  0
    0.7680    1.4728   -1.8664 C   0  0  0  0  0  0  0  0  0  0  0  0
    1.0286    1.8392   -3.0052 O   0  0  0  0  0  0  0  0  0  0  0  0
   -1.5221    2.0656   -1.0019 C   0  0  0  0  0  0  0  0  0  0  0  0
   -2.9928    1.6411   -0.8735 C   0  0  0  0  0  0  0  0  0  0  0  0
   -3.8523    2.8266   -0.4227 C   0  0  0  0  0  0  0  0  0  0  0  0
   -5.3142    2.4121   -0.2793 C   0  0  0  0  0  0  0  0  0  0  0  0
   -6.0940    3.5794    0.1391 N   0  0  0  0  0  0  0  0  0  0  0  0
   -1.3868   -0.2112    0.1239 H   0  0  0  0  0  0  0  0  0  0  0  0
   -1.0554    0.5423   -2.4566 H   0  0  0  0  0  0  0  0  0  0  0  0
   -1.4572    2.9072   -1.7007 H   0  0  0  0  0  0  0  0  0  0  0  0
   -1.1494    2.4117   -0.0317 H   0  0  0  0  0  0  0  0  0  0  0  0
   -3.0890    0.8285   -0.1467 H   0  0  0  0  0  0  0  0  0  0  0  0
   -3.3540    1.2740   -1.8405 H   0  0  0  0  0  0  0  0  0  0  0  0
   -3.4847    3.2021    0.5379 H   0  0  0  0  0  0  0  0  0  0  0  0
   -3.7734    3.6369   -1.1552 H   0  0  0  0  0  0  0  0  0  0  0  0
   -5.4091    1.6140    0.4654 H   0  0  0  0  0  0  0  0  0  0  0  0
   -5.6949    2.0306   -1.2334 H   0  0  0  0  0  0  0  0  0  0  0  0
   -5.7782    3.9265    1.0447 H   0  0  0  0  0  0  0  0  0  0  0  0
   -6.0542    4.3173   -0.5644 H   0  0  0  0  0  0  0  0  0  0  0  0
    1.6618    1.7222   -0.8445 N   0  0  0  0  0  0  0  0  0  0  0  0
    3.0897    1.9627   -1.0675 C   0  0  2  0  0  0  0  0  0  0  0  0
    3.9389    1.2117   -0.0196 C   0  0  0  0  0  0  0  0  0  0  0  0
    3.4142    0.7682    0.9985 O   0  0  0  0  0  0  0  0  0  0  0  0
    3.3418    3.4704   -1.0001 C   0  0  0  0  0  0  0  0  0  0  0  0
    1.4324    1.2691    0.0395 H   0  0  0  0  0  0  0  0  0  0  0  0
    3.3823    1.5899   -2.0550 H   0  0  0  0  0  0  0  0  0  0  0  0
    3.0680    3.8605   -0.0147 H   0  0  0  0  0  0  0  0  0  0  0  0
    4.3972    3.6917   -1.1840 H   0  0  0  0  0  0  0  0  0  0  0  0
    2.7437    3.9862   -1.7581 H   0  0  0  0  0  0  0  0  0  0  0  0
    5.2953    1.0288   -0.2167 N   0  0  0  0  0  0  0  0  0  0  0  0
    6.1470    0.2968    0.7125 C   0  0  0  0  0  0  0  0  0  0  0  0
    5.6922    1.3633   -1.0901 H   0  0  0  0  0  0  0  0  0  0  0  0
    6.1450    0.7799    1.6955 H   0  0  0  0  0  0  0  0  0  0  0  0
    5.7941   -0.7338    0.8246 H   0  0  0  0  0  0  0  0  0  0  0  0
    7.1767    0.2712    0.3427 H   0  0  0  0  0  0  0  0  0  0  0  0
  1  2  2  0  0  0  0
  1  3  1  0  0  0  0
  1  7  1  0  0  0  0
  3  4  1  0  0  0  0
  3  5  1  0  0  0  0
  3  6  1  0  0  0  0
  7  8  1  0  0  0  0
  7 12  1  0  0  0  0
  8  9  1  0  0  0  0
  8 11  1  0  0  0  0
  8 13  1  0  0  0  0
  9 10  2  0  0  0  0
  9 17  1  0  0  0  0
 11 14  1  0  0  0  0
 11 15  1  0  0  0  0
 11 16  1  0  0  0  0
 17 18  1  0  0  0  0
 17 26  1  0  0  0  0
 18 19  1  0  0  0  0
 18 21  1  0  0  0  0
 18 27  1  0  0  0  0
 19 20  2  0  0  0  0
 19 38  1  0  0  0  0
 21 22  1  0  0  0  0
 21 28  1  0  0  0  0
 21 29  1  0  0  0  0
 22 23  1  0  0  0  0
 22 30  1  0  0  0  0
 22 31  1  0  0  0  0
 23 24  1  0  0  0  0
 23 32  1  0  0  0  0
 23 33  1  0  0  0  0
 24 25  1  0  0  0  0
 24 34  1  0  0  0  0
 24 35  1  0  0  0  0
 25 36  1  0  0  0  0
 25 37  1  0  0  0  0
 38 39  1  0  0  0  0
 38 43  1  0  0  0  0
 39 40  1  0  0  0  0
 39 42  1  0  0  0  0
 39 44  1  0  0  0  0
 40 41  2  0  0  0  0
 40 48  1  0  0  0  0
 42 45  1  0  0  0  0
 42 46  1  0  0  0  0
 42 47  1  0  0  0  0
 48 49  1  0  0  0  0
 48 50  1  0  0  0  0
 49 51  1  0  0  0  0
 49 52  1  0  0  0  0
 49 53  1  0  0  0  0
M  END
$$$$

  -OEChem-02062319103D

 53 52  0     1  0  0  0  0  0999 V2000
   -0.9642   -4.8955   -1.0808 C   0  0  0  0  0  0  0  0  0  0  0  0
   -2.0237   -4.9639   -0.4775 O   0  0  0  0  0  0  0  0  0  0  0  0
   -0.5981   -5.9562   -2.1017 C   0  0  0  0  0  0  0  0  0  0  0  0
    0.3410   -6.4376   -1.8187 H   0  0  0  0  0  0  0  0  0  0  0  0
   -1.3819   -6.7170   -2.1527 H   0  0  0  0  0  0  0  0  0  0  0  0
   -0.4831   -5.5015   -3.0889 H   0  0  0  0  0  0  0  0  0  0  0  0
   -0.1044   -3.8430   -0.8498 N   0  0  0  0  0  0  0  0  0  0  0  0
   -0.4487   -2.6578   -0.0538 C   0  0  2  0  0  0  0  0  0  0  0  0
    0.0838   -1.3611   -0.6994 C   0  0  0  0  0  0  0  0  0  0  0  0
    0.9008   -1.4408   -1.6081 O   0  0  0  0  0  0  0  0  0  0  0  0
    0.1337   -2.8365    1.3502 C   0  0  0  0  0  0  0  0  0  0  0  0
    0.6828   -3.7438   -1.4904 H   0  0  0  0  0  0  0  0  0  0  0  0
   -1.5372   -2.5619    0.0199 H   0  0  0  0  0  0  0  0  0  0  0  0
    1.2244   -2.9221    1.3048 H   0  0  0  0  0  0  0  0  0  0  0  0
   -0.1225   -1.9832    1.9856 H   0  0  0  0  0  0  0  0  0  0  0  0
   -0.2679   -3.7443    1.8122 H   0  0  0  0  0  0  0  0  0  0  0  0
   -0.5939   -0.1708   -0.4893 N   0  0  0  0  0  0  0  0  0  0  0  0
   -0.8806    0.7873   -1.5771 C   0  0  2  0  0  0  0  0  0  0  0  0
    0.3756    1.3404   -2.2842 C   0  0  0  0  0  0  0  0  0  0  0  0
    0.3575    1.5599   -3.4889 O   0  0  0  0  0  0  0  0  0  0  0  0
   -1.7124    1.9553   -1.0211 C   0  0  0  0  0  0  0  0  0  0  0  0
   -3.0993    1.5032   -0.5386 C   0  0  0  0  0  0  0  0  0  0  0  0
   -3.9150    2.7086   -0.0594 C   0  0  0  0  0  0  0  0  0  0  0  0
   -5.2984    2.2742    0.4173 C   0  0  0  0  0  0  0  0  0  0  0  0
   -6.0389    3.4609    0.8531 N   0  0  0  0  0  0  0  0  0  0  0  0
   -1.2935   -0.2193    0.2455 H   0  0  0  0  0  0  0  0  0  0  0  0
   -1.4647    0.2755   -2.3500 H   0  0  0  0  0  0  0  0  0  0  0  0
   -1.8413    2.7027   -1.8123 H   0  0  0  0  0  0  0  0  0  0  0  0
   -1.1705    2.4346   -0.1987 H   0  0  0  0  0  0  0  0  0  0  0  0
   -2.9993    0.7861    0.2822 H   0  0  0  0  0  0  0  0  0  0  0  0
   -3.6284    1.0071   -1.3597 H   0  0  0  0  0  0  0  0  0  0  0  0
   -3.3870    3.2065    0.7605 H   0  0  0  0  0  0  0  0  0  0  0  0
   -4.0224    3.4272   -0.8786 H   0  0  0  0  0  0  0  0  0  0  0  0
   -5.2064    1.5654    1.2479 H   0  0  0  0  0  0  0  0  0  0  0  0
   -5.8384    1.7744   -0.3946 H   0  0  0  0  0  0  0  0  0  0  0  0
   -5.5640    3.9267    1.6264 H   0  0  0  0  0  0  0  0  0  0  0  0
   -6.1847    4.1071    0.0770 H   0  0  0  0  0  0  0  0  0  0  0  0
    1.4532    1.7551   -1.5272 N   0  0  0  0  0  0  0  0  0  0  0  0
    2.7744    2.0307   -2.0983 C   0  0  2  0  0  0  0  0  0  0  0  0
    3.8937    1.5015   -1.1760 C   0  0  0  0  0  0  0  0  0  0  0  0
    3.6508    1.2174   -0.0065 O   0  0  0  0  0  0  0  0  0  0  0  0
    2.9077    3.5408   -2.3095 C   0  0  0  0  0  0  0  0  0  0  0  0
    1.4586    1.4069   -0.5687 H   0  0  0  0  0  0  0  0  0  0  0  0
    2.8752    1.5194   -3.0618 H   0  0  0  0  0  0  0  0  0  0  0  0
    2.8249    4.0691   -1.3545 H   0  0  0  0  0  0  0  0  0  0  0  0
    3.8749    3.7817   -2.7603 H   0  0  0  0  0  0  0  0  0  0  0  0
    2.1172    3.8995   -2.9765 H   0  0  0  0  0  0  0  0  0  0  0  0
    5.1790    1.3374   -1.6591 N   0  0  0  0  0  0  0  0  0  0  0  0
    6.2663    0.7800   -0.8644 C   0  0  0  0  0  0  0  0  0  0  0  0
    5.3364    1.5288   -2.6441 H   0  0  0  0  0  0  0  0  0  0  0  0
    6.4424    1.3910    0.0271 H   0  0  0  0  0  0  0  0  0  0  0  0
    6.0263   -0.2412   -0.5503 H   0  0  0  0  0  0  0  0  0  0  0  0
    7.1889    0.7534   -1.4519 H   0  0  0  0  0  0  0  0  0  0  0  0
  1  2  2  0  0  0  0
  1  3  1  0  0  0  0
  1  7  1  0  0  0  0
  3  4  1  0  0  0  0
  3  5  1  0  0  0  0
  3  6  1  0  0  0  0
  7  8  1  0  0  0  0
  7 12  1  0  0  0  0
  8  9  1  0  0  0  0
  8 11  1  0  0  0  0
  8 13  1  0  0  0  0
  9 10  2  0  0  0  0
  9 17  1  0  0  0  0
 11 14  1  0  0  0  0
 11 15  1  0  0  0  0
 11 16  1  0  0  0  0
 17 18  1  0  0  0  0
 17 26  1  0  0  0  0
 18 19  1  0  0  0  0
 18 21  1  0  0  0  0
 18 27  1  0  0  0  0
 19 20  2  0  0  0  0
 19 38  1  0  0  0  0
 21 22  1  0  0  0  0
 21 28  1  0  0  0  0
 21 29  1  0  0  0  0
 22 23  1  0  0  0  0
 22 30  1  0  0  0  0
 22 31  1  0  0  0  0
 23 24  1  0  0  0  0
 23 32  1  0  0  0  0
 23 33  1  0  0  0  0
 24 25  1  0  0  0  0
 24 34  1  0  0  0  0
 24 35  1  0  0  0  0
 25 36  1  0  0  0  0
 25 37  1  0  0  0  0
 38 39  1  0  0  0  0
 38 43  1  0  0  0  0
 39 40  1  0  0  0  0
 39 42  1  0  0  0  0
 39 44  1  0  0  0  0
 40 41  2  0  0  0  0
 40 48  1  0  0  0  0
 42 45  1  0  0  0  0
 42 46  1  0  0  0  0
 42 47  1  0  0  0  0
 48 49  1  0  0  0  0
 48 50  1  0  0  0  0
 49 51  1  0  0  0  0
 49 52  1  0  0  0  0
 49 53  1  0  0  0  0
M  END
$$$$

  -OEChem-02062319103D

 53 52  0     1  0  0  0  0  0999 V2000
   -0.9362   -4.8977   -1.0686 C   0  0  0  0  0  0  0  0  0  0  0  0
   -1.9637   -4.9880   -0.4149 O   0  0  0  0  0  0  0  0  0  0  0  0
   -0.6000   -5.9471   -2.1110 C   0  0  0  0  0  0  0  0  0  0  0  0
    0.3552   -6.4193   -1.8693 H   0  0  0  0  0  0  0  0  0  0  0  0
   -1.3765   -6.7168   -2.1374 H   0  0  0  0  0  0  0  0  0  0  0  0
   -0.5304   -5.4826   -3.0978 H   0  0  0  0  0  0  0  0  0  0  0  0
   -0.0853   -3.8309   -0.8736 N   0  0  0  0  0  0  0  0  0  0  0  0
   -0.4154   -2.6550   -0.0583 C   0  0  2  0  0  0  0  0  0  0  0  0
    0.1179   -1.3508   -0.6889 C   0  0  0  0  0  0  0  0  0  0  0  0
    0.8885   -1.4271   -1.6376 O   0  0  0  0  0  0  0  0  0  0  0  0
    0.1765   -2.8545    1.3387 C   0  0  0  0  0  0  0  0  0  0  0  0
    0.6683   -3.7137   -1.5508 H   0  0  0  0  0  0  0  0  0  0  0  0
   -1.5031   -2.5555    0.0243 H   0  0  0  0  0  0  0  0  0  0  0  0
    1.2658   -2.9503    1.2828 H   0  0  0  0  0  0  0  0  0  0  0  0
   -0.0664   -2.0057    1.9849 H   0  0  0  0  0  0  0  0  0  0  0  0
   -0.2300   -3.7632    1.7945 H   0  0  0  0  0  0  0  0  0  0  0  0
   -0.5630   -0.1662   -0.4590 N   0  0  0  0  0  0  0  0  0  0  0  0
   -1.1284    0.6316   -1.5673 C   0  0  2  0  0  0  0  0  0  0  0  0
   -0.0912    1.1282   -2.5983 C   0  0  0  0  0  0  0  0  0  0  0  0
   -0.3792    1.1677   -3.7880 O   0  0  0  0  0  0  0  0  0  0  0  0
   -1.8838    1.8384   -0.9847 C   0  0  0  0  0  0  0  0  0  0  0  0
   -3.1159    1.4138   -0.1713 C   0  0  0  0  0  0  0  0  0  0  0  0
   -3.8899    2.6455    0.3104 C   0  0  0  0  0  0  0  0  0  0  0  0
   -5.1119    2.2314    1.1250 C   0  0  0  0  0  0  0  0  0  0  0  0
   -5.8235    3.4391    1.5499 N   0  0  0  0  0  0  0  0  0  0  0  0
   -1.1498   -0.2019    0.3692 H   0  0  0  0  0  0  0  0  0  0  0  0
   -1.8357    0.0070   -2.1247 H   0  0  0  0  0  0  0  0  0  0  0  0
   -2.2106    2.4821   -1.8094 H   0  0  0  0  0  0  0  0  0  0  0  0
   -1.2078    2.4268   -0.3548 H   0  0  0  0  0  0  0  0  0  0  0  0
   -2.8091    0.8191    0.6947 H   0  0  0  0  0  0  0  0  0  0  0  0
   -3.7699    0.7939   -0.7944 H   0  0  0  0  0  0  0  0  0  0  0  0
   -3.2372    3.2735    0.9258 H   0  0  0  0  0  0  0  0  0  0  0  0
   -4.2128    3.2367   -0.5529 H   0  0  0  0  0  0  0  0  0  0  0  0
   -4.8027    1.6520    2.0019 H   0  0  0  0  0  0  0  0  0  0  0  0
   -5.7738    1.6015    0.5201 H   0  0  0  0  0  0  0  0  0  0  0  0
   -5.2307    4.0278    2.1353 H   0  0  0  0  0  0  0  0  0  0  0  0
   -6.1692    3.9621    0.7450 H   0  0  0  0  0  0  0  0  0  0  0  0
    1.0973    1.6752   -2.1581 N   0  0  0  0  0  0  0  0  0  0  0  0
    2.2377    1.9383   -3.0398 C   0  0  2  0  0  0  0  0  0  0  0  0
    3.5696    1.6207   -2.3278 C   0  0  0  0  0  0  0  0  0  0  0  0
    3.6196    1.5622   -1.1027 O   0  0  0  0  0  0  0  0  0  0  0  0
    2.1878    3.4052   -3.4739 C   0  0  0  0  0  0  0  0  0  0  0  0
    1.3338    1.4587   -1.1897 H   0  0  0  0  0  0  0  0  0  0  0  0
    2.1775    1.2954   -3.9245 H   0  0  0  0  0  0  0  0  0  0  0  0
    2.2540    4.0642   -2.6025 H   0  0  0  0  0  0  0  0  0  0  0  0
    3.0170    3.6344   -4.1495 H   0  0  0  0  0  0  0  0  0  0  0  0
    1.2486    3.6115   -3.9969 H   0  0  0  0  0  0  0  0  0  0  0  0
    4.7201    1.4023   -3.0632 N   0  0  0  0  0  0  0  0  0  0  0  0
    5.9980    1.0455   -2.4593 C   0  0  0  0  0  0  0  0  0  0  0  0
    4.6353    1.4012   -4.0753 H   0  0  0  0  0  0  0  0  0  0  0  0
    6.3222    1.8242   -1.7608 H   0  0  0  0  0  0  0  0  0  0  0  0
    5.9139    0.0979   -1.9167 H   0  0  0  0  0  0  0  0  0  0  0  0
    6.7650    0.9346   -3.2318 H   0  0  0  0  0  0  0  0  0  0  0  0
  1  2  2  0  0  0  0
  1  3  1  0  0  0  0
  1  7  1  0  0  0  0
  3  4  1  0  0  0  0
  3  5  1  0  0  0  0
  3  6  1  0  0  0  0
  7  8  1  0  0  0  0
  7 12  1  0  0  0  0
  8  9  1  0  0  0  0
  8 11  1  0  0  0  0
  8 13  1  0  0  0  0
  9 10  2  0  0  0  0
  9 17  1  0  0  0  0
 11 14  1  0  0  0  0
 11 15  1  0  0  0  0
 11 16  1  0  0  0  0
 17 18  1  0  0  0  0
 17 26  1  0  0  0  0
 18 19  1  0  0  0  0
 18 21  1  0  0  0  0
 18 27  1  0  0  0  0
 19 20  2  0  0  0  0
 19 38  1  0  0  0  0
 21 22  1  0  0  0  0
 21 28  1  0  0  0  0
 21 29  1  0  0  0  0
 22 23  1  0  0  0  0
 22 30  1  0  0  0  0
 22 31  1  0  0  0  0
 23 24  1  0  0  0  0
 23 32  1  0  0  0  0
 23 33  1  0  0  0  0
 24 25  1  0  0  0  0
 24 34  1  0  0  0  0
 24 35  1  0  0  0  0
 25 36  1  0  0  0  0
 25 37  1  0  0  0  0
 38 39  1  0  0  0  0
 38 43  1  0  0  0  0
 39 40  1  0  0  0  0
 39 42  1  0  0  0  0
 39 44  1  0  0  0  0
 40 41  2  0  0  0  0
 40 48  1  0  0  0  0
 42 45  1  0  0  0  0
 42 46  1  0  0  0  0
 42 47  1  0  0  0  0
 48 49  1  0  0  0  0
 48 50  1  0  0  0  0
 49 51  1  0  0  0  0
 49 52  1  0  0  0  0
 49 53  1  0  0  0  0
M  END
$$$$

  -OEChem-02062319103D

 53 52  0     1  0  0  0  0  0999 V2000
   -0.9154   -4.8837   -1.0791 C   0  0  0  0  0  0  0  0  0  0  0  0
   -1.9144   -4.9939   -0.3857 O   0  0  0  0  0  0  0  0  0  0  0  0
   -0.6085   -5.9170   -2.1465 C   0  0  0  0  0  0  0  0  0  0  0  0
    0.3502   -6.3972   -1.9362 H   0  0  0  0  0  0  0  0  0  0  0  0
   -1.3895   -6.6821   -2.1677 H   0  0  0  0  0  0  0  0  0  0  0  0
   -0.5605   -5.4371   -3.1271 H   0  0  0  0  0  0  0  0  0  0  0  0
   -0.0705   -3.8084   -0.9048 N   0  0  0  0  0  0  0  0  0  0  0  0
   -0.3820   -2.6476   -0.0615 C   0  0  2  0  0  0  0  0  0  0  0  0
    0.1504   -1.3339   -0.6730 C   0  0  0  0  0  0  0  0  0  0  0  0
    0.8980   -1.3943   -1.6407 O   0  0  0  0  0  0  0  0  0  0  0  0
    0.2256   -2.8774    1.3242 C   0  0  0  0  0  0  0  0  0  0  0  0
    0.6590   -3.6761   -1.6053 H   0  0  0  0  0  0  0  0  0  0  0  0
   -1.4682   -2.5449    0.0364 H   0  0  0  0  0  0  0  0  0  0  0  0
    1.3134   -2.9790    1.2531 H   0  0  0  0  0  0  0  0  0  0  0  0
   -0.0043   -2.0402    1.9899 H   0  0  0  0  0  0  0  0  0  0  0  0
   -0.1814   -3.7921    1.7674 H   0  0  0  0  0  0  0  0  0  0  0  0
   -0.5282   -0.1524   -0.4254 N   0  0  0  0  0  0  0  0  0  0  0  0
   -1.3583    0.4633   -1.4815 C   0  0  2  0  0  0  0  0  0  0  0  0
   -0.5940    0.8483   -2.7673 C   0  0  0  0  0  0  0  0  0  0  0  0
   -1.1244    0.6922   -3.8601 O   0  0  0  0  0  0  0  0  0  0  0  0
   -2.0483    1.7148   -0.9125 C   0  0  0  0  0  0  0  0  0  0  0  0
   -3.0496    1.3710    0.2001 C   0  0  0  0  0  0  0  0  0  0  0  0
   -3.7844    2.6326    0.6655 C   0  0  0  0  0  0  0  0  0  0  0  0
   -4.7719    2.3022    1.7810 C   0  0  0  0  0  0  0  0  0  0  0  0
   -5.4584    3.5326    2.1811 N   0  0  0  0  0  0  0  0  0  0  0  0
   -0.9843   -0.1588    0.4819 H   0  0  0  0  0  0  0  0  0  0  0  0
   -2.1280   -0.2539   -1.7884 H   0  0  0  0  0  0  0  0  0  0  0  0
   -2.5832    2.2223   -1.7234 H   0  0  0  0  0  0  0  0  0  0  0  0
   -1.2925    2.4096   -0.5301 H   0  0  0  0  0  0  0  0  0  0  0  0
   -2.5275    0.9229    1.0512 H   0  0  0  0  0  0  0  0  0  0  0  0
   -3.7773    0.6425   -0.1738 H   0  0  0  0  0  0  0  0  0  0  0  0
   -3.0592    3.3689    1.0274 H   0  0  0  0  0  0  0  0  0  0  0  0
   -4.3239    3.0756   -0.1782 H   0  0  0  0  0  0  0  0  0  0  0  0
   -4.2422    1.8745    2.6396 H   0  0  0  0  0  0  0  0  0  0  0  0
   -5.5026    1.5635    1.4326 H   0  0  0  0  0  0  0  0  0  0  0  0
   -4.7980    4.2206    2.5429 H   0  0  0  0  0  0  0  0  0  0  0  0
   -5.9954    3.9212    1.4054 H   0  0  0  0  0  0  0  0  0  0  0  0
    0.6229    1.4934   -2.6762 N   0  0  0  0  0  0  0  0  0  0  0  0
    1.5202    1.6882   -3.8180 C   0  0  2  0  0  0  0  0  0  0  0  0
    2.9976    1.5733   -3.3878 C   0  0  0  0  0  0  0  0  0  0  0  0
    3.3207    1.7703   -2.2205 O   0  0  0  0  0  0  0  0  0  0  0  0
    1.2407    3.0635   -4.4290 C   0  0  0  0  0  0  0  0  0  0  0  0
    1.0783    1.4218   -1.7657 H   0  0  0  0  0  0  0  0  0  0  0  0
    1.3345    0.9127   -4.5687 H   0  0  0  0  0  0  0  0  0  0  0  0
    1.4235    3.8527   -3.6929 H   0  0  0  0  0  0  0  0  0  0  0  0
    1.8864    3.2365   -5.2950 H   0  0  0  0  0  0  0  0  0  0  0  0
    0.1982    3.1273   -4.7571 H   0  0  0  0  0  0  0  0  0  0  0  0
    3.9732    1.2562   -4.3154 N   0  0  0  0  0  0  0  0  0  0  0  0
    5.3762    1.0713   -3.9651 C   0  0  0  0  0  0  0  0  0  0  0  0
    3.6684    1.0388   -5.2596 H   0  0  0  0  0  0  0  0  0  0  0  0
    5.7840    1.9844   -3.5186 H   0  0  0  0  0  0  0  0  0  0  0  0
    5.4868    0.2495   -3.2496 H   0  0  0  0  0  0  0  0  0  0  0  0
    5.9616    0.8336   -4.8585 H   0  0  0  0  0  0  0  0  0  0  0  0
  1  2  2  0  0  0  0
  1  3  1  0  0  0  0
  1  7  1  0  0  0  0
  3  4  1  0  0  0  0
  3  5  1  0  0  0  0
  3  6  1  0  0  0  0
  7  8  1  0  0  0  0
  7 12  1  0  0  0  0
  8  9  1  0  0  0  0
  8 11  1  0  0  0  0
  8 13  1  0  0  0  0
  9 10  2  0  0  0  0
  9 17  1  0  0  0  0
 11 14  1  0  0  0  0
 11 15  1  0  0  0  0
 11 16  1  0  0  0  0
 17 18  1  0  0  0  0
 17 26  1  0  0  0  0
 18 19  1  0  0  0  0
 18 21  1  0  0  0  0
 18 27  1  0  0  0  0
 19 20  2  0  0  0  0
 19 38  1  0  0  0  0
 21 22  1  0  0  0  0
 21 28  1  0  0  0  0
 21 29  1  0  0  0  0
 22 23  1  0  0  0  0
 22 30  1  0  0  0  0
 22 31  1  0  0  0  0
 23 24  1  0  0  0  0
 23 32  1  0  0  0  0
 23 33  1  0  0  0  0
 24 25  1  0  0  0  0
 24 34  1  0  0  0  0
 24 35  1  0  0  0  0
 25 36  1  0  0  0  0
 25 37  1  0  0  0  0
 38 39  1  0  0  0  0
 38 43  1  0  0  0  0
 39 40  1  0  0  0  0
 39 42  1  0  0  0  0
 39 44  1  0  0  0  0
 40 41  2  0  0  0  0
 40 48  1  0  0  0  0
 42 45  1  0  0  0  0
 42 46  1  0  0  0  0
 42 47  1  0  0  0  0
 48 49  1  0  0  0  0
 48 50  1  0  0  0  0
 49 51  1  0  0  0  0
 49 52  1  0  0  0  0
 49 53  1  0  0  0  0
M  END
$$$$

  -OEChem-02062319103D

 53 52  0     1  0  0  0  0  0999 V2000
   -0.8438   -4.8652   -1.4569 C   0  0  0  0  0  0  0  0  0  0  0  0
   -2.0600   -4.8505   -1.3569 O   0  0  0  0  0  0  0  0  0  0  0  0
   -0.1690   -5.8967   -2.3413 C   0  0  0  0  0  0  0  0  0  0  0  0
    0.5301   -6.4945   -1.7515 H   0  0  0  0  0  0  0  0  0  0  0  0
   -0.9165   -6.5618   -2.7828 H   0  0  0  0  0  0  0  0  0  0  0  0
    0.3765   -5.3973   -3.1456 H   0  0  0  0  0  0  0  0  0  0  0  0
   -0.0760   -3.9420   -0.7774 N   0  0  0  0  0  0  0  0  0  0  0  0
   -0.6207   -2.7736   -0.0719 C   0  0  2  0  0  0  0  0  0  0  0  0
   -0.0411   -1.4628   -0.6386 C   0  0  0  0  0  0  0  0  0  0  0  0
    1.1326   -1.3946   -0.9705 O   0  0  0  0  0  0  0  0  0  0  0  0
   -0.2833   -2.9218    1.4137 C   0  0  0  0  0  0  0  0  0  0  0  0
    0.9141   -3.9127   -1.0136 H   0  0  0  0  0  0  0  0  0  0  0  0
   -1.7091   -2.7244   -0.1804 H   0  0  0  0  0  0  0  0  0  0  0  0
    0.8010   -2.9500    1.5619 H   0  0  0  0  0  0  0  0  0  0  0  0
   -0.6909   -2.0808    1.9831 H   0  0  0  0  0  0  0  0  0  0  0  0
   -0.7145   -3.8473    1.8082 H   0  0  0  0  0  0  0  0  0  0  0  0
   -0.6041   -0.2429   -0.3566 N   0  0  0  0  0  0  0  0  0  0  0  0
   -1.6542    0.2272   -1.2750 C   0  0  2  0  0  0  0  0  0  0  0  0
   -1.1737    0.3875   -2.7348 C   0  0  0  0  0  0  0  0  0  0  0  0
   -1.8813   -0.0068   -3.6499 O   0  0  0  0  0  0  0  0  0  0  0  0
   -2.2034    1.5691   -0.7639 C   0  0  0  0  0  0  0  0  0  0  0  0
   -2.9178    1.4199    0.5874 C   0  0  0  0  0  0  0  0  0  0  0  0
   -3.4773    2.7702    1.0477 C   0  0  0  0  0  0  0  0  0  0  0  0
   -4.1914    2.6329    2.3895 C   0  0  0  0  0  0  0  0  0  0  0  0
   -4.6941    3.9501    2.7886 N   0  0  0  0  0  0  0  0  0  0  0  0
    0.1402    0.4369   -0.2200 H   0  0  0  0  0  0  0  0  0  0  0  0
   -2.4744   -0.5003   -1.2894 H   0  0  0  0  0  0  0  0  0  0  0  0
   -2.9146    1.9645   -1.4980 H   0  0  0  0  0  0  0  0  0  0  0  0
   -1.3856    2.2919   -0.6724 H   0  0  0  0  0  0  0  0  0  0  0  0
   -2.2197    1.0409    1.3411 H   0  0  0  0  0  0  0  0  0  0  0  0
   -3.7351    0.6971    0.4914 H   0  0  0  0  0  0  0  0  0  0  0  0
   -2.6595    3.4919    1.1433 H   0  0  0  0  0  0  0  0  0  0  0  0
   -4.1799    3.1512    0.2994 H   0  0  0  0  0  0  0  0  0  0  0  0
   -3.4993    2.2520    3.1490 H   0  0  0  0  0  0  0  0  0  0  0  0
   -5.0233    1.9246    2.3047 H   0  0  0  0  0  0  0  0  0  0  0  0
   -3.9288    4.6145    2.9041 H   0  0  0  0  0  0  0  0  0  0  0  0
   -5.3773    4.2999    2.1167 H   0  0  0  0  0  0  0  0  0  0  0  0
    0.0307    1.0006   -3.0221 N   0  0  0  0  0  0  0  0  0  0  0  0
    0.6164    1.1014   -4.3633 C   0  0  2  0  0  0  0  0  0  0  0  0
    2.1469    1.2834   -4.2838 C   0  0  0  0  0  0  0  0  0  0  0  0
    2.6650    1.6784   -3.2446 O   0  0  0  0  0  0  0  0  0  0  0  0
   -0.0194    2.2860   -5.0998 C   0  0  0  0  0  0  0  0  0  0  0  0
    0.6690    1.1651   -2.2440 H   0  0  0  0  0  0  0  0  0  0  0  0
    0.4180    0.1781   -4.9179 H   0  0  0  0  0  0  0  0  0  0  0  0
    0.1599    3.2169   -4.5523 H   0  0  0  0  0  0  0  0  0  0  0  0
    0.4036    2.3847   -6.1039 H   0  0  0  0  0  0  0  0  0  0  0  0
   -1.1001    2.1416   -5.1959 H   0  0  0  0  0  0  0  0  0  0  0  0
    2.9463    1.0088   -5.3782 N   0  0  0  0  0  0  0  0  0  0  0  0
    4.3989    1.1329   -5.3571 C   0  0  0  0  0  0  0  0  0  0  0  0
    2.4929    0.6617   -6.2183 H   0  0  0  0  0  0  0  0  0  0  0  0
    4.6924    2.1666   -5.1458 H   0  0  0  0  0  0  0  0  0  0  0  0
    4.8285    0.4809   -4.5890 H   0  0  0  0  0  0  0  0  0  0  0  0
    4.8173    0.8464   -6.3266 H   0  0  0  0  0  0  0  0  0  0  0  0
  1  2  2  0  0  0  0
  1  3  1  0  0  0  0
  1  7  1  0  0  0  0
  3  4  1  0  0  0  0
  3  5  1  0  0  0  0
  3  6  1  0  0  0  0
  7  8  1  0  0  0  0
  7 12  1  0  0  0  0
  8  9  1  0  0  0  0
  8 11  1  0  0  0  0
  8 13  1  0  0  0  0
  9 10  2  0  0  0  0
  9 17  1  0  0  0  0
 11 14  1  0  0  0  0
 11 15  1  0  0  0  0
 11 16  1  0  0  0  0
 17 18  1  0  0  0  0
 17 26  1  0  0  0  0
 18 19  1  0  0  0  0
 18 21  1  0  0  0  0
 18 27  1  0  0  0  0
 19 20  2  0  0  0  0
 19 38  1  0  0  0  0
 21 22  1  0  0  0  0
 21 28  1  0  0  0  0
 21 29  1  0  0  0  0
 22 23  1  0  0  0  0
 22 30  1  0  0  0  0
 22 31  1  0  0  0  0
 23 24  1  0  0  0  0
 23 32  1  0  0  0  0
 23 33  1  0  0  0  0
 24 25  1  0  0  0  0
 24 34  1  0  0  0  0
 24 35  1  0  0  0  0
 25 36  1  0  0  0  0
 25 37  1  0  0  0  0
 38 39  1  0  0  0  0
 38 43  1  0  0  0  0
 39 40  1  0  0  0  0
 39 42  1  0  0  0  0
 39 44  1  0  0  0  0
 40 41  2  0  0  0  0
 40 48  1  0  0  0  0
 42 45  1  0  0  0  0
 42 46  1  0  0  0  0
 42 47  1  0  0  0  0
 48 49  1  0  0  0  0
 48 50  1  0  0  0  0
 49 51  1  0  0  0  0
 49 52  1  0  0  0  0
 49 53  1  0  0  0  0
M  END
$$$$

  -OEChem-02062319103D

 53 52  0     1  0  0  0  0  0999 V2000
   -0.5736   -5.2763   -1.0967 C   0  0  0  0  0  0  0  0  0  0  0  0
   -1.7686   -5.4888   -0.9690 O   0  0  0  0  0  0  0  0  0  0  0  0
    0.3399   -6.3602   -1.6373 C   0  0  0  0  0  0  0  0  0  0  0  0
    1.0580   -6.6590   -0.8695 H   0  0  0  0  0  0  0  0  0  0  0  0
   -0.2466   -7.2350   -1.9318 H   0  0  0  0  0  0  0  0  0  0  0  0
    0.8827   -5.9904   -2.5107 H   0  0  0  0  0  0  0  0  0  0  0  0
   -0.0483   -4.0492   -0.7529 N   0  0  0  0  0  0  0  0  0  0  0  0
   -0.8492   -2.8791   -0.3711 C   0  0  2  0  0  0  0  0  0  0  0  0
   -0.1831   -1.5711   -0.8520 C   0  0  0  0  0  0  0  0  0  0  0  0
    0.9911   -1.5562   -1.1903 O   0  0  0  0  0  0  0  0  0  0  0  0
   -1.0233   -2.8899    1.1513 C   0  0  0  0  0  0  0  0  0  0  0  0
    0.9302   -3.8789   -0.9822 H   0  0  0  0  0  0  0  0  0  0  0  0
   -1.8354   -2.9337   -0.8446 H   0  0  0  0  0  0  0  0  0  0  0  0
   -0.0512   -2.8131    1.6490 H   0  0  0  0  0  0  0  0  0  0  0  0
   -1.6484   -2.0513    1.4729 H   0  0  0  0  0  0  0  0  0  0  0  0
   -1.5066   -3.8191    1.4701 H   0  0  0  0  0  0  0  0  0  0  0  0
   -0.6631   -0.3273   -0.5201 N   0  0  0  0  0  0  0  0  0  0  0  0
   -1.8815    0.1424   -1.1972 C   0  0  2  0  0  0  0  0  0  0  0  0
   -1.7331    0.2328   -2.7310 C   0  0  0  0  0  0  0  0  0  0  0  0
   -2.6215   -0.2047   -3.4465 O   0  0  0  0  0  0  0  0  0  0  0  0
   -2.2620    1.5246   -0.6416 C   0  0  0  0  0  0  0  0  0  0  0  0
   -2.6304    1.4665    0.8479 C   0  0  0  0  0  0  0  0  0  0  0  0
   -3.0580    2.8517    1.3449 C   0  0  0  0  0  0  0  0  0  0  0  0
   -3.4110    2.8096    2.8290 C   0  0  0  0  0  0  0  0  0  0  0  0
   -3.8068    4.1542    3.2558 N   0  0  0  0  0  0  0  0  0  0  0  0
    0.1036    0.3414   -0.5163 H   0  0  0  0  0  0  0  0  0  0  0  0
   -2.7036   -0.5524   -0.9915 H   0  0  0  0  0  0  0  0  0  0  0  0
   -3.1206    1.9082   -1.2037 H   0  0  0  0  0  0  0  0  0  0  0  0
   -1.4313    2.2234   -0.7883 H   0  0  0  0  0  0  0  0  0  0  0  0
   -1.7720    1.1198    1.4331 H   0  0  0  0  0  0  0  0  0  0  0  0
   -3.4493    0.7543    0.9961 H   0  0  0  0  0  0  0  0  0  0  0  0
   -2.2438    3.5662    1.1852 H   0  0  0  0  0  0  0  0  0  0  0  0
   -3.9269    3.1944    0.7733 H   0  0  0  0  0  0  0  0  0  0  0  0
   -2.5477    2.4716    3.4131 H   0  0  0  0  0  0  0  0  0  0  0  0
   -4.2327    2.1055    3.0018 H   0  0  0  0  0  0  0  0  0  0  0  0
   -3.0379    4.8152    3.1454 H   0  0  0  0  0  0  0  0  0  0  0  0
   -4.6320    4.4719    2.7472 H   0  0  0  0  0  0  0  0  0  0  0  0
   -0.6096    0.7951   -3.3049 N   0  0  0  0  0  0  0  0  0  0  0  0
   -0.3329    0.8313   -4.7452 C   0  0  2  0  0  0  0  0  0  0  0  0
    1.1747    1.0235   -5.0115 C   0  0  0  0  0  0  0  0  0  0  0  0
    1.9073    1.4375   -4.1191 O   0  0  0  0  0  0  0  0  0  0  0  0
   -1.1292    1.9769   -5.3802 C   0  0  0  0  0  0  0  0  0  0  0  0
    0.1750    1.0154   -2.6915 H   0  0  0  0  0  0  0  0  0  0  0  0
   -0.6354   -0.1189   -5.1982 H   0  0  0  0  0  0  0  0  0  0  0  0
   -0.8453    2.9336   -4.9302 H   0  0  0  0  0  0  0  0  0  0  0  0
   -0.9379    2.0269   -6.4562 H   0  0  0  0  0  0  0  0  0  0  0  0
   -2.2029    1.8267   -5.2304 H   0  0  0  0  0  0  0  0  0  0  0  0
    1.7118    0.7381   -6.2531 N   0  0  0  0  0  0  0  0  0  0  0  0
    3.1289    0.8841   -6.5623 C   0  0  0  0  0  0  0  0  0  0  0  0
    1.0860    0.3757   -6.9664 H   0  0  0  0  0  0  0  0  0  0  0  0
    3.4455    1.9240   -6.4285 H   0  0  0  0  0  0  0  0  0  0  0  0
    3.7316    0.2456   -5.9077 H   0  0  0  0  0  0  0  0  0  0  0  0
    3.3219    0.5956   -7.6001 H   0  0  0  0  0  0  0  0  0  0  0  0
  1  2  2  0  0  0  0
  1  3  1  0  0  0  0
  1  7  1  0  0  0  0
  3  4  1  0  0  0  0
  3  5  1  0  0  0  0
  3  6  1  0  0  0  0
  7  8  1  0  0  0  0
  7 12  1  0  0  0  0
  8  9  1  0  0  0  0
  8 11  1  0  0  0  0
  8 13  1  0  0  0  0
  9 10  2  0  0  0  0
  9 17  1  0  0  0  0
 11 14  1  0  0  0  0
 11 15  1  0  0  0  0
 11 16  1  0  0  0  0
 17 18  1  0  0  0  0
 17 26  1  0  0  0  0
 18 19  1  0  0  0  0
 18 21  1  0  0  0  0
 18 27  1  0  0  0  0
 19 20  2  0  0  0  0
 19 38  1  0  0  0  0
 21 22  1  0  0  0  0
 21 28  1  0  0  0  0
 21 29  1  0  0  0  0
 22 23  1  0  0  0  0
 22 30  1  0  0  0  0
 22 31  1  0  0  0  0
 23 24  1  0  0  0  0
 23 32  1  0  0  0  0
 23 33  1  0  0  0  0
 24 25  1  0  0  0  0
 24 34  1  0  0  0  0
 24 35  1  0  0  0  0
 25 36  1  0  0  0  0
 25 37  1  0  0  0  0
 38 39  1  0  0  0  0
 38 43  1  0  0  0  0
 39 40  1  0  0  0  0
 39 42  1  0  0  0  0
 39 44  1  0  0  0  0
 40 41  2  0  0  0  0
 40 48  1  0  0  0  0
 42 45  1  0  0  0  0
 42 46  1  0  0  0  0
 42 47  1  0  0  0  0
 48 49  1  0  0  0  0
 48 50  1  0  0  0  0
 49 51  1  0  0  0  0
 49 52  1  0  0  0  0
 49 53  1  0  0  0  0
M  END
$$$$

  -OEChem-02062319103D

 53 52  0     1  0  0  0  0  0999 V2000
   -0.4818   -5.2561   -1.0289 C   0  0  0  0  0  0  0  0  0  0  0  0
   -1.6634   -5.4907   -0.8334 O   0  0  0  0  0  0  0  0  0  0  0  0
    0.4228   -6.3304   -1.6023 C   0  0  0  0  0  0  0  0  0  0  0  0
    1.2299   -6.5524   -0.8999 H   0  0  0  0  0  0  0  0  0  0  0  0
   -0.1476   -7.2454   -1.7849 H   0  0  0  0  0  0  0  0  0  0  0  0
    0.8538   -5.9896   -2.5468 H   0  0  0  0  0  0  0  0  0  0  0  0
    0.0340   -4.0111   -0.7395 N   0  0  0  0  0  0  0  0  0  0  0  0
   -0.7696   -2.8515   -0.3323 C   0  0  2  0  0  0  0  0  0  0  0  0
   -0.1304   -1.5345   -0.8262 C   0  0  0  0  0  0  0  0  0  0  0  0
    1.0333   -1.5030   -1.1973 O   0  0  0  0  0  0  0  0  0  0  0  0
   -0.9010   -2.8634    1.1946 C   0  0  0  0  0  0  0  0  0  0  0  0
    0.9975   -3.8269   -1.0166 H   0  0  0  0  0  0  0  0  0  0  0  0
   -1.7671   -2.9200   -0.7797 H   0  0  0  0  0  0  0  0  0  0  0  0
    0.0839   -2.7766    1.6643 H   0  0  0  0  0  0  0  0  0  0  0  0
   -1.5248   -2.0309    1.5338 H   0  0  0  0  0  0  0  0  0  0  0  0
   -1.3657   -3.7970    1.5275 H   0  0  0  0  0  0  0  0  0  0  0  0
   -0.6442   -0.2930   -0.5363 N   0  0  0  0  0  0  0  0  0  0  0  0
   -2.0112    0.0435   -0.9626 C   0  0  2  0  0  0  0  0  0  0  0  0
   -2.2055   -0.0323   -2.4911 C   0  0  0  0  0  0  0  0  0  0  0  0
   -3.1885   -0.5989   -2.9436 O   0  0  0  0  0  0  0  0  0  0  0  0
   -2.3559    1.4579   -0.4684 C   0  0  0  0  0  0  0  0  0  0  0  0
   -2.3995    1.5332    1.0650 C   0  0  0  0  0  0  0  0  0  0  0  0
   -2.7874    2.9440    1.5199 C   0  0  0  0  0  0  0  0  0  0  0  0
   -2.8342    3.0284    3.0429 C   0  0  0  0  0  0  0  0  0  0  0  0
   -3.2086    4.3924    3.4250 N   0  0  0  0  0  0  0  0  0  0  0  0
    0.0593    0.4266   -0.6862 H   0  0  0  0  0  0  0  0  0  0  0  0
   -2.7198   -0.6608   -0.5119 H   0  0  0  0  0  0  0  0  0  0  0  0
   -3.3368    1.7437   -0.8652 H   0  0  0  0  0  0  0  0  0  0  0  0
   -1.6214    2.1740   -0.8525 H   0  0  0  0  0  0  0  0  0  0  0  0
   -1.4202    1.2748    1.4815 H   0  0  0  0  0  0  0  0  0  0  0  0
   -3.1293    0.8108    1.4463 H   0  0  0  0  0  0  0  0  0  0  0  0
   -2.0588    3.6666    1.1378 H   0  0  0  0  0  0  0  0  0  0  0  0
   -3.7692    3.2047    1.1110 H   0  0  0  0  0  0  0  0  0  0  0  0
   -1.8553    2.7770    3.4662 H   0  0  0  0  0  0  0  0  0  0  0  0
   -3.5664    2.3156    3.4384 H   0  0  0  0  0  0  0  0  0  0  0  0
   -2.5101    5.0661    3.1106 H   0  0  0  0  0  0  0  0  0  0  0  0
   -4.1314    4.6334    3.0630 H   0  0  0  0  0  0  0  0  0  0  0  0
   -1.2749    0.5112   -3.3547 N   0  0  0  0  0  0  0  0  0  0  0  0
   -1.3020    0.3558   -4.8136 C   0  0  2  0  0  0  0  0  0  0  0  0
    0.1118    0.5114   -5.4118 C   0  0  0  0  0  0  0  0  0  0  0  0
    1.0017    1.0366   -4.7512 O   0  0  0  0  0  0  0  0  0  0  0  0
   -2.2495    1.4031   -5.4081 C   0  0  0  0  0  0  0  0  0  0  0  0
   -0.3987    0.8464   -2.9543 H   0  0  0  0  0  0  0  0  0  0  0  0
   -1.6626   -0.6466   -5.0678 H   0  0  0  0  0  0  0  0  0  0  0  0
   -1.9064    2.4128   -5.1609 H   0  0  0  0  0  0  0  0  0  0  0  0
   -2.2940    1.3064   -6.4970 H   0  0  0  0  0  0  0  0  0  0  0  0
   -3.2608    1.2717   -5.0107 H   0  0  0  0  0  0  0  0  0  0  0  0
    0.3913    0.0542   -6.6865 N   0  0  0  0  0  0  0  0  0  0  0  0
    1.7177    0.1276   -7.2880 C   0  0  0  0  0  0  0  0  0  0  0  0
   -0.3576   -0.4029   -7.1985 H   0  0  0  0  0  0  0  0  0  0  0  0
    2.0495    1.1687   -7.3597 H   0  0  0  0  0  0  0  0  0  0  0  0
    2.4423   -0.4323   -6.6872 H   0  0  0  0  0  0  0  0  0  0  0  0
    1.7014   -0.2995   -8.2952 H   0  0  0  0  0  0  0  0  0  0  0  0
  1  2  2  0  0  0  0
  1  3  1  0  0  0  0
  1  7  1  0  0  0  0
  3  4  1  0  0  0  0
  3  5  1  0  0  0  0
  3  6  1  0  0  0  0
  7  8  1  0  0  0  0
  7 12  1  0  0  0  0
  8  9  1  0  0  0  0
  8 11  1  0  0  0  0
  8 13  1  0  0  0  0
  9 10  2  0  0  0  0
  9 17  1  0  0  0  0
 11 14  1  0  0  0  0
 11 15  1  0  0  0  0
 11 16  1  0  0  0  0
 17 18  1  0  0  0  0
 17 26  1  0  0  0  0
 18 19  1  0  0  0  0
 18 21  1  0  0  0  0
 18 27  1  0  0  0  0
 19 20  2  0  0  0  0
 19 38  1  0  0  0  0
 21 22  1  0  0  0  0
 21 28  1  0  0  0  0
 21 29  1  0  0  0  0
 22 23  1  0  0  0  0
 22 30  1  0  0  0  0
 22 31  1  0  0  0  0
 23 24  1  0  0  0  0
 23 32  1  0  0  0  0
 23 33  1  0  0  0  0
 24 25  1  0  0  0  0
 24 34  1  0  0  0  0
 24 35  1  0  0  0  0
 25 36  1  0  0  0  0
 25 37  1  0  0  0  0
 38 39  1  0  0  0  0
 38 43  1  0  0  0  0
 39 40  1  0  0  0  0
 39 42  1  0  0  0  0
 39 44  1  0  0  0  0
 40 41  2  0  0  0  0
 40 48  1  0  0  0  0
 42 45  1  0  0  0  0
 42 46  1  0  0  0  0
 42 47  1  0  0  0  0
 48 49  1  0  0  0  0
 48 50  1  0  0  0  0
 49 51  1  0  0  0  0
 49 52  1  0  0  0  0
 49 53  1  0  0  0  0
M  END
$$$$

  -OEChem-02062319103D

 53 52  0     1  0  0  0  0  0999 V2000
   -0.3654   -5.1847   -1.1381 C   0  0  0  0  0  0  0  0  0  0  0  0
   -1.5331   -5.4567   -0.9117 O   0  0  0  0  0  0  0  0  0  0  0  0
    0.5304   -6.1941   -1.8309 C   0  0  0  0  0  0  0  0  0  0  0  0
    1.3642   -6.4631   -1.1780 H   0  0  0  0  0  0  0  0  0  0  0  0
   -0.0354   -7.0988   -2.0702 H   0  0  0  0  0  0  0  0  0  0  0  0
    0.9234   -5.7686   -2.7576 H   0  0  0  0  0  0  0  0  0  0  0  0
    0.1430   -3.9553   -0.7781 N   0  0  0  0  0  0  0  0  0  0  0  0
   -0.6624   -2.8384   -0.2680 C   0  0  2  0  0  0  0  0  0  0  0  0
   -0.0911   -1.4879   -0.7548 C   0  0  0  0  0  0  0  0  0  0  0  0
    1.0556   -1.4053   -1.1689 O   0  0  0  0  0  0  0  0  0  0  0  0
   -0.6731   -2.9104    1.2617 C   0  0  0  0  0  0  0  0  0  0  0  0
    1.0881   -3.7319   -1.0891 H   0  0  0  0  0  0  0  0  0  0  0  0
   -1.6890   -2.9198   -0.6417 H   0  0  0  0  0  0  0  0  0  0  0  0
    0.3440   -2.8212    1.6565 H   0  0  0  0  0  0  0  0  0  0  0  0
   -1.2819   -2.1040    1.6810 H   0  0  0  0  0  0  0  0  0  0  0  0
   -1.0935   -3.8656    1.5924 H   0  0  0  0  0  0  0  0  0  0  0  0
   -0.6697   -0.2665   -0.4992 N   0  0  0  0  0  0  0  0  0  0  0  0
   -2.1174   -0.0502   -0.6465 C   0  0  2  0  0  0  0  0  0  0  0  0
   -2.6230   -0.3140   -2.0791 C   0  0  0  0  0  0  0  0  0  0  0  0
   -3.6408   -0.9688   -2.2435 O   0  0  0  0  0  0  0  0  0  0  0  0
   -2.4493    1.3969   -0.2466 C   0  0  0  0  0  0  0  0  0  0  0  0
   -2.1754    1.6603    1.2415 C   0  0  0  0  0  0  0  0  0  0  0  0
   -2.5141    3.1119    1.5964 C   0  0  0  0  0  0  0  0  0  0  0  0
   -2.2577    3.3822    3.0764 C   0  0  0  0  0  0  0  0  0  0  0  0
   -2.5637    4.7875    3.3558 N   0  0  0  0  0  0  0  0  0  0  0  0
   -0.0551    0.5004   -0.7625 H   0  0  0  0  0  0  0  0  0  0  0  0
   -2.6618   -0.7275    0.0211 H   0  0  0  0  0  0  0  0  0  0  0  0
   -3.5090    1.5884   -0.4502 H   0  0  0  0  0  0  0  0  0  0  0  0
   -1.8642    2.0921   -0.8584 H   0  0  0  0  0  0  0  0  0  0  0  0
   -1.1218    1.4691    1.4706 H   0  0  0  0  0  0  0  0  0  0  0  0
   -2.7809    0.9809    1.8509 H   0  0  0  0  0  0  0  0  0  0  0  0
   -1.9011    3.7886    0.9920 H   0  0  0  0  0  0  0  0  0  0  0  0
   -3.5660    3.3118    1.3674 H   0  0  0  0  0  0  0  0  0  0  0  0
   -1.2110    3.1723    3.3234 H   0  0  0  0  0  0  0  0  0  0  0  0
   -2.8875    2.7318    3.6937 H   0  0  0  0  0  0  0  0  0  0  0  0
   -1.9583    5.4082    2.8185 H   0  0  0  0  0  0  0  0  0  0  0  0
   -3.5458    4.9922    3.1713 H   0  0  0  0  0  0  0  0  0  0  0  0
   -1.9392    0.1696   -3.1773 N   0  0  0  0  0  0  0  0  0  0  0  0
   -2.2513   -0.1880   -4.5661 C   0  0  2  0  0  0  0  0  0  0  0  0
   -0.9849   -0.1571   -5.4458 C   0  0  0  0  0  0  0  0  0  0  0  0
    0.0135    0.4409   -5.0595 O   0  0  0  0  0  0  0  0  0  0  0  0
   -3.3018    0.7897   -5.1005 C   0  0  0  0  0  0  0  0  0  0  0  0
   -1.0194    0.5797   -3.0141 H   0  0  0  0  0  0  0  0  0  0  0  0
   -2.6530   -1.2063   -4.6028 H   0  0  0  0  0  0  0  0  0  0  0  0
   -2.9179    1.8147   -5.0767 H   0  0  0  0  0  0  0  0  0  0  0  0
   -3.5687    0.5405   -6.1319 H   0  0  0  0  0  0  0  0  0  0  0  0
   -4.2092    0.7427   -4.4898 H   0  0  0  0  0  0  0  0  0  0  0  0
   -0.9558   -0.8169   -6.6603 N   0  0  0  0  0  0  0  0  0  0  0  0
    0.2303   -0.8802   -7.5055 C   0  0  0  0  0  0  0  0  0  0  0  0
   -1.7855   -1.3345   -6.9360 H   0  0  0  0  0  0  0  0  0  0  0  0
    0.5416    0.1262   -7.8049 H   0  0  0  0  0  0  0  0  0  0  0  0
    1.0568   -1.3598   -6.9704 H   0  0  0  0  0  0  0  0  0  0  0  0
    0.0210   -1.4608   -8.4092 H   0  0  0  0  0  0  0  0  0  0  0  0
  1  2  2  0  0  0  0
  1  3  1  0  0  0  0
  1  7  1  0  0  0  0
  3  4  1  0  0  0  0
  3  5  1  0  0  0  0
  3  6  1  0  0  0  0
  7  8  1  0  0  0  0
  7 12  1  0  0  0  0
  8  9  1  0  0  0  0
  8 11  1  0  0  0  0
  8 13  1  0  0  0  0
  9 10  2  0  0  0  0
  9 17  1  0  0  0  0
 11 14  1  0  0  0  0
 11 15  1  0  0  0  0
 11 16  1  0  0  0  0
 17 18  1  0  0  0  0
 17 26  1  0  0  0  0
 18 19  1  0  0  0  0
 18 21  1  0  0  0  0
 18 27  1  0  0  0  0
 19 20  2  0  0  0  0
 19 38  1  0  0  0  0
 21 22  1  0  0  0  0
 21 28  1  0  0  0  0
 21 29  1  0  0  0  0
 22 23  1  0  0  0  0
 22 30  1  0  0  0  0
 22 31  1  0  0  0  0
 23 24  1  0  0  0  0
 23 32  1  0  0  0  0
 23 33  1  0  0  0  0
 24 25  1  0  0  0  0
 24 34  1  0  0  0  0
 24 35  1  0  0  0  0
 25 36  1  0  0  0  0
 25 37  1  0  0  0  0
 38 39  1  0  0  0  0
 38 43  1  0  0  0  0
 39 40  1  0  0  0  0
 39 42  1  0  0  0  0
 39 44  1  0  0  0  0
 40 41  2  0  0  0  0
 40 48  1  0  0  0  0
 42 45  1  0  0  0  0
 42 46  1  0  0  0  0
 42 47  1  0  0  0  0
 48 49  1  0  0  0  0
 48 50  1  0  0  0  0
 49 51  1  0  0  0  0
 49 52  1  0  0  0  0
 49 53  1  0  0  0  0
M  END
$$$$

  -OEChem-02062319103D

 53 52  0     1  0  0  0  0  0999 V2000
   -0.3370   -5.0447   -1.3692 C   0  0  0  0  0  0  0  0  0  0  0  0
   -1.5280   -5.2826   -1.2538 O   0  0  0  0  0  0  0  0  0  0  0  0
    0.5515   -5.9892   -2.1569 C   0  0  0  0  0  0  0  0  0  0  0  0
    1.4011   -6.2998   -1.5441 H   0  0  0  0  0  0  0  0  0  0  0  0
   -0.0122   -6.8783   -2.4534 H   0  0  0  0  0  0  0  0  0  0  0  0
    0.9221   -5.4899   -3.0555 H   0  0  0  0  0  0  0  0  0  0  0  0
    0.2091   -3.9150   -0.7980 N   0  0  0  0  0  0  0  0  0  0  0  0
   -0.5709   -2.8262   -0.1930 C   0  0  2  0  0  0  0  0  0  0  0  0
   -0.0528   -1.4537   -0.6807 C   0  0  0  0  0  0  0  0  0  0  0  0
    1.0722   -1.3379   -1.1439 O   0  0  0  0  0  0  0  0  0  0  0  0
   -0.4511   -2.9513    1.3280 C   0  0  0  0  0  0  0  0  0  0  0  0
    1.1667   -3.6893   -1.0641 H   0  0  0  0  0  0  0  0  0  0  0  0
   -1.6250   -2.9091   -0.4783 H   0  0  0  0  0  0  0  0  0  0  0  0
    0.5950   -2.8647    1.6386 H   0  0  0  0  0  0  0  0  0  0  0  0
   -1.0287   -2.1676    1.8268 H   0  0  0  0  0  0  0  0  0  0  0  0
   -0.8338   -3.9228    1.6565 H   0  0  0  0  0  0  0  0  0  0  0  0
   -0.6785   -0.2487   -0.4542 N   0  0  0  0  0  0  0  0  0  0  0  0
   -2.1335   -0.0905   -0.3056 C   0  0  2  0  0  0  0  0  0  0  0  0
   -2.9233   -0.5501   -1.5464 C   0  0  0  0  0  0  0  0  0  0  0  0
   -3.9279   -1.2284   -1.3968 O   0  0  0  0  0  0  0  0  0  0  0  0
   -2.4495    1.3859   -0.0148 C   0  0  0  0  0  0  0  0  0  0  0  0
   -1.8760    1.8406    1.3350 C   0  0  0  0  0  0  0  0  0  0  0  0
   -2.2239    3.3096    1.5960 C   0  0  0  0  0  0  0  0  0  0  0  0
   -1.6718    3.7646    2.9439 C   0  0  0  0  0  0  0  0  0  0  0  0
   -2.0127    5.1763    3.1378 N   0  0  0  0  0  0  0  0  0  0  0  0
   -0.1408    0.5436   -0.7981 H   0  0  0  0  0  0  0  0  0  0  0  0
   -2.4822   -0.6931    0.5402 H   0  0  0  0  0  0  0  0  0  0  0  0
   -3.5369    1.5205   -0.0002 H   0  0  0  0  0  0  0  0  0  0  0  0
   -2.0493    2.0141   -0.8178 H   0  0  0  0  0  0  0  0  0  0  0  0
   -0.7876    1.7209    1.3413 H   0  0  0  0  0  0  0  0  0  0  0  0
   -2.2883    1.2168    2.1352 H   0  0  0  0  0  0  0  0  0  0  0  0
   -1.8020    3.9326    0.8007 H   0  0  0  0  0  0  0  0  0  0  0  0
   -3.3113    3.4378    1.5867 H   0  0  0  0  0  0  0  0  0  0  0  0
   -0.5838    3.6366    2.9701 H   0  0  0  0  0  0  0  0  0  0  0  0
   -2.1026    3.1617    3.7512 H   0  0  0  0  0  0  0  0  0  0  0  0
   -1.5825    5.7595    2.4199 H   0  0  0  0  0  0  0  0  0  0  0  0
   -3.0237    5.3107    3.1540 H   0  0  0  0  0  0  0  0  0  0  0  0
   -2.5197   -0.1972   -2.8187 N   0  0  0  0  0  0  0  0  0  0  0  0
   -3.0801   -0.7810   -4.0438 C   0  0  2  0  0  0  0  0  0  0  0  0
   -2.0023   -0.9200   -5.1380 C   0  0  0  0  0  0  0  0  0  0  0  0
   -0.9430   -0.3110   -5.0335 O   0  0  0  0  0  0  0  0  0  0  0  0
   -4.2301    0.1085   -4.5236 C   0  0  0  0  0  0  0  0  0  0  0  0
   -1.6002    0.2359   -2.9087 H   0  0  0  0  0  0  0  0  0  0  0  0
   -3.4632   -1.7860   -3.8356 H   0  0  0  0  0  0  0  0  0  0  0  0
   -3.8672    1.1171   -4.7460 H   0  0  0  0  0  0  0  0  0  0  0  0
   -4.6850   -0.3063   -5.4282 H   0  0  0  0  0  0  0  0  0  0  0  0
   -5.0018    0.1776   -3.7503 H   0  0  0  0  0  0  0  0  0  0  0  0
   -2.2089   -1.7426   -6.2298 N   0  0  0  0  0  0  0  0  0  0  0  0
   -1.2031   -1.9659   -7.2613 C   0  0  0  0  0  0  0  0  0  0  0  0
   -3.0755   -2.2723   -6.2633 H   0  0  0  0  0  0  0  0  0  0  0  0
   -0.9122   -1.0176   -7.7257 H   0  0  0  0  0  0  0  0  0  0  0  0
   -0.3120   -2.4350   -6.8313 H   0  0  0  0  0  0  0  0  0  0  0  0
   -1.5991   -2.6239   -8.0408 H   0  0  0  0  0  0  0  0  0  0  0  0
  1  2  2  0  0  0  0
  1  3  1  0  0  0  0
  1  7  1  0  0  0  0
  3  4  1  0  0  0  0
  3  5  1  0  0  0  0
  3  6  1  0  0  0  0
  7  8  1  0  0  0  0
  7 12  1  0  0  0  0
  8  9  1  0  0  0  0
  8 11  1  0  0  0  0
  8 13  1  0  0  0  0
  9 10  2  0  0  0  0
  9 17  1  0  0  0  0
 11 14  1  0  0  0  0
 11 15  1  0  0  0  0
 11 16  1  0  0  0  0
 17 18  1  0  0  0  0
 17 26  1  0  0  0  0
 18 19  1  0  0  0  0
 18 21  1  0  0  0  0
 18 27  1  0  0  0  0
 19 20  2  0  0  0  0
 19 38  1  0  0  0  0
 21 22  1  0  0  0  0
 21 28  1  0  0  0  0
 21 29  1  0  0  0  0
 22 23  1  0  0  0  0
 22 30  1  0  0  0  0
 22 31  1  0  0  0  0
 23 24  1  0  0  0  0
 23 32  1  0  0  0  0
 23 33  1  0  0  0  0
 24 25  1  0  0  0  0
 24 34  1  0  0  0  0
 24 35  1  0  0  0  0
 25 36  1  0  0  0  0
 25 37  1  0  0  0  0
 38 39  1  0  0  0  0
 38 43  1  0  0  0  0
 39 40  1  0  0  0  0
 39 42  1  0  0  0  0
 39 44  1  0  0  0  0
 40 41  2  0  0  0  0
 40 48  1  0  0  0  0
 42 45  1  0  0  0  0
 42 46  1  0  0  0  0
 42 47  1  0  0  0  0
 48 49  1  0  0  0  0
 48 50  1  0  0  0  0
 49 51  1  0  0  0  0
 49 52  1  0  0  0  0
 49 53  1  0  0  0  0
M  END
$$$$

  -OEChem-02062319103D

 53 52  0     1  0  0  0  0  0999 V2000
   -0.7681   -4.5403   -2.1110 C   0  0  0  0  0  0  0  0  0  0  0  0
   -1.9326   -4.2851   -2.3824 O   0  0  0  0  0  0  0  0  0  0  0  0
    0.0261   -5.4614   -3.0173 C   0  0  0  0  0  0  0  0  0  0  0  0
    0.3677   -6.3339   -2.4551 H   0  0  0  0  0  0  0  0  0  0  0  0
   -0.5944   -5.8010   -3.8512 H   0  0  0  0  0  0  0  0  0  0  0  0
    0.8942   -4.9319   -3.4178 H   0  0  0  0  0  0  0  0  0  0  0  0
   -0.1484   -3.9669   -1.0199 N   0  0  0  0  0  0  0  0  0  0  0  0
   -0.7262   -2.8511   -0.2559 C   0  0  2  0  0  0  0  0  0  0  0  0
   -0.2398   -1.4806   -0.7898 C   0  0  0  0  0  0  0  0  0  0  0  0
    0.8137   -1.3845   -1.4016 O   0  0  0  0  0  0  0  0  0  0  0  0
   -0.3127   -3.0345    1.2060 C   0  0  0  0  0  0  0  0  0  0  0  0
    0.8650   -4.0479   -1.0059 H   0  0  0  0  0  0  0  0  0  0  0  0
   -1.8177   -2.8893   -0.3113 H   0  0  0  0  0  0  0  0  0  0  0  0
    0.7762   -2.9845    1.3073 H   0  0  0  0  0  0  0  0  0  0  0  0
   -0.7552   -2.2538    1.8313 H   0  0  0  0  0  0  0  0  0  0  0  0
   -0.6550   -4.0059    1.5761 H   0  0  0  0  0  0  0  0  0  0  0  0
   -0.8331   -0.2643   -0.5272 N   0  0  0  0  0  0  0  0  0  0  0  0
   -2.1797   -0.0698    0.0329 C   0  0  2  0  0  0  0  0  0  0  0  0
   -3.2785   -0.6826   -0.8551 C   0  0  0  0  0  0  0  0  0  0  0  0
   -4.0832   -1.4525   -0.3524 O   0  0  0  0  0  0  0  0  0  0  0  0
   -2.4369    1.4342    0.2172 C   0  0  0  0  0  0  0  0  0  0  0  0
   -1.5053    2.0468    1.2735 C   0  0  0  0  0  0  0  0  0  0  0  0
   -1.8295    3.5298    1.4806 C   0  0  0  0  0  0  0  0  0  0  0  0
   -0.8983    4.1440    2.5222 C   0  0  0  0  0  0  0  0  0  0  0  0
   -1.2572    5.5528    2.7022 N   0  0  0  0  0  0  0  0  0  0  0  0
   -0.3516    0.5271   -0.9475 H   0  0  0  0  0  0  0  0  0  0  0  0
   -2.2435   -0.5540    1.0129 H   0  0  0  0  0  0  0  0  0  0  0  0
   -3.4759    1.5806    0.5331 H   0  0  0  0  0  0  0  0  0  0  0  0
   -2.3045    1.9535   -0.7381 H   0  0  0  0  0  0  0  0  0  0  0  0
   -0.4616    1.9451    0.9582 H   0  0  0  0  0  0  0  0  0  0  0  0
   -1.6244    1.5116    2.2217 H   0  0  0  0  0  0  0  0  0  0  0  0
   -1.7194    4.0666    0.5326 H   0  0  0  0  0  0  0  0  0  0  0  0
   -2.8678    3.6358    1.8119 H   0  0  0  0  0  0  0  0  0  0  0  0
    0.1430    4.0629    2.1911 H   0  0  0  0  0  0  0  0  0  0  0  0
   -0.9925    3.6103    3.4745 H   0  0  0  0  0  0  0  0  0  0  0  0
   -1.1380    6.0755    1.8344 H   0  0  0  0  0  0  0  0  0  0  0  0
   -2.2109    5.6463    3.0518 H   0  0  0  0  0  0  0  0  0  0  0  0
   -3.2582   -0.4914   -2.2218 N   0  0  0  0  0  0  0  0  0  0  0  0
   -3.8596   -1.4369   -3.1685 C   0  0  2  0  0  0  0  0  0  0  0  0
   -2.9442   -1.6086   -4.3965 C   0  0  0  0  0  0  0  0  0  0  0  0
   -2.4958   -0.6166   -4.9619 O   0  0  0  0  0  0  0  0  0  0  0  0
   -5.2397   -0.9192   -3.5801 C   0  0  0  0  0  0  0  0  0  0  0  0
   -2.4996    0.0813   -2.5886 H   0  0  0  0  0  0  0  0  0  0  0  0
   -3.9754   -2.4206   -2.6999 H   0  0  0  0  0  0  0  0  0  0  0  0
   -5.1558    0.0619   -4.0585 H   0  0  0  0  0  0  0  0  0  0  0  0
   -5.7102   -1.6118   -4.2846 H   0  0  0  0  0  0  0  0  0  0  0  0
   -5.8857   -0.8265   -2.7014 H   0  0  0  0  0  0  0  0  0  0  0  0
   -2.5591   -2.8663   -4.8158 N   0  0  0  0  0  0  0  0  0  0  0  0
   -1.5517   -3.0688   -5.8487 C   0  0  0  0  0  0  0  0  0  0  0  0
   -2.6926   -3.6106   -4.1262 H   0  0  0  0  0  0  0  0  0  0  0  0
   -1.8589   -2.5884   -6.7835 H   0  0  0  0  0  0  0  0  0  0  0  0
   -0.5909   -2.6474   -5.5348 H   0  0  0  0  0  0  0  0  0  0  0  0
   -1.4174   -4.1375   -6.0400 H   0  0  0  0  0  0  0  0  0  0  0  0
  1  2  2  0  0  0  0
  1  3  1  0  0  0  0
  1  7  1  0  0  0  0
  3  4  1  0  0  0  0
  3  5  1  0  0  0  0
  3  6  1  0  0  0  0
  7  8  1  0  0  0  0
  7 12  1  0  0  0  0
  8  9  1  0  0  0  0
  8 11  1  0  0  0  0
  8 13  1  0  0  0  0
  9 10  2  0  0  0  0
  9 17  1  0  0  0  0
 11 14  1  0  0  0  0
 11 15  1  0  0  0  0
 11 16  1  0  0  0  0
 17 18  1  0  0  0  0
 17 26  1  0  0  0  0
 18 19  1  0  0  0  0
 18 21  1  0  0  0  0
 18 27  1  0  0  0  0
 19 20  2  0  0  0  0
 19 38  1  0  0  0  0
 21 22  1  0  0  0  0
 21 28  1  0  0  0  0
 21 29  1  0  0  0  0
 22 23  1  0  0  0  0
 22 30  1  0  0  0  0
 22 31  1  0  0  0  0
 23 24  1  0  0  0  0
 23 32  1  0  0  0  0
 23 33  1  0  0  0  0
 24 25  1  0  0  0  0
 24 34  1  0  0  0  0
 24 35  1  0  0  0  0
 25 36  1  0  0  0  0
 25 37  1  0  0  0  0
 38 39  1  0  0  0  0
 38 43  1  0  0  0  0
 39 40  1  0  0  0  0
 39 42  1  0  0  0  0
 39 44  1  0  0  0  0
 40 41  2  0  0  0  0
 40 48  1  0  0  0  0
 42 45  1  0  0  0  0
 42 46  1  0  0  0  0
 42 47  1  0  0  0  0
 48 49  1  0  0  0  0
 48 50  1  0  0  0  0
 49 51  1  0  0  0  0
 49 52  1  0  0  0  0
 49 53  1  0  0  0  0
M  END
$$$$

  -OEChem-02062319103D

 53 52  0     1  0  0  0  0  0999 V2000
   -0.8295   -4.7091   -1.9001 C   0  0  0  0  0  0  0  0  0  0  0  0
   -2.0507   -4.6955   -1.8345 O   0  0  0  0  0  0  0  0  0  0  0  0
   -0.1485   -5.5529   -2.9611 C   0  0  0  0  0  0  0  0  0  0  0  0
    0.5822   -6.2195   -2.4964 H   0  0  0  0  0  0  0  0  0  0  0  0
   -0.8866   -6.1581   -3.4950 H   0  0  0  0  0  0  0  0  0  0  0  0
    0.3634   -4.9068   -3.6787 H   0  0  0  0  0  0  0  0  0  0  0  0
   -0.0598   -3.9363   -1.0550 N   0  0  0  0  0  0  0  0  0  0  0  0
   -0.5972   -2.8695   -0.1965 C   0  0  2  0  0  0  0  0  0  0  0  0
   -0.1756   -1.4710   -0.7146 C   0  0  0  0  0  0  0  0  0  0  0  0
    0.8204   -1.3449   -1.4119 O   0  0  0  0  0  0  0  0  0  0  0  0
   -0.0615   -3.1005    1.2178 C   0  0  0  0  0  0  0  0  0  0  0  0
    0.9193   -3.8444   -1.3188 H   0  0  0  0  0  0  0  0  0  0  0  0
   -1.6870   -2.9279   -0.1656 H   0  0  0  0  0  0  0  0  0  0  0  0
    1.0312   -3.0355    1.2305 H   0  0  0  0  0  0  0  0  0  0  0  0
   -0.4632   -2.3524    1.9071 H   0  0  0  0  0  0  0  0  0  0  0  0
   -0.3575   -4.0914    1.5765 H   0  0  0  0  0  0  0  0  0  0  0  0
   -0.8082   -0.2737   -0.4503 N   0  0  0  0  0  0  0  0  0  0  0  0
   -2.0106   -0.0652    0.3738 C   0  0  2  0  0  0  0  0  0  0  0  0
   -3.2329   -0.8336   -0.1599 C   0  0  0  0  0  0  0  0  0  0  0  0
   -3.8387   -1.5844    0.5901 O   0  0  0  0  0  0  0  0  0  0  0  0
   -2.3292    1.4382    0.4177 C   0  0  0  0  0  0  0  0  0  0  0  0
   -1.2587    2.2280    1.1849 C   0  0  0  0  0  0  0  0  0  0  0  0
   -1.6167    3.7177    1.2171 C   0  0  0  0  0  0  0  0  0  0  0  0
   -0.5783    4.5072    2.0092 C   0  0  0  0  0  0  0  0  0  0  0  0
   -0.9575    5.9224    2.0024 N   0  0  0  0  0  0  0  0  0  0  0  0
   -0.3523    0.5324   -0.8709 H   0  0  0  0  0  0  0  0  0  0  0  0
   -1.8231   -0.4132    1.3951 H   0  0  0  0  0  0  0  0  0  0  0  0
   -3.2964    1.5836    0.9122 H   0  0  0  0  0  0  0  0  0  0  0  0
   -2.4174    1.8276   -0.6026 H   0  0  0  0  0  0  0  0  0  0  0  0
   -0.2811    2.1011    0.7082 H   0  0  0  0  0  0  0  0  0  0  0  0
   -1.1864    1.8453    2.2088 H   0  0  0  0  0  0  0  0  0  0  0  0
   -1.6664    4.1045    0.1939 H   0  0  0  0  0  0  0  0  0  0  0  0
   -2.6016    3.8500    1.6771 H   0  0  0  0  0  0  0  0  0  0  0  0
    0.4136    4.3839    1.5605 H   0  0  0  0  0  0  0  0  0  0  0  0
   -0.5301    4.1387    3.0399 H   0  0  0  0  0  0  0  0  0  0  0  0
   -0.9634    6.2966    1.0534 H   0  0  0  0  0  0  0  0  0  0  0  0
   -1.8631    6.0616    2.4508 H   0  0  0  0  0  0  0  0  0  0  0  0
   -3.5204   -0.8164   -1.5093 N   0  0  0  0  0  0  0  0  0  0  0  0
   -4.2255   -1.9039   -2.1962 C   0  0  2  0  0  0  0  0  0  0  0  0
   -3.6081   -2.1394   -3.5901 C   0  0  0  0  0  0  0  0  0  0  0  0
   -3.2624   -1.1772   -4.2688 O   0  0  0  0  0  0  0  0  0  0  0  0
   -5.7064   -1.5364   -2.3129 C   0  0  0  0  0  0  0  0  0  0  0  0
   -2.9080   -0.2488   -2.0944 H   0  0  0  0  0  0  0  0  0  0  0  0
   -4.1319   -2.8350   -1.6260 H   0  0  0  0  0  0  0  0  0  0  0  0
   -5.8282   -0.6091   -2.8821 H   0  0  0  0  0  0  0  0  0  0  0  0
   -6.2568   -2.3335   -2.8217 H   0  0  0  0  0  0  0  0  0  0  0  0
   -6.1410   -1.3956   -1.3182 H   0  0  0  0  0  0  0  0  0  0  0  0
   -3.3753   -3.4194   -4.0532 N   0  0  0  0  0  0  0  0  0  0  0  0
   -2.6366   -3.6807   -5.2816 C   0  0  0  0  0  0  0  0  0  0  0  0
   -3.3640   -4.1431   -3.3304 H   0  0  0  0  0  0  0  0  0  0  0  0
   -3.1215   -3.1928   -6.1338 H   0  0  0  0  0  0  0  0  0  0  0  0
   -1.6109   -3.3069   -5.1980 H   0  0  0  0  0  0  0  0  0  0  0  0
   -2.6000   -4.7567   -5.4770 H   0  0  0  0  0  0  0  0  0  0  0  0
  1  2  2  0  0  0  0
  1  3  1  0  0  0  0
  1  7  1  0  0  0  0
  3  4  1  0  0  0  0
  3  5  1  0  0  0  0
  3  6  1  0  0  0  0
  7  8  1  0  0  0  0
  7 12  1  0  0  0  0
  8  9  1  0  0  0  0
  8 11  1  0  0  0  0
  8 13  1  0  0  0  0
  9 10  2  0  0  0  0
  9 17  1  0  0  0  0
 11 14  1  0  0  0  0
 11 15  1  0  0  0  0
 11 16  1  0  0  0  0
 17 18  1  0  0  0  0
 17 26  1  0  0  0  0
 18 19  1  0  0  0  0
 18 21  1  0  0  0  0
 18 27  1  0  0  0  0
 19 20  2  0  0  0  0
 19 38  1  0  0  0  0
 21 22  1  0  0  0  0
 21 28  1  0  0  0  0
 21 29  1  0  0  0  0
 22 23  1  0  0  0  0
 22 30  1  0  0  0  0
 22 31  1  0  0  0  0
 23 24  1  0  0  0  0
 23 32  1  0  0  0  0
 23 33  1  0  0  0  0
 24 25  1  0  0  0  0
 24 34  1  0  0  0  0
 24 35  1  0  0  0  0
 25 36  1  0  0  0  0
 25 37  1  0  0  0  0
 38 39  1  0  0  0  0
 38 43  1  0  0  0  0
 39 40  1  0  0  0  0
 39 42  1  0  0  0  0
 39 44  1  0  0  0  0
 40 41  2  0  0  0  0
 40 48  1  0  0  0  0
 42 45  1  0  0  0  0
 42 46  1  0  0  0  0
 42 47  1  0  0  0  0
 48 49  1  0  0  0  0
 48 50  1  0  0  0  0
 49 51  1  0  0  0  0
 49 52  1  0  0  0  0
 49 53  1  0  0  0  0
M  END
$$$$

  -OEChem-02062319103D

 53 52  0     1  0  0  0  0  0999 V2000
   -0.8134   -4.8759   -1.6299 C   0  0  0  0  0  0  0  0  0  0  0  0
   -1.9746   -5.0299   -1.2765 O   0  0  0  0  0  0  0  0  0  0  0  0
   -0.2492   -5.7362   -2.7445 C   0  0  0  0  0  0  0  0  0  0  0  0
    0.6423   -6.2628   -2.3950 H   0  0  0  0  0  0  0  0  0  0  0  0
   -0.9900   -6.4741   -3.0651 H   0  0  0  0  0  0  0  0  0  0  0  0
    0.0177   -5.1099   -3.5995 H   0  0  0  0  0  0  0  0  0  0  0  0
   -0.0201   -3.9034   -1.0566 N   0  0  0  0  0  0  0  0  0  0  0  0
   -0.5192   -2.8479   -0.1633 C   0  0  2  0  0  0  0  0  0  0  0  0
   -0.1153   -1.4413   -0.6757 C   0  0  0  0  0  0  0  0  0  0  0  0
    0.8196   -1.3179   -1.4538 O   0  0  0  0  0  0  0  0  0  0  0  0
    0.0511   -3.1045    1.2327 C   0  0  0  0  0  0  0  0  0  0  0  0
    0.8641   -3.7111   -1.5257 H   0  0  0  0  0  0  0  0  0  0  0  0
   -1.6060   -2.9027   -0.1103 H   0  0  0  0  0  0  0  0  0  0  0  0
    1.1437   -3.0387    1.2206 H   0  0  0  0  0  0  0  0  0  0  0  0
   -0.3359   -2.3724    1.9471 H   0  0  0  0  0  0  0  0  0  0  0  0
   -0.2354   -4.1029    1.5782 H   0  0  0  0  0  0  0  0  0  0  0  0
   -0.7616   -0.2483   -0.4186 N   0  0  0  0  0  0  0  0  0  0  0  0
   -1.7748    0.0079    0.6207 C   0  0  2  0  0  0  0  0  0  0  0  0
   -3.0294   -0.8712    0.4673 C   0  0  0  0  0  0  0  0  0  0  0  0
   -3.3797   -1.5774    1.4011 O   0  0  0  0  0  0  0  0  0  0  0  0
   -2.1779    1.4908    0.5703 C   0  0  0  0  0  0  0  0  0  0  0  0
   -1.0199    2.4131    0.9798 C   0  0  0  0  0  0  0  0  0  0  0  0
   -1.4617    3.8796    0.9337 C   0  0  0  0  0  0  0  0  0  0  0  0
   -0.3206    4.8019    1.3547 C   0  0  0  0  0  0  0  0  0  0  0  0
   -0.7824    6.1898    1.2717 N   0  0  0  0  0  0  0  0  0  0  0  0
   -0.3193    0.5489   -0.8694 H   0  0  0  0  0  0  0  0  0  0  0  0
   -1.3467   -0.2034    1.6067 H   0  0  0  0  0  0  0  0  0  0  0  0
   -3.0177    1.6549    1.2548 H   0  0  0  0  0  0  0  0  0  0  0  0
   -2.5180    1.7477   -0.4390 H   0  0  0  0  0  0  0  0  0  0  0  0
   -0.1689    2.2719    0.3059 H   0  0  0  0  0  0  0  0  0  0  0  0
   -0.6919    2.1610    1.9943 H   0  0  0  0  0  0  0  0  0  0  0  0
   -1.7799    4.1342   -0.0826 H   0  0  0  0  0  0  0  0  0  0  0  0
   -2.3152    4.0283    1.6033 H   0  0  0  0  0  0  0  0  0  0  0  0
    0.5447    4.6571    0.6981 H   0  0  0  0  0  0  0  0  0  0  0  0
   -0.0089    4.5727    2.3799 H   0  0  0  0  0  0  0  0  0  0  0  0
   -1.0381    6.4348    0.3150 H   0  0  0  0  0  0  0  0  0  0  0  0
   -1.5623    6.3559    1.9080 H   0  0  0  0  0  0  0  0  0  0  0  0
   -3.6021   -1.0358   -0.7782 N   0  0  0  0  0  0  0  0  0  0  0  0
   -4.3445   -2.2381   -1.1758 C   0  0  2  0  0  0  0  0  0  0  0  0
   -4.0640   -2.5770   -2.6544 C   0  0  0  0  0  0  0  0  0  0  0  0
   -3.9019   -1.6686   -3.4635 O   0  0  0  0  0  0  0  0  0  0  0  0
   -5.8382   -1.9962   -0.9506 C   0  0  0  0  0  0  0  0  0  0  0  0
   -3.1880   -0.4995   -1.5409 H   0  0  0  0  0  0  0  0  0  0  0  0
   -4.0264   -3.0954   -0.5721 H   0  0  0  0  0  0  0  0  0  0  0  0
   -6.1843   -1.1473   -1.5489 H   0  0  0  0  0  0  0  0  0  0  0  0
   -6.4137   -2.8822   -1.2357 H   0  0  0  0  0  0  0  0  0  0  0  0
   -6.0313   -1.7818    0.1053 H   0  0  0  0  0  0  0  0  0  0  0  0
   -3.9375   -3.8885   -3.0680 N   0  0  0  0  0  0  0  0  0  0  0  0
   -3.5389   -4.2429   -4.4238 C   0  0  0  0  0  0  0  0  0  0  0  0
   -3.7349   -4.5610   -2.3245 H   0  0  0  0  0  0  0  0  0  0  0  0
   -4.2405   -3.8230   -5.1523 H   0  0  0  0  0  0  0  0  0  0  0  0
   -2.5355   -3.8621   -4.6400 H   0  0  0  0  0  0  0  0  0  0  0  0
   -3.5319   -5.3307   -4.5413 H   0  0  0  0  0  0  0  0  0  0  0  0
  1  2  2  0  0  0  0
  1  3  1  0  0  0  0
  1  7  1  0  0  0  0
  3  4  1  0  0  0  0
  3  5  1  0  0  0  0
  3  6  1  0  0  0  0
  7  8  1  0  0  0  0
  7 12  1  0  0  0  0
  8  9  1  0  0  0  0
  8 11  1  0  0  0  0
  8 13  1  0  0  0  0
  9 10  2  0  0  0  0
  9 17  1  0  0  0  0
 11 14  1  0  0  0  0
 11 15  1  0  0  0  0
 11 16  1  0  0  0  0
 17 18  1  0  0  0  0
 17 26  1  0  0  0  0
 18 19  1  0  0  0  0
 18 21  1  0  0  0  0
 18 27  1  0  0  0  0
 19 20  2  0  0  0  0
 19 38  1  0  0  0  0
 21 22  1  0  0  0  0
 21 28  1  0  0  0  0
 21 29  1  0  0  0  0
 22 23  1  0  0  0  0
 22 30  1  0  0  0  0
 22 31  1  0  0  0  0
 23 24  1  0  0  0  0
 23 32  1  0  0  0  0
 23 33  1  0  0  0  0
 24 25  1  0  0  0  0
 24 34  1  0  0  0  0
 24 35  1  0  0  0  0
 25 36  1  0  0  0  0
 25 37  1  0  0  0  0
 38 39  1  0  0  0  0
 38 43  1  0  0  0  0
 39 40  1  0  0  0  0
 39 42  1  0  0  0  0
 39 44  1  0  0  0  0
 40 41  2  0  0  0  0
 40 48  1  0  0  0  0
 42 45  1  0  0  0  0
 42 46  1  0  0  0  0
 42 47  1  0  0  0  0
 48 49  1  0  0  0  0
 48 50  1  0  0  0  0
 49 51  1  0  0  0  0
 49 52  1  0  0  0  0
 49 53  1  0  0  0  0
M  END
$$$$

  -OEChem-02062319103D

 53 52  0     1  0  0  0  0  0999 V2000
   -0.7398   -5.0009   -1.3691 C   0  0  0  0  0  0  0  0  0  0  0  0
   -1.7606   -5.2430   -0.7387 O   0  0  0  0  0  0  0  0  0  0  0  0
   -0.3086   -5.9245   -2.4924 C   0  0  0  0  0  0  0  0  0  0  0  0
    0.6963   -6.3066   -2.2959 H   0  0  0  0  0  0  0  0  0  0  0  0
   -0.9974   -6.7703   -2.5719 H   0  0  0  0  0  0  0  0  0  0  0  0
   -0.3053   -5.3814   -3.4410 H   0  0  0  0  0  0  0  0  0  0  0  0
    0.0069   -3.8756   -1.0881 N   0  0  0  0  0  0  0  0  0  0  0  0
   -0.4131   -2.8155   -0.1628 C   0  0  2  0  0  0  0  0  0  0  0  0
   -0.0244   -1.4081   -0.6825 C   0  0  0  0  0  0  0  0  0  0  0  0
    0.8321   -1.2962   -1.5477 O   0  0  0  0  0  0  0  0  0  0  0  0
    0.2332   -3.0861    1.1983 C   0  0  0  0  0  0  0  0  0  0  0  0
    0.7652   -3.6467   -1.7301 H   0  0  0  0  0  0  0  0  0  0  0  0
   -1.4944   -2.8570   -0.0554 H   0  0  0  0  0  0  0  0  0  0  0  0
    1.3245   -3.0682    1.1159 H   0  0  0  0  0  0  0  0  0  0  0  0
   -0.0739   -2.3320    1.9291 H   0  0  0  0  0  0  0  0  0  0  0  0
   -0.0738   -4.0681    1.5721 H   0  0  0  0  0  0  0  0  0  0  0  0
   -0.6895   -0.2207   -0.4431 N   0  0  0  0  0  0  0  0  0  0  0  0
   -1.4781    0.1091    0.7595 C   0  0  2  0  0  0  0  0  0  0  0  0
   -2.6704   -0.8373    0.9988 C   0  0  0  0  0  0  0  0  0  0  0  0
   -2.7608   -1.4372    2.0589 O   0  0  0  0  0  0  0  0  0  0  0  0
   -1.9884    1.5546    0.6421 C   0  0  0  0  0  0  0  0  0  0  0  0
   -0.8398    2.5734    0.6812 C   0  0  0  0  0  0  0  0  0  0  0  0
   -1.3898    4.0027    0.6306 C   0  0  0  0  0  0  0  0  0  0  0  0
   -0.2528    5.0200    0.6723 C   0  0  0  0  0  0  0  0  0  0  0  0
   -0.8262    6.3675    0.6314 N   0  0  0  0  0  0  0  0  0  0  0  0
   -0.2829    0.5531   -0.9630 H   0  0  0  0  0  0  0  0  0  0  0  0
   -0.8320    0.0391    1.6416 H   0  0  0  0  0  0  0  0  0  0  0  0
   -2.6688    1.7595    1.4765 H   0  0  0  0  0  0  0  0  0  0  0  0
   -2.5576    1.6726   -0.2864 H   0  0  0  0  0  0  0  0  0  0  0  0
   -0.1664    2.4159   -0.1673 H   0  0  0  0  0  0  0  0  0  0  0  0
   -0.2613    2.4372    1.6012 H   0  0  0  0  0  0  0  0  0  0  0  0
   -1.9689    4.1413   -0.2885 H   0  0  0  0  0  0  0  0  0  0  0  0
   -2.0590    4.1699    1.4811 H   0  0  0  0  0  0  0  0  0  0  0  0
    0.4167    4.8730   -0.1827 H   0  0  0  0  0  0  0  0  0  0  0  0
    0.3356    4.8925    1.5882 H   0  0  0  0  0  0  0  0  0  0  0  0
   -1.3480    6.5182   -0.2321 H   0  0  0  0  0  0  0  0  0  0  0  0
   -1.4166    6.5401    1.4453 H   0  0  0  0  0  0  0  0  0  0  0  0
   -3.4873   -1.1823   -0.0602 N   0  0  0  0  0  0  0  0  0  0  0  0
   -4.2665   -2.4242   -0.1342 C   0  0  2  0  0  0  0  0  0  0  0  0
   -4.3308   -2.9231   -1.5929 C   0  0  0  0  0  0  0  0  0  0  0  0
   -4.4150   -2.1067   -2.5050 O   0  0  0  0  0  0  0  0  0  0  0  0
   -5.6734   -2.1630    0.4078 C   0  0  0  0  0  0  0  0  0  0  0  0
   -3.2957   -0.7234   -0.9510 H   0  0  0  0  0  0  0  0  0  0  0  0
   -3.7906   -3.2057    0.4681 H   0  0  0  0  0  0  0  0  0  0  0  0
   -6.1708   -1.3842   -0.1792 H   0  0  0  0  0  0  0  0  0  0  0  0
   -6.2757   -3.0756    0.3584 H   0  0  0  0  0  0  0  0  0  0  0  0
   -5.6235   -1.8364    1.4514 H   0  0  0  0  0  0  0  0  0  0  0  0
   -4.2416   -4.2687   -1.8910 N   0  0  0  0  0  0  0  0  0  0  0  0
   -4.1788   -4.7608   -3.2608 C   0  0  0  0  0  0  0  0  0  0  0  0
   -3.8237   -4.8532   -1.1636 H   0  0  0  0  0  0  0  0  0  0  0  0
   -5.0550   -4.4295   -3.8279 H   0  0  0  0  0  0  0  0  0  0  0  0
   -3.2757   -4.3941   -3.7594 H   0  0  0  0  0  0  0  0  0  0  0  0
   -4.1600   -5.8549   -3.2661 H   0  0  0  0  0  0  0  0  0  0  0  0
  1  2  2  0  0  0  0
  1  3  1  0  0  0  0
  1  7  1  0  0  0  0
  3  4  1  0  0  0  0
  3  5  1  0  0  0  0
  3  6  1  0  0  0  0
  7  8  1  0  0  0  0
  7 12  1  0  0  0  0
  8  9  1  0  0  0  0
  8 11  1  0  0  0  0
  8 13  1  0  0  0  0
  9 10  2  0  0  0  0
  9 17  1  0  0  0  0
 11 14  1  0  0  0  0
 11 15  1  0  0  0  0
 11 16  1  0  0  0  0
 17 18  1  0  0  0  0
 17 26  1  0  0  0  0
 18 19  1  0  0  0  0
 18 21  1  0  0  0  0
 18 27  1  0  0  0  0
 19 20  2  0  0  0  0
 19 38  1  0  0  0  0
 21 22  1  0  0  0  0
 21 28  1  0  0  0  0
 21 29  1  0  0  0  0
 22 23  1  0  0  0  0
 22 30  1  0  0  0  0
 22 31  1  0  0  0  0
 23 24  1  0  0  0  0
 23 32  1  0  0  0  0
 23 33  1  0  0  0  0
 24 25  1  0  0  0  0
 24 34  1  0  0  0  0
 24 35  1  0  0  0  0
 25 36  1  0  0  0  0
 25 37  1  0  0  0  0
 38 39  1  0  0  0  0
 38 43  1  0  0  0  0
 39 40  1  0  0  0  0
 39 42  1  0  0  0  0
 39 44  1  0  0  0  0
 40 41  2  0  0  0  0
 40 48  1  0  0  0  0
 42 45  1  0  0  0  0
 42 46  1  0  0  0  0
 42 47  1  0  0  0  0
 48 49  1  0  0  0  0
 48 50  1  0  0  0  0
 49 51  1  0  0  0  0
 49 52  1  0  0  0  0
 49 53  1  0  0  0  0
M  END
$$$$

  -OEChem-02062319103D

 53 52  0     1  0  0  0  0  0999 V2000
   -0.6630   -5.0428   -1.1746 C   0  0  0  0  0  0  0  0  0  0  0  0
   -1.5192   -5.3152   -0.3433 O   0  0  0  0  0  0  0  0  0  0  0  0
   -0.3961   -5.9952   -2.3249 C   0  0  0  0  0  0  0  0  0  0  0  0
    0.6724   -6.2144   -2.3896 H   0  0  0  0  0  0  0  0  0  0  0  0
   -0.9381   -6.9329   -2.1729 H   0  0  0  0  0  0  0  0  0  0  0  0
   -0.7260   -5.5452   -3.2643 H   0  0  0  0  0  0  0  0  0  0  0  0
    0.0338   -3.8550   -1.0908 N   0  0  0  0  0  0  0  0  0  0  0  0
   -0.2478   -2.8016   -0.1080 C   0  0  2  0  0  0  0  0  0  0  0  0
    0.1201   -1.3900   -0.6283 C   0  0  0  0  0  0  0  0  0  0  0  0
    0.9149   -1.2842   -1.5512 O   0  0  0  0  0  0  0  0  0  0  0  0
    0.5412   -3.1099    1.1682 C   0  0  0  0  0  0  0  0  0  0  0  0
    0.6722   -3.6220   -1.8506 H   0  0  0  0  0  0  0  0  0  0  0  0
   -1.3108   -2.8228    0.1128 H   0  0  0  0  0  0  0  0  0  0  0  0
    1.6152   -3.1349    0.9580 H   0  0  0  0  0  0  0  0  0  0  0  0
    0.3554   -2.3493    1.9319 H   0  0  0  0  0  0  0  0  0  0  0  0
    0.2419   -4.0812    1.5741 H   0  0  0  0  0  0  0  0  0  0  0  0
   -0.5800   -0.2157   -0.4241 N   0  0  0  0  0  0  0  0  0  0  0  0
   -1.1471    0.2162    0.8692 C   0  0  2  0  0  0  0  0  0  0  0  0
   -2.1933   -0.7480    1.4641 C   0  0  0  0  0  0  0  0  0  0  0  0
   -2.0279   -1.2130    2.5814 O   0  0  0  0  0  0  0  0  0  0  0  0
   -1.7906    1.6011    0.6849 C   0  0  0  0  0  0  0  0  0  0  0  0
   -0.7470    2.6888    0.3869 C   0  0  0  0  0  0  0  0  0  0  0  0
   -1.4257    4.0559    0.2493 C   0  0  0  0  0  0  0  0  0  0  0  0
   -0.3961    5.1470   -0.0318 C   0  0  0  0  0  0  0  0  0  0  0  0
   -1.0952    6.4283   -0.1565 N   0  0  0  0  0  0  0  0  0  0  0  0
   -0.2250    0.5226   -1.0272 H   0  0  0  0  0  0  0  0  0  0  0  0
   -0.3379    0.2995    1.6037 H   0  0  0  0  0  0  0  0  0  0  0  0
   -2.3266    1.8697    1.6024 H   0  0  0  0  0  0  0  0  0  0  0  0
   -2.5250    1.5607   -0.1272 H   0  0  0  0  0  0  0  0  0  0  0  0
   -0.2128    2.4562   -0.5400 H   0  0  0  0  0  0  0  0  0  0  0  0
   -0.0134    2.7246    1.1995 H   0  0  0  0  0  0  0  0  0  0  0  0
   -2.1536    4.0237   -0.5682 H   0  0  0  0  0  0  0  0  0  0  0  0
   -1.9638    4.2938    1.1728 H   0  0  0  0  0  0  0  0  0  0  0  0
    0.1473    4.9258   -0.9574 H   0  0  0  0  0  0  0  0  0  0  0  0
    0.3337    5.1982    0.7839 H   0  0  0  0  0  0  0  0  0  0  0  0
   -1.7454    6.4161   -0.9423 H   0  0  0  0  0  0  0  0  0  0  0  0
   -1.5797    6.6672    0.7089 H   0  0  0  0  0  0  0  0  0  0  0  0
   -3.1758   -1.2651    0.6419 N   0  0  0  0  0  0  0  0  0  0  0  0
   -3.9361   -2.4940    0.8987 C   0  0  2  0  0  0  0  0  0  0  0  0
   -4.4043   -3.1101   -0.4368 C   0  0  0  0  0  0  0  0  0  0  0  0
   -4.8310   -2.3746   -1.3214 O   0  0  0  0  0  0  0  0  0  0  0  0
   -5.1357   -2.1670    1.7920 C   0  0  0  0  0  0  0  0  0  0  0  0
   -3.2308   -0.8870   -0.3040 H   0  0  0  0  0  0  0  0  0  0  0  0
   -3.3009   -3.2273    1.4077 H   0  0  0  0  0  0  0  0  0  0  0  0
   -5.7837   -1.4286    1.3085 H   0  0  0  0  0  0  0  0  0  0  0  0
   -5.7218   -3.0700    1.9885 H   0  0  0  0  0  0  0  0  0  0  0  0
   -4.7969   -1.7601    2.7500 H   0  0  0  0  0  0  0  0  0  0  0  0
   -4.2817   -4.4643   -0.6803 N   0  0  0  0  0  0  0  0  0  0  0  0
   -4.5785   -5.0511   -1.9808 C   0  0  0  0  0  0  0  0  0  0  0  0
   -3.6106   -4.9603   -0.0894 H   0  0  0  0  0  0  0  0  0  0  0  0
   -5.6084   -4.8273   -2.2784 H   0  0  0  0  0  0  0  0  0  0  0  0
   -3.8970   -4.6584   -2.7426 H   0  0  0  0  0  0  0  0  0  0  0  0
   -4.4624   -6.1384   -1.9371 H   0  0  0  0  0  0  0  0  0  0  0  0
  1  2  2  0  0  0  0
  1  3  1  0  0  0  0
  1  7  1  0  0  0  0
  3  4  1  0  0  0  0
  3  5  1  0  0  0  0
  3  6  1  0  0  0  0
  7  8  1  0  0  0  0
  7 12  1  0  0  0  0
  8  9  1  0  0  0  0
  8 11  1  0  0  0  0
  8 13  1  0  0  0  0
  9 10  2  0  0  0  0
  9 17  1  0  0  0  0
 11 14  1  0  0  0  0
 11 15  1  0  0  0  0
 11 16  1  0  0  0  0
 17 18  1  0  0  0  0
 17 26  1  0  0  0  0
 18 19  1  0  0  0  0
 18 21  1  0  0  0  0
 18 27  1  0  0  0  0
 19 20  2  0  0  0  0
 19 38  1  0  0  0  0
 21 22  1  0  0  0  0
 21 28  1  0  0  0  0
 21 29  1  0  0  0  0
 22 23  1  0  0  0  0
 22 30  1  0  0  0  0
 22 31  1  0  0  0  0
 23 24  1  0  0  0  0
 23 32  1  0  0  0  0
 23 33  1  0  0  0  0
 24 25  1  0  0  0  0
 24 34  1  0  0  0  0
 24 35  1  0  0  0  0
 25 36  1  0  0  0  0
 25 37  1  0  0  0  0
 38 39  1  0  0  0  0
 38 43  1  0  0  0  0
 39 40  1  0  0  0  0
 39 42  1  0  0  0  0
 39 44  1  0  0  0  0
 40 41  2  0  0  0  0
 40 48  1  0  0  0  0
 42 45  1  0  0  0  0
 42 46  1  0  0  0  0
 42 47  1  0  0  0  0
 48 49  1  0  0  0  0
 48 50  1  0  0  0  0
 49 51  1  0  0  0  0
 49 52  1  0  0  0  0
 49 53  1  0  0  0  0
M  END
$$$$

  -OEChem-02062319103D

 53 52  0     1  0  0  0  0  0999 V2000
   -0.5545   -4.9845   -1.2360 C   0  0  0  0  0  0  0  0  0  0  0  0
   -1.2819   -5.3210   -0.3125 O   0  0  0  0  0  0  0  0  0  0  0  0
   -0.3390   -5.9167   -2.4131 C   0  0  0  0  0  0  0  0  0  0  0  0
    0.7217   -6.1649   -2.5012 H   0  0  0  0  0  0  0  0  0  0  0  0
   -0.9070   -6.8408   -2.2732 H   0  0  0  0  0  0  0  0  0  0  0  0
   -0.6713   -5.4352   -3.3363 H   0  0  0  0  0  0  0  0  0  0  0  0
    0.0821   -3.7613   -1.2099 N   0  0  0  0  0  0  0  0  0  0  0  0
   -0.1367   -2.7361   -0.1832 C   0  0  2  0  0  0  0  0  0  0  0  0
    0.2152   -1.3170   -0.6913 C   0  0  0  0  0  0  0  0  0  0  0  0
    0.9578   -1.2005   -1.6560 O   0  0  0  0  0  0  0  0  0  0  0  0
    0.7273   -3.0873    1.0346 C   0  0  0  0  0  0  0  0  0  0  0  0
    0.6273   -3.4895   -2.0271 H   0  0  0  0  0  0  0  0  0  0  0  0
   -1.1893   -2.7520    0.0909 H   0  0  0  0  0  0  0  0  0  0  0  0
    1.7811   -3.1553    0.7469 H   0  0  0  0  0  0  0  0  0  0  0  0
    0.6339   -2.3276    1.8143 H   0  0  0  0  0  0  0  0  0  0  0  0
    0.4192   -4.0487    1.4567 H   0  0  0  0  0  0  0  0  0  0  0  0
   -0.5147   -0.1622   -0.4895 N   0  0  0  0  0  0  0  0  0  0  0  0
   -0.8259    0.3826    0.8472 C   0  0  2  0  0  0  0  0  0  0  0  0
   -1.6470   -0.5501    1.7612 C   0  0  0  0  0  0  0  0  0  0  0  0
   -1.2457   -0.8165    2.8841 O   0  0  0  0  0  0  0  0  0  0  0  0
   -1.5861    1.7088    0.6725 C   0  0  0  0  0  0  0  0  0  0  0  0
   -0.7135    2.7962    0.0269 C   0  0  0  0  0  0  0  0  0  0  0  0
   -1.4823    4.1196   -0.0552 C   0  0  0  0  0  0  0  0  0  0  0  0
   -0.6249    5.2054   -0.7002 C   0  0  0  0  0  0  0  0  0  0  0  0
   -1.3956    6.4505   -0.7435 N   0  0  0  0  0  0  0  0  0  0  0  0
   -0.2426    0.5320   -1.1814 H   0  0  0  0  0  0  0  0  0  0  0  0
    0.1150    0.5856    1.3715 H   0  0  0  0  0  0  0  0  0  0  0  0
   -1.9156    2.0610    1.6564 H   0  0  0  0  0  0  0  0  0  0  0  0
   -2.4812    1.5434    0.0627 H   0  0  0  0  0  0  0  0  0  0  0  0
   -0.4134    2.4899   -0.9804 H   0  0  0  0  0  0  0  0  0  0  0  0
    0.1955    2.9384    0.6216 H   0  0  0  0  0  0  0  0  0  0  0  0
   -2.3945    3.9786   -0.6443 H   0  0  0  0  0  0  0  0  0  0  0  0
   -1.7746    4.4367    0.9514 H   0  0  0  0  0  0  0  0  0  0  0  0
   -0.3397    4.9078   -1.7153 H   0  0  0  0  0  0  0  0  0  0  0  0
    0.2936    5.3550   -0.1216 H   0  0  0  0  0  0  0  0  0  0  0  0
   -2.2342    6.3437   -1.3144 H   0  0  0  0  0  0  0  0  0  0  0  0
   -1.6358    6.7663    0.1963 H   0  0  0  0  0  0  0  0  0  0  0  0
   -2.7450   -1.2116    1.2487 N   0  0  0  0  0  0  0  0  0  0  0  0
   -3.3498   -2.4195    1.8246 C   0  0  2  0  0  0  0  0  0  0  0  0
   -4.0090   -3.2696    0.7153 C   0  0  0  0  0  0  0  0  0  0  0  0
   -4.2647   -2.7531   -0.3692 O   0  0  0  0  0  0  0  0  0  0  0  0
   -4.3853   -2.0107    2.8756 C   0  0  0  0  0  0  0  0  0  0  0  0
   -2.9752   -1.0231    0.2716 H   0  0  0  0  0  0  0  0  0  0  0  0
   -2.5741   -3.0311    2.2980 H   0  0  0  0  0  0  0  0  0  0  0  0
   -5.1699   -1.3970    2.4217 H   0  0  0  0  0  0  0  0  0  0  0  0
   -4.8490   -2.8964    3.3201 H   0  0  0  0  0  0  0  0  0  0  0  0
   -3.9090   -1.4338    3.6744 H   0  0  0  0  0  0  0  0  0  0  0  0
   -4.2937   -4.6062    0.9207 N   0  0  0  0  0  0  0  0  0  0  0  0
   -4.7557   -5.4791   -0.1517 C   0  0  0  0  0  0  0  0  0  0  0  0
   -3.8733   -5.0389    1.7380 H   0  0  0  0  0  0  0  0  0  0  0  0
   -5.7127   -5.1256   -0.5492 H   0  0  0  0  0  0  0  0  0  0  0  0
   -4.0246   -5.5069   -0.9663 H   0  0  0  0  0  0  0  0  0  0  0  0
   -4.8939   -6.4976    0.2233 H   0  0  0  0  0  0  0  0  0  0  0  0
  1  2  2  0  0  0  0
  1  3  1  0  0  0  0
  1  7  1  0  0  0  0
  3  4  1  0  0  0  0
  3  5  1  0  0  0  0
  3  6  1  0  0  0  0
  7  8  1  0  0  0  0
  7 12  1  0  0  0  0
  8  9  1  0  0  0  0
  8 11  1  0  0  0  0
  8 13  1  0  0  0  0
  9 10  2  0  0  0  0
  9 17  1  0  0  0  0
 11 14  1  0  0  0  0
 11 15  1  0  0  0  0
 11 16  1  0  0  0  0
 17 18  1  0  0  0  0
 17 26  1  0  0  0  0
 18 19  1  0  0  0  0
 18 21  1  0  0  0  0
 18 27  1  0  0  0  0
 19 20  2  0  0  0  0
 19 38  1  0  0  0  0
 21 22  1  0  0  0  0
 21 28  1  0  0  0  0
 21 29  1  0  0  0  0
 22 23  1  0  0  0  0
 22 30  1  0  0  0  0
 22 31  1  0  0  0  0
 23 24  1  0  0  0  0
 23 32  1  0  0  0  0
 23 33  1  0  0  0  0
 24 25  1  0  0  0  0
 24 34  1  0  0  0  0
 24 35  1  0  0  0  0
 25 36  1  0  0  0  0
 25 37  1  0  0  0  0
 38 39  1  0  0  0  0
 38 43  1  0  0  0  0
 39 40  1  0  0  0  0
 39 42  1  0  0  0  0
 39 44  1  0  0  0  0
 40 41  2  0  0  0  0
 40 48  1  0  0  0  0
 42 45  1  0  0  0  0
 42 46  1  0  0  0  0
 42 47  1  0  0  0  0
 48 49  1  0  0  0  0
 48 50  1  0  0  0  0
 49 51  1  0  0  0  0
 49 52  1  0  0  0  0
 49 53  1  0  0  0  0
M  END
$$$$

  -OEChem-02062319103D

 53 52  0     1  0  0  0  0  0999 V2000
   -0.5760   -4.9570   -1.2237 C   0  0  0  0  0  0  0  0  0  0  0  0
   -1.1827   -5.3171   -0.2260 O   0  0  0  0  0  0  0  0  0  0  0  0
   -0.4747   -5.8772   -2.4256 C   0  0  0  0  0  0  0  0  0  0  0  0
    0.5734   -6.1072   -2.6326 H   0  0  0  0  0  0  0  0  0  0  0  0
   -1.0086   -6.8118   -2.2322 H   0  0  0  0  0  0  0  0  0  0  0  0
   -0.9151   -5.3954   -3.3020 H   0  0  0  0  0  0  0  0  0  0  0  0
    0.0286   -3.7181   -1.2619 N   0  0  0  0  0  0  0  0  0  0  0  0
   -0.0753   -2.7042   -0.2055 C   0  0  2  0  0  0  0  0  0  0  0  0
    0.2614   -1.2886   -0.7340 C   0  0  0  0  0  0  0  0  0  0  0  0
    0.9420   -1.1839   -1.7448 O   0  0  0  0  0  0  0  0  0  0  0  0
    0.8929   -3.0887    0.9216 C   0  0  0  0  0  0  0  0  0  0  0  0
    0.4967   -3.4417   -2.1239 H   0  0  0  0  0  0  0  0  0  0  0  0
   -1.1006   -2.6983    0.1661 H   0  0  0  0  0  0  0  0  0  0  0  0
    1.9149   -3.1601    0.5364 H   0  0  0  0  0  0  0  0  0  0  0  0
    0.8808   -2.3460    1.7221 H   0  0  0  0  0  0  0  0  0  0  0  0
    0.6153   -4.0558    1.3516 H   0  0  0  0  0  0  0  0  0  0  0  0
   -0.4986   -0.1533   -0.5435 N   0  0  0  0  0  0  0  0  0  0  0  0
   -0.5361    0.5420    0.7574 C   0  0  2  0  0  0  0  0  0  0  0  0
   -1.0586   -0.3081    1.9329 C   0  0  0  0  0  0  0  0  0  0  0  0
   -0.3980   -0.4128    2.9555 O   0  0  0  0  0  0  0  0  0  0  0  0
   -1.4025    1.8056    0.6176 C   0  0  0  0  0  0  0  0  0  0  0  0
   -0.7694    2.8364   -0.3301 C   0  0  0  0  0  0  0  0  0  0  0  0
   -1.6244    4.1069   -0.3887 C   0  0  0  0  0  0  0  0  0  0  0  0
   -0.9975    5.1402   -1.3215 C   0  0  0  0  0  0  0  0  0  0  0  0
   -1.8500    6.3315   -1.3455 N   0  0  0  0  0  0  0  0  0  0  0  0
   -0.3485    0.4690   -1.3340 H   0  0  0  0  0  0  0  0  0  0  0  0
    0.4832    0.8461    1.0222 H   0  0  0  0  0  0  0  0  0  0  0  0
   -1.5225    2.2646    1.6053 H   0  0  0  0  0  0  0  0  0  0  0  0
   -2.3996    1.5321    0.2555 H   0  0  0  0  0  0  0  0  0  0  0  0
   -0.6778    2.4162   -1.3368 H   0  0  0  0  0  0  0  0  0  0  0  0
    0.2362    3.0901    0.0230 H   0  0  0  0  0  0  0  0  0  0  0  0
   -2.6292    3.8569   -0.7447 H   0  0  0  0  0  0  0  0  0  0  0  0
   -1.7167    4.5338    0.6155 H   0  0  0  0  0  0  0  0  0  0  0  0
   -0.9018    4.7292   -2.3328 H   0  0  0  0  0  0  0  0  0  0  0  0
    0.0055    5.4064   -0.9694 H   0  0  0  0  0  0  0  0  0  0  0  0
   -2.7722    6.1156   -1.7243 H   0  0  0  0  0  0  0  0  0  0  0  0
   -1.9285    6.7449   -0.4163 H   0  0  0  0  0  0  0  0  0  0  0  0
   -2.1915   -1.0777    1.7653 N   0  0  0  0  0  0  0  0  0  0  0  0
   -2.5908   -2.2036    2.6173 C   0  0  2  0  0  0  0  0  0  0  0  0
   -3.4658   -3.1941    1.8178 C   0  0  0  0  0  0  0  0  0  0  0  0
   -4.0011   -2.8224    0.7771 O   0  0  0  0  0  0  0  0  0  0  0  0
   -3.3584   -1.6712    3.8307 C   0  0  0  0  0  0  0  0  0  0  0  0
   -2.6585   -1.0169    0.8590 H   0  0  0  0  0  0  0  0  0  0  0  0
   -1.6997   -2.7413    2.9580 H   0  0  0  0  0  0  0  0  0  0  0  0
   -4.2539   -1.1298    3.5089 H   0  0  0  0  0  0  0  0  0  0  0  0
   -3.6648   -2.4952    4.4824 H   0  0  0  0  0  0  0  0  0  0  0  0
   -2.7281   -0.9903    4.4111 H   0  0  0  0  0  0  0  0  0  0  0  0
   -3.6362   -4.4944    2.2527 N   0  0  0  0  0  0  0  0  0  0  0  0
   -4.3175   -5.5067    1.4551 C   0  0  0  0  0  0  0  0  0  0  0  0
   -3.0512   -4.8030    3.0232 H   0  0  0  0  0  0  0  0  0  0  0  0
   -5.3491   -5.2028    1.2494 H   0  0  0  0  0  0  0  0  0  0  0  0
   -3.7990   -5.6592    0.5031 H   0  0  0  0  0  0  0  0  0  0  0  0
   -4.3399   -6.4589    1.9934 H   0  0  0  0  0  0  0  0  0  0  0  0
  1  2  2  0  0  0  0
  1  3  1  0  0  0  0
  1  7  1  0  0  0  0
  3  4  1  0  0  0  0
  3  5  1  0  0  0  0
  3  6  1  0  0  0  0
  7  8  1  0  0  0  0
  7 12  1  0  0  0  0
  8  9  1  0  0  0  0
  8 11  1  0  0  0  0
  8 13  1  0  0  0  0
  9 10  2  0  0  0  0
  9 17  1  0  0  0  0
 11 14  1  0  0  0  0
 11 15  1  0  0  0  0
 11 16  1  0  0  0  0
 17 18  1  0  0  0  0
 17 26  1  0  0  0  0
 18 19  1  0  0  0  0
 18 21  1  0  0  0  0
 18 27  1  0  0  0  0
 19 20  2  0  0  0  0
 19 38  1  0  0  0  0
 21 22  1  0  0  0  0
 21 28  1  0  0  0  0
 21 29  1  0  0  0  0
 22 23  1  0  0  0  0
 22 30  1  0  0  0  0
 22 31  1  0  0  0  0
 23 24  1  0  0  0  0
 23 32  1  0  0  0  0
 23 33  1  0  0  0  0
 24 25  1  0  0  0  0
 24 34  1  0  0  0  0
 24 35  1  0  0  0  0
 25 36  1  0  0  0  0
 25 37  1  0  0  0  0
 38 39  1  0  0  0  0
 38 43  1  0  0  0  0
 39 40  1  0  0  0  0
 39 42  1  0  0  0  0
 39 44  1  0  0  0  0
 40 41  2  0  0  0  0
 40 48  1  0  0  0  0
 42 45  1  0  0  0  0
 42 46  1  0  0  0  0
 42 47  1  0  0  0  0
 48 49  1  0  0  0  0
 48 50  1  0  0  0  0
 49 51  1  0  0  0  0
 49 52  1  0  0  0  0
 49 53  1  0  0  0  0
M  END
$$$$

  -OEChem-02062319103D

 53 52  0     1  0  0  0  0  0999 V2000
   -0.7528   -4.8974   -1.3608 C   0  0  0  0  0  0  0  0  0  0  0  0
   -1.4807   -5.1925   -0.4273 O   0  0  0  0  0  0  0  0  0  0  0  0
   -0.5400   -5.8794   -2.4973 C   0  0  0  0  0  0  0  0  0  0  0  0
    0.5196   -6.1343   -2.5778 H   0  0  0  0  0  0  0  0  0  0  0  0
   -1.1094   -6.7953   -2.3157 H   0  0  0  0  0  0  0  0  0  0  0  0
   -0.8749   -5.4382   -3.4392 H   0  0  0  0  0  0  0  0  0  0  0  0
   -0.1095   -3.6774   -1.3815 N   0  0  0  0  0  0  0  0  0  0  0  0
   -0.1701   -2.6845   -0.3010 C   0  0  2  0  0  0  0  0  0  0  0  0
    0.1808   -1.2824   -0.8510 C   0  0  0  0  0  0  0  0  0  0  0  0
    1.3121   -1.0841   -1.2686 O   0  0  0  0  0  0  0  0  0  0  0  0
    0.8140   -3.1341    0.7906 C   0  0  0  0  0  0  0  0  0  0  0  0
    0.5658   -3.5190   -2.1271 H   0  0  0  0  0  0  0  0  0  0  0  0
   -1.1825   -2.6476    0.1126 H   0  0  0  0  0  0  0  0  0  0  0  0
    1.8160   -3.2705    0.3711 H   0  0  0  0  0  0  0  0  0  0  0  0
    0.8817   -2.3943    1.5901 H   0  0  0  0  0  0  0  0  0  0  0  0
    0.4878   -4.0825    1.2282 H   0  0  0  0  0  0  0  0  0  0  0  0
   -0.5813   -0.1466   -0.6305 N   0  0  0  0  0  0  0  0  0  0  0  0
   -0.2915    0.6959    0.5489 C   0  0  2  0  0  0  0  0  0  0  0  0
   -0.4359   -0.0152    1.9094 C   0  0  0  0  0  0  0  0  0  0  0  0
    0.4545    0.0333    2.7440 O   0  0  0  0  0  0  0  0  0  0  0  0
   -1.1997    1.9367    0.5156 C   0  0  0  0  0  0  0  0  0  0  0  0
   -0.9018    2.8289   -0.6990 C   0  0  0  0  0  0  0  0  0  0  0  0
   -1.7768    4.0868   -0.6717 C   0  0  0  0  0  0  0  0  0  0  0  0
   -1.4784    4.9782   -1.8746 C   0  0  0  0  0  0  0  0  0  0  0  0
   -2.3399    6.1616   -1.8074 N   0  0  0  0  0  0  0  0  0  0  0  0
   -1.5724   -0.3427   -0.7350 H   0  0  0  0  0  0  0  0  0  0  0  0
    0.7513    1.0296    0.4834 H   0  0  0  0  0  0  0  0  0  0  0  0
   -1.0377    2.5194    1.4293 H   0  0  0  0  0  0  0  0  0  0  0  0
   -2.2505    1.6290    0.5000 H   0  0  0  0  0  0  0  0  0  0  0  0
   -1.0895    2.2762   -1.6255 H   0  0  0  0  0  0  0  0  0  0  0  0
    0.1549    3.1177   -0.6894 H   0  0  0  0  0  0  0  0  0  0  0  0
   -2.8334    3.8000   -0.6840 H   0  0  0  0  0  0  0  0  0  0  0  0
   -1.5878    4.6458    0.2508 H   0  0  0  0  0  0  0  0  0  0  0  0
   -1.6663    4.4320   -2.8058 H   0  0  0  0  0  0  0  0  0  0  0  0
   -0.4253    5.2812   -1.8679 H   0  0  0  0  0  0  0  0  0  0  0  0
   -3.3247    5.9009   -1.8552 H   0  0  0  0  0  0  0  0  0  0  0  0
   -2.1502    6.7047   -0.9650 H   0  0  0  0  0  0  0  0  0  0  0  0
   -1.5391   -0.8107    2.1439 N   0  0  0  0  0  0  0  0  0  0  0  0
   -1.6791   -1.7821    3.2323 C   0  0  2  0  0  0  0  0  0  0  0  0
   -2.6068   -2.9283    2.7782 C   0  0  0  0  0  0  0  0  0  0  0  0
   -3.3788   -2.7327    1.8434 O   0  0  0  0  0  0  0  0  0  0  0  0
   -2.2523   -1.0753    4.4628 C   0  0  0  0  0  0  0  0  0  0  0  0
   -2.2558   -0.8528    1.4212 H   0  0  0  0  0  0  0  0  0  0  0  0
   -0.7026   -2.2107    3.4810 H   0  0  0  0  0  0  0  0  0  0  0  0
   -3.2307   -0.6410    4.2338 H   0  0  0  0  0  0  0  0  0  0  0  0
   -2.3695   -1.7817    5.2901 H   0  0  0  0  0  0  0  0  0  0  0  0
   -1.5815   -0.2731    4.7860 H   0  0  0  0  0  0  0  0  0  0  0  0
   -2.5444   -4.1729    3.3750 N   0  0  0  0  0  0  0  0  0  0  0  0
   -3.2707   -5.3285    2.8612 C   0  0  0  0  0  0  0  0  0  0  0  0
   -1.8196   -4.3237    4.0703 H   0  0  0  0  0  0  0  0  0  0  0  0
   -4.3442   -5.1177    2.8131 H   0  0  0  0  0  0  0  0  0  0  0  0
   -2.9181   -5.5884    1.8577 H   0  0  0  0  0  0  0  0  0  0  0  0
   -3.1192   -6.1921    3.5157 H   0  0  0  0  0  0  0  0  0  0  0  0
  1  2  2  0  0  0  0
  1  3  1  0  0  0  0
  1  7  1  0  0  0  0
  3  4  1  0  0  0  0
  3  5  1  0  0  0  0
  3  6  1  0  0  0  0
  7  8  1  0  0  0  0
  7 12  1  0  0  0  0
  8  9  1  0  0  0  0
  8 11  1  0  0  0  0
  8 13  1  0  0  0  0
  9 10  2  0  0  0  0
  9 17  1  0  0  0  0
 11 14  1  0  0  0  0
 11 15  1  0  0  0  0
 11 16  1  0  0  0  0
 17 18  1  0  0  0  0
 17 26  1  0  0  0  0
 18 19  1  0  0  0  0
 18 21  1  0  0  0  0
 18 27  1  0  0  0  0
 19 20  2  0  0  0  0
 19 38  1  0  0  0  0
 21 22  1  0  0  0  0
 21 28  1  0  0  0  0
 21 29  1  0  0  0  0
 22 23  1  0  0  0  0
 22 30  1  0  0  0  0
 22 31  1  0  0  0  0
 23 24  1  0  0  0  0
 23 32  1  0  0  0  0
 23 33  1  0  0  0  0
 24 25  1  0  0  0  0
 24 34  1  0  0  0  0
 24 35  1  0  0  0  0
 25 36  1  0  0  0  0
 25 37  1  0  0  0  0
 38 39  1  0  0  0  0
 38 43  1  0  0  0  0
 39 40  1  0  0  0  0
 39 42  1  0  0  0  0
 39 44  1  0  0  0  0
 40 41  2  0  0  0  0
 40 48  1  0  0  0  0
 42 45  1  0  0  0  0
 42 46  1  0  0  0  0
 42 47  1  0  0  0  0
 48 49  1  0  0  0  0
 48 50  1  0  0  0  0
 49 51  1  0  0  0  0
 49 52  1  0  0  0  0
 49 53  1  0  0  0  0
M  END
$$$$

  -OEChem-02062319103D

 53 52  0     1  0  0  0  0  0999 V2000
   -0.9675   -4.8613   -1.2447 C   0  0  0  0  0  0  0  0  0  0  0  0
   -1.6802   -5.0974   -0.2832 O   0  0  0  0  0  0  0  0  0  0  0  0
   -0.8601   -5.8677   -2.3752 C   0  0  0  0  0  0  0  0  0  0  0  0
    0.1609   -6.2522   -2.4378 H   0  0  0  0  0  0  0  0  0  0  0  0
   -1.5422   -6.7047   -2.2005 H   0  0  0  0  0  0  0  0  0  0  0  0
   -1.1227   -5.3934   -3.3238 H   0  0  0  0  0  0  0  0  0  0  0  0
   -0.2494   -3.6850   -1.3051 N   0  0  0  0  0  0  0  0  0  0  0  0
   -0.2061   -2.6794   -0.2356 C   0  0  2  0  0  0  0  0  0  0  0  0
    0.1629   -1.2953   -0.8157 C   0  0  0  0  0  0  0  0  0  0  0  0
    1.2933   -1.1195   -1.2474 O   0  0  0  0  0  0  0  0  0  0  0  0
    0.8261   -3.1519    0.7990 C   0  0  0  0  0  0  0  0  0  0  0  0
    0.4042   -3.5773   -2.0782 H   0  0  0  0  0  0  0  0  0  0  0  0
   -1.1865   -2.5972    0.2450 H   0  0  0  0  0  0  0  0  0  0  0  0
    1.7870   -3.3593    0.3169 H   0  0  0  0  0  0  0  0  0  0  0  0
    0.9900   -2.3885    1.5621 H   0  0  0  0  0  0  0  0  0  0  0  0
    0.4785   -4.0655    1.2912 H   0  0  0  0  0  0  0  0  0  0  0  0
   -0.5972   -0.1576   -0.5975 N   0  0  0  0  0  0  0  0  0  0  0  0
   -0.0980    0.8608    0.3514 C   0  0  2  0  0  0  0  0  0  0  0  0
    0.0972    0.3431    1.7910 C   0  0  0  0  0  0  0  0  0  0  0  0
    1.1352    0.5402    2.4032 O   0  0  0  0  0  0  0  0  0  0  0  0
   -1.0597    2.0608    0.3604 C   0  0  0  0  0  0  0  0  0  0  0  0
   -1.0956    2.7692   -1.0013 C   0  0  0  0  0  0  0  0  0  0  0  0
   -2.0025    4.0027   -0.9425 C   0  0  0  0  0  0  0  0  0  0  0  0
   -2.0425    4.7053   -2.2966 C   0  0  0  0  0  0  0  0  0  0  0  0
   -2.9128    5.8790   -2.1906 N   0  0  0  0  0  0  0  0  0  0  0  0
   -1.5841   -0.3714   -0.4866 H   0  0  0  0  0  0  0  0  0  0  0  0
    0.8841    1.2076    0.0078 H   0  0  0  0  0  0  0  0  0  0  0  0
   -0.7284    2.7756    1.1222 H   0  0  0  0  0  0  0  0  0  0  0  0
   -2.0678    1.7298    0.6316 H   0  0  0  0  0  0  0  0  0  0  0  0
   -1.4652    2.0827   -1.7703 H   0  0  0  0  0  0  0  0  0  0  0  0
   -0.0810    3.0734   -1.2817 H   0  0  0  0  0  0  0  0  0  0  0  0
   -3.0158    3.7002   -0.6590 H   0  0  0  0  0  0  0  0  0  0  0  0
   -1.6299    4.6968   -0.1819 H   0  0  0  0  0  0  0  0  0  0  0  0
   -2.4264    4.0234   -3.0635 H   0  0  0  0  0  0  0  0  0  0  0  0
   -1.0335    5.0128   -2.5935 H   0  0  0  0  0  0  0  0  0  0  0  0
   -3.8636    5.6082   -1.9404 H   0  0  0  0  0  0  0  0  0  0  0  0
   -2.5400    6.5517   -1.5204 H   0  0  0  0  0  0  0  0  0  0  0  0
   -0.8883   -0.4342    2.3651 N   0  0  0  0  0  0  0  0  0  0  0  0
   -0.7372   -1.2506    3.5722 C   0  0  2  0  0  0  0  0  0  0  0  0
   -1.5700   -2.5383    3.4096 C   0  0  0  0  0  0  0  0  0  0  0  0
   -2.5323   -2.5284    2.6477 O   0  0  0  0  0  0  0  0  0  0  0  0
   -1.2046   -0.4401    4.7823 C   0  0  0  0  0  0  0  0  0  0  0  0
   -1.7235   -0.6177    1.8118 H   0  0  0  0  0  0  0  0  0  0  0  0
    0.3116   -1.5336    3.7105 H   0  0  0  0  0  0  0  0  0  0  0  0
   -2.2519   -0.1442    4.6646 H   0  0  0  0  0  0  0  0  0  0  0  0
   -1.1097   -1.0314    5.6979 H   0  0  0  0  0  0  0  0  0  0  0  0
   -0.5963    0.4638    4.8889 H   0  0  0  0  0  0  0  0  0  0  0  0
   -1.1960   -3.7160    4.0274 N   0  0  0  0  0  0  0  0  0  0  0  0
   -1.8305   -4.9950    3.7275 C   0  0  0  0  0  0  0  0  0  0  0  0
   -0.3365   -3.7114    4.5688 H   0  0  0  0  0  0  0  0  0  0  0  0
   -2.9051   -4.9483    3.9326 H   0  0  0  0  0  0  0  0  0  0  0  0
   -1.6849   -5.2576    2.6738 H   0  0  0  0  0  0  0  0  0  0  0  0
   -1.3973   -5.7872    4.3454 H   0  0  0  0  0  0  0  0  0  0  0  0
  1  2  2  0  0  0  0
  1  3  1  0  0  0  0
  1  7  1  0  0  0  0
  3  4  1  0  0  0  0
  3  5  1  0  0  0  0
  3  6  1  0  0  0  0
  7  8  1  0  0  0  0
  7 12  1  0  0  0  0
  8  9  1  0  0  0  0
  8 11  1  0  0  0  0
  8 13  1  0  0  0  0
  9 10  2  0  0  0  0
  9 17  1  0  0  0  0
 11 14  1  0  0  0  0
 11 15  1  0  0  0  0
 11 16  1  0  0  0  0
 17 18  1  0  0  0  0
 17 26  1  0  0  0  0
 18 19  1  0  0  0  0
 18 21  1  0  0  0  0
 18 27  1  0  0  0  0
 19 20  2  0  0  0  0
 19 38  1  0  0  0  0
 21 22  1  0  0  0  0
 21 28  1  0  0  0  0
 21 29  1  0  0  0  0
 22 23  1  0  0  0  0
 22 30  1  0  0  0  0
 22 31  1  0  0  0  0
 23 24  1  0  0  0  0
 23 32  1  0  0  0  0
 23 33  1  0  0  0  0
 24 25  1  0  0  0  0
 24 34  1  0  0  0  0
 24 35  1  0  0  0  0
 25 36  1  0  0  0  0
 25 37  1  0  0  0  0
 38 39  1  0  0  0  0
 38 43  1  0  0  0  0
 39 40  1  0  0  0  0
 39 42  1  0  0  0  0
 39 44  1  0  0  0  0
 40 41  2  0  0  0  0
 40 48  1  0  0  0  0
 42 45  1  0  0  0  0
 42 46  1  0  0  0  0
 42 47  1  0  0  0  0
 48 49  1  0  0  0  0
 48 50  1  0  0  0  0
 49 51  1  0  0  0  0
 49 52  1  0  0  0  0
 49 53  1  0  0  0  0
M  END
$$$$

  -OEChem-02062319103D

 53 52  0     1  0  0  0  0  0999 V2000
   -2.1077   -2.9336   -0.5117 C   0  0  0  0  0  0  0  0  0  0  0  0
   -2.3581   -1.9780    0.2094 O   0  0  0  0  0  0  0  0  0  0  0  0
   -3.2169   -3.6148   -1.2894 C   0  0  0  0  0  0  0  0  0  0  0  0
   -3.0304   -3.5268   -2.3626 H   0  0  0  0  0  0  0  0  0  0  0  0
   -3.2670   -4.6730   -1.0204 H   0  0  0  0  0  0  0  0  0  0  0  0
   -4.1797   -3.1490   -1.0601 H   0  0  0  0  0  0  0  0  0  0  0  0
   -0.7975   -3.3354   -0.6738 N   0  0  0  0  0  0  0  0  0  0  0  0
    0.3124   -2.9188    0.2031 C   0  0  2  0  0  0  0  0  0  0  0  0
    0.8646   -1.4983   -0.0892 C   0  0  0  0  0  0  0  0  0  0  0  0
    2.0284   -1.2232    0.1664 O   0  0  0  0  0  0  0  0  0  0  0  0
    1.3980   -3.9958    0.0805 C   0  0  0  0  0  0  0  0  0  0  0  0
   -0.6483   -4.1519   -1.2607 H   0  0  0  0  0  0  0  0  0  0  0  0
   -0.0365   -2.9184    1.2401 H   0  0  0  0  0  0  0  0  0  0  0  0
    1.8017   -4.0225   -0.9366 H   0  0  0  0  0  0  0  0  0  0  0  0
    2.2211   -3.7896    0.7719 H   0  0  0  0  0  0  0  0  0  0  0  0
    0.9893   -4.9809    0.3255 H   0  0  0  0  0  0  0  0  0  0  0  0
   -0.0198   -0.4492   -0.2636 N   0  0  0  0  0  0  0  0  0  0  0  0
    0.0399    0.7186    0.6335 C   0  0  2  0  0  0  0  0  0  0  0  0
   -0.1953    0.3358    2.1095 C   0  0  0  0  0  0  0  0  0  0  0  0
    0.5324    0.7720    2.9930 O   0  0  0  0  0  0  0  0  0  0  0  0
   -1.0044    1.7543    0.1889 C   0  0  0  0  0  0  0  0  0  0  0  0
   -0.6822    2.3259   -1.1991 C   0  0  0  0  0  0  0  0  0  0  0  0
   -1.6856    3.4211   -1.5750 C   0  0  0  0  0  0  0  0  0  0  0  0
   -1.3689    3.9926   -2.9540 C   0  0  0  0  0  0  0  0  0  0  0  0
   -2.3315    5.0565   -3.2516 N   0  0  0  0  0  0  0  0  0  0  0  0
   -0.9679   -0.7893   -0.4292 H   0  0  0  0  0  0  0  0  0  0  0  0
    1.0357    1.1730    0.5708 H   0  0  0  0  0  0  0  0  0  0  0  0
   -1.0217    2.5735    0.9161 H   0  0  0  0  0  0  0  0  0  0  0  0
   -1.9996    1.2967    0.1790 H   0  0  0  0  0  0  0  0  0  0  0  0
   -0.7147    1.5282   -1.9486 H   0  0  0  0  0  0  0  0  0  0  0  0
    0.3307    2.7431   -1.1960 H   0  0  0  0  0  0  0  0  0  0  0  0
   -2.6992    3.0073   -1.5757 H   0  0  0  0  0  0  0  0  0  0  0  0
   -1.6473    4.2236   -0.8310 H   0  0  0  0  0  0  0  0  0  0  0  0
   -1.4336    3.2048   -3.7129 H   0  0  0  0  0  0  0  0  0  0  0  0
   -0.3499    4.3954   -2.9718 H   0  0  0  0  0  0  0  0  0  0  0  0
   -3.2851    4.6952   -3.2595 H   0  0  0  0  0  0  0  0  0  0  0  0
   -2.2426    5.8251   -2.5867 H   0  0  0  0  0  0  0  0  0  0  0  0
   -1.2201   -0.5287    2.4528 N   0  0  0  0  0  0  0  0  0  0  0  0
   -1.3321   -1.1661    3.7706 C   0  0  2  0  0  0  0  0  0  0  0  0
   -0.2410   -2.2460    3.9723 C   0  0  0  0  0  0  0  0  0  0  0  0
   -0.4989   -3.4435    3.9112 O   0  0  0  0  0  0  0  0  0  0  0  0
   -2.7525   -1.7310    3.8864 C   0  0  0  0  0  0  0  0  0  0  0  0
   -1.7342   -0.9563    1.6778 H   0  0  0  0  0  0  0  0  0  0  0  0
   -1.2037   -0.4138    4.5560 H   0  0  0  0  0  0  0  0  0  0  0  0
   -2.9355   -2.4782    3.1071 H   0  0  0  0  0  0  0  0  0  0  0  0
   -2.8924   -2.2064    4.8625 H   0  0  0  0  0  0  0  0  0  0  0  0
   -3.4905   -0.9298    3.7816 H   0  0  0  0  0  0  0  0  0  0  0  0
    1.0731   -1.8489    4.1198 N   0  0  0  0  0  0  0  0  0  0  0  0
    2.2017   -2.7686    4.1144 C   0  0  0  0  0  0  0  0  0  0  0  0
    1.2516   -0.8530    3.9599 H   0  0  0  0  0  0  0  0  0  0  0  0
    2.0835   -3.5260    4.8964 H   0  0  0  0  0  0  0  0  0  0  0  0
    2.2818   -3.2694    3.1448 H   0  0  0  0  0  0  0  0  0  0  0  0
    3.1318   -2.2231    4.3018 H   0  0  0  0  0  0  0  0  0  0  0  0
  1  2  2  0  0  0  0
  1  3  1  0  0  0  0
  1  7  1  0  0  0  0
  3  4  1  0  0  0  0
  3  5  1  0  0  0  0
  3  6  1  0  0  0  0
  7  8  1  0  0  0  0
  7 12  1  0  0  0  0
  8  9  1  0  0  0  0
  8 11  1  0  0  0  0
  8 13  1  0  0  0  0
  9 10  2  0  0  0  0
  9 17  1  0  0  0  0
 11 14  1  0  0  0  0
 11 15  1  0  0  0  0
 11 16  1  0  0  0  0
 17 18  1  0  0  0  0
 17 26  1  0  0  0  0
 18 19  1  0  0  0  0
 18 21  1  0  0  0  0
 18 27  1  0  0  0  0
 19 20  2  0  0  0  0
 19 38  1  0  0  0  0
 21 22  1  0  0  0  0
 21 28  1  0  0  0  0
 21 29  1  0  0  0  0
 22 23  1  0  0  0  0
 22 30  1  0  0  0  0
 22 31  1  0  0  0  0
 23 24  1  0  0  0  0
 23 32  1  0  0  0  0
 23 33  1  0  0  0  0
 24 25  1  0  0  0  0
 24 34  1  0  0  0  0
 24 35  1  0  0  0  0
 25 36  1  0  0  0  0
 25 37  1  0  0  0  0
 38 39  1  0  0  0  0
 38 43  1  0  0  0  0
 39 40  1  0  0  0  0
 39 42  1  0  0  0  0
 39 44  1  0  0  0  0
 40 41  2  0  0  0  0
 40 48  1  0  0  0  0
 42 45  1  0  0  0  0
 42 46  1  0  0  0  0
 42 47  1  0  0  0  0
 48 49  1  0  0  0  0
 48 50  1  0  0  0  0
 49 51  1  0  0  0  0
 49 52  1  0  0  0  0
 49 53  1  0  0  0  0
M  END
$$$$

  -OEChem-02062319103D

 53 52  0     1  0  0  0  0  0999 V2000
   -1.0012   -4.9825   -1.9823 C   0  0  0  0  0  0  0  0  0  0  0  0
   -2.2195   -5.0167   -1.9106 O   0  0  0  0  0  0  0  0  0  0  0  0
   -0.2667   -5.9558   -2.8844 C   0  0  0  0  0  0  0  0  0  0  0  0
    0.4350   -6.5523   -2.2963 H   0  0  0  0  0  0  0  0  0  0  0  0
   -0.9778   -6.6270   -3.3738 H   0  0  0  0  0  0  0  0  0  0  0  0
    0.2859   -5.4086   -3.6519 H   0  0  0  0  0  0  0  0  0  0  0  0
   -0.2843   -4.0495   -1.2629 N   0  0  0  0  0  0  0  0  0  0  0  0
   -0.8900   -2.8997   -0.5763 C   0  0  2  0  0  0  0  0  0  0  0  0
   -0.3369   -1.5670   -1.1289 C   0  0  0  0  0  0  0  0  0  0  0  0
    0.7606   -1.5620   -1.6729 O   0  0  0  0  0  0  0  0  0  0  0  0
   -0.6168   -3.0595    0.9179 C   0  0  0  0  0  0  0  0  0  0  0  0
    0.6970   -3.9496   -1.5190 H   0  0  0  0  0  0  0  0  0  0  0  0
   -1.9739   -2.8873   -0.7314 H   0  0  0  0  0  0  0  0  0  0  0  0
    0.4539   -2.9699    1.1281 H   0  0  0  0  0  0  0  0  0  0  0  0
   -1.1557   -2.2960    1.4841 H   0  0  0  0  0  0  0  0  0  0  0  0
   -0.9585   -4.0405    1.2636 H   0  0  0  0  0  0  0  0  0  0  0  0
   -0.8705   -0.3515   -0.7341 N   0  0  0  0  0  0  0  0  0  0  0  0
   -0.0099    0.7948   -0.3745 C   0  0  2  0  0  0  0  0  0  0  0  0
    0.9565    0.5666    0.8082 C   0  0  0  0  0  0  0  0  0  0  0  0
    2.0765    1.0567    0.7814 O   0  0  0  0  0  0  0  0  0  0  0  0
   -0.9013    2.0135   -0.0789 C   0  0  0  0  0  0  0  0  0  0  0  0
   -1.6620    2.4802   -1.3291 C   0  0  0  0  0  0  0  0  0  0  0  0
   -2.5078    3.7184   -1.0144 C   0  0  0  0  0  0  0  0  0  0  0  0
   -3.2493    4.1958   -2.2605 C   0  0  0  0  0  0  0  0  0  0  0  0
   -4.0524    5.3697   -1.9086 N   0  0  0  0  0  0  0  0  0  0  0  0
   -1.7634   -0.4161   -0.2541 H   0  0  0  0  0  0  0  0  0  0  0  0
    0.6218    1.0333   -1.2385 H   0  0  0  0  0  0  0  0  0  0  0  0
   -0.2709    2.8365    0.2766 H   0  0  0  0  0  0  0  0  0  0  0  0
   -1.6100    1.7708    0.7200 H   0  0  0  0  0  0  0  0  0  0  0  0
   -2.3139    1.6800   -1.6939 H   0  0  0  0  0  0  0  0  0  0  0  0
   -0.9458    2.7175   -2.1234 H   0  0  0  0  0  0  0  0  0  0  0  0
   -3.2313    3.4789   -0.2284 H   0  0  0  0  0  0  0  0  0  0  0  0
   -1.8612    4.5215   -0.6461 H   0  0  0  0  0  0  0  0  0  0  0  0
   -3.8991    3.3997   -2.6414 H   0  0  0  0  0  0  0  0  0  0  0  0
   -2.5341    4.4551   -3.0497 H   0  0  0  0  0  0  0  0  0  0  0  0
   -4.7430    5.1410   -1.1938 H   0  0  0  0  0  0  0  0  0  0  0  0
   -3.4584    6.1411   -1.6041 H   0  0  0  0  0  0  0  0  0  0  0  0
    0.5343   -0.0469    1.9731 N   0  0  0  0  0  0  0  0  0  0  0  0
    1.3659   -0.2265    3.1708 C   0  0  2  0  0  0  0  0  0  0  0  0
    0.8535   -1.3817    4.0547 C   0  0  0  0  0  0  0  0  0  0  0  0
   -0.3014   -1.7771    3.9365 O   0  0  0  0  0  0  0  0  0  0  0  0
    1.3686    1.0799    3.9728 C   0  0  0  0  0  0  0  0  0  0  0  0
   -0.4004   -0.4471    1.9933 H   0  0  0  0  0  0  0  0  0  0  0  0
    2.3899   -0.4695    2.8672 H   0  0  0  0  0  0  0  0  0  0  0  0
    0.3507    1.3413    4.2794 H   0  0  0  0  0  0  0  0  0  0  0  0
    1.9877    0.9780    4.8690 H   0  0  0  0  0  0  0  0  0  0  0  0
    1.7722    1.8997    3.3702 H   0  0  0  0  0  0  0  0  0  0  0  0
    1.6840   -1.9759    4.9867 N   0  0  0  0  0  0  0  0  0  0  0  0
    1.2598   -3.0637    5.8594 C   0  0  0  0  0  0  0  0  0  0  0  0
    2.6367   -1.6296    5.0590 H   0  0  0  0  0  0  0  0  0  0  0  0
    0.4475   -2.7332    6.5152 H   0  0  0  0  0  0  0  0  0  0  0  0
    0.9115   -3.9170    5.2680 H   0  0  0  0  0  0  0  0  0  0  0  0
    2.0949   -3.3954    6.4840 H   0  0  0  0  0  0  0  0  0  0  0  0
  1  2  2  0  0  0  0
  1  3  1  0  0  0  0
  1  7  1  0  0  0  0
  3  4  1  0  0  0  0
  3  5  1  0  0  0  0
  3  6  1  0  0  0  0
  7  8  1  0  0  0  0
  7 12  1  0  0  0  0
  8  9  1  0  0  0  0
  8 11  1  0  0  0  0
  8 13  1  0  0  0  0
  9 10  2  0  0  0  0
  9 17  1  0  0  0  0
 11 14  1  0  0  0  0
 11 15  1  0  0  0  0
 11 16  1  0  0  0  0
 17 18  1  0  0  0  0
 17 26  1  0  0  0  0
 18 19  1  0  0  0  0
 18 21  1  0  0  0  0
 18 27  1  0  0  0  0
 19 20  2  0  0  0  0
 19 38  1  0  0  0  0
 21 22  1  0  0  0  0
 21 28  1  0  0  0  0
 21 29  1  0  0  0  0
 22 23  1  0  0  0  0
 22 30  1  0  0  0  0
 22 31  1  0  0  0  0
 23 24  1  0  0  0  0
 23 32  1  0  0  0  0
 23 33  1  0  0  0  0
 24 25  1  0  0  0  0
 24 34  1  0  0  0  0
 24 35  1  0  0  0  0
 25 36  1  0  0  0  0
 25 37  1  0  0  0  0
 38 39  1  0  0  0  0
 38 43  1  0  0  0  0
 39 40  1  0  0  0  0
 39 42  1  0  0  0  0
 39 44  1  0  0  0  0
 40 41  2  0  0  0  0
 40 48  1  0  0  0  0
 42 45  1  0  0  0  0
 42 46  1  0  0  0  0
 42 47  1  0  0  0  0
 48 49  1  0  0  0  0
 48 50  1  0  0  0  0
 49 51  1  0  0  0  0
 49 52  1  0  0  0  0
 49 53  1  0  0  0  0
M  END
$$$$

  -OEChem-02062319103D

 53 52  0     1  0  0  0  0  0999 V2000
   -0.9779   -5.0762   -1.4819 C   0  0  0  0  0  0  0  0  0  0  0  0
   -2.1492   -5.1914   -1.1575 O   0  0  0  0  0  0  0  0  0  0  0  0
   -0.3148   -6.1457   -2.3287 C   0  0  0  0  0  0  0  0  0  0  0  0
    0.4893   -6.6230   -1.7636 H   0  0  0  0  0  0  0  0  0  0  0  0
   -1.0455   -6.9074   -2.6146 H   0  0  0  0  0  0  0  0  0  0  0  0
    0.1012   -5.6997   -3.2352 H   0  0  0  0  0  0  0  0  0  0  0  0
   -0.2567   -3.9680   -1.0914 N   0  0  0  0  0  0  0  0  0  0  0  0
   -0.8385   -2.7901   -0.4349 C   0  0  2  0  0  0  0  0  0  0  0  0
   -0.2660   -1.4816   -1.0216 C   0  0  0  0  0  0  0  0  0  0  0  0
    0.7937   -1.5047   -1.6353 O   0  0  0  0  0  0  0  0  0  0  0  0
   -0.5570   -2.8995    1.0647 C   0  0  0  0  0  0  0  0  0  0  0  0
    0.6658   -3.8465   -1.5081 H   0  0  0  0  0  0  0  0  0  0  0  0
   -1.9218   -2.7681   -0.5939 H   0  0  0  0  0  0  0  0  0  0  0  0
    0.5207   -2.8827    1.2557 H   0  0  0  0  0  0  0  0  0  0  0  0
   -1.0214   -2.0706    1.6060 H   0  0  0  0  0  0  0  0  0  0  0  0
   -0.9653   -3.8355    1.4590 H   0  0  0  0  0  0  0  0  0  0  0  0
   -0.8120   -0.2555   -0.6825 N   0  0  0  0  0  0  0  0  0  0  0  0
   -0.0171    0.9876   -0.6464 C   0  0  2  0  0  0  0  0  0  0  0  0
    1.1645    0.9612    0.3463 C   0  0  0  0  0  0  0  0  0  0  0  0
    2.2136    1.5251    0.0679 O   0  0  0  0  0  0  0  0  0  0  0  0
   -0.9424    2.1708   -0.3171 C   0  0  0  0  0  0  0  0  0  0  0  0
   -1.9784    2.4111   -1.4250 C   0  0  0  0  0  0  0  0  0  0  0  0
   -2.8423    3.6329   -1.0966 C   0  0  0  0  0  0  0  0  0  0  0  0
   -3.8490    3.8980   -2.2124 C   0  0  0  0  0  0  0  0  0  0  0  0
   -4.6408    5.0782   -1.8569 N   0  0  0  0  0  0  0  0  0  0  0  0
   -1.6589   -0.2877   -0.1224 H   0  0  0  0  0  0  0  0  0  0  0  0
    0.4176    1.1513   -1.6394 H   0  0  0  0  0  0  0  0  0  0  0  0
   -0.3330    3.0744   -0.2028 H   0  0  0  0  0  0  0  0  0  0  0  0
   -1.4501    1.9916    0.6366 H   0  0  0  0  0  0  0  0  0  0  0  0
   -2.6211    1.5320   -1.5379 H   0  0  0  0  0  0  0  0  0  0  0  0
   -1.4613    2.5744   -2.3768 H   0  0  0  0  0  0  0  0  0  0  0  0
   -3.3755    3.4642   -0.1553 H   0  0  0  0  0  0  0  0  0  0  0  0
   -2.2009    4.5115   -0.9707 H   0  0  0  0  0  0  0  0  0  0  0  0
   -4.5060    3.0311   -2.3434 H   0  0  0  0  0  0  0  0  0  0  0  0
   -3.3253    4.0705   -3.1593 H   0  0  0  0  0  0  0  0  0  0  0  0
   -5.1694    4.9208   -0.9990 H   0  0  0  0  0  0  0  0  0  0  0  0
   -4.0474    5.9035   -1.7695 H   0  0  0  0  0  0  0  0  0  0  0  0
    0.9951    0.4650    1.6250 N   0  0  0  0  0  0  0  0  0  0  0  0
    2.0708    0.3464    2.6161 C   0  0  2  0  0  0  0  0  0  0  0  0
    1.8345   -0.8538    3.5545 C   0  0  0  0  0  0  0  0  0  0  0  0
    0.7150   -1.3473    3.6470 O   0  0  0  0  0  0  0  0  0  0  0  0
    2.1435    1.6478    3.4206 C   0  0  0  0  0  0  0  0  0  0  0  0
    0.1416   -0.0552    1.8149 H   0  0  0  0  0  0  0  0  0  0  0  0
    3.0256    0.1831    2.1046 H   0  0  0  0  0  0  0  0  0  0  0  0
    1.1973    1.8309    3.9397 H   0  0  0  0  0  0  0  0  0  0  0  0
    2.9445    1.5953    4.1641 H   0  0  0  0  0  0  0  0  0  0  0  0
    2.3455    2.4942    2.7565 H   0  0  0  0  0  0  0  0  0  0  0  0
    2.8775   -1.3926    4.2837 N   0  0  0  0  0  0  0  0  0  0  0  0
    2.7289   -2.5497    5.1581 C   0  0  0  0  0  0  0  0  0  0  0  0
    3.7996   -0.9842    4.1586 H   0  0  0  0  0  0  0  0  0  0  0  0
    1.9920   -2.3461    5.9422 H   0  0  0  0  0  0  0  0  0  0  0  0
    2.4014   -3.4234    4.5850 H   0  0  0  0  0  0  0  0  0  0  0  0
    3.6838   -2.7881    5.6361 H   0  0  0  0  0  0  0  0  0  0  0  0
  1  2  2  0  0  0  0
  1  3  1  0  0  0  0
  1  7  1  0  0  0  0
  3  4  1  0  0  0  0
  3  5  1  0  0  0  0
  3  6  1  0  0  0  0
  7  8  1  0  0  0  0
  7 12  1  0  0  0  0
  8  9  1  0  0  0  0
  8 11  1  0  0  0  0
  8 13  1  0  0  0  0
  9 10  2  0  0  0  0
  9 17  1  0  0  0  0
 11 14  1  0  0  0  0
 11 15  1  0  0  0  0
 11 16  1  0  0  0  0
 17 18  1  0  0  0  0
 17 26  1  0  0  0  0
 18 19  1  0  0  0  0
 18 21  1  0  0  0  0
 18 27  1  0  0  0  0
 19 20  2  0  0  0  0
 19 38  1  0  0  0  0
 21 22  1  0  0  0  0
 21 28  1  0  0  0  0
 21 29  1  0  0  0  0
 22 23  1  0  0  0  0
 22 30  1  0  0  0  0
 22 31  1  0  0  0  0
 23 24  1  0  0  0  0
 23 32  1  0  0  0  0
 23 33  1  0  0  0  0
 24 25  1  0  0  0  0
 24 34  1  0  0  0  0
 24 35  1  0  0  0  0
 25 36  1  0  0  0  0
 25 37  1  0  0  0  0
 38 39  1  0  0  0  0
 38 43  1  0  0  0  0
 39 40  1  0  0  0  0
 39 42  1  0  0  0  0
 39 44  1  0  0  0  0
 40 41  2  0  0  0  0
 40 48  1  0  0  0  0
 42 45  1  0  0  0  0
 42 46  1  0  0  0  0
 42 47  1  0  0  0  0
 48 49  1  0  0  0  0
 48 50  1  0  0  0  0
 49 51  1  0  0  0  0
 49 52  1  0  0  0  0
 49 53  1  0  0  0  0
M  END
$$$$

  -OEChem-02062319103D

 53 52  0     1  0  0  0  0  0999 V2000
   -1.0417   -4.9532   -1.2980 C   0  0  0  0  0  0  0  0  0  0  0  0
   -2.2078   -4.9929   -0.9384 O   0  0  0  0  0  0  0  0  0  0  0  0
   -0.4887   -6.0355   -2.2055 C   0  0  0  0  0  0  0  0  0  0  0  0
    0.3904   -6.4949   -1.7473 H   0  0  0  0  0  0  0  0  0  0  0  0
   -1.2433   -6.8089   -2.3726 H   0  0  0  0  0  0  0  0  0  0  0  0
   -0.2057   -5.6044   -3.1687 H   0  0  0  0  0  0  0  0  0  0  0  0
   -0.2268   -3.9155   -0.8982 N   0  0  0  0  0  0  0  0  0  0  0  0
   -0.7004   -2.7126   -0.2017 C   0  0  2  0  0  0  0  0  0  0  0  0
   -0.1315   -1.4324   -0.8467 C   0  0  0  0  0  0  0  0  0  0  0  0
    0.8916   -1.4857   -1.5175 O   0  0  0  0  0  0  0  0  0  0  0  0
   -0.2738   -2.8184    1.2638 C   0  0  0  0  0  0  0  0  0  0  0  0
    0.6830   -3.8457   -1.3524 H   0  0  0  0  0  0  0  0  0  0  0  0
   -1.7923   -2.6467   -0.2530 H   0  0  0  0  0  0  0  0  0  0  0  0
    0.8172   -2.8689    1.3430 H   0  0  0  0  0  0  0  0  0  0  0  0
   -0.6237   -1.9512    1.8318 H   0  0  0  0  0  0  0  0  0  0  0  0
   -0.6979   -3.7200    1.7169 H   0  0  0  0  0  0  0  0  0  0  0  0
   -0.7102   -0.2011   -0.5944 N   0  0  0  0  0  0  0  0  0  0  0  0
   -0.0605    1.0872   -0.9010 C   0  0  2  0  0  0  0  0  0  0  0  0
    1.2800    1.2862   -0.1634 C   0  0  0  0  0  0  0  0  0  0  0  0
    2.2111    1.8617   -0.7103 O   0  0  0  0  0  0  0  0  0  0  0  0
   -1.0216    2.2388   -0.5631 C   0  0  0  0  0  0  0  0  0  0  0  0
   -2.2743    2.2168   -1.4515 C   0  0  0  0  0  0  0  0  0  0  0  0
   -3.1845    3.4054   -1.1251 C   0  0  0  0  0  0  0  0  0  0  0  0
   -4.4343    3.3872   -2.0010 C   0  0  0  0  0  0  0  0  0  0  0  0
   -5.2701    4.5384   -1.6506 N   0  0  0  0  0  0  0  0  0  0  0  0
   -1.5411   -0.1971   -0.0099 H   0  0  0  0  0  0  0  0  0  0  0  0
    0.1655    1.1206   -1.9731 H   0  0  0  0  0  0  0  0  0  0  0  0
   -0.4989    3.1905   -0.7112 H   0  0  0  0  0  0  0  0  0  0  0  0
   -1.3124    2.1816    0.4912 H   0  0  0  0  0  0  0  0  0  0  0  0
   -2.8272    1.2843   -1.2985 H   0  0  0  0  0  0  0  0  0  0  0  0
   -1.9760    2.2617   -2.5048 H   0  0  0  0  0  0  0  0  0  0  0  0
   -3.4780    3.3642   -0.0713 H   0  0  0  0  0  0  0  0  0  0  0  0
   -2.6392    4.3407   -1.2888 H   0  0  0  0  0  0  0  0  0  0  0  0
   -4.9935    2.4582   -1.8427 H   0  0  0  0  0  0  0  0  0  0  0  0
   -4.1547    3.4367   -3.0594 H   0  0  0  0  0  0  0  0  0  0  0  0
   -5.5688    4.4926   -0.6765 H   0  0  0  0  0  0  0  0  0  0  0  0
   -4.7835    5.4150   -1.8387 H   0  0  0  0  0  0  0  0  0  0  0  0
    1.3762    0.9735    1.1788 N   0  0  0  0  0  0  0  0  0  0  0  0
    2.6457    0.9160    1.9104 C   0  0  2  0  0  0  0  0  0  0  0  0
    2.6611   -0.2787    2.8857 C   0  0  0  0  0  0  0  0  0  0  0  0
    1.6129   -0.8490    3.1748 O   0  0  0  0  0  0  0  0  0  0  0  0
    2.8340    2.2367    2.6606 C   0  0  0  0  0  0  0  0  0  0  0  0
    0.6209    0.4063    1.5589 H   0  0  0  0  0  0  0  0  0  0  0  0
    3.4754    0.7767    1.2087 H   0  0  0  0  0  0  0  0  0  0  0  0
    2.0224    2.3880    3.3795 H   0  0  0  0  0  0  0  0  0  0  0  0
    3.7851    2.2393    3.2013 H   0  0  0  0  0  0  0  0  0  0  0  0
    2.8361    3.0738    1.9549 H   0  0  0  0  0  0  0  0  0  0  0  0
    3.8515   -0.7308    3.4230 N   0  0  0  0  0  0  0  0  0  0  0  0
    3.9429   -1.8860    4.3072 C   0  0  0  0  0  0  0  0  0  0  0  0
    4.7060   -0.2667    3.1280 H   0  0  0  0  0  0  0  0  0  0  0  0
    3.3270   -1.7353    5.2001 H   0  0  0  0  0  0  0  0  0  0  0  0
    3.6022   -2.7905    3.7924 H   0  0  0  0  0  0  0  0  0  0  0  0
    4.9790   -2.0375    4.6246 H   0  0  0  0  0  0  0  0  0  0  0  0
  1  2  2  0  0  0  0
  1  3  1  0  0  0  0
  1  7  1  0  0  0  0
  3  4  1  0  0  0  0
  3  5  1  0  0  0  0
  3  6  1  0  0  0  0
  7  8  1  0  0  0  0
  7 12  1  0  0  0  0
  8  9  1  0  0  0  0
  8 11  1  0  0  0  0
  8 13  1  0  0  0  0
  9 10  2  0  0  0  0
  9 17  1  0  0  0  0
 11 14  1  0  0  0  0
 11 15  1  0  0  0  0
 11 16  1  0  0  0  0
 17 18  1  0  0  0  0
 17 26  1  0  0  0  0
 18 19  1  0  0  0  0
 18 21  1  0  0  0  0
 18 27  1  0  0  0  0
 19 20  2  0  0  0  0
 19 38  1  0  0  0  0
 21 22  1  0  0  0  0
 21 28  1  0  0  0  0
 21 29  1  0  0  0  0
 22 23  1  0  0  0  0
 22 30  1  0  0  0  0
 22 31  1  0  0  0  0
 23 24  1  0  0  0  0
 23 32  1  0  0  0  0
 23 33  1  0  0  0  0
 24 25  1  0  0  0  0
 24 34  1  0  0  0  0
 24 35  1  0  0  0  0
 25 36  1  0  0  0  0
 25 37  1  0  0  0  0
 38 39  1  0  0  0  0
 38 43  1  0  0  0  0
 39 40  1  0  0  0  0
 39 42  1  0  0  0  0
 39 44  1  0  0  0  0
 40 41  2  0  0  0  0
 40 48  1  0  0  0  0
 42 45  1  0  0  0  0
 42 46  1  0  0  0  0
 42 47  1  0  0  0  0
 48 49  1  0  0  0  0
 48 50  1  0  0  0  0
 49 51  1  0  0  0  0
 49 52  1  0  0  0  0
 49 53  1  0  0  0  0
M  END
$$$$
