
  -OEChem-02062319033D

 53 52  0     1  0  0  0  0  0999 V2000
   -1.0338   -5.6785    0.1476 C   0  0  0  0  0  0  0  0  0  0  0  0
   -2.0514   -5.7797    0.8227 O   0  0  0  0  0  0  0  0  0  0  0  0
   -0.6558   -6.7819   -0.7841 C   0  0  0  0  0  0  0  0  0  0  0  0
   -0.0111   -7.5354   -0.3038 H   0  0  0  0  0  0  0  0  0  0  0  0
   -1.5317   -7.3401   -1.1520 H   0  0  0  0  0  0  0  0  0  0  0  0
   -0.1109   -6.4687   -1.6890 H   0  0  0  0  0  0  0  0  0  0  0  0
   -0.1543   -4.6083    0.1480 N   0  0  0  0  0  0  0  0  0  0  0  0
   -0.3302   -3.4398    0.9696 C   0  0  2  0  0  0  0  0  0  0  0  0
    0.2328   -2.2439    0.2131 C   0  0  0  0  0  0  0  0  0  0  0  0
    1.2097   -2.3192   -0.5294 O   0  0  0  0  0  0  0  0  0  0  0  0
    0.3557   -3.6024    2.3171 C   0  0  0  0  0  0  0  0  0  0  0  0
    0.6584   -4.6506   -0.4643 H   0  0  0  0  0  0  0  0  0  0  0  0
   -1.4091   -3.3101    1.1082 H   0  0  0  0  0  0  0  0  0  0  0  0
    1.4375   -3.7336    2.1985 H   0  0  0  0  0  0  0  0  0  0  0  0
    0.1969   -2.7243    2.9517 H   0  0  0  0  0  0  0  0  0  0  0  0
   -0.0294   -4.4803    2.8470 H   0  0  0  0  0  0  0  0  0  0  0  0
   -0.4616   -1.0893    0.5050 N   0  0  0  0  0  0  0  0  0  0  0  0
   -0.1148    0.1975   -0.0952 C   0  0  2  0  0  0  0  0  0  0  0  0
    1.3233    0.5195    0.3007 C   0  0  0  0  0  0  0  0  0  0  0  0
    2.1637    0.9254   -0.4996 O   0  0  0  0  0  0  0  0  0  0  0  0
   -1.0403    1.3284    0.3780 C   0  0  0  0  0  0  0  0  0  0  0  0
   -2.4797    1.1881   -0.1280 C   0  0  0  0  0  0  0  0  0  0  0  0
   -3.3514    2.3519    0.3515 C   0  0  0  0  0  0  0  0  0  0  0  0
   -4.7923    2.1987   -0.1328 C   0  0  0  0  0  0  0  0  0  0  0  0
   -5.6101    3.3034    0.3537 N   0  0  0  0  0  0  0  0  0  0  0  0
   -1.2618   -1.1067    1.1174 H   0  0  0  0  0  0  0  0  0  0  0  0
   -0.1729    0.1002   -1.1859 H   0  0  0  0  0  0  0  0  0  0  0  0
   -0.6368    2.2901    0.0348 H   0  0  0  0  0  0  0  0  0  0  0  0
   -1.0400    1.3773    1.4754 H   0  0  0  0  0  0  0  0  0  0  0  0
   -2.9145    0.2464    0.2256 H   0  0  0  0  0  0  0  0  0  0  0  0
   -2.4813    1.1569   -1.2242 H   0  0  0  0  0  0  0  0  0  0  0  0
   -3.3295    2.3959    1.4477 H   0  0  0  0  0  0  0  0  0  0  0  0
   -2.9348    3.2975   -0.0181 H   0  0  0  0  0  0  0  0  0  0  0  0
   -5.2131    1.2518    0.2227 H   0  0  0  0  0  0  0  0  0  0  0  0
   -4.8227    2.1873   -1.2275 H   0  0  0  0  0  0  0  0  0  0  0  0
   -5.0386    3.8939    0.9117 H   0  0  0  0  0  0  0  0  0  0  0  0
   -5.9635    3.7997   -0.4308 H   0  0  0  0  0  0  0  0  0  0  0  0
    1.5610    0.2787    1.6469 N   0  0  0  0  0  0  0  0  0  0  0  0
    2.8477    0.4814    2.2731 C   0  0  2  0  0  0  0  0  0  0  0  0
    2.9980   -0.5501    3.3836 C   0  0  0  0  0  0  0  0  0  0  0  0
    2.0528   -0.9497    4.0603 O   0  0  0  0  0  0  0  0  0  0  0  0
    2.9798    1.8936    2.8216 C   0  0  0  0  0  0  0  0  0  0  0  0
    0.8008   -0.0482    2.2358 H   0  0  0  0  0  0  0  0  0  0  0  0
    3.6059    0.3028    1.5029 H   0  0  0  0  0  0  0  0  0  0  0  0
    2.2283    2.0911    3.5947 H   0  0  0  0  0  0  0  0  0  0  0  0
    3.9656    2.0544    3.2703 H   0  0  0  0  0  0  0  0  0  0  0  0
    2.8418    2.6348    2.0269 H   0  0  0  0  0  0  0  0  0  0  0  0
    4.3185   -0.9397    3.5587 N   0  0  0  0  0  0  0  0  0  0  0  0
    4.7260   -1.8773    4.5789 C   0  0  0  0  0  0  0  0  0  0  0  0
    5.0313   -0.5879    2.9263 H   0  0  0  0  0  0  0  0  0  0  0  0
    5.0165   -1.3286    5.4869 H   0  0  0  0  0  0  0  0  0  0  0  0
    3.8895   -2.5530    4.8108 H   0  0  0  0  0  0  0  0  0  0  0  0
    5.5821   -2.4648    4.2159 H   0  0  0  0  0  0  0  0  0  0  0  0
  1  3  1  0  0  0  0
  1  7  1  0  0  0  0
  1  2  2  0  0  0  0
 39 40  1  0  0  0  0
 40 48  1  0  0  0  0
 40 41  2  0  0  0  0
  8  9  1  0  0  0  0
  9 17  1  0  0  0  0
  9 10  2  0  0  0  0
 18 19  1  0  0  0  0
 19 38  1  0  0  0  0
 19 20  2  0  0  0  0
 39 42  1  0  0  0  0
  8 11  1  0  0  0  0
 48 49  1  0  0  0  0
 22 23  1  0  0  0  0
 21 22  1  0  0  0  0
 23 24  1  0  0  0  0
 18 21  1  0  0  0  0
 24 25  1  0  0  0  0
 38 39  1  0  0  0  0
  7  8  1  0  0  0  0
 17 18  1  0  0  0  0
  3  4  1  0  0  0  0
  3  5  1  0  0  0  0
  3  6  1  0  0  0  0
 42 45  1  0  0  0  0
 42 46  1  0  0  0  0
 42 47  1  0  0  0  0
 11 14  1  0  0  0  0
 11 15  1  0  0  0  0
 11 16  1  0  0  0  0
 49 51  1  0  0  0  0
 49 52  1  0  0  0  0
 49 53  1  0  0  0  0
 22 30  1  0  0  0  0
 22 31  1  0  0  0  0
 23 32  1  0  0  0  0
 23 33  1  0  0  0  0
 21 28  1  0  0  0  0
 21 29  1  0  0  0  0
 24 34  1  0  0  0  0
 24 35  1  0  0  0  0
 39 44  1  0  0  0  0
  8 13  1  0  0  0  0
 18 27  1  0  0  0  0
 25 36  1  0  0  0  0
 25 37  1  0  0  0  0
 48 50  1  0  0  0  0
  7 12  1  0  0  0  0
 38 43  1  0  0  0  0
 17 26  1  0  0  0  0
M  END
$$$$

  -OEChem-02062319033D

 53 52  0     1  0  0  0  0  0999 V2000
   -1.0338   -5.6785    0.1476 C   0  0  0  0  0  0  0  0  0  0  0  0
   -2.0514   -5.7797    0.8227 O   0  0  0  0  0  0  0  0  0  0  0  0
   -0.6558   -6.7819   -0.7841 C   0  0  0  0  0  0  0  0  0  0  0  0
   -0.0111   -7.5354   -0.3038 H   0  0  0  0  0  0  0  0  0  0  0  0
   -1.5317   -7.3401   -1.1520 H   0  0  0  0  0  0  0  0  0  0  0  0
   -0.1109   -6.4687   -1.6890 H   0  0  0  0  0  0  0  0  0  0  0  0
   -0.1543   -4.6083    0.1480 N   0  0  0  0  0  0  0  0  0  0  0  0
   -0.3302   -3.4398    0.9696 C   0  0  2  0  0  0  0  0  0  0  0  0
    0.2328   -2.2439    0.2131 C   0  0  0  0  0  0  0  0  0  0  0  0
    1.2097   -2.3192   -0.5294 O   0  0  0  0  0  0  0  0  0  0  0  0
    0.3557   -3.6024    2.3171 C   0  0  0  0  0  0  0  0  0  0  0  0
    0.6584   -4.6506   -0.4643 H   0  0  0  0  0  0  0  0  0  0  0  0
   -1.4091   -3.3101    1.1082 H   0  0  0  0  0  0  0  0  0  0  0  0
    1.4375   -3.7336    2.1985 H   0  0  0  0  0  0  0  0  0  0  0  0
    0.1969   -2.7243    2.9517 H   0  0  0  0  0  0  0  0  0  0  0  0
   -0.0294   -4.4803    2.8470 H   0  0  0  0  0  0  0  0  0  0  0  0
   -0.4616   -1.0893    0.5050 N   0  0  0  0  0  0  0  0  0  0  0  0
   -0.3406    0.1165   -0.3120 C   0  0  2  0  0  0  0  0  0  0  0  0
    1.1231    0.5475   -0.2860 C   0  0  0  0  0  0  0  0  0  0  0  0
    1.7435    0.8740   -1.2960 O   0  0  0  0  0  0  0  0  0  0  0  0
   -1.2199    1.2631    0.2091 C   0  0  0  0  0  0  0  0  0  0  0  0
   -2.7208    0.9970    0.0542 C   0  0  0  0  0  0  0  0  0  0  0  0
   -3.5487    2.1791    0.5656 C   0  0  0  0  0  0  0  0  0  0  0  0
   -5.0456    1.9032    0.4337 C   0  0  0  0  0  0  0  0  0  0  0  0
   -5.8153    3.0300    0.9472 N   0  0  0  0  0  0  0  0  0  0  0  0
   -1.1097   -1.0554    1.2760 H   0  0  0  0  0  0  0  0  0  0  0  0
   -0.6229   -0.1309   -1.3424 H   0  0  0  0  0  0  0  0  0  0  0  0
   -0.9663    2.1845   -0.3315 H   0  0  0  0  0  0  0  0  0  0  0  0
   -0.9891    1.4611    1.2646 H   0  0  0  0  0  0  0  0  0  0  0  0
   -3.0041    0.0955    0.6092 H   0  0  0  0  0  0  0  0  0  0  0  0
   -2.9539    0.8166   -1.0020 H   0  0  0  0  0  0  0  0  0  0  0  0
   -3.2968    2.3731    1.6158 H   0  0  0  0  0  0  0  0  0  0  0  0
   -3.2869    3.0815   -0.0014 H   0  0  0  0  0  0  0  0  0  0  0  0
   -5.3144    0.9974    0.9881 H   0  0  0  0  0  0  0  0  0  0  0  0
   -5.3077    1.7413   -0.6173 H   0  0  0  0  0  0  0  0  0  0  0  0
   -5.1802    3.7136    1.2877 H   0  0  0  0  0  0  0  0  0  0  0  0
   -6.3612    3.3998    0.2045 H   0  0  0  0  0  0  0  0  0  0  0  0
    1.6583    0.5023    0.9939 N   0  0  0  0  0  0  0  0  0  0  0  0
    3.0317    0.8404    1.2910 C   0  0  2  0  0  0  0  0  0  0  0  0
    3.4862   -0.0230    2.4603 C   0  0  0  0  0  0  0  0  0  0  0  0
    2.7370   -0.3645    3.3731 O   0  0  0  0  0  0  0  0  0  0  0  0
    3.1797    2.3184    1.6168 C   0  0  0  0  0  0  0  0  0  0  0  0
    1.0656    0.2283    1.7718 H   0  0  0  0  0  0  0  0  0  0  0  0
    3.6189    0.5892    0.4009 H   0  0  0  0  0  0  0  0  0  0  0  0
    2.5984    2.5889    2.5059 H   0  0  0  0  0  0  0  0  0  0  0  0
    4.2250    2.5786    1.8137 H   0  0  0  0  0  0  0  0  0  0  0  0
    2.8246    2.9381    0.7863 H   0  0  0  0  0  0  0  0  0  0  0  0
    4.8374   -0.3314    2.3871 N   0  0  0  0  0  0  0  0  0  0  0  0
    5.5168   -1.1038    3.4009 C   0  0  0  0  0  0  0  0  0  0  0  0
    5.3730   -0.0406    1.5745 H   0  0  0  0  0  0  0  0  0  0  0  0
    5.9556   -0.4251    4.1471 H   0  0  0  0  0  0  0  0  0  0  0  0
    4.7979   -1.7748    3.8937 H   0  0  0  0  0  0  0  0  0  0  0  0
    6.3145   -1.7003    2.9341 H   0  0  0  0  0  0  0  0  0  0  0  0
  1  3  1  0  0  0  0
  1  7  1  0  0  0  0
  1  2  2  0  0  0  0
 39 40  1  0  0  0  0
 40 48  1  0  0  0  0
 40 41  2  0  0  0  0
  8  9  1  0  0  0  0
  9 17  1  0  0  0  0
  9 10  2  0  0  0  0
 18 19  1  0  0  0  0
 19 38  1  0  0  0  0
 19 20  2  0  0  0  0
 39 42  1  0  0  0  0
  8 11  1  0  0  0  0
 48 49  1  0  0  0  0
 22 23  1  0  0  0  0
 21 22  1  0  0  0  0
 23 24  1  0  0  0  0
 18 21  1  0  0  0  0
 24 25  1  0  0  0  0
 38 39  1  0  0  0  0
  7  8  1  0  0  0  0
 17 18  1  0  0  0  0
  3  4  1  0  0  0  0
  3  5  1  0  0  0  0
  3  6  1  0  0  0  0
 42 45  1  0  0  0  0
 42 46  1  0  0  0  0
 42 47  1  0  0  0  0
 11 14  1  0  0  0  0
 11 15  1  0  0  0  0
 11 16  1  0  0  0  0
 49 51  1  0  0  0  0
 49 52  1  0  0  0  0
 49 53  1  0  0  0  0
 22 30  1  0  0  0  0
 22 31  1  0  0  0  0
 23 32  1  0  0  0  0
 23 33  1  0  0  0  0
 21 28  1  0  0  0  0
 21 29  1  0  0  0  0
 24 34  1  0  0  0  0
 24 35  1  0  0  0  0
 39 44  1  0  0  0  0
  8 13  1  0  0  0  0
 18 27  1  0  0  0  0
 25 36  1  0  0  0  0
 25 37  1  0  0  0  0
 48 50  1  0  0  0  0
  7 12  1  0  0  0  0
 38 43  1  0  0  0  0
 17 26  1  0  0  0  0
M  END
$$$$

  -OEChem-02062319033D

 53 52  0     1  0  0  0  0  0999 V2000
   -1.0338   -5.6785    0.1476 C   0  0  0  0  0  0  0  0  0  0  0  0
   -2.0514   -5.7797    0.8227 O   0  0  0  0  0  0  0  0  0  0  0  0
   -0.6558   -6.7819   -0.7841 C   0  0  0  0  0  0  0  0  0  0  0  0
   -0.0111   -7.5354   -0.3038 H   0  0  0  0  0  0  0  0  0  0  0  0
   -1.5317   -7.3401   -1.1520 H   0  0  0  0  0  0  0  0  0  0  0  0
   -0.1109   -6.4687   -1.6890 H   0  0  0  0  0  0  0  0  0  0  0  0
   -0.1543   -4.6083    0.1480 N   0  0  0  0  0  0  0  0  0  0  0  0
   -0.3302   -3.4398    0.9696 C   0  0  2  0  0  0  0  0  0  0  0  0
    0.2328   -2.2439    0.2131 C   0  0  0  0  0  0  0  0  0  0  0  0
    1.2097   -2.3192   -0.5294 O   0  0  0  0  0  0  0  0  0  0  0  0
    0.3557   -3.6024    2.3171 C   0  0  0  0  0  0  0  0  0  0  0  0
    0.6584   -4.6506   -0.4643 H   0  0  0  0  0  0  0  0  0  0  0  0
   -1.4091   -3.3101    1.1082 H   0  0  0  0  0  0  0  0  0  0  0  0
    1.4375   -3.7336    2.1985 H   0  0  0  0  0  0  0  0  0  0  0  0
    0.1969   -2.7243    2.9517 H   0  0  0  0  0  0  0  0  0  0  0  0
   -0.0294   -4.4803    2.8470 H   0  0  0  0  0  0  0  0  0  0  0  0
   -0.4616   -1.0893    0.5050 N   0  0  0  0  0  0  0  0  0  0  0  0
   -0.6012   -0.0023   -0.4620 C   0  0  2  0  0  0  0  0  0  0  0  0
    0.8010    0.4870   -0.8131 C   0  0  0  0  0  0  0  0  0  0  0  0
    1.1678    0.6975   -1.9675 O   0  0  0  0  0  0  0  0  0  0  0  0
   -1.4264    1.1681    0.0934 C   0  0  0  0  0  0  0  0  0  0  0  0
   -2.9038    0.8229    0.3075 C   0  0  0  0  0  0  0  0  0  0  0  0
   -3.6834    2.0293    0.8377 C   0  0  0  0  0  0  0  0  0  0  0  0
   -5.1512    1.6777    1.0743 C   0  0  0  0  0  0  0  0  0  0  0  0
   -5.8698    2.8319    1.6007 N   0  0  0  0  0  0  0  0  0  0  0  0
   -0.9313   -0.9767    1.3895 H   0  0  0  0  0  0  0  0  0  0  0  0
   -1.0789   -0.3992   -1.3658 H   0  0  0  0  0  0  0  0  0  0  0  0
   -1.3582    2.0167   -0.6000 H   0  0  0  0  0  0  0  0  0  0  0  0
   -0.9902    1.5175    1.0391 H   0  0  0  0  0  0  0  0  0  0  0  0
   -2.9992   -0.0051    1.0189 H   0  0  0  0  0  0  0  0  0  0  0  0
   -3.3436    0.4908   -0.6406 H   0  0  0  0  0  0  0  0  0  0  0  0
   -3.2274    2.3748    1.7741 H   0  0  0  0  0  0  0  0  0  0  0  0
   -3.6115    2.8558    0.1193 H   0  0  0  0  0  0  0  0  0  0  0  0
   -5.2324    0.8459    1.7825 H   0  0  0  0  0  0  0  0  0  0  0  0
   -5.6195    1.3635    0.1354 H   0  0  0  0  0  0  0  0  0  0  0  0
   -5.2257    3.5808    1.7051 H   0  0  0  0  0  0  0  0  0  0  0  0
   -6.5858    3.0747    0.9564 H   0  0  0  0  0  0  0  0  0  0  0  0
    1.5985    0.6385    0.3129 N   0  0  0  0  0  0  0  0  0  0  0  0
    2.9769    1.0692    0.2555 C   0  0  2  0  0  0  0  0  0  0  0  0
    3.7289    0.3925    1.3940 C   0  0  0  0  0  0  0  0  0  0  0  0
    3.2168    0.1487    2.4846 O   0  0  0  0  0  0  0  0  0  0  0  0
    3.0883    2.5826    0.3544 C   0  0  0  0  0  0  0  0  0  0  0  0
    1.2056    0.4495    1.2302 H   0  0  0  0  0  0  0  0  0  0  0  0
    3.3768    0.7229   -0.7037 H   0  0  0  0  0  0  0  0  0  0  0  0
    2.6926    2.9482    1.3090 H   0  0  0  0  0  0  0  0  0  0  0  0
    4.1310    2.9093    0.2821 H   0  0  0  0  0  0  0  0  0  0  0  0
    2.5224    3.0684   -0.4478 H   0  0  0  0  0  0  0  0  0  0  0  0
    5.0514    0.1319    1.0637 N   0  0  0  0  0  0  0  0  0  0  0  0
    5.9831   -0.4669    1.9908 C   0  0  0  0  0  0  0  0  0  0  0  0
    5.3801    0.3305    0.1234 H   0  0  0  0  0  0  0  0  0  0  0  0
    6.5227    0.3244    2.5317 H   0  0  0  0  0  0  0  0  0  0  0  0
    5.4338   -1.0930    2.7094 H   0  0  0  0  0  0  0  0  0  0  0  0
    6.7022   -1.0887    1.4375 H   0  0  0  0  0  0  0  0  0  0  0  0
  1  3  1  0  0  0  0
  1  7  1  0  0  0  0
  1  2  2  0  0  0  0
 39 40  1  0  0  0  0
 40 48  1  0  0  0  0
 40 41  2  0  0  0  0
  8  9  1  0  0  0  0
  9 17  1  0  0  0  0
  9 10  2  0  0  0  0
 18 19  1  0  0  0  0
 19 38  1  0  0  0  0
 19 20  2  0  0  0  0
 39 42  1  0  0  0  0
  8 11  1  0  0  0  0
 48 49  1  0  0  0  0
 22 23  1  0  0  0  0
 21 22  1  0  0  0  0
 23 24  1  0  0  0  0
 18 21  1  0  0  0  0
 24 25  1  0  0  0  0
 38 39  1  0  0  0  0
  7  8  1  0  0  0  0
 17 18  1  0  0  0  0
  3  4  1  0  0  0  0
  3  5  1  0  0  0  0
  3  6  1  0  0  0  0
 42 45  1  0  0  0  0
 42 46  1  0  0  0  0
 42 47  1  0  0  0  0
 11 14  1  0  0  0  0
 11 15  1  0  0  0  0
 11 16  1  0  0  0  0
 49 51  1  0  0  0  0
 49 52  1  0  0  0  0
 49 53  1  0  0  0  0
 22 30  1  0  0  0  0
 22 31  1  0  0  0  0
 23 32  1  0  0  0  0
 23 33  1  0  0  0  0
 21 28  1  0  0  0  0
 21 29  1  0  0  0  0
 24 34  1  0  0  0  0
 24 35  1  0  0  0  0
 39 44  1  0  0  0  0
  8 13  1  0  0  0  0
 18 27  1  0  0  0  0
 25 36  1  0  0  0  0
 25 37  1  0  0  0  0
 48 50  1  0  0  0  0
  7 12  1  0  0  0  0
 38 43  1  0  0  0  0
 17 26  1  0  0  0  0
M  END
$$$$

  -OEChem-02062319033D

 53 52  0     1  0  0  0  0  0999 V2000
   -1.0338   -5.6785    0.1476 C   0  0  0  0  0  0  0  0  0  0  0  0
   -2.0514   -5.7797    0.8227 O   0  0  0  0  0  0  0  0  0  0  0  0
   -0.6558   -6.7819   -0.7841 C   0  0  0  0  0  0  0  0  0  0  0  0
   -0.0111   -7.5354   -0.3038 H   0  0  0  0  0  0  0  0  0  0  0  0
   -1.5317   -7.3401   -1.1520 H   0  0  0  0  0  0  0  0  0  0  0  0
   -0.1109   -6.4687   -1.6890 H   0  0  0  0  0  0  0  0  0  0  0  0
   -0.1543   -4.6083    0.1480 N   0  0  0  0  0  0  0  0  0  0  0  0
   -0.3302   -3.4398    0.9696 C   0  0  2  0  0  0  0  0  0  0  0  0
    0.2328   -2.2439    0.2131 C   0  0  0  0  0  0  0  0  0  0  0  0
    1.2097   -2.3192   -0.5294 O   0  0  0  0  0  0  0  0  0  0  0  0
    0.3557   -3.6024    2.3171 C   0  0  0  0  0  0  0  0  0  0  0  0
    0.6584   -4.6506   -0.4643 H   0  0  0  0  0  0  0  0  0  0  0  0
   -1.4091   -3.3101    1.1082 H   0  0  0  0  0  0  0  0  0  0  0  0
    1.4375   -3.7336    2.1985 H   0  0  0  0  0  0  0  0  0  0  0  0
    0.1969   -2.7243    2.9517 H   0  0  0  0  0  0  0  0  0  0  0  0
   -0.0294   -4.4803    2.8470 H   0  0  0  0  0  0  0  0  0  0  0  0
   -0.4616   -1.0893    0.5050 N   0  0  0  0  0  0  0  0  0  0  0  0
   -0.8789   -0.1509   -0.5349 C   0  0  2  0  0  0  0  0  0  0  0  0
    0.3790    0.3422   -1.2444 C   0  0  0  0  0  0  0  0  0  0  0  0
    0.4758    0.4080   -2.4682 O   0  0  0  0  0  0  0  0  0  0  0  0
   -1.6457    1.0500    0.0388 C   0  0  0  0  0  0  0  0  0  0  0  0
   -3.0160    0.6778    0.6144 C   0  0  0  0  0  0  0  0  0  0  0  0
   -3.7463    1.9127    1.1492 C   0  0  0  0  0  0  0  0  0  0  0  0
   -5.1020    1.5376    1.7453 C   0  0  0  0  0  0  0  0  0  0  0  0
   -5.7700    2.7229    2.2695 N   0  0  0  0  0  0  0  0  0  0  0  0
   -0.7386   -0.8762    1.4503 H   0  0  0  0  0  0  0  0  0  0  0  0
   -1.5096   -0.6864   -1.2547 H   0  0  0  0  0  0  0  0  0  0  0  0
   -1.7858    1.7981   -0.7526 H   0  0  0  0  0  0  0  0  0  0  0  0
   -1.0432    1.5425    0.8141 H   0  0  0  0  0  0  0  0  0  0  0  0
   -2.9001   -0.0486    1.4267 H   0  0  0  0  0  0  0  0  0  0  0  0
   -3.6237    0.2020   -0.1646 H   0  0  0  0  0  0  0  0  0  0  0  0
   -3.1262    2.4009    1.9117 H   0  0  0  0  0  0  0  0  0  0  0  0
   -3.8865    2.6357    0.3356 H   0  0  0  0  0  0  0  0  0  0  0  0
   -4.9726    0.8076    2.5518 H   0  0  0  0  0  0  0  0  0  0  0  0
   -5.7367    1.0797    0.9793 H   0  0  0  0  0  0  0  0  0  0  0  0
   -5.1718    3.5044    2.1354 H   0  0  0  0  0  0  0  0  0  0  0  0
   -6.6219    2.8463    1.7738 H   0  0  0  0  0  0  0  0  0  0  0  0
    1.3857    0.6780   -0.3497 N   0  0  0  0  0  0  0  0  0  0  0  0
    2.6870    1.1522   -0.7625 C   0  0  2  0  0  0  0  0  0  0  0  0
    3.7093    0.6681    0.2573 C   0  0  0  0  0  0  0  0  0  0  0  0
    3.4596    0.5548    1.4556 O   0  0  0  0  0  0  0  0  0  0  0  0
    2.7120    2.6683   -0.8796 C   0  0  0  0  0  0  0  0  0  0  0  0
    1.2113    0.6002    0.6478 H   0  0  0  0  0  0  0  0  0  0  0  0
    2.8962    0.6948   -1.7357 H   0  0  0  0  0  0  0  0  0  0  0  0
    2.5044    3.1443    0.0857 H   0  0  0  0  0  0  0  0  0  0  0  0
    3.6901    3.0239   -1.2199 H   0  0  0  0  0  0  0  0  0  0  0  0
    1.9558    3.0167   -1.5914 H   0  0  0  0  0  0  0  0  0  0  0  0
    4.9458    0.4185   -0.3213 N   0  0  0  0  0  0  0  0  0  0  0  0
    6.0928   -0.0100    0.4447 C   0  0  0  0  0  0  0  0  0  0  0  0
    5.0520    0.5002   -1.3282 H   0  0  0  0  0  0  0  0  0  0  0  0
    6.6793    0.8688    0.7506 H   0  0  0  0  0  0  0  0  0  0  0  0
    5.7540   -0.5539    1.3388 H   0  0  0  0  0  0  0  0  0  0  0  0
    6.7188   -0.6719   -0.1718 H   0  0  0  0  0  0  0  0  0  0  0  0
  1  3  1  0  0  0  0
  1  7  1  0  0  0  0
  1  2  2  0  0  0  0
 39 40  1  0  0  0  0
 40 48  1  0  0  0  0
 40 41  2  0  0  0  0
  8  9  1  0  0  0  0
  9 17  1  0  0  0  0
  9 10  2  0  0  0  0
 18 19  1  0  0  0  0
 19 38  1  0  0  0  0
 19 20  2  0  0  0  0
 39 42  1  0  0  0  0
  8 11  1  0  0  0  0
 48 49  1  0  0  0  0
 22 23  1  0  0  0  0
 21 22  1  0  0  0  0
 23 24  1  0  0  0  0
 18 21  1  0  0  0  0
 24 25  1  0  0  0  0
 38 39  1  0  0  0  0
  7  8  1  0  0  0  0
 17 18  1  0  0  0  0
  3  4  1  0  0  0  0
  3  5  1  0  0  0  0
  3  6  1  0  0  0  0
 42 45  1  0  0  0  0
 42 46  1  0  0  0  0
 42 47  1  0  0  0  0
 11 14  1  0  0  0  0
 11 15  1  0  0  0  0
 11 16  1  0  0  0  0
 49 51  1  0  0  0  0
 49 52  1  0  0  0  0
 49 53  1  0  0  0  0
 22 30  1  0  0  0  0
 22 31  1  0  0  0  0
 23 32  1  0  0  0  0
 23 33  1  0  0  0  0
 21 28  1  0  0  0  0
 21 29  1  0  0  0  0
 24 34  1  0  0  0  0
 24 35  1  0  0  0  0
 39 44  1  0  0  0  0
  8 13  1  0  0  0  0
 18 27  1  0  0  0  0
 25 36  1  0  0  0  0
 25 37  1  0  0  0  0
 48 50  1  0  0  0  0
  7 12  1  0  0  0  0
 38 43  1  0  0  0  0
 17 26  1  0  0  0  0
M  END
$$$$

  -OEChem-02062319033D

 53 52  0     1  0  0  0  0  0999 V2000
   -1.0338   -5.6785    0.1476 C   0  0  0  0  0  0  0  0  0  0  0  0
   -2.0514   -5.7797    0.8227 O   0  0  0  0  0  0  0  0  0  0  0  0
   -0.6558   -6.7819   -0.7841 C   0  0  0  0  0  0  0  0  0  0  0  0
   -0.0111   -7.5354   -0.3038 H   0  0  0  0  0  0  0  0  0  0  0  0
   -1.5317   -7.3401   -1.1520 H   0  0  0  0  0  0  0  0  0  0  0  0
   -0.1109   -6.4687   -1.6890 H   0  0  0  0  0  0  0  0  0  0  0  0
   -0.1543   -4.6083    0.1480 N   0  0  0  0  0  0  0  0  0  0  0  0
   -0.3302   -3.4398    0.9696 C   0  0  2  0  0  0  0  0  0  0  0  0
    0.2328   -2.2439    0.2131 C   0  0  0  0  0  0  0  0  0  0  0  0
    1.2097   -2.3192   -0.5294 O   0  0  0  0  0  0  0  0  0  0  0  0
    0.3557   -3.6024    2.3171 C   0  0  0  0  0  0  0  0  0  0  0  0
    0.6584   -4.6506   -0.4643 H   0  0  0  0  0  0  0  0  0  0  0  0
   -1.4091   -3.3101    1.1082 H   0  0  0  0  0  0  0  0  0  0  0  0
    1.4375   -3.7336    2.1985 H   0  0  0  0  0  0  0  0  0  0  0  0
    0.1969   -2.7243    2.9517 H   0  0  0  0  0  0  0  0  0  0  0  0
   -0.0294   -4.4803    2.8470 H   0  0  0  0  0  0  0  0  0  0  0  0
   -0.4616   -1.0893    0.5050 N   0  0  0  0  0  0  0  0  0  0  0  0
   -1.1549   -0.3192   -0.5258 C   0  0  2  0  0  0  0  0  0  0  0  0
   -0.1143    0.1230   -1.5507 C   0  0  0  0  0  0  0  0  0  0  0  0
   -0.2853    0.0251   -2.7642 O   0  0  0  0  0  0  0  0  0  0  0  0
   -1.8630    0.9168    0.0490 C   0  0  0  0  0  0  0  0  0  0  0  0
   -3.0500    0.5715    0.9542 C   0  0  0  0  0  0  0  0  0  0  0  0
   -3.7331    1.8373    1.4790 C   0  0  0  0  0  0  0  0  0  0  0  0
   -4.9014    1.4925    2.4011 C   0  0  0  0  0  0  0  0  0  0  0  0
   -5.5227    2.7102    2.9081 N   0  0  0  0  0  0  0  0  0  0  0  0
   -0.5448   -0.7606    1.4541 H   0  0  0  0  0  0  0  0  0  0  0  0
   -1.8859   -0.9729   -1.0165 H   0  0  0  0  0  0  0  0  0  0  0  0
   -2.2199    1.5437   -0.7788 H   0  0  0  0  0  0  0  0  0  0  0  0
   -1.1446    1.5344    0.6051 H   0  0  0  0  0  0  0  0  0  0  0  0
   -2.7136   -0.0320    1.8047 H   0  0  0  0  0  0  0  0  0  0  0  0
   -3.7754   -0.0303    0.3936 H   0  0  0  0  0  0  0  0  0  0  0  0
   -3.0001    2.4495    2.0193 H   0  0  0  0  0  0  0  0  0  0  0  0
   -4.0932    2.4362    0.6329 H   0  0  0  0  0  0  0  0  0  0  0  0
   -4.5529    0.8851    3.2436 H   0  0  0  0  0  0  0  0  0  0  0  0
   -5.6515    0.9090    1.8569 H   0  0  0  0  0  0  0  0  0  0  0  0
   -5.0223    3.4896    2.5494 H   0  0  0  0  0  0  0  0  0  0  0  0
   -6.4670    2.7303    2.6010 H   0  0  0  0  0  0  0  0  0  0  0  0
    1.0343    0.6182   -0.9488 N   0  0  0  0  0  0  0  0  0  0  0  0
    2.1817    1.0838   -1.6939 C   0  0  2  0  0  0  0  0  0  0  0  0
    3.4289    0.7850   -0.8724 C   0  0  0  0  0  0  0  0  0  0  0  0
    3.4487    0.8263    0.3560 O   0  0  0  0  0  0  0  0  0  0  0  0
    2.0762    2.5695   -2.0011 C   0  0  0  0  0  0  0  0  0  0  0  0
    1.0824    0.6701    0.0644 H   0  0  0  0  0  0  0  0  0  0  0  0
    2.2099    0.5067   -2.6246 H   0  0  0  0  0  0  0  0  0  0  0  0
    2.0468    3.1640   -1.0807 H   0  0  0  0  0  0  0  0  0  0  0  0
    2.9323    2.9146   -2.5902 H   0  0  0  0  0  0  0  0  0  0  0  0
    1.1635    2.7867   -2.5664 H   0  0  0  0  0  0  0  0  0  0  0  0
    4.5279    0.5091   -1.6737 N   0  0  0  0  0  0  0  0  0  0  0  0
    5.8386    0.2357   -1.1321 C   0  0  0  0  0  0  0  0  0  0  0  0
    4.4111    0.4568   -2.6814 H   0  0  0  0  0  0  0  0  0  0  0  0
    6.4146    1.1711   -1.0747 H   0  0  0  0  0  0  0  0  0  0  0  0
    5.7366   -0.1943   -0.1248 H   0  0  0  0  0  0  0  0  0  0  0  0
    6.3631   -0.4782   -1.7842 H   0  0  0  0  0  0  0  0  0  0  0  0
  1  3  1  0  0  0  0
  1  7  1  0  0  0  0
  1  2  2  0  0  0  0
 39 40  1  0  0  0  0
 40 48  1  0  0  0  0
 40 41  2  0  0  0  0
  8  9  1  0  0  0  0
  9 17  1  0  0  0  0
  9 10  2  0  0  0  0
 18 19  1  0  0  0  0
 19 38  1  0  0  0  0
 19 20  2  0  0  0  0
 39 42  1  0  0  0  0
  8 11  1  0  0  0  0
 48 49  1  0  0  0  0
 22 23  1  0  0  0  0
 21 22  1  0  0  0  0
 23 24  1  0  0  0  0
 18 21  1  0  0  0  0
 24 25  1  0  0  0  0
 38 39  1  0  0  0  0
  7  8  1  0  0  0  0
 17 18  1  0  0  0  0
  3  4  1  0  0  0  0
  3  5  1  0  0  0  0
  3  6  1  0  0  0  0
 42 45  1  0  0  0  0
 42 46  1  0  0  0  0
 42 47  1  0  0  0  0
 11 14  1  0  0  0  0
 11 15  1  0  0  0  0
 11 16  1  0  0  0  0
 49 51  1  0  0  0  0
 49 52  1  0  0  0  0
 49 53  1  0  0  0  0
 22 30  1  0  0  0  0
 22 31  1  0  0  0  0
 23 32  1  0  0  0  0
 23 33  1  0  0  0  0
 21 28  1  0  0  0  0
 21 29  1  0  0  0  0
 24 34  1  0  0  0  0
 24 35  1  0  0  0  0
 39 44  1  0  0  0  0
  8 13  1  0  0  0  0
 18 27  1  0  0  0  0
 25 36  1  0  0  0  0
 25 37  1  0  0  0  0
 48 50  1  0  0  0  0
  7 12  1  0  0  0  0
 38 43  1  0  0  0  0
 17 26  1  0  0  0  0
M  END
$$$$

  -OEChem-02062319033D

 53 52  0     1  0  0  0  0  0999 V2000
   -1.0338   -5.6785    0.1476 C   0  0  0  0  0  0  0  0  0  0  0  0
   -2.0514   -5.7797    0.8227 O   0  0  0  0  0  0  0  0  0  0  0  0
   -0.6558   -6.7819   -0.7841 C   0  0  0  0  0  0  0  0  0  0  0  0
   -0.0111   -7.5354   -0.3038 H   0  0  0  0  0  0  0  0  0  0  0  0
   -1.5317   -7.3401   -1.1520 H   0  0  0  0  0  0  0  0  0  0  0  0
   -0.1109   -6.4687   -1.6890 H   0  0  0  0  0  0  0  0  0  0  0  0
   -0.1543   -4.6083    0.1480 N   0  0  0  0  0  0  0  0  0  0  0  0
   -0.3302   -3.4398    0.9696 C   0  0  2  0  0  0  0  0  0  0  0  0
    0.2328   -2.2439    0.2131 C   0  0  0  0  0  0  0  0  0  0  0  0
    1.2097   -2.3192   -0.5294 O   0  0  0  0  0  0  0  0  0  0  0  0
    0.3557   -3.6024    2.3171 C   0  0  0  0  0  0  0  0  0  0  0  0
    0.6584   -4.6506   -0.4643 H   0  0  0  0  0  0  0  0  0  0  0  0
   -1.4091   -3.3101    1.1082 H   0  0  0  0  0  0  0  0  0  0  0  0
    1.4375   -3.7336    2.1985 H   0  0  0  0  0  0  0  0  0  0  0  0
    0.1969   -2.7243    2.9517 H   0  0  0  0  0  0  0  0  0  0  0  0
   -0.0294   -4.4803    2.8470 H   0  0  0  0  0  0  0  0  0  0  0  0
   -0.4616   -1.0893    0.5050 N   0  0  0  0  0  0  0  0  0  0  0  0
   -1.4102   -0.4956   -0.4351 C   0  0  2  0  0  0  0  0  0  0  0  0
   -0.6451   -0.1557   -1.7111 C   0  0  0  0  0  0  0  0  0  0  0  0
   -1.0637   -0.4251   -2.8352 O   0  0  0  0  0  0  0  0  0  0  0  0
   -2.0633    0.7775    0.1233 C   0  0  0  0  0  0  0  0  0  0  0  0
   -3.0033    0.5112    1.3036 C   0  0  0  0  0  0  0  0  0  0  0  0
   -3.6448    1.8081    1.8045 C   0  0  0  0  0  0  0  0  0  0  0  0
   -4.5629    1.5454    2.9970 C   0  0  0  0  0  0  0  0  0  0  0  0
   -5.1446    2.7948    3.4730 N   0  0  0  0  0  0  0  0  0  0  0  0
   -0.3631   -0.6379    1.4007 H   0  0  0  0  0  0  0  0  0  0  0  0
   -2.1820   -1.2392   -0.6675 H   0  0  0  0  0  0  0  0  0  0  0  0
   -2.6309    1.2707   -0.6768 H   0  0  0  0  0  0  0  0  0  0  0  0
   -1.2874    1.4937    0.4262 H   0  0  0  0  0  0  0  0  0  0  0  0
   -2.4525    0.0435    2.1273 H   0  0  0  0  0  0  0  0  0  0  0  0
   -3.7881   -0.1902    0.9959 H   0  0  0  0  0  0  0  0  0  0  0  0
   -2.8576    2.5175    2.0895 H   0  0  0  0  0  0  0  0  0  0  0  0
   -4.2175    2.2710    0.9908 H   0  0  0  0  0  0  0  0  0  0  0  0
   -4.0017    1.0732    3.8107 H   0  0  0  0  0  0  0  0  0  0  0  0
   -5.3697    0.8633    2.7083 H   0  0  0  0  0  0  0  0  0  0  0  0
   -4.7873    3.5375    2.9188 H   0  0  0  0  0  0  0  0  0  0  0  0
   -6.1318    2.7346    3.3815 H   0  0  0  0  0  0  0  0  0  0  0  0
    0.5683    0.4630   -1.4434 N   0  0  0  0  0  0  0  0  0  0  0  0
    1.4955    0.8686   -2.4751 C   0  0  2  0  0  0  0  0  0  0  0  0
    2.9067    0.7354   -1.9181 C   0  0  0  0  0  0  0  0  0  0  0  0
    3.1850    0.9446   -0.7391 O   0  0  0  0  0  0  0  0  0  0  0  0
    1.2245    2.2930   -2.9338 C   0  0  0  0  0  0  0  0  0  0  0  0
    0.8275    0.6545   -0.4802 H   0  0  0  0  0  0  0  0  0  0  0  0
    1.3645    0.1716   -3.3100 H   0  0  0  0  0  0  0  0  0  0  0  0
    1.3508    3.0058   -2.1107 H   0  0  0  0  0  0  0  0  0  0  0  0
    1.9094    2.5889   -3.7353 H   0  0  0  0  0  0  0  0  0  0  0  0
    0.1995    2.3940   -3.3065 H   0  0  0  0  0  0  0  0  0  0  0  0
    3.8261    0.3974   -2.9012 N   0  0  0  0  0  0  0  0  0  0  0  0
    5.2378    0.2536   -2.6322 C   0  0  0  0  0  0  0  0  0  0  0  0
    3.5011    0.2034   -3.8438 H   0  0  0  0  0  0  0  0  0  0  0  0
    5.7467    1.2106   -2.8199 H   0  0  0  0  0  0  0  0  0  0  0  0
    5.3829   -0.0388   -1.5817 H   0  0  0  0  0  0  0  0  0  0  0  0
    5.6593   -0.5208   -3.2899 H   0  0  0  0  0  0  0  0  0  0  0  0
  1  3  1  0  0  0  0
  1  7  1  0  0  0  0
  1  2  2  0  0  0  0
 39 40  1  0  0  0  0
 40 48  1  0  0  0  0
 40 41  2  0  0  0  0
  8  9  1  0  0  0  0
  9 17  1  0  0  0  0
  9 10  2  0  0  0  0
 18 19  1  0  0  0  0
 19 38  1  0  0  0  0
 19 20  2  0  0  0  0
 39 42  1  0  0  0  0
  8 11  1  0  0  0  0
 48 49  1  0  0  0  0
 22 23  1  0  0  0  0
 21 22  1  0  0  0  0
 23 24  1  0  0  0  0
 18 21  1  0  0  0  0
 24 25  1  0  0  0  0
 38 39  1  0  0  0  0
  7  8  1  0  0  0  0
 17 18  1  0  0  0  0
  3  4  1  0  0  0  0
  3  5  1  0  0  0  0
  3  6  1  0  0  0  0
 42 45  1  0  0  0  0
 42 46  1  0  0  0  0
 42 47  1  0  0  0  0
 11 14  1  0  0  0  0
 11 15  1  0  0  0  0
 11 16  1  0  0  0  0
 49 51  1  0  0  0  0
 49 52  1  0  0  0  0
 49 53  1  0  0  0  0
 22 30  1  0  0  0  0
 22 31  1  0  0  0  0
 23 32  1  0  0  0  0
 23 33  1  0  0  0  0
 21 28  1  0  0  0  0
 21 29  1  0  0  0  0
 24 34  1  0  0  0  0
 24 35  1  0  0  0  0
 39 44  1  0  0  0  0
  8 13  1  0  0  0  0
 18 27  1  0  0  0  0
 25 36  1  0  0  0  0
 25 37  1  0  0  0  0
 48 50  1  0  0  0  0
  7 12  1  0  0  0  0
 38 43  1  0  0  0  0
 17 26  1  0  0  0  0
M  END
$$$$

  -OEChem-02062319033D

 53 52  0     1  0  0  0  0  0999 V2000
   -1.0338   -5.6785    0.1476 C   0  0  0  0  0  0  0  0  0  0  0  0
   -2.0514   -5.7797    0.8227 O   0  0  0  0  0  0  0  0  0  0  0  0
   -0.6558   -6.7819   -0.7841 C   0  0  0  0  0  0  0  0  0  0  0  0
   -0.0111   -7.5354   -0.3038 H   0  0  0  0  0  0  0  0  0  0  0  0
   -1.5317   -7.3401   -1.1520 H   0  0  0  0  0  0  0  0  0  0  0  0
   -0.1109   -6.4687   -1.6890 H   0  0  0  0  0  0  0  0  0  0  0  0
   -0.1543   -4.6083    0.1480 N   0  0  0  0  0  0  0  0  0  0  0  0
   -0.3302   -3.4398    0.9696 C   0  0  2  0  0  0  0  0  0  0  0  0
    0.2328   -2.2439    0.2131 C   0  0  0  0  0  0  0  0  0  0  0  0
    1.2097   -2.3192   -0.5294 O   0  0  0  0  0  0  0  0  0  0  0  0
    0.3557   -3.6024    2.3171 C   0  0  0  0  0  0  0  0  0  0  0  0
    0.6584   -4.6506   -0.4643 H   0  0  0  0  0  0  0  0  0  0  0  0
   -1.4091   -3.3101    1.1082 H   0  0  0  0  0  0  0  0  0  0  0  0
    1.4375   -3.7336    2.1985 H   0  0  0  0  0  0  0  0  0  0  0  0
    0.1969   -2.7243    2.9517 H   0  0  0  0  0  0  0  0  0  0  0  0
   -0.0294   -4.4803    2.8470 H   0  0  0  0  0  0  0  0  0  0  0  0
   -0.4616   -1.0893    0.5050 N   0  0  0  0  0  0  0  0  0  0  0  0
   -1.6275   -0.6682   -0.2693 C   0  0  2  0  0  0  0  0  0  0  0  0
   -1.1773   -0.4749   -1.7145 C   0  0  0  0  0  0  0  0  0  0  0  0
   -1.8062   -0.9118   -2.6764 O   0  0  0  0  0  0  0  0  0  0  0  0
   -2.2331    0.6417    0.2566 C   0  0  0  0  0  0  0  0  0  0  0  0
   -2.8792    0.5011    1.6388 C   0  0  0  0  0  0  0  0  0  0  0  0
   -3.4873    1.8272    2.1035 C   0  0  0  0  0  0  0  0  0  0  0  0
   -4.1098    1.6927    3.4923 C   0  0  0  0  0  0  0  0  0  0  0  0
   -4.6616    2.9708    3.9256 N   0  0  0  0  0  0  0  0  0  0  0  0
   -0.2059   -0.5163    1.2937 H   0  0  0  0  0  0  0  0  0  0  0  0
   -2.3778   -1.4672   -0.2316 H   0  0  0  0  0  0  0  0  0  0  0  0
   -2.9909    0.9978   -0.4536 H   0  0  0  0  0  0  0  0  0  0  0  0
   -1.4619    1.4233    0.2896 H   0  0  0  0  0  0  0  0  0  0  0  0
   -2.1344    0.1728    2.3725 H   0  0  0  0  0  0  0  0  0  0  0  0
   -3.6610   -0.2669    1.6014 H   0  0  0  0  0  0  0  0  0  0  0  0
   -2.7084    2.6001    2.1176 H   0  0  0  0  0  0  0  0  0  0  0  0
   -4.2509    2.1512    1.3850 H   0  0  0  0  0  0  0  0  0  0  0  0
   -3.3567    1.3590    4.2145 H   0  0  0  0  0  0  0  0  0  0  0  0
   -4.9103    0.9456    3.4756 H   0  0  0  0  0  0  0  0  0  0  0  0
   -4.4829    3.6449    3.2184 H   0  0  0  0  0  0  0  0  0  0  0  0
   -5.6391    2.8589    4.0622 H   0  0  0  0  0  0  0  0  0  0  0  0
    0.0195    0.2230   -1.8000 N   0  0  0  0  0  0  0  0  0  0  0  0
    0.6752    0.5213   -3.0529 C   0  0  2  0  0  0  0  0  0  0  0  0
    2.1784    0.5225   -2.8084 C   0  0  0  0  0  0  0  0  0  0  0  0
    2.6864    0.9016   -1.7552 O   0  0  0  0  0  0  0  0  0  0  0  0
    0.2147    1.8577   -3.6140 C   0  0  0  0  0  0  0  0  0  0  0  0
    0.4641    0.5545   -0.9491 H   0  0  0  0  0  0  0  0  0  0  0  0
    0.4178   -0.2878   -3.7451 H   0  0  0  0  0  0  0  0  0  0  0  0
    0.4640    2.6806   -2.9342 H   0  0  0  0  0  0  0  0  0  0  0  0
    0.6909    2.0689   -4.5771 H   0  0  0  0  0  0  0  0  0  0  0  0
   -0.8707    1.8654   -3.7612 H   0  0  0  0  0  0  0  0  0  0  0  0
    2.8883    0.0909   -3.9202 N   0  0  0  0  0  0  0  0  0  0  0  0
    4.3314    0.0424   -3.9532 C   0  0  0  0  0  0  0  0  0  0  0  0
    2.3841   -0.2427   -4.7364 H   0  0  0  0  0  0  0  0  0  0  0  0
    4.7211    0.9847   -4.3659 H   0  0  0  0  0  0  0  0  0  0  0  0
    4.7168   -0.0978   -2.9325 H   0  0  0  0  0  0  0  0  0  0  0  0
    4.6556   -0.7968   -4.5861 H   0  0  0  0  0  0  0  0  0  0  0  0
  1  3  1  0  0  0  0
  1  7  1  0  0  0  0
  1  2  2  0  0  0  0
 39 40  1  0  0  0  0
 40 48  1  0  0  0  0
 40 41  2  0  0  0  0
  8  9  1  0  0  0  0
  9 17  1  0  0  0  0
  9 10  2  0  0  0  0
 18 19  1  0  0  0  0
 19 38  1  0  0  0  0
 19 20  2  0  0  0  0
 39 42  1  0  0  0  0
  8 11  1  0  0  0  0
 48 49  1  0  0  0  0
 22 23  1  0  0  0  0
 21 22  1  0  0  0  0
 23 24  1  0  0  0  0
 18 21  1  0  0  0  0
 24 25  1  0  0  0  0
 38 39  1  0  0  0  0
  7  8  1  0  0  0  0
 17 18  1  0  0  0  0
  3  4  1  0  0  0  0
  3  5  1  0  0  0  0
  3  6  1  0  0  0  0
 42 45  1  0  0  0  0
 42 46  1  0  0  0  0
 42 47  1  0  0  0  0
 11 14  1  0  0  0  0
 11 15  1  0  0  0  0
 11 16  1  0  0  0  0
 49 51  1  0  0  0  0
 49 52  1  0  0  0  0
 49 53  1  0  0  0  0
 22 30  1  0  0  0  0
 22 31  1  0  0  0  0
 23 32  1  0  0  0  0
 23 33  1  0  0  0  0
 21 28  1  0  0  0  0
 21 29  1  0  0  0  0
 24 34  1  0  0  0  0
 24 35  1  0  0  0  0
 39 44  1  0  0  0  0
  8 13  1  0  0  0  0
 18 27  1  0  0  0  0
 25 36  1  0  0  0  0
 25 37  1  0  0  0  0
 48 50  1  0  0  0  0
  7 12  1  0  0  0  0
 38 43  1  0  0  0  0
 17 26  1  0  0  0  0
M  END
$$$$

  -OEChem-02062319033D

 53 52  0     1  0  0  0  0  0999 V2000
   -1.0338   -5.6785    0.1476 C   0  0  0  0  0  0  0  0  0  0  0  0
   -2.0514   -5.7797    0.8227 O   0  0  0  0  0  0  0  0  0  0  0  0
   -0.6558   -6.7819   -0.7841 C   0  0  0  0  0  0  0  0  0  0  0  0
   -0.0111   -7.5354   -0.3038 H   0  0  0  0  0  0  0  0  0  0  0  0
   -1.5317   -7.3401   -1.1520 H   0  0  0  0  0  0  0  0  0  0  0  0
   -0.1109   -6.4687   -1.6890 H   0  0  0  0  0  0  0  0  0  0  0  0
   -0.1543   -4.6083    0.1480 N   0  0  0  0  0  0  0  0  0  0  0  0
   -0.3302   -3.4398    0.9696 C   0  0  2  0  0  0  0  0  0  0  0  0
    0.2328   -2.2439    0.2131 C   0  0  0  0  0  0  0  0  0  0  0  0
    1.2097   -2.3192   -0.5294 O   0  0  0  0  0  0  0  0  0  0  0  0
    0.3557   -3.6024    2.3171 C   0  0  0  0  0  0  0  0  0  0  0  0
    0.6584   -4.6506   -0.4643 H   0  0  0  0  0  0  0  0  0  0  0  0
   -1.4091   -3.3101    1.1082 H   0  0  0  0  0  0  0  0  0  0  0  0
    1.4375   -3.7336    2.1985 H   0  0  0  0  0  0  0  0  0  0  0  0
    0.1969   -2.7243    2.9517 H   0  0  0  0  0  0  0  0  0  0  0  0
   -0.0294   -4.4803    2.8470 H   0  0  0  0  0  0  0  0  0  0  0  0
   -0.4616   -1.0893    0.5050 N   0  0  0  0  0  0  0  0  0  0  0  0
   -1.7920   -0.8253   -0.0395 C   0  0  2  0  0  0  0  0  0  0  0  0
   -1.6747   -0.8129   -1.5609 C   0  0  0  0  0  0  0  0  0  0  0  0
   -2.4623   -1.4020   -2.2985 O   0  0  0  0  0  0  0  0  0  0  0  0
   -2.3607    0.5186    0.4399 C   0  0  0  0  0  0  0  0  0  0  0  0
   -2.6861    0.5419    1.9370 C   0  0  0  0  0  0  0  0  0  0  0  0
   -3.2714    1.8933    2.3558 C   0  0  0  0  0  0  0  0  0  0  0  0
   -3.5728    1.9244    3.8532 C   0  0  0  0  0  0  0  0  0  0  0  0
   -4.1066    3.2263    4.2352 N   0  0  0  0  0  0  0  0  0  0  0  0
   -0.0840   -0.4042    1.1404 H   0  0  0  0  0  0  0  0  0  0  0  0
   -2.4599   -1.6413    0.2617 H   0  0  0  0  0  0  0  0  0  0  0  0
   -3.2753    0.7435   -0.1244 H   0  0  0  0  0  0  0  0  0  0  0  0
   -1.6562    1.3279    0.2047 H   0  0  0  0  0  0  0  0  0  0  0  0
   -1.7812    0.3471    2.5235 H   0  0  0  0  0  0  0  0  0  0  0  0
   -3.4029   -0.2550    2.1686 H   0  0  0  0  0  0  0  0  0  0  0  0
   -2.5628    2.6917    2.1017 H   0  0  0  0  0  0  0  0  0  0  0  0
   -4.1911    2.0851    1.7887 H   0  0  0  0  0  0  0  0  0  0  0  0
   -2.6618    1.7231    4.4275 H   0  0  0  0  0  0  0  0  0  0  0  0
   -4.3048    1.1503    4.1064 H   0  0  0  0  0  0  0  0  0  0  0  0
   -4.1299    3.8043    3.4278 H   0  0  0  0  0  0  0  0  0  0  0  0
   -5.0224    3.0946    4.5967 H   0  0  0  0  0  0  0  0  0  0  0  0
   -0.5748   -0.0853   -1.9941 N   0  0  0  0  0  0  0  0  0  0  0  0
   -0.2234    0.0656   -3.3879 C   0  0  2  0  0  0  0  0  0  0  0  0
    1.2936    0.1608   -3.4828 C   0  0  0  0  0  0  0  0  0  0  0  0
    1.9869    0.7003   -2.6230 O   0  0  0  0  0  0  0  0  0  0  0  0
   -0.8842    1.2932   -3.9954 C   0  0  0  0  0  0  0  0  0  0  0  0
    0.0169    0.3769   -1.3102 H   0  0  0  0  0  0  0  0  0  0  0  0
   -0.5659   -0.8402   -3.9002 H   0  0  0  0  0  0  0  0  0  0  0  0
   -0.5533    2.2105   -3.4949 H   0  0  0  0  0  0  0  0  0  0  0  0
   -0.6400    1.3901   -5.0584 H   0  0  0  0  0  0  0  0  0  0  0  0
   -1.9739    1.2368   -3.8995 H   0  0  0  0  0  0  0  0  0  0  0  0
    1.7783   -0.3893   -4.6612 N   0  0  0  0  0  0  0  0  0  0  0  0
    3.1810   -0.3834   -5.0052 C   0  0  0  0  0  0  0  0  0  0  0  0
    1.1360   -0.8513   -5.2982 H   0  0  0  0  0  0  0  0  0  0  0  0
    3.4077    0.5087   -5.6075 H   0  0  0  0  0  0  0  0  0  0  0  0
    3.7839   -0.3675   -4.0852 H   0  0  0  0  0  0  0  0  0  0  0  0
    3.4201   -1.2874   -5.5846 H   0  0  0  0  0  0  0  0  0  0  0  0
  1  3  1  0  0  0  0
  1  7  1  0  0  0  0
  1  2  2  0  0  0  0
 39 40  1  0  0  0  0
 40 48  1  0  0  0  0
 40 41  2  0  0  0  0
  8  9  1  0  0  0  0
  9 17  1  0  0  0  0
  9 10  2  0  0  0  0
 18 19  1  0  0  0  0
 19 38  1  0  0  0  0
 19 20  2  0  0  0  0
 39 42  1  0  0  0  0
  8 11  1  0  0  0  0
 48 49  1  0  0  0  0
 22 23  1  0  0  0  0
 21 22  1  0  0  0  0
 23 24  1  0  0  0  0
 18 21  1  0  0  0  0
 24 25  1  0  0  0  0
 38 39  1  0  0  0  0
  7  8  1  0  0  0  0
 17 18  1  0  0  0  0
  3  4  1  0  0  0  0
  3  5  1  0  0  0  0
  3  6  1  0  0  0  0
 42 45  1  0  0  0  0
 42 46  1  0  0  0  0
 42 47  1  0  0  0  0
 11 14  1  0  0  0  0
 11 15  1  0  0  0  0
 11 16  1  0  0  0  0
 49 51  1  0  0  0  0
 49 52  1  0  0  0  0
 49 53  1  0  0  0  0
 22 30  1  0  0  0  0
 22 31  1  0  0  0  0
 23 32  1  0  0  0  0
 23 33  1  0  0  0  0
 21 28  1  0  0  0  0
 21 29  1  0  0  0  0
 24 34  1  0  0  0  0
 24 35  1  0  0  0  0
 39 44  1  0  0  0  0
  8 13  1  0  0  0  0
 18 27  1  0  0  0  0
 25 36  1  0  0  0  0
 25 37  1  0  0  0  0
 48 50  1  0  0  0  0
  7 12  1  0  0  0  0
 38 43  1  0  0  0  0
 17 26  1  0  0  0  0
M  END
$$$$

  -OEChem-02062319033D

 53 52  0     1  0  0  0  0  0999 V2000
   -1.0338   -5.6785    0.1476 C   0  0  0  0  0  0  0  0  0  0  0  0
   -2.0514   -5.7797    0.8227 O   0  0  0  0  0  0  0  0  0  0  0  0
   -0.6558   -6.7819   -0.7841 C   0  0  0  0  0  0  0  0  0  0  0  0
   -0.0111   -7.5354   -0.3038 H   0  0  0  0  0  0  0  0  0  0  0  0
   -1.5317   -7.3401   -1.1520 H   0  0  0  0  0  0  0  0  0  0  0  0
   -0.1109   -6.4687   -1.6890 H   0  0  0  0  0  0  0  0  0  0  0  0
   -0.1543   -4.6083    0.1480 N   0  0  0  0  0  0  0  0  0  0  0  0
   -0.3302   -3.4398    0.9696 C   0  0  2  0  0  0  0  0  0  0  0  0
    0.2328   -2.2439    0.2131 C   0  0  0  0  0  0  0  0  0  0  0  0
    1.2097   -2.3192   -0.5294 O   0  0  0  0  0  0  0  0  0  0  0  0
    0.3557   -3.6024    2.3171 C   0  0  0  0  0  0  0  0  0  0  0  0
    0.6584   -4.6506   -0.4643 H   0  0  0  0  0  0  0  0  0  0  0  0
   -1.4091   -3.3101    1.1082 H   0  0  0  0  0  0  0  0  0  0  0  0
    1.4375   -3.7336    2.1985 H   0  0  0  0  0  0  0  0  0  0  0  0
    0.1969   -2.7243    2.9517 H   0  0  0  0  0  0  0  0  0  0  0  0
   -0.0294   -4.4803    2.8470 H   0  0  0  0  0  0  0  0  0  0  0  0
   -0.4616   -1.0893    0.5050 N   0  0  0  0  0  0  0  0  0  0  0  0
   -1.8925   -0.9560    0.2387 C   0  0  2  0  0  0  0  0  0  0  0  0
   -2.1033   -1.1465   -1.2607 C   0  0  0  0  0  0  0  0  0  0  0  0
   -2.9873   -1.8621   -1.7274 O   0  0  0  0  0  0  0  0  0  0  0  0
   -2.4375    0.4166    0.6607 C   0  0  0  0  0  0  0  0  0  0  0  0
   -2.4371    0.6307    2.1779 C   0  0  0  0  0  0  0  0  0  0  0  0
   -3.0118    2.0018    2.5440 C   0  0  0  0  0  0  0  0  0  0  0  0
   -2.9885    2.2247    4.0553 C   0  0  0  0  0  0  0  0  0  0  0  0
   -3.5174    3.5439    4.3807 N   0  0  0  0  0  0  0  0  0  0  0  0
   -0.0055   -0.3092    0.9513 H   0  0  0  0  0  0  0  0  0  0  0  0
   -2.4227   -1.7496    0.7787 H   0  0  0  0  0  0  0  0  0  0  0  0
   -3.4647    0.5253    0.2883 H   0  0  0  0  0  0  0  0  0  0  0  0
   -1.8570    1.2141    0.1772 H   0  0  0  0  0  0  0  0  0  0  0  0
   -1.4167    0.5544    2.5701 H   0  0  0  0  0  0  0  0  0  0  0  0
   -3.0312   -0.1555    2.6590 H   0  0  0  0  0  0  0  0  0  0  0  0
   -2.4306    2.7861    2.0427 H   0  0  0  0  0  0  0  0  0  0  0  0
   -4.0423    2.0772    2.1742 H   0  0  0  0  0  0  0  0  0  0  0  0
   -1.9644    2.1406    4.4351 H   0  0  0  0  0  0  0  0  0  0  0  0
   -3.5944    1.4634    4.5578 H   0  0  0  0  0  0  0  0  0  0  0  0
   -3.7521    4.0049    3.5328 H   0  0  0  0  0  0  0  0  0  0  0  0
   -4.3237    3.4258    4.9485 H   0  0  0  0  0  0  0  0  0  0  0  0
   -1.1740   -0.4410   -2.0127 N   0  0  0  0  0  0  0  0  0  0  0  0
   -1.1391   -0.4676   -3.4572 C   0  0  2  0  0  0  0  0  0  0  0  0
    0.3125   -0.3249   -3.8953 C   0  0  0  0  0  0  0  0  0  0  0  0
    1.1342    0.3544   -3.2834 O   0  0  0  0  0  0  0  0  0  0  0  0
   -1.9975    0.6380   -4.0519 C   0  0  0  0  0  0  0  0  0  0  0  0
   -0.4835    0.1337   -1.5388 H   0  0  0  0  0  0  0  0  0  0  0  0
   -1.5193   -1.4478   -3.7648 H   0  0  0  0  0  0  0  0  0  0  0  0
   -1.6318    1.6276   -3.7548 H   0  0  0  0  0  0  0  0  0  0  0  0
   -1.9927    0.5988   -5.1462 H   0  0  0  0  0  0  0  0  0  0  0  0
   -3.0351    0.5512   -3.7121 H   0  0  0  0  0  0  0  0  0  0  0  0
    0.5718   -1.0106   -5.0738 N   0  0  0  0  0  0  0  0  0  0  0  0
    1.8652   -0.9950   -5.7164 C   0  0  0  0  0  0  0  0  0  0  0  0
   -0.1579   -1.5807   -5.4911 H   0  0  0  0  0  0  0  0  0  0  0  0
    1.8960   -0.1850   -6.4600 H   0  0  0  0  0  0  0  0  0  0  0  0
    2.6477   -0.8293   -4.9613 H   0  0  0  0  0  0  0  0  0  0  0  0
    2.0372   -1.9591   -6.2173 H   0  0  0  0  0  0  0  0  0  0  0  0
  1  3  1  0  0  0  0
  1  7  1  0  0  0  0
  1  2  2  0  0  0  0
 39 40  1  0  0  0  0
 40 48  1  0  0  0  0
 40 41  2  0  0  0  0
  8  9  1  0  0  0  0
  9 17  1  0  0  0  0
  9 10  2  0  0  0  0
 18 19  1  0  0  0  0
 19 38  1  0  0  0  0
 19 20  2  0  0  0  0
 39 42  1  0  0  0  0
  8 11  1  0  0  0  0
 48 49  1  0  0  0  0
 22 23  1  0  0  0  0
 21 22  1  0  0  0  0
 23 24  1  0  0  0  0
 18 21  1  0  0  0  0
 24 25  1  0  0  0  0
 38 39  1  0  0  0  0
  7  8  1  0  0  0  0
 17 18  1  0  0  0  0
  3  4  1  0  0  0  0
  3  5  1  0  0  0  0
  3  6  1  0  0  0  0
 42 45  1  0  0  0  0
 42 46  1  0  0  0  0
 42 47  1  0  0  0  0
 11 14  1  0  0  0  0
 11 15  1  0  0  0  0
 11 16  1  0  0  0  0
 49 51  1  0  0  0  0
 49 52  1  0  0  0  0
 49 53  1  0  0  0  0
 22 30  1  0  0  0  0
 22 31  1  0  0  0  0
 23 32  1  0  0  0  0
 23 33  1  0  0  0  0
 21 28  1  0  0  0  0
 21 29  1  0  0  0  0
 24 34  1  0  0  0  0
 24 35  1  0  0  0  0
 39 44  1  0  0  0  0
  8 13  1  0  0  0  0
 18 27  1  0  0  0  0
 25 36  1  0  0  0  0
 25 37  1  0  0  0  0
 48 50  1  0  0  0  0
  7 12  1  0  0  0  0
 38 43  1  0  0  0  0
 17 26  1  0  0  0  0
M  END
$$$$

  -OEChem-02062319033D

 53 52  0     1  0  0  0  0  0999 V2000
   -1.0338   -5.6785    0.1476 C   0  0  0  0  0  0  0  0  0  0  0  0
   -2.0514   -5.7797    0.8227 O   0  0  0  0  0  0  0  0  0  0  0  0
   -0.6558   -6.7819   -0.7841 C   0  0  0  0  0  0  0  0  0  0  0  0
   -0.0111   -7.5354   -0.3038 H   0  0  0  0  0  0  0  0  0  0  0  0
   -1.5317   -7.3401   -1.1520 H   0  0  0  0  0  0  0  0  0  0  0  0
   -0.1109   -6.4687   -1.6890 H   0  0  0  0  0  0  0  0  0  0  0  0
   -0.1543   -4.6083    0.1480 N   0  0  0  0  0  0  0  0  0  0  0  0
   -0.3302   -3.4398    0.9696 C   0  0  2  0  0  0  0  0  0  0  0  0
    0.2328   -2.2439    0.2131 C   0  0  0  0  0  0  0  0  0  0  0  0
    1.2097   -2.3192   -0.5294 O   0  0  0  0  0  0  0  0  0  0  0  0
    0.3557   -3.6024    2.3171 C   0  0  0  0  0  0  0  0  0  0  0  0
    0.6584   -4.6506   -0.4643 H   0  0  0  0  0  0  0  0  0  0  0  0
   -1.4091   -3.3101    1.1082 H   0  0  0  0  0  0  0  0  0  0  0  0
    1.4375   -3.7336    2.1985 H   0  0  0  0  0  0  0  0  0  0  0  0
    0.1969   -2.7243    2.9517 H   0  0  0  0  0  0  0  0  0  0  0  0
   -0.0294   -4.4803    2.8470 H   0  0  0  0  0  0  0  0  0  0  0  0
   -0.4616   -1.0893    0.5050 N   0  0  0  0  0  0  0  0  0  0  0  0
   -1.9221   -1.0515    0.5461 C   0  0  2  0  0  0  0  0  0  0  0  0
   -2.4339   -1.4532   -0.8343 C   0  0  0  0  0  0  0  0  0  0  0  0
   -3.3454   -2.2609   -1.0020 O   0  0  0  0  0  0  0  0  0  0  0  0
   -2.4582    0.3427    0.9039 C   0  0  0  0  0  0  0  0  0  0  0  0
   -2.1493    0.7615    2.3450 C   0  0  0  0  0  0  0  0  0  0  0  0
   -2.7262    2.1454    2.6554 C   0  0  0  0  0  0  0  0  0  0  0  0
   -2.3968    2.5732    4.0846 C   0  0  0  0  0  0  0  0  0  0  0  0
   -2.9342    3.9019    4.3520 N   0  0  0  0  0  0  0  0  0  0  0  0
    0.0240   -0.2378    0.7393 H   0  0  0  0  0  0  0  0  0  0  0  0
   -2.2688   -1.7848    1.2841 H   0  0  0  0  0  0  0  0  0  0  0  0
   -3.5462    0.3579    0.7565 H   0  0  0  0  0  0  0  0  0  0  0  0
   -2.0507    1.0895    0.2091 H   0  0  0  0  0  0  0  0  0  0  0  0
   -1.0660    0.7808    2.5090 H   0  0  0  0  0  0  0  0  0  0  0  0
   -2.5714    0.0249    3.0392 H   0  0  0  0  0  0  0  0  0  0  0  0
   -2.3209    2.8768    1.9449 H   0  0  0  0  0  0  0  0  0  0  0  0
   -3.8145    2.1279    2.5154 H   0  0  0  0  0  0  0  0  0  0  0  0
   -1.3120    2.5831    4.2369 H   0  0  0  0  0  0  0  0  0  0  0  0
   -2.8275    1.8636    4.7991 H   0  0  0  0  0  0  0  0  0  0  0  0
   -3.3755    4.2331    3.5261 H   0  0  0  0  0  0  0  0  0  0  0  0
   -3.5908    3.8299    5.0938 H   0  0  0  0  0  0  0  0  0  0  0  0
   -1.7373   -0.8198   -1.8543 N   0  0  0  0  0  0  0  0  0  0  0  0
   -2.0093   -1.0418   -3.2563 C   0  0  2  0  0  0  0  0  0  0  0  0
   -0.6979   -0.9017   -4.0177 C   0  0  0  0  0  0  0  0  0  0  0  0
    0.1863   -0.1125   -3.6913 O   0  0  0  0  0  0  0  0  0  0  0  0
   -3.0491   -0.0633   -3.7799 C   0  0  0  0  0  0  0  0  0  0  0  0
   -1.0032   -0.1584   -1.6195 H   0  0  0  0  0  0  0  0  0  0  0  0
   -2.3777   -2.0694   -3.3481 H   0  0  0  0  0  0  0  0  0  0  0  0
   -2.6979    0.9716   -3.6960 H   0  0  0  0  0  0  0  0  0  0  0  0
   -3.2750   -0.2512   -4.8347 H   0  0  0  0  0  0  0  0  0  0  0  0
   -3.9820   -0.1448   -3.2116 H   0  0  0  0  0  0  0  0  0  0  0  0
   -0.6489   -1.7306   -5.1298 N   0  0  0  0  0  0  0  0  0  0  0  0
    0.4735   -1.7506   -6.0385 C   0  0  0  0  0  0  0  0  0  0  0  0
   -1.4096   -2.3814   -5.3018 H   0  0  0  0  0  0  0  0  0  0  0  0
    0.2890   -1.0490   -6.8654 H   0  0  0  0  0  0  0  0  0  0  0  0
    1.3856   -1.4519   -5.5010 H   0  0  0  0  0  0  0  0  0  0  0  0
    0.6011   -2.7662   -6.4411 H   0  0  0  0  0  0  0  0  0  0  0  0
  1  3  1  0  0  0  0
  1  7  1  0  0  0  0
  1  2  2  0  0  0  0
 39 40  1  0  0  0  0
 40 48  1  0  0  0  0
 40 41  2  0  0  0  0
  8  9  1  0  0  0  0
  9 17  1  0  0  0  0
  9 10  2  0  0  0  0
 18 19  1  0  0  0  0
 19 38  1  0  0  0  0
 19 20  2  0  0  0  0
 39 42  1  0  0  0  0
  8 11  1  0  0  0  0
 48 49  1  0  0  0  0
 22 23  1  0  0  0  0
 21 22  1  0  0  0  0
 23 24  1  0  0  0  0
 18 21  1  0  0  0  0
 24 25  1  0  0  0  0
 38 39  1  0  0  0  0
  7  8  1  0  0  0  0
 17 18  1  0  0  0  0
  3  4  1  0  0  0  0
  3  5  1  0  0  0  0
  3  6  1  0  0  0  0
 42 45  1  0  0  0  0
 42 46  1  0  0  0  0
 42 47  1  0  0  0  0
 11 14  1  0  0  0  0
 11 15  1  0  0  0  0
 11 16  1  0  0  0  0
 49 51  1  0  0  0  0
 49 52  1  0  0  0  0
 49 53  1  0  0  0  0
 22 30  1  0  0  0  0
 22 31  1  0  0  0  0
 23 32  1  0  0  0  0
 23 33  1  0  0  0  0
 21 28  1  0  0  0  0
 21 29  1  0  0  0  0
 24 34  1  0  0  0  0
 24 35  1  0  0  0  0
 39 44  1  0  0  0  0
  8 13  1  0  0  0  0
 18 27  1  0  0  0  0
 25 36  1  0  0  0  0
 25 37  1  0  0  0  0
 48 50  1  0  0  0  0
  7 12  1  0  0  0  0
 38 43  1  0  0  0  0
 17 26  1  0  0  0  0
M  END
$$$$

  -OEChem-02062319033D

 53 52  0     1  0  0  0  0  0999 V2000
   -1.0338   -5.6785    0.1476 C   0  0  0  0  0  0  0  0  0  0  0  0
   -2.0514   -5.7797    0.8227 O   0  0  0  0  0  0  0  0  0  0  0  0
   -0.6558   -6.7819   -0.7841 C   0  0  0  0  0  0  0  0  0  0  0  0
   -0.0111   -7.5354   -0.3038 H   0  0  0  0  0  0  0  0  0  0  0  0
   -1.5317   -7.3401   -1.1520 H   0  0  0  0  0  0  0  0  0  0  0  0
   -0.1109   -6.4687   -1.6890 H   0  0  0  0  0  0  0  0  0  0  0  0
   -0.1543   -4.6083    0.1480 N   0  0  0  0  0  0  0  0  0  0  0  0
   -0.3302   -3.4398    0.9696 C   0  0  2  0  0  0  0  0  0  0  0  0
    0.2328   -2.2439    0.2131 C   0  0  0  0  0  0  0  0  0  0  0  0
    1.2097   -2.3192   -0.5294 O   0  0  0  0  0  0  0  0  0  0  0  0
    0.3557   -3.6024    2.3171 C   0  0  0  0  0  0  0  0  0  0  0  0
    0.6584   -4.6506   -0.4643 H   0  0  0  0  0  0  0  0  0  0  0  0
   -1.4091   -3.3101    1.1082 H   0  0  0  0  0  0  0  0  0  0  0  0
    1.4375   -3.7336    2.1985 H   0  0  0  0  0  0  0  0  0  0  0  0
    0.1969   -2.7243    2.9517 H   0  0  0  0  0  0  0  0  0  0  0  0
   -0.0294   -4.4803    2.8470 H   0  0  0  0  0  0  0  0  0  0  0  0
   -0.4616   -1.0893    0.5050 N   0  0  0  0  0  0  0  0  0  0  0  0
   -1.8788   -1.1054    0.8620 C   0  0  2  0  0  0  0  0  0  0  0  0
   -2.6440   -1.7119   -0.3108 C   0  0  0  0  0  0  0  0  0  0  0  0
   -3.5123   -2.5711   -0.1717 O   0  0  0  0  0  0  0  0  0  0  0  0
   -2.4215    0.3018    1.1530 C   0  0  0  0  0  0  0  0  0  0  0  0
   -1.8423    0.9255    2.4270 C   0  0  0  0  0  0  0  0  0  0  0  0
   -2.4340    2.3143    2.6824 C   0  0  0  0  0  0  0  0  0  0  0  0
   -1.8380    2.9460    3.9393 C   0  0  0  0  0  0  0  0  0  0  0  0
   -2.3966    4.2760    4.1512 N   0  0  0  0  0  0  0  0  0  0  0  0
    0.0027   -0.1949    0.5188 H   0  0  0  0  0  0  0  0  0  0  0  0
   -2.0087   -1.7445    1.7436 H   0  0  0  0  0  0  0  0  0  0  0  0
   -3.5142    0.2528    1.2483 H   0  0  0  0  0  0  0  0  0  0  0  0
   -2.2241    0.9628    0.2981 H   0  0  0  0  0  0  0  0  0  0  0  0
   -0.7529    1.0107    2.3445 H   0  0  0  0  0  0  0  0  0  0  0  0
   -2.0547    0.2740    3.2832 H   0  0  0  0  0  0  0  0  0  0  0  0
   -2.2411    2.9577    1.8147 H   0  0  0  0  0  0  0  0  0  0  0  0
   -3.5233    2.2339    2.7890 H   0  0  0  0  0  0  0  0  0  0  0  0
   -0.7490    3.0205    3.8463 H   0  0  0  0  0  0  0  0  0  0  0  0
   -2.0564    2.3237    4.8136 H   0  0  0  0  0  0  0  0  0  0  0  0
   -3.0257    4.4732    3.4083 H   0  0  0  0  0  0  0  0  0  0  0  0
   -2.8735    4.2793    5.0225 H   0  0  0  0  0  0  0  0  0  0  0  0
   -2.2264   -1.1960   -1.5298 N   0  0  0  0  0  0  0  0  0  0  0  0
   -2.7749   -1.6179   -2.7986 C   0  0  2  0  0  0  0  0  0  0  0  0
   -1.6688   -1.5301   -3.8418 C   0  0  0  0  0  0  0  0  0  0  0  0
   -0.7921   -0.6687   -3.8189 O   0  0  0  0  0  0  0  0  0  0  0  0
   -3.9675   -0.7629   -3.1977 C   0  0  0  0  0  0  0  0  0  0  0  0
   -1.5066   -0.4796   -1.5468 H   0  0  0  0  0  0  0  0  0  0  0  0
   -3.0823   -2.6625   -2.6786 H   0  0  0  0  0  0  0  0  0  0  0  0
   -3.6789    0.2872   -3.3226 H   0  0  0  0  0  0  0  0  0  0  0  0
   -4.3995   -1.1019   -4.1450 H   0  0  0  0  0  0  0  0  0  0  0  0
   -4.7499   -0.8037   -2.4321 H   0  0  0  0  0  0  0  0  0  0  0  0
   -1.8007   -2.5003   -4.8254 N   0  0  0  0  0  0  0  0  0  0  0  0
   -0.8991   -2.5986   -5.9494 C   0  0  0  0  0  0  0  0  0  0  0  0
   -2.5337   -3.1987   -4.7432 H   0  0  0  0  0  0  0  0  0  0  0  0
   -1.3037   -2.0244   -6.7959 H   0  0  0  0  0  0  0  0  0  0  0  0
    0.0837   -2.1928   -5.6676 H   0  0  0  0  0  0  0  0  0  0  0  0
   -0.7903   -3.6537   -6.2408 H   0  0  0  0  0  0  0  0  0  0  0  0
  1  3  1  0  0  0  0
  1  7  1  0  0  0  0
  1  2  2  0  0  0  0
 39 40  1  0  0  0  0
 40 48  1  0  0  0  0
 40 41  2  0  0  0  0
  8  9  1  0  0  0  0
  9 17  1  0  0  0  0
  9 10  2  0  0  0  0
 18 19  1  0  0  0  0
 19 38  1  0  0  0  0
 19 20  2  0  0  0  0
 39 42  1  0  0  0  0
  8 11  1  0  0  0  0
 48 49  1  0  0  0  0
 22 23  1  0  0  0  0
 21 22  1  0  0  0  0
 23 24  1  0  0  0  0
 18 21  1  0  0  0  0
 24 25  1  0  0  0  0
 38 39  1  0  0  0  0
  7  8  1  0  0  0  0
 17 18  1  0  0  0  0
  3  4  1  0  0  0  0
  3  5  1  0  0  0  0
  3  6  1  0  0  0  0
 42 45  1  0  0  0  0
 42 46  1  0  0  0  0
 42 47  1  0  0  0  0
 11 14  1  0  0  0  0
 11 15  1  0  0  0  0
 11 16  1  0  0  0  0
 49 51  1  0  0  0  0
 49 52  1  0  0  0  0
 49 53  1  0  0  0  0
 22 30  1  0  0  0  0
 22 31  1  0  0  0  0
 23 32  1  0  0  0  0
 23 33  1  0  0  0  0
 21 28  1  0  0  0  0
 21 29  1  0  0  0  0
 24 34  1  0  0  0  0
 24 35  1  0  0  0  0
 39 44  1  0  0  0  0
  8 13  1  0  0  0  0
 18 27  1  0  0  0  0
 25 36  1  0  0  0  0
 25 37  1  0  0  0  0
 48 50  1  0  0  0  0
  7 12  1  0  0  0  0
 38 43  1  0  0  0  0
 17 26  1  0  0  0  0
M  END
$$$$

  -OEChem-02062319033D

 53 52  0     1  0  0  0  0  0999 V2000
   -1.0338   -5.6785    0.1476 C   0  0  0  0  0  0  0  0  0  0  0  0
   -2.0514   -5.7797    0.8227 O   0  0  0  0  0  0  0  0  0  0  0  0
   -0.6558   -6.7819   -0.7841 C   0  0  0  0  0  0  0  0  0  0  0  0
   -0.0111   -7.5354   -0.3038 H   0  0  0  0  0  0  0  0  0  0  0  0
   -1.5317   -7.3401   -1.1520 H   0  0  0  0  0  0  0  0  0  0  0  0
   -0.1109   -6.4687   -1.6890 H   0  0  0  0  0  0  0  0  0  0  0  0
   -0.1543   -4.6083    0.1480 N   0  0  0  0  0  0  0  0  0  0  0  0
   -0.3302   -3.4398    0.9696 C   0  0  2  0  0  0  0  0  0  0  0  0
    0.2328   -2.2439    0.2131 C   0  0  0  0  0  0  0  0  0  0  0  0
    1.2097   -2.3192   -0.5294 O   0  0  0  0  0  0  0  0  0  0  0  0
    0.3557   -3.6024    2.3171 C   0  0  0  0  0  0  0  0  0  0  0  0
    0.6584   -4.6506   -0.4643 H   0  0  0  0  0  0  0  0  0  0  0  0
   -1.4091   -3.3101    1.1082 H   0  0  0  0  0  0  0  0  0  0  0  0
    1.4375   -3.7336    2.1985 H   0  0  0  0  0  0  0  0  0  0  0  0
    0.1969   -2.7243    2.9517 H   0  0  0  0  0  0  0  0  0  0  0  0
   -0.0294   -4.4803    2.8470 H   0  0  0  0  0  0  0  0  0  0  0  0
   -0.4616   -1.0893    0.5050 N   0  0  0  0  0  0  0  0  0  0  0  0
   -1.7655   -1.1138    1.1647 C   0  0  2  0  0  0  0  0  0  0  0  0
   -2.7193   -1.9051    0.2742 C   0  0  0  0  0  0  0  0  0  0  0  0
   -3.4764   -2.7717    0.7069 O   0  0  0  0  0  0  0  0  0  0  0  0
   -2.3298    0.2968    1.3909 C   0  0  0  0  0  0  0  0  0  0  0  0
   -1.5369    1.1114    2.4183 C   0  0  0  0  0  0  0  0  0  0  0  0
   -2.1552    2.4970    2.6231 C   0  0  0  0  0  0  0  0  0  0  0  0
   -1.3502    3.3178    3.6292 C   0  0  0  0  0  0  0  0  0  0  0  0
   -1.9414    4.6405    3.7920 N   0  0  0  0  0  0  0  0  0  0  0  0
   -0.0680   -0.1833    0.3048 H   0  0  0  0  0  0  0  0  0  0  0  0
   -1.6600   -1.6315    2.1257 H   0  0  0  0  0  0  0  0  0  0  0  0
   -3.3710    0.2171    1.7300 H   0  0  0  0  0  0  0  0  0  0  0  0
   -2.3653    0.8424    0.4382 H   0  0  0  0  0  0  0  0  0  0  0  0
   -0.4987    1.2285    2.0878 H   0  0  0  0  0  0  0  0  0  0  0  0
   -1.5164    0.5747    3.3744 H   0  0  0  0  0  0  0  0  0  0  0  0
   -2.1966    3.0233    1.6611 H   0  0  0  0  0  0  0  0  0  0  0  0
   -3.1885    2.3879    2.9763 H   0  0  0  0  0  0  0  0  0  0  0  0
   -0.3138    3.4228    3.2899 H   0  0  0  0  0  0  0  0  0  0  0  0
   -1.3337    2.8123    4.6006 H   0  0  0  0  0  0  0  0  0  0  0  0
   -2.7265    4.7090    3.1874 H   0  0  0  0  0  0  0  0  0  0  0  0
   -2.2207    4.7435    4.7396 H   0  0  0  0  0  0  0  0  0  0  0  0
   -2.6078   -1.5438   -1.0614 N   0  0  0  0  0  0  0  0  0  0  0  0
   -3.3836   -2.1567   -2.1155 C   0  0  2  0  0  0  0  0  0  0  0  0
   -2.5340   -2.1673   -3.3794 C   0  0  0  0  0  0  0  0  0  0  0  0
   -1.7343   -1.2762   -3.6576 O   0  0  0  0  0  0  0  0  0  0  0  0
   -4.6901   -1.4130   -2.3450 C   0  0  0  0  0  0  0  0  0  0  0  0
   -1.9595   -0.8079   -1.3255 H   0  0  0  0  0  0  0  0  0  0  0  0
   -3.5854   -3.1867   -1.8017 H   0  0  0  0  0  0  0  0  0  0  0  0
   -4.5081   -0.3790   -2.6601 H   0  0  0  0  0  0  0  0  0  0  0  0
   -5.2896   -1.8952   -3.1242 H   0  0  0  0  0  0  0  0  0  0  0  0
   -5.2866   -1.3806   -1.4269 H   0  0  0  0  0  0  0  0  0  0  0  0
   -2.8051   -3.2672   -4.1813 N   0  0  0  0  0  0  0  0  0  0  0  0
   -2.1592   -3.4814   -5.4552 C   0  0  0  0  0  0  0  0  0  0  0  0
   -3.4536   -3.9769   -3.8534 H   0  0  0  0  0  0  0  0  0  0  0  0
   -2.7737   -3.0449   -6.2565 H   0  0  0  0  0  0  0  0  0  0  0  0
   -1.1694   -3.0016   -5.4497 H   0  0  0  0  0  0  0  0  0  0  0  0
   -2.0423   -4.5611   -5.6300 H   0  0  0  0  0  0  0  0  0  0  0  0
  1  3  1  0  0  0  0
  1  7  1  0  0  0  0
  1  2  2  0  0  0  0
 39 40  1  0  0  0  0
 40 48  1  0  0  0  0
 40 41  2  0  0  0  0
  8  9  1  0  0  0  0
  9 17  1  0  0  0  0
  9 10  2  0  0  0  0
 18 19  1  0  0  0  0
 19 38  1  0  0  0  0
 19 20  2  0  0  0  0
 39 42  1  0  0  0  0
  8 11  1  0  0  0  0
 48 49  1  0  0  0  0
 22 23  1  0  0  0  0
 21 22  1  0  0  0  0
 23 24  1  0  0  0  0
 18 21  1  0  0  0  0
 24 25  1  0  0  0  0
 38 39  1  0  0  0  0
  7  8  1  0  0  0  0
 17 18  1  0  0  0  0
  3  4  1  0  0  0  0
  3  5  1  0  0  0  0
  3  6  1  0  0  0  0
 42 45  1  0  0  0  0
 42 46  1  0  0  0  0
 42 47  1  0  0  0  0
 11 14  1  0  0  0  0
 11 15  1  0  0  0  0
 11 16  1  0  0  0  0
 49 51  1  0  0  0  0
 49 52  1  0  0  0  0
 49 53  1  0  0  0  0
 22 30  1  0  0  0  0
 22 31  1  0  0  0  0
 23 32  1  0  0  0  0
 23 33  1  0  0  0  0
 21 28  1  0  0  0  0
 21 29  1  0  0  0  0
 24 34  1  0  0  0  0
 24 35  1  0  0  0  0
 39 44  1  0  0  0  0
  8 13  1  0  0  0  0
 18 27  1  0  0  0  0
 25 36  1  0  0  0  0
 25 37  1  0  0  0  0
 48 50  1  0  0  0  0
  7 12  1  0  0  0  0
 38 43  1  0  0  0  0
 17 26  1  0  0  0  0
M  END
$$$$

  -OEChem-02062319033D

 53 52  0     1  0  0  0  0  0999 V2000
   -1.0338   -5.6785    0.1476 C   0  0  0  0  0  0  0  0  0  0  0  0
   -2.0514   -5.7797    0.8227 O   0  0  0  0  0  0  0  0  0  0  0  0
   -0.6558   -6.7819   -0.7841 C   0  0  0  0  0  0  0  0  0  0  0  0
   -0.0111   -7.5354   -0.3038 H   0  0  0  0  0  0  0  0  0  0  0  0
   -1.5317   -7.3401   -1.1520 H   0  0  0  0  0  0  0  0  0  0  0  0
   -0.1109   -6.4687   -1.6890 H   0  0  0  0  0  0  0  0  0  0  0  0
   -0.1543   -4.6083    0.1480 N   0  0  0  0  0  0  0  0  0  0  0  0
   -0.3302   -3.4398    0.9696 C   0  0  2  0  0  0  0  0  0  0  0  0
    0.2328   -2.2439    0.2131 C   0  0  0  0  0  0  0  0  0  0  0  0
    1.2097   -2.3192   -0.5294 O   0  0  0  0  0  0  0  0  0  0  0  0
    0.3557   -3.6024    2.3171 C   0  0  0  0  0  0  0  0  0  0  0  0
    0.6584   -4.6506   -0.4643 H   0  0  0  0  0  0  0  0  0  0  0  0
   -1.4091   -3.3101    1.1082 H   0  0  0  0  0  0  0  0  0  0  0  0
    1.4375   -3.7336    2.1985 H   0  0  0  0  0  0  0  0  0  0  0  0
    0.1969   -2.7243    2.9517 H   0  0  0  0  0  0  0  0  0  0  0  0
   -0.0294   -4.4803    2.8470 H   0  0  0  0  0  0  0  0  0  0  0  0
   -0.4616   -1.0893    0.5050 N   0  0  0  0  0  0  0  0  0  0  0  0
   -1.5900   -1.0762    1.4337 C   0  0  2  0  0  0  0  0  0  0  0  0
   -2.6546   -2.0195    0.8807 C   0  0  0  0  0  0  0  0  0  0  0  0
   -3.2403   -2.8489    1.5740 O   0  0  0  0  0  0  0  0  0  0  0  0
   -2.1893    0.3280    1.6015 C   0  0  0  0  0  0  0  0  0  0  0  0
   -1.2540    1.3065    2.3194 C   0  0  0  0  0  0  0  0  0  0  0  0
   -1.9088    2.6810    2.4816 C   0  0  0  0  0  0  0  0  0  0  0  0
   -0.9666    3.6632    3.1755 C   0  0  0  0  0  0  0  0  0  0  0  0
   -1.5996    4.9708    3.2988 N   0  0  0  0  0  0  0  0  0  0  0  0
   -0.1833   -0.2039    0.1120 H   0  0  0  0  0  0  0  0  0  0  0  0
   -1.2466   -1.4533    2.4045 H   0  0  0  0  0  0  0  0  0  0  0  0
   -3.1263    0.2533    2.1690 H   0  0  0  0  0  0  0  0  0  0  0  0
   -2.4648    0.7367    0.6198 H   0  0  0  0  0  0  0  0  0  0  0  0
   -0.3207    1.4194    1.7563 H   0  0  0  0  0  0  0  0  0  0  0  0
   -0.9931    0.9066    3.3066 H   0  0  0  0  0  0  0  0  0  0  0  0
   -2.1906    3.0690    1.4946 H   0  0  0  0  0  0  0  0  0  0  0  0
   -2.8330    2.5794    3.0646 H   0  0  0  0  0  0  0  0  0  0  0  0
   -0.0362    3.7628    2.6058 H   0  0  0  0  0  0  0  0  0  0  0  0
   -0.7085    3.2960    4.1744 H   0  0  0  0  0  0  0  0  0  0  0  0
   -2.4983    4.9244    2.8784 H   0  0  0  0  0  0  0  0  0  0  0  0
   -1.6769    5.1907    4.2644 H   0  0  0  0  0  0  0  0  0  0  0  0
   -2.8556   -1.8396   -0.4809 N   0  0  0  0  0  0  0  0  0  0  0  0
   -3.7940   -2.6214   -1.2535 C   0  0  2  0  0  0  0  0  0  0  0  0
   -3.2346   -2.7700   -2.6622 C   0  0  0  0  0  0  0  0  0  0  0  0
   -2.5762   -1.8935   -3.2184 O   0  0  0  0  0  0  0  0  0  0  0  0
   -5.1676   -1.9694   -1.2800 C   0  0  0  0  0  0  0  0  0  0  0  0
   -2.3310   -1.1210   -0.9707 H   0  0  0  0  0  0  0  0  0  0  0  0
   -3.8525   -3.6063   -0.7774 H   0  0  0  0  0  0  0  0  0  0  0  0
   -5.1289   -0.9816   -1.7535 H   0  0  0  0  0  0  0  0  0  0  0  0
   -5.8846   -2.5773   -1.8418 H   0  0  0  0  0  0  0  0  0  0  0  0
   -5.5555   -1.8362   -0.2644 H   0  0  0  0  0  0  0  0  0  0  0  0
   -3.5937   -3.9790   -3.2415 N   0  0  0  0  0  0  0  0  0  0  0  0
   -3.2209   -4.3387   -4.5897 C   0  0  0  0  0  0  0  0  0  0  0  0
   -4.1067   -4.6630   -2.6931 H   0  0  0  0  0  0  0  0  0  0  0  0
   -4.0207   -4.0408   -5.2837 H   0  0  0  0  0  0  0  0  0  0  0  0
   -2.2883   -3.8230   -4.8621 H   0  0  0  0  0  0  0  0  0  0  0  0
   -3.0695   -5.4266   -4.6503 H   0  0  0  0  0  0  0  0  0  0  0  0
  1  3  1  0  0  0  0
  1  7  1  0  0  0  0
  1  2  2  0  0  0  0
 39 40  1  0  0  0  0
 40 48  1  0  0  0  0
 40 41  2  0  0  0  0
  8  9  1  0  0  0  0
  9 17  1  0  0  0  0
  9 10  2  0  0  0  0
 18 19  1  0  0  0  0
 19 38  1  0  0  0  0
 19 20  2  0  0  0  0
 39 42  1  0  0  0  0
  8 11  1  0  0  0  0
 48 49  1  0  0  0  0
 22 23  1  0  0  0  0
 21 22  1  0  0  0  0
 23 24  1  0  0  0  0
 18 21  1  0  0  0  0
 24 25  1  0  0  0  0
 38 39  1  0  0  0  0
  7  8  1  0  0  0  0
 17 18  1  0  0  0  0
  3  4  1  0  0  0  0
  3  5  1  0  0  0  0
  3  6  1  0  0  0  0
 42 45  1  0  0  0  0
 42 46  1  0  0  0  0
 42 47  1  0  0  0  0
 11 14  1  0  0  0  0
 11 15  1  0  0  0  0
 11 16  1  0  0  0  0
 49 51  1  0  0  0  0
 49 52  1  0  0  0  0
 49 53  1  0  0  0  0
 22 30  1  0  0  0  0
 22 31  1  0  0  0  0
 23 32  1  0  0  0  0
 23 33  1  0  0  0  0
 21 28  1  0  0  0  0
 21 29  1  0  0  0  0
 24 34  1  0  0  0  0
 24 35  1  0  0  0  0
 39 44  1  0  0  0  0
  8 13  1  0  0  0  0
 18 27  1  0  0  0  0
 25 36  1  0  0  0  0
 25 37  1  0  0  0  0
 48 50  1  0  0  0  0
  7 12  1  0  0  0  0
 38 43  1  0  0  0  0
 17 26  1  0  0  0  0
M  END
$$$$

  -OEChem-02062319033D

 53 52  0     1  0  0  0  0  0999 V2000
   -1.0338   -5.6785    0.1476 C   0  0  0  0  0  0  0  0  0  0  0  0
   -2.0514   -5.7797    0.8227 O   0  0  0  0  0  0  0  0  0  0  0  0
   -0.6558   -6.7819   -0.7841 C   0  0  0  0  0  0  0  0  0  0  0  0
   -0.0111   -7.5354   -0.3038 H   0  0  0  0  0  0  0  0  0  0  0  0
   -1.5317   -7.3401   -1.1520 H   0  0  0  0  0  0  0  0  0  0  0  0
   -0.1109   -6.4687   -1.6890 H   0  0  0  0  0  0  0  0  0  0  0  0
   -0.1543   -4.6083    0.1480 N   0  0  0  0  0  0  0  0  0  0  0  0
   -0.3302   -3.4398    0.9696 C   0  0  2  0  0  0  0  0  0  0  0  0
    0.2328   -2.2439    0.2131 C   0  0  0  0  0  0  0  0  0  0  0  0
    1.2097   -2.3192   -0.5294 O   0  0  0  0  0  0  0  0  0  0  0  0
    0.3557   -3.6024    2.3171 C   0  0  0  0  0  0  0  0  0  0  0  0
    0.6584   -4.6506   -0.4643 H   0  0  0  0  0  0  0  0  0  0  0  0
   -1.4091   -3.3101    1.1082 H   0  0  0  0  0  0  0  0  0  0  0  0
    1.4375   -3.7336    2.1985 H   0  0  0  0  0  0  0  0  0  0  0  0
    0.1969   -2.7243    2.9517 H   0  0  0  0  0  0  0  0  0  0  0  0
   -0.0294   -4.4803    2.8470 H   0  0  0  0  0  0  0  0  0  0  0  0
   -0.4616   -1.0893    0.5050 N   0  0  0  0  0  0  0  0  0  0  0  0
   -1.3643   -0.9953    1.6506 C   0  0  2  0  0  0  0  0  0  0  0  0
   -2.4544   -2.0474    1.4675 C   0  0  0  0  0  0  0  0  0  0  0  0
   -2.8201   -2.7975    2.3704 O   0  0  0  0  0  0  0  0  0  0  0  0
   -2.0097    0.3934    1.7704 C   0  0  0  0  0  0  0  0  0  0  0  0
   -1.0128    1.4976    2.1371 C   0  0  0  0  0  0  0  0  0  0  0  0
   -1.7115    2.8538    2.2675 C   0  0  0  0  0  0  0  0  0  0  0  0
   -0.7133    3.9587    2.6090 C   0  0  0  0  0  0  0  0  0  0  0  0
   -1.3944    5.2443    2.7053 N   0  0  0  0  0  0  0  0  0  0  0  0
   -0.3354   -0.2553   -0.0467 H   0  0  0  0  0  0  0  0  0  0  0  0
   -0.7966   -1.2222    2.5610 H   0  0  0  0  0  0  0  0  0  0  0  0
   -2.7968    0.3589    2.5352 H   0  0  0  0  0  0  0  0  0  0  0  0
   -2.5157    0.6528    0.8305 H   0  0  0  0  0  0  0  0  0  0  0  0
   -0.2311    1.5702    1.3726 H   0  0  0  0  0  0  0  0  0  0  0  0
   -0.5205    1.2469    3.0844 H   0  0  0  0  0  0  0  0  0  0  0  0
   -2.2233    3.0918    1.3265 H   0  0  0  0  0  0  0  0  0  0  0  0
   -2.4809    2.7953    3.0478 H   0  0  0  0  0  0  0  0  0  0  0  0
    0.0651    4.0172    1.8404 H   0  0  0  0  0  0  0  0  0  0  0  0
   -0.2235    3.7420    3.5642 H   0  0  0  0  0  0  0  0  0  0  0  0
   -2.3566    5.1047    2.5024 H   0  0  0  0  0  0  0  0  0  0  0  0
   -1.2792    5.5905    3.6291 H   0  0  0  0  0  0  0  0  0  0  0  0
   -2.9529   -2.0632    0.1721 N   0  0  0  0  0  0  0  0  0  0  0  0
   -3.9780   -2.9805   -0.2713 C   0  0  2  0  0  0  0  0  0  0  0  0
   -3.7229   -3.2971   -1.7390 C   0  0  0  0  0  0  0  0  0  0  0  0
   -3.2604   -2.4788   -2.5312 O   0  0  0  0  0  0  0  0  0  0  0  0
   -5.3675   -2.3942   -0.0753 C   0  0  0  0  0  0  0  0  0  0  0  0
   -2.5957   -1.3976   -0.5067 H   0  0  0  0  0  0  0  0  0  0  0  0
   -3.8655   -3.8927    0.3246 H   0  0  0  0  0  0  0  0  0  0  0  0
   -5.4990   -1.4794   -0.6647 H   0  0  0  0  0  0  0  0  0  0  0  0
   -6.1439   -3.1015   -0.3852 H   0  0  0  0  0  0  0  0  0  0  0  0
   -5.5383   -2.1395    0.9762 H   0  0  0  0  0  0  0  0  0  0  0  0
   -4.1126   -4.5873   -2.0700 N   0  0  0  0  0  0  0  0  0  0  0  0
   -4.0118   -5.1122   -3.4117 C   0  0  0  0  0  0  0  0  0  0  0  0
   -4.4484   -5.2103   -1.3413 H   0  0  0  0  0  0  0  0  0  0  0  0
   -4.9597   -4.9443   -3.9439 H   0  0  0  0  0  0  0  0  0  0  0  0
   -3.1966   -4.6012   -3.9449 H   0  0  0  0  0  0  0  0  0  0  0  0
   -3.8019   -6.1911   -3.3684 H   0  0  0  0  0  0  0  0  0  0  0  0
  1  3  1  0  0  0  0
  1  7  1  0  0  0  0
  1  2  2  0  0  0  0
 39 40  1  0  0  0  0
 40 48  1  0  0  0  0
 40 41  2  0  0  0  0
  8  9  1  0  0  0  0
  9 17  1  0  0  0  0
  9 10  2  0  0  0  0
 18 19  1  0  0  0  0
 19 38  1  0  0  0  0
 19 20  2  0  0  0  0
 39 42  1  0  0  0  0
  8 11  1  0  0  0  0
 48 49  1  0  0  0  0
 22 23  1  0  0  0  0
 21 22  1  0  0  0  0
 23 24  1  0  0  0  0
 18 21  1  0  0  0  0
 24 25  1  0  0  0  0
 38 39  1  0  0  0  0
  7  8  1  0  0  0  0
 17 18  1  0  0  0  0
  3  4  1  0  0  0  0
  3  5  1  0  0  0  0
  3  6  1  0  0  0  0
 42 45  1  0  0  0  0
 42 46  1  0  0  0  0
 42 47  1  0  0  0  0
 11 14  1  0  0  0  0
 11 15  1  0  0  0  0
 11 16  1  0  0  0  0
 49 51  1  0  0  0  0
 49 52  1  0  0  0  0
 49 53  1  0  0  0  0
 22 30  1  0  0  0  0
 22 31  1  0  0  0  0
 23 32  1  0  0  0  0
 23 33  1  0  0  0  0
 21 28  1  0  0  0  0
 21 29  1  0  0  0  0
 24 34  1  0  0  0  0
 24 35  1  0  0  0  0
 39 44  1  0  0  0  0
  8 13  1  0  0  0  0
 18 27  1  0  0  0  0
 25 36  1  0  0  0  0
 25 37  1  0  0  0  0
 48 50  1  0  0  0  0
  7 12  1  0  0  0  0
 38 43  1  0  0  0  0
 17 26  1  0  0  0  0
M  END
$$$$

  -OEChem-02062319033D

 53 52  0     1  0  0  0  0  0999 V2000
   -1.0338   -5.6785    0.1476 C   0  0  0  0  0  0  0  0  0  0  0  0
   -2.0514   -5.7797    0.8227 O   0  0  0  0  0  0  0  0  0  0  0  0
   -0.6558   -6.7819   -0.7841 C   0  0  0  0  0  0  0  0  0  0  0  0
   -0.0111   -7.5354   -0.3038 H   0  0  0  0  0  0  0  0  0  0  0  0
   -1.5317   -7.3401   -1.1520 H   0  0  0  0  0  0  0  0  0  0  0  0
   -0.1109   -6.4687   -1.6890 H   0  0  0  0  0  0  0  0  0  0  0  0
   -0.1543   -4.6083    0.1480 N   0  0  0  0  0  0  0  0  0  0  0  0
   -0.3302   -3.4398    0.9696 C   0  0  2  0  0  0  0  0  0  0  0  0
    0.2328   -2.2439    0.2131 C   0  0  0  0  0  0  0  0  0  0  0  0
    1.2097   -2.3192   -0.5294 O   0  0  0  0  0  0  0  0  0  0  0  0
    0.3557   -3.6024    2.3171 C   0  0  0  0  0  0  0  0  0  0  0  0
    0.6584   -4.6506   -0.4643 H   0  0  0  0  0  0  0  0  0  0  0  0
   -1.4091   -3.3101    1.1082 H   0  0  0  0  0  0  0  0  0  0  0  0
    1.4375   -3.7336    2.1985 H   0  0  0  0  0  0  0  0  0  0  0  0
    0.1969   -2.7243    2.9517 H   0  0  0  0  0  0  0  0  0  0  0  0
   -0.0294   -4.4803    2.8470 H   0  0  0  0  0  0  0  0  0  0  0  0
   -0.4616   -1.0893    0.5050 N   0  0  0  0  0  0  0  0  0  0  0  0
   -1.1037   -0.8765    1.8005 C   0  0  2  0  0  0  0  0  0  0  0  0
   -2.1323   -1.9870    1.9945 C   0  0  0  0  0  0  0  0  0  0  0  0
   -2.2444   -2.6210    3.0419 O   0  0  0  0  0  0  0  0  0  0  0  0
   -1.8032    0.4883    1.8861 C   0  0  0  0  0  0  0  0  0  0  0  0
   -0.8299    1.6716    1.8839 C   0  0  0  0  0  0  0  0  0  0  0  0
   -1.5769    3.0035    1.9954 C   0  0  0  0  0  0  0  0  0  0  0  0
   -0.6077    4.1842    1.9684 C   0  0  0  0  0  0  0  0  0  0  0  0
   -1.3399    5.4423    2.0519 N   0  0  0  0  0  0  0  0  0  0  0  0
   -0.5139   -0.3339   -0.1602 H   0  0  0  0  0  0  0  0  0  0  0  0
   -0.3407   -0.9539    2.5844 H   0  0  0  0  0  0  0  0  0  0  0  0
   -2.4048    0.5267    2.8037 H   0  0  0  0  0  0  0  0  0  0  0  0
   -2.5146    0.5964    1.0560 H   0  0  0  0  0  0  0  0  0  0  0  0
   -0.2361    1.6709    0.9629 H   0  0  0  0  0  0  0  0  0  0  0  0
   -0.1309    1.5727    2.7230 H   0  0  0  0  0  0  0  0  0  0  0  0
   -2.2927    3.0901    1.1682 H   0  0  0  0  0  0  0  0  0  0  0  0
   -2.1563    3.0211    2.9272 H   0  0  0  0  0  0  0  0  0  0  0  0
   -0.0169    4.1687    1.0460 H   0  0  0  0  0  0  0  0  0  0  0  0
    0.0883    4.1198    2.8115 H   0  0  0  0  0  0  0  0  0  0  0  0
   -2.3112    5.2375    2.0850 H   0  0  0  0  0  0  0  0  0  0  0  0
   -1.0546    5.9156    2.8772 H   0  0  0  0  0  0  0  0  0  0  0  0
   -2.8931   -2.1994    0.8532 N   0  0  0  0  0  0  0  0  0  0  0  0
   -3.9232   -3.2093    0.7641 C   0  0  2  0  0  0  0  0  0  0  0  0
   -3.9655   -3.7126   -0.6727 C   0  0  0  0  0  0  0  0  0  0  0  0
   -3.7402   -2.9919   -1.6428 O   0  0  0  0  0  0  0  0  0  0  0  0
   -5.2761   -2.6584    1.1871 C   0  0  0  0  0  0  0  0  0  0  0  0
   -2.7358   -1.6187    0.0349 H   0  0  0  0  0  0  0  0  0  0  0  0
   -3.6234   -4.0264    1.4293 H   0  0  0  0  0  0  0  0  0  0  0  0
   -5.5932   -1.8387    0.5322 H   0  0  0  0  0  0  0  0  0  0  0  0
   -6.0499   -3.4322    1.1464 H   0  0  0  0  0  0  0  0  0  0  0  0
   -5.2361   -2.2698    2.2104 H   0  0  0  0  0  0  0  0  0  0  0  0
   -4.3266   -5.0506   -0.7466 N   0  0  0  0  0  0  0  0  0  0  0  0
   -4.4780   -5.7491   -2.0016 C   0  0  0  0  0  0  0  0  0  0  0  0
   -4.4555   -5.5814    0.1098 H   0  0  0  0  0  0  0  0  0  0  0  0
   -5.5269   -5.6938   -2.3284 H   0  0  0  0  0  0  0  0  0  0  0  0
   -3.8325   -5.2830   -2.7607 H   0  0  0  0  0  0  0  0  0  0  0  0
   -4.1896   -6.8026   -1.8719 H   0  0  0  0  0  0  0  0  0  0  0  0
  1  3  1  0  0  0  0
  1  7  1  0  0  0  0
  1  2  2  0  0  0  0
 39 40  1  0  0  0  0
 40 48  1  0  0  0  0
 40 41  2  0  0  0  0
  8  9  1  0  0  0  0
  9 17  1  0  0  0  0
  9 10  2  0  0  0  0
 18 19  1  0  0  0  0
 19 38  1  0  0  0  0
 19 20  2  0  0  0  0
 39 42  1  0  0  0  0
  8 11  1  0  0  0  0
 48 49  1  0  0  0  0
 22 23  1  0  0  0  0
 21 22  1  0  0  0  0
 23 24  1  0  0  0  0
 18 21  1  0  0  0  0
 24 25  1  0  0  0  0
 38 39  1  0  0  0  0
  7  8  1  0  0  0  0
 17 18  1  0  0  0  0
  3  4  1  0  0  0  0
  3  5  1  0  0  0  0
  3  6  1  0  0  0  0
 42 45  1  0  0  0  0
 42 46  1  0  0  0  0
 42 47  1  0  0  0  0
 11 14  1  0  0  0  0
 11 15  1  0  0  0  0
 11 16  1  0  0  0  0
 49 51  1  0  0  0  0
 49 52  1  0  0  0  0
 49 53  1  0  0  0  0
 22 30  1  0  0  0  0
 22 31  1  0  0  0  0
 23 32  1  0  0  0  0
 23 33  1  0  0  0  0
 21 28  1  0  0  0  0
 21 29  1  0  0  0  0
 24 34  1  0  0  0  0
 24 35  1  0  0  0  0
 39 44  1  0  0  0  0
  8 13  1  0  0  0  0
 18 27  1  0  0  0  0
 25 36  1  0  0  0  0
 25 37  1  0  0  0  0
 48 50  1  0  0  0  0
  7 12  1  0  0  0  0
 38 43  1  0  0  0  0
 17 26  1  0  0  0  0
M  END
$$$$

  -OEChem-02062319033D

 53 52  0     1  0  0  0  0  0999 V2000
   -1.0338   -5.6785    0.1476 C   0  0  0  0  0  0  0  0  0  0  0  0
   -2.0514   -5.7797    0.8227 O   0  0  0  0  0  0  0  0  0  0  0  0
   -0.6558   -6.7819   -0.7841 C   0  0  0  0  0  0  0  0  0  0  0  0
   -0.0111   -7.5354   -0.3038 H   0  0  0  0  0  0  0  0  0  0  0  0
   -1.5317   -7.3401   -1.1520 H   0  0  0  0  0  0  0  0  0  0  0  0
   -0.1109   -6.4687   -1.6890 H   0  0  0  0  0  0  0  0  0  0  0  0
   -0.1543   -4.6083    0.1480 N   0  0  0  0  0  0  0  0  0  0  0  0
   -0.3302   -3.4398    0.9696 C   0  0  2  0  0  0  0  0  0  0  0  0
    0.2328   -2.2439    0.2131 C   0  0  0  0  0  0  0  0  0  0  0  0
    1.2097   -2.3192   -0.5294 O   0  0  0  0  0  0  0  0  0  0  0  0
    0.3557   -3.6024    2.3171 C   0  0  0  0  0  0  0  0  0  0  0  0
    0.6584   -4.6506   -0.4643 H   0  0  0  0  0  0  0  0  0  0  0  0
   -1.4091   -3.3101    1.1082 H   0  0  0  0  0  0  0  0  0  0  0  0
    1.4375   -3.7336    2.1985 H   0  0  0  0  0  0  0  0  0  0  0  0
    0.1969   -2.7243    2.9517 H   0  0  0  0  0  0  0  0  0  0  0  0
   -0.0294   -4.4803    2.8470 H   0  0  0  0  0  0  0  0  0  0  0  0
   -0.4616   -1.0893    0.5050 N   0  0  0  0  0  0  0  0  0  0  0  0
   -0.8259   -0.7279    1.8734 C   0  0  2  0  0  0  0  0  0  0  0  0
   -1.7102   -1.8422    2.4259 C   0  0  0  0  0  0  0  0  0  0  0  0
   -1.5524   -2.3314    3.5427 O   0  0  0  0  0  0  0  0  0  0  0  0
   -1.5839    0.6064    1.9407 C   0  0  0  0  0  0  0  0  0  0  0  0
   -0.7176    1.8168    1.5769 C   0  0  0  0  0  0  0  0  0  0  0  0
   -1.5140    3.1201    1.6839 C   0  0  0  0  0  0  0  0  0  0  0  0
   -0.6568    4.3243    1.2973 C   0  0  0  0  0  0  0  0  0  0  0  0
   -1.4397    5.5513    1.3830 N   0  0  0  0  0  0  0  0  0  0  0  0
   -0.7066   -0.4345   -0.2209 H   0  0  0  0  0  0  0  0  0  0  0  0
    0.0901   -0.6668    2.4733 H   0  0  0  0  0  0  0  0  0  0  0  0
   -1.9773    0.7453    2.9563 H   0  0  0  0  0  0  0  0  0  0  0  0
   -2.4615    0.5715    1.2810 H   0  0  0  0  0  0  0  0  0  0  0  0
   -0.3351    1.7144    0.5552 H   0  0  0  0  0  0  0  0  0  0  0  0
    0.1493    1.8615    2.2470 H   0  0  0  0  0  0  0  0  0  0  0  0
   -2.3939    3.0641    1.0306 H   0  0  0  0  0  0  0  0  0  0  0  0
   -1.8813    3.2411    2.7108 H   0  0  0  0  0  0  0  0  0  0  0  0
   -0.2766    4.2070    0.2766 H   0  0  0  0  0  0  0  0  0  0  0  0
    0.2056    4.4036    1.9676 H   0  0  0  0  0  0  0  0  0  0  0  0
   -2.3651    5.3139    1.6547 H   0  0  0  0  0  0  0  0  0  0  0  0
   -1.0185    6.1440    2.0598 H   0  0  0  0  0  0  0  0  0  0  0  0
   -2.6803   -2.2389    1.5158 N   0  0  0  0  0  0  0  0  0  0  0  0
   -3.6333   -3.2923    1.7822 C   0  0  2  0  0  0  0  0  0  0  0  0
   -3.9459   -3.9882    0.4640 C   0  0  0  0  0  0  0  0  0  0  0  0
   -3.9830   -3.3981   -0.6137 O   0  0  0  0  0  0  0  0  0  0  0  0
   -4.8998   -2.7441    2.4211 C   0  0  0  0  0  0  0  0  0  0  0  0
   -2.7415   -1.7694    0.6173 H   0  0  0  0  0  0  0  0  0  0  0  0
   -3.1428   -3.9983    2.4612 H   0  0  0  0  0  0  0  0  0  0  0  0
   -5.4051   -2.0348    1.7555 H   0  0  0  0  0  0  0  0  0  0  0  0
   -5.6090   -3.5468    2.6484 H   0  0  0  0  0  0  0  0  0  0  0  0
   -4.6695   -2.2181    3.3539 H   0  0  0  0  0  0  0  0  0  0  0  0
   -4.2210   -5.3372    0.6385 N   0  0  0  0  0  0  0  0  0  0  0  0
   -4.5878   -6.2060   -0.4555 C   0  0  0  0  0  0  0  0  0  0  0  0
   -4.1274   -5.7510    1.5614 H   0  0  0  0  0  0  0  0  0  0  0  0
   -5.6834   -6.2382   -0.5473 H   0  0  0  0  0  0  0  0  0  0  0  0
   -4.1527   -5.8221   -1.3901 H   0  0  0  0  0  0  0  0  0  0  0  0
   -4.2061   -7.2194   -0.2625 H   0  0  0  0  0  0  0  0  0  0  0  0
  1  3  1  0  0  0  0
  1  7  1  0  0  0  0
  1  2  2  0  0  0  0
 39 40  1  0  0  0  0
 40 48  1  0  0  0  0
 40 41  2  0  0  0  0
  8  9  1  0  0  0  0
  9 17  1  0  0  0  0
  9 10  2  0  0  0  0
 18 19  1  0  0  0  0
 19 38  1  0  0  0  0
 19 20  2  0  0  0  0
 39 42  1  0  0  0  0
  8 11  1  0  0  0  0
 48 49  1  0  0  0  0
 22 23  1  0  0  0  0
 21 22  1  0  0  0  0
 23 24  1  0  0  0  0
 18 21  1  0  0  0  0
 24 25  1  0  0  0  0
 38 39  1  0  0  0  0
  7  8  1  0  0  0  0
 17 18  1  0  0  0  0
  3  4  1  0  0  0  0
  3  5  1  0  0  0  0
  3  6  1  0  0  0  0
 42 45  1  0  0  0  0
 42 46  1  0  0  0  0
 42 47  1  0  0  0  0
 11 14  1  0  0  0  0
 11 15  1  0  0  0  0
 11 16  1  0  0  0  0
 49 51  1  0  0  0  0
 49 52  1  0  0  0  0
 49 53  1  0  0  0  0
 22 30  1  0  0  0  0
 22 31  1  0  0  0  0
 23 32  1  0  0  0  0
 23 33  1  0  0  0  0
 21 28  1  0  0  0  0
 21 29  1  0  0  0  0
 24 34  1  0  0  0  0
 24 35  1  0  0  0  0
 39 44  1  0  0  0  0
  8 13  1  0  0  0  0
 18 27  1  0  0  0  0
 25 36  1  0  0  0  0
 25 37  1  0  0  0  0
 48 50  1  0  0  0  0
  7 12  1  0  0  0  0
 38 43  1  0  0  0  0
 17 26  1  0  0  0  0
M  END
$$$$

  -OEChem-02062319033D

 53 52  0     1  0  0  0  0  0999 V2000
   -1.0338   -5.6785    0.1476 C   0  0  0  0  0  0  0  0  0  0  0  0
   -2.0514   -5.7797    0.8227 O   0  0  0  0  0  0  0  0  0  0  0  0
   -0.6558   -6.7819   -0.7841 C   0  0  0  0  0  0  0  0  0  0  0  0
   -0.0111   -7.5354   -0.3038 H   0  0  0  0  0  0  0  0  0  0  0  0
   -1.5317   -7.3401   -1.1520 H   0  0  0  0  0  0  0  0  0  0  0  0
   -0.1109   -6.4687   -1.6890 H   0  0  0  0  0  0  0  0  0  0  0  0
   -0.1543   -4.6083    0.1480 N   0  0  0  0  0  0  0  0  0  0  0  0
   -0.3302   -3.4398    0.9696 C   0  0  2  0  0  0  0  0  0  0  0  0
    0.2328   -2.2439    0.2131 C   0  0  0  0  0  0  0  0  0  0  0  0
    1.2097   -2.3192   -0.5294 O   0  0  0  0  0  0  0  0  0  0  0  0
    0.3557   -3.6024    2.3171 C   0  0  0  0  0  0  0  0  0  0  0  0
    0.6584   -4.6506   -0.4643 H   0  0  0  0  0  0  0  0  0  0  0  0
   -1.4091   -3.3101    1.1082 H   0  0  0  0  0  0  0  0  0  0  0  0
    1.4375   -3.7336    2.1985 H   0  0  0  0  0  0  0  0  0  0  0  0
    0.1969   -2.7243    2.9517 H   0  0  0  0  0  0  0  0  0  0  0  0
   -0.0294   -4.4803    2.8470 H   0  0  0  0  0  0  0  0  0  0  0  0
   -0.4616   -1.0893    0.5050 N   0  0  0  0  0  0  0  0  0  0  0  0
   -0.5500   -0.5596    1.8643 C   0  0  2  0  0  0  0  0  0  0  0  0
   -1.2170   -1.6230    2.7322 C   0  0  0  0  0  0  0  0  0  0  0  0
   -0.7913   -1.9485    3.8386 O   0  0  0  0  0  0  0  0  0  0  0  0
   -1.3666    0.7396    1.9305 C   0  0  0  0  0  0  0  0  0  0  0  0
   -0.6837    1.9231    1.2372 C   0  0  0  0  0  0  0  0  0  0  0  0
   -1.5271    3.1956    1.3541 C   0  0  0  0  0  0  0  0  0  0  0  0
   -0.8575    4.3694    0.6415 C   0  0  0  0  0  0  0  0  0  0  0  0
   -1.6870    5.5640    0.7444 N   0  0  0  0  0  0  0  0  0  0  0  0
   -0.9003   -0.5500   -0.2247 H   0  0  0  0  0  0  0  0  0  0  0  0
    0.4663   -0.3803    2.2351 H   0  0  0  0  0  0  0  0  0  0  0  0
   -1.5432    0.9998    2.9825 H   0  0  0  0  0  0  0  0  0  0  0  0
   -2.3601    0.5796    1.4901 H   0  0  0  0  0  0  0  0  0  0  0  0
   -0.5216    1.6978    0.1771 H   0  0  0  0  0  0  0  0  0  0  0  0
    0.3009    2.0938    1.6888 H   0  0  0  0  0  0  0  0  0  0  0  0
   -2.5200    3.0154    0.9230 H   0  0  0  0  0  0  0  0  0  0  0  0
   -1.6746    3.4406    2.4136 H   0  0  0  0  0  0  0  0  0  0  0  0
   -0.6964    4.1295   -0.4152 H   0  0  0  0  0  0  0  0  0  0  0  0
    0.1204    4.5743    1.0901 H   0  0  0  0  0  0  0  0  0  0  0  0
   -2.5146    5.3287    1.2407 H   0  0  0  0  0  0  0  0  0  0  0  0
   -1.1733    6.2600    1.2326 H   0  0  0  0  0  0  0  0  0  0  0  0
   -2.3289   -2.1791    2.1148 N   0  0  0  0  0  0  0  0  0  0  0  0
   -3.1280   -3.2239    2.7136 C   0  0  2  0  0  0  0  0  0  0  0  0
   -3.6655   -4.1051    1.5937 C   0  0  0  0  0  0  0  0  0  0  0  0
   -3.9721   -3.6696    0.4859 O   0  0  0  0  0  0  0  0  0  0  0  0
   -4.2641   -2.6453    3.5427 C   0  0  0  0  0  0  0  0  0  0  0  0
   -2.6125   -1.8393    1.2007 H   0  0  0  0  0  0  0  0  0  0  0  0
   -2.4565   -3.8102    3.3501 H   0  0  0  0  0  0  0  0  0  0  0  0
   -4.9475   -2.0544    2.9219 H   0  0  0  0  0  0  0  0  0  0  0  0
   -4.8513   -3.4375    4.0187 H   0  0  0  0  0  0  0  0  0  0  0  0
   -3.8772   -1.9881    4.3290 H   0  0  0  0  0  0  0  0  0  0  0  0
   -3.8031   -5.4278    1.9909 N   0  0  0  0  0  0  0  0  0  0  0  0
   -4.3336   -6.4517    1.1213 C   0  0  0  0  0  0  0  0  0  0  0  0
   -3.4865   -5.7077    2.9145 H   0  0  0  0  0  0  0  0  0  0  0  0
   -5.4187   -6.5405    1.2780 H   0  0  0  0  0  0  0  0  0  0  0  0
   -4.1354   -6.1817    0.0736 H   0  0  0  0  0  0  0  0  0  0  0  0
   -3.8504   -7.4132    1.3499 H   0  0  0  0  0  0  0  0  0  0  0  0
  1  3  1  0  0  0  0
  1  7  1  0  0  0  0
  1  2  2  0  0  0  0
 39 40  1  0  0  0  0
 40 48  1  0  0  0  0
 40 41  2  0  0  0  0
  8  9  1  0  0  0  0
  9 17  1  0  0  0  0
  9 10  2  0  0  0  0
 18 19  1  0  0  0  0
 19 38  1  0  0  0  0
 19 20  2  0  0  0  0
 39 42  1  0  0  0  0
  8 11  1  0  0  0  0
 48 49  1  0  0  0  0
 22 23  1  0  0  0  0
 21 22  1  0  0  0  0
 23 24  1  0  0  0  0
 18 21  1  0  0  0  0
 24 25  1  0  0  0  0
 38 39  1  0  0  0  0
  7  8  1  0  0  0  0
 17 18  1  0  0  0  0
  3  4  1  0  0  0  0
  3  5  1  0  0  0  0
  3  6  1  0  0  0  0
 42 45  1  0  0  0  0
 42 46  1  0  0  0  0
 42 47  1  0  0  0  0
 11 14  1  0  0  0  0
 11 15  1  0  0  0  0
 11 16  1  0  0  0  0
 49 51  1  0  0  0  0
 49 52  1  0  0  0  0
 49 53  1  0  0  0  0
 22 30  1  0  0  0  0
 22 31  1  0  0  0  0
 23 32  1  0  0  0  0
 23 33  1  0  0  0  0
 21 28  1  0  0  0  0
 21 29  1  0  0  0  0
 24 34  1  0  0  0  0
 24 35  1  0  0  0  0
 39 44  1  0  0  0  0
  8 13  1  0  0  0  0
 18 27  1  0  0  0  0
 25 36  1  0  0  0  0
 25 37  1  0  0  0  0
 48 50  1  0  0  0  0
  7 12  1  0  0  0  0
 38 43  1  0  0  0  0
 17 26  1  0  0  0  0
M  END
$$$$

  -OEChem-02062319033D

 53 52  0     1  0  0  0  0  0999 V2000
   -1.0338   -5.6785    0.1476 C   0  0  0  0  0  0  0  0  0  0  0  0
   -2.0514   -5.7797    0.8227 O   0  0  0  0  0  0  0  0  0  0  0  0
   -0.6558   -6.7819   -0.7841 C   0  0  0  0  0  0  0  0  0  0  0  0
   -0.0111   -7.5354   -0.3038 H   0  0  0  0  0  0  0  0  0  0  0  0
   -1.5317   -7.3401   -1.1520 H   0  0  0  0  0  0  0  0  0  0  0  0
   -0.1109   -6.4687   -1.6890 H   0  0  0  0  0  0  0  0  0  0  0  0
   -0.1543   -4.6083    0.1480 N   0  0  0  0  0  0  0  0  0  0  0  0
   -0.3302   -3.4398    0.9696 C   0  0  2  0  0  0  0  0  0  0  0  0
    0.2328   -2.2439    0.2131 C   0  0  0  0  0  0  0  0  0  0  0  0
    1.2097   -2.3192   -0.5294 O   0  0  0  0  0  0  0  0  0  0  0  0
    0.3557   -3.6024    2.3171 C   0  0  0  0  0  0  0  0  0  0  0  0
    0.6584   -4.6506   -0.4643 H   0  0  0  0  0  0  0  0  0  0  0  0
   -1.4091   -3.3101    1.1082 H   0  0  0  0  0  0  0  0  0  0  0  0
    1.4375   -3.7336    2.1985 H   0  0  0  0  0  0  0  0  0  0  0  0
    0.1969   -2.7243    2.9517 H   0  0  0  0  0  0  0  0  0  0  0  0
   -0.0294   -4.4803    2.8470 H   0  0  0  0  0  0  0  0  0  0  0  0
   -0.4616   -1.0893    0.5050 N   0  0  0  0  0  0  0  0  0  0  0  0
   -0.2947   -0.3831    1.7737 C   0  0  2  0  0  0  0  0  0  0  0  0
   -0.6862   -1.3443    2.8925 C   0  0  0  0  0  0  0  0  0  0  0  0
   -0.0129   -1.4984    3.9096 O   0  0  0  0  0  0  0  0  0  0  0  0
   -1.1663    0.8789    1.8562 C   0  0  0  0  0  0  0  0  0  0  0  0
   -0.7304    1.9833    0.8878 C   0  0  0  0  0  0  0  0  0  0  0  0
   -1.6155    3.2247    1.0286 C   0  0  0  0  0  0  0  0  0  0  0  0
   -1.1959    4.3165    0.0457 C   0  0  0  0  0  0  0  0  0  0  0  0
   -2.0651    5.4795    0.1796 N   0  0  0  0  0  0  0  0  0  0  0  0
   -1.0820   -0.6728   -0.1713 H   0  0  0  0  0  0  0  0  0  0  0  0
    0.7624   -0.1140    1.8861 H   0  0  0  0  0  0  0  0  0  0  0  0
   -1.1321    1.2728    2.8805 H   0  0  0  0  0  0  0  0  0  0  0  0
   -2.2173    0.6202    1.6690 H   0  0  0  0  0  0  0  0  0  0  0  0
   -0.7827    1.6223   -0.1455 H   0  0  0  0  0  0  0  0  0  0  0  0
    0.3137    2.2537    1.0864 H   0  0  0  0  0  0  0  0  0  0  0  0
   -2.6625    2.9474    0.8528 H   0  0  0  0  0  0  0  0  0  0  0  0
   -1.5504    3.6058    2.0556 H   0  0  0  0  0  0  0  0  0  0  0  0
   -1.2475    3.9414   -0.9823 H   0  0  0  0  0  0  0  0  0  0  0  0
   -0.1615    4.6200    0.2386 H   0  0  0  0  0  0  0  0  0  0  0  0
   -2.7495    5.2807    0.8713 H   0  0  0  0  0  0  0  0  0  0  0  0
   -1.5085    6.2557    0.4521 H   0  0  0  0  0  0  0  0  0  0  0  0
   -1.8629   -2.0239    2.6095 N   0  0  0  0  0  0  0  0  0  0  0  0
   -2.4418   -3.0087    3.4948 C   0  0  2  0  0  0  0  0  0  0  0  0
   -3.1433   -4.0554    2.6394 C   0  0  0  0  0  0  0  0  0  0  0  0
   -3.7084   -3.7878    1.5810 O   0  0  0  0  0  0  0  0  0  0  0  0
   -3.4123   -2.3688    4.4753 C   0  0  0  0  0  0  0  0  0  0  0  0
   -2.3577   -1.8238    1.7453 H   0  0  0  0  0  0  0  0  0  0  0  0
   -1.6111   -3.4751    4.0355 H   0  0  0  0  0  0  0  0  0  0  0  0
   -4.2515   -1.8963    3.9519 H   0  0  0  0  0  0  0  0  0  0  0  0
   -3.8283   -3.1117    5.1638 H   0  0  0  0  0  0  0  0  0  0  0  0
   -2.9131   -1.5954    5.0691 H   0  0  0  0  0  0  0  0  0  0  0  0
   -3.1013   -5.3161    3.2184 N   0  0  0  0  0  0  0  0  0  0  0  0
   -3.7328   -6.4697    2.6213 C   0  0  0  0  0  0  0  0  0  0  0  0
   -2.5765   -5.4543    4.0770 H   0  0  0  0  0  0  0  0  0  0  0  0
   -4.7508   -6.5800    3.0231 H   0  0  0  0  0  0  0  0  0  0  0  0
   -3.7816   -6.3372    1.5304 H   0  0  0  0  0  0  0  0  0  0  0  0
   -3.1467   -7.3706    2.8555 H   0  0  0  0  0  0  0  0  0  0  0  0
  1  3  1  0  0  0  0
  1  7  1  0  0  0  0
  1  2  2  0  0  0  0
 39 40  1  0  0  0  0
 40 48  1  0  0  0  0
 40 41  2  0  0  0  0
  8  9  1  0  0  0  0
  9 17  1  0  0  0  0
  9 10  2  0  0  0  0
 18 19  1  0  0  0  0
 19 38  1  0  0  0  0
 19 20  2  0  0  0  0
 39 42  1  0  0  0  0
  8 11  1  0  0  0  0
 48 49  1  0  0  0  0
 22 23  1  0  0  0  0
 21 22  1  0  0  0  0
 23 24  1  0  0  0  0
 18 21  1  0  0  0  0
 24 25  1  0  0  0  0
 38 39  1  0  0  0  0
  7  8  1  0  0  0  0
 17 18  1  0  0  0  0
  3  4  1  0  0  0  0
  3  5  1  0  0  0  0
  3  6  1  0  0  0  0
 42 45  1  0  0  0  0
 42 46  1  0  0  0  0
 42 47  1  0  0  0  0
 11 14  1  0  0  0  0
 11 15  1  0  0  0  0
 11 16  1  0  0  0  0
 49 51  1  0  0  0  0
 49 52  1  0  0  0  0
 49 53  1  0  0  0  0
 22 30  1  0  0  0  0
 22 31  1  0  0  0  0
 23 32  1  0  0  0  0
 23 33  1  0  0  0  0
 21 28  1  0  0  0  0
 21 29  1  0  0  0  0
 24 34  1  0  0  0  0
 24 35  1  0  0  0  0
 39 44  1  0  0  0  0
  8 13  1  0  0  0  0
 18 27  1  0  0  0  0
 25 36  1  0  0  0  0
 25 37  1  0  0  0  0
 48 50  1  0  0  0  0
  7 12  1  0  0  0  0
 38 43  1  0  0  0  0
 17 26  1  0  0  0  0
M  END
$$$$

  -OEChem-02062319033D

 53 52  0     1  0  0  0  0  0999 V2000
   -1.0338   -5.6785    0.1476 C   0  0  0  0  0  0  0  0  0  0  0  0
   -2.0514   -5.7797    0.8227 O   0  0  0  0  0  0  0  0  0  0  0  0
   -0.6558   -6.7819   -0.7841 C   0  0  0  0  0  0  0  0  0  0  0  0
   -0.0111   -7.5354   -0.3038 H   0  0  0  0  0  0  0  0  0  0  0  0
   -1.5317   -7.3401   -1.1520 H   0  0  0  0  0  0  0  0  0  0  0  0
   -0.1109   -6.4687   -1.6890 H   0  0  0  0  0  0  0  0  0  0  0  0
   -0.1543   -4.6083    0.1480 N   0  0  0  0  0  0  0  0  0  0  0  0
   -0.3302   -3.4398    0.9696 C   0  0  2  0  0  0  0  0  0  0  0  0
    0.2328   -2.2439    0.2131 C   0  0  0  0  0  0  0  0  0  0  0  0
    1.2097   -2.3192   -0.5294 O   0  0  0  0  0  0  0  0  0  0  0  0
    0.3557   -3.6024    2.3171 C   0  0  0  0  0  0  0  0  0  0  0  0
    0.6584   -4.6506   -0.4643 H   0  0  0  0  0  0  0  0  0  0  0  0
   -1.4091   -3.3101    1.1082 H   0  0  0  0  0  0  0  0  0  0  0  0
    1.4375   -3.7336    2.1985 H   0  0  0  0  0  0  0  0  0  0  0  0
    0.1969   -2.7243    2.9517 H   0  0  0  0  0  0  0  0  0  0  0  0
   -0.0294   -4.4803    2.8470 H   0  0  0  0  0  0  0  0  0  0  0  0
   -0.4616   -1.0893    0.5050 N   0  0  0  0  0  0  0  0  0  0  0  0
   -0.0774   -0.2105    1.6078 C   0  0  2  0  0  0  0  0  0  0  0  0
   -0.1539   -1.0250    2.8960 C   0  0  0  0  0  0  0  0  0  0  0  0
    0.7296   -1.0116    3.7508 O   0  0  0  0  0  0  0  0  0  0  0  0
   -0.9965    1.0147    1.7228 C   0  0  0  0  0  0  0  0  0  0  0  0
   -0.8545    1.9934    0.5526 C   0  0  0  0  0  0  0  0  0  0  0  0
   -1.7729    3.2056    0.7295 C   0  0  0  0  0  0  0  0  0  0  0  0
   -1.6491    4.1692   -0.4496 C   0  0  0  0  0  0  0  0  0  0  0  0
   -2.5481    5.3034   -0.2731 N   0  0  0  0  0  0  0  0  0  0  0  0
   -1.2392   -0.7944   -0.0643 H   0  0  0  0  0  0  0  0  0  0  0  0
    0.9582    0.1140    1.4502 H   0  0  0  0  0  0  0  0  0  0  0  0
   -0.7722    1.5457    2.6573 H   0  0  0  0  0  0  0  0  0  0  0  0
   -2.0429    0.6906    1.8055 H   0  0  0  0  0  0  0  0  0  0  0  0
   -1.1008    1.4930   -0.3907 H   0  0  0  0  0  0  0  0  0  0  0  0
    0.1866    2.3304    0.4810 H   0  0  0  0  0  0  0  0  0  0  0  0
   -2.8117    2.8648    0.8247 H   0  0  0  0  0  0  0  0  0  0  0  0
   -1.5170    3.7256    1.6614 H   0  0  0  0  0  0  0  0  0  0  0  0
   -1.8925    3.6556   -1.3861 H   0  0  0  0  0  0  0  0  0  0  0  0
   -0.6208    4.5377   -0.5286 H   0  0  0  0  0  0  0  0  0  0  0  0
   -3.0539    5.1734    0.5717 H   0  0  0  0  0  0  0  0  0  0  0  0
   -2.0013    6.1315   -0.2286 H   0  0  0  0  0  0  0  0  0  0  0  0
   -1.3141   -1.7839    2.9660 N   0  0  0  0  0  0  0  0  0  0  0  0
   -1.6215   -2.6614    4.0726 C   0  0  2  0  0  0  0  0  0  0  0  0
   -2.4150   -3.8425    3.5298 C   0  0  0  0  0  0  0  0  0  0  0  0
   -3.2098   -3.7449    2.5971 O   0  0  0  0  0  0  0  0  0  0  0  0
   -2.4025   -1.9334    5.1555 C   0  0  0  0  0  0  0  0  0  0  0  0
   -1.9943   -1.7237    2.2142 H   0  0  0  0  0  0  0  0  0  0  0  0
   -0.6644   -3.0157    4.4706 H   0  0  0  0  0  0  0  0  0  0  0  0
   -3.3646   -1.5711    4.7754 H   0  0  0  0  0  0  0  0  0  0  0  0
   -2.6098   -2.5917    6.0056 H   0  0  0  0  0  0  0  0  0  0  0  0
   -1.8430   -1.0668    5.5238 H   0  0  0  0  0  0  0  0  0  0  0  0
   -2.1635   -5.0096    4.2374 N   0  0  0  0  0  0  0  0  0  0  0  0
   -2.8263   -6.2585    3.9424 C   0  0  0  0  0  0  0  0  0  0  0  0
   -1.4595   -5.0081    4.9696 H   0  0  0  0  0  0  0  0  0  0  0  0
   -3.7252   -6.3540    4.5691 H   0  0  0  0  0  0  0  0  0  0  0  0
   -3.1156   -6.2782    2.8813 H   0  0  0  0  0  0  0  0  0  0  0  0
   -2.1429   -7.0946    4.1517 H   0  0  0  0  0  0  0  0  0  0  0  0
  1  3  1  0  0  0  0
  1  7  1  0  0  0  0
  1  2  2  0  0  0  0
 39 40  1  0  0  0  0
 40 48  1  0  0  0  0
 40 41  2  0  0  0  0
  8  9  1  0  0  0  0
  9 17  1  0  0  0  0
  9 10  2  0  0  0  0
 18 19  1  0  0  0  0
 19 38  1  0  0  0  0
 19 20  2  0  0  0  0
 39 42  1  0  0  0  0
  8 11  1  0  0  0  0
 48 49  1  0  0  0  0
 22 23  1  0  0  0  0
 21 22  1  0  0  0  0
 23 24  1  0  0  0  0
 18 21  1  0  0  0  0
 24 25  1  0  0  0  0
 38 39  1  0  0  0  0
  7  8  1  0  0  0  0
 17 18  1  0  0  0  0
  3  4  1  0  0  0  0
  3  5  1  0  0  0  0
  3  6  1  0  0  0  0
 42 45  1  0  0  0  0
 42 46  1  0  0  0  0
 42 47  1  0  0  0  0
 11 14  1  0  0  0  0
 11 15  1  0  0  0  0
 11 16  1  0  0  0  0
 49 51  1  0  0  0  0
 49 52  1  0  0  0  0
 49 53  1  0  0  0  0
 22 30  1  0  0  0  0
 22 31  1  0  0  0  0
 23 32  1  0  0  0  0
 23 33  1  0  0  0  0
 21 28  1  0  0  0  0
 21 29  1  0  0  0  0
 24 34  1  0  0  0  0
 24 35  1  0  0  0  0
 39 44  1  0  0  0  0
  8 13  1  0  0  0  0
 18 27  1  0  0  0  0
 25 36  1  0  0  0  0
 25 37  1  0  0  0  0
 48 50  1  0  0  0  0
  7 12  1  0  0  0  0
 38 43  1  0  0  0  0
 17 26  1  0  0  0  0
M  END
$$$$

  -OEChem-02062319033D

 53 52  0     1  0  0  0  0  0999 V2000
   -1.0338   -5.6785    0.1476 C   0  0  0  0  0  0  0  0  0  0  0  0
   -2.0514   -5.7797    0.8227 O   0  0  0  0  0  0  0  0  0  0  0  0
   -0.6558   -6.7819   -0.7841 C   0  0  0  0  0  0  0  0  0  0  0  0
   -0.0111   -7.5354   -0.3038 H   0  0  0  0  0  0  0  0  0  0  0  0
   -1.5317   -7.3401   -1.1520 H   0  0  0  0  0  0  0  0  0  0  0  0
   -0.1109   -6.4687   -1.6890 H   0  0  0  0  0  0  0  0  0  0  0  0
   -0.1543   -4.6083    0.1480 N   0  0  0  0  0  0  0  0  0  0  0  0
   -0.3302   -3.4398    0.9696 C   0  0  2  0  0  0  0  0  0  0  0  0
    0.2328   -2.2439    0.2131 C   0  0  0  0  0  0  0  0  0  0  0  0
    1.2097   -2.3192   -0.5294 O   0  0  0  0  0  0  0  0  0  0  0  0
    0.3557   -3.6024    2.3171 C   0  0  0  0  0  0  0  0  0  0  0  0
    0.6584   -4.6506   -0.4643 H   0  0  0  0  0  0  0  0  0  0  0  0
   -1.4091   -3.3101    1.1082 H   0  0  0  0  0  0  0  0  0  0  0  0
    1.4375   -3.7336    2.1985 H   0  0  0  0  0  0  0  0  0  0  0  0
    0.1969   -2.7243    2.9517 H   0  0  0  0  0  0  0  0  0  0  0  0
   -0.0294   -4.4803    2.8470 H   0  0  0  0  0  0  0  0  0  0  0  0
   -0.4616   -1.0893    0.5050 N   0  0  0  0  0  0  0  0  0  0  0  0
    0.0871   -0.0535    1.3780 C   0  0  2  0  0  0  0  0  0  0  0  0
    0.3434   -0.6871    2.7424 C   0  0  0  0  0  0  0  0  0  0  0  0
    1.3857   -0.5215    3.3729 O   0  0  0  0  0  0  0  0  0  0  0  0
   -0.8689    1.1378    1.5395 C   0  0  0  0  0  0  0  0  0  0  0  0
   -1.0476    1.9527    0.2544 C   0  0  0  0  0  0  0  0  0  0  0  0
   -1.9888    3.1396    0.4773 C   0  0  0  0  0  0  0  0  0  0  0  0
   -2.1861    3.9375   -0.8106 C   0  0  0  0  0  0  0  0  0  0  0  0
   -3.1031    5.0479   -0.5827 N   0  0  0  0  0  0  0  0  0  0  0  0
   -1.3611   -0.9065    0.0889 H   0  0  0  0  0  0  0  0  0  0  0  0
    1.0403    0.2881    0.9569 H   0  0  0  0  0  0  0  0  0  0  0  0
   -0.4878    1.7999    2.3282 H   0  0  0  0  0  0  0  0  0  0  0  0
   -1.8486    0.7860    1.8904 H   0  0  0  0  0  0  0  0  0  0  0  0
   -1.4541    1.3187   -0.5417 H   0  0  0  0  0  0  0  0  0  0  0  0
   -0.0715    2.3185   -0.0862 H   0  0  0  0  0  0  0  0  0  0  0  0
   -2.9573    2.7732    0.8406 H   0  0  0  0  0  0  0  0  0  0  0  0
   -1.5767    3.7917    1.2578 H   0  0  0  0  0  0  0  0  0  0  0  0
   -2.5874    3.2915   -1.5991 H   0  0  0  0  0  0  0  0  0  0  0  0
   -1.2263    4.3330   -1.1595 H   0  0  0  0  0  0  0  0  0  0  0  0
   -3.4070    5.0140    0.3623 H   0  0  0  0  0  0  0  0  0  0  0  0
   -2.6180    5.8957   -0.7631 H   0  0  0  0  0  0  0  0  0  0  0  0
   -0.7198   -1.4756    3.1602 N   0  0  0  0  0  0  0  0  0  0  0  0
   -0.7229   -2.2056    4.4075 C   0  0  2  0  0  0  0  0  0  0  0  0
   -1.5302   -3.4809    4.2042 C   0  0  0  0  0  0  0  0  0  0  0  0
   -2.5103   -3.5436    3.4649 O   0  0  0  0  0  0  0  0  0  0  0  0
   -1.3036   -1.3689    5.5369 C   0  0  0  0  0  0  0  0  0  0  0  0
   -1.5471   -1.5461    2.5753 H   0  0  0  0  0  0  0  0  0  0  0  0
    0.3193   -2.4633    4.6257 H   0  0  0  0  0  0  0  0  0  0  0  0
   -2.3473   -1.1010    5.3361 H   0  0  0  0  0  0  0  0  0  0  0  0
   -1.2789   -1.9130    6.4869 H   0  0  0  0  0  0  0  0  0  0  0  0
   -0.7398   -0.4382    5.6621 H   0  0  0  0  0  0  0  0  0  0  0  0
   -1.0535   -4.5294    4.9784 N   0  0  0  0  0  0  0  0  0  0  0  0
   -1.6760   -5.8326    4.9943 C   0  0  0  0  0  0  0  0  0  0  0  0
   -0.2114   -4.3996    5.5314 H   0  0  0  0  0  0  0  0  0  0  0  0
   -2.4118   -5.8780    5.8107 H   0  0  0  0  0  0  0  0  0  0  0  0
   -2.1827   -6.0086    4.0340 H   0  0  0  0  0  0  0  0  0  0  0  0
   -0.9075   -6.6040    5.1502 H   0  0  0  0  0  0  0  0  0  0  0  0
  1  3  1  0  0  0  0
  1  7  1  0  0  0  0
  1  2  2  0  0  0  0
 39 40  1  0  0  0  0
 40 48  1  0  0  0  0
 40 41  2  0  0  0  0
  8  9  1  0  0  0  0
  9 17  1  0  0  0  0
  9 10  2  0  0  0  0
 18 19  1  0  0  0  0
 19 38  1  0  0  0  0
 19 20  2  0  0  0  0
 39 42  1  0  0  0  0
  8 11  1  0  0  0  0
 48 49  1  0  0  0  0
 22 23  1  0  0  0  0
 21 22  1  0  0  0  0
 23 24  1  0  0  0  0
 18 21  1  0  0  0  0
 24 25  1  0  0  0  0
 38 39  1  0  0  0  0
  7  8  1  0  0  0  0
 17 18  1  0  0  0  0
  3  4  1  0  0  0  0
  3  5  1  0  0  0  0
  3  6  1  0  0  0  0
 42 45  1  0  0  0  0
 42 46  1  0  0  0  0
 42 47  1  0  0  0  0
 11 14  1  0  0  0  0
 11 15  1  0  0  0  0
 11 16  1  0  0  0  0
 49 51  1  0  0  0  0
 49 52  1  0  0  0  0
 49 53  1  0  0  0  0
 22 30  1  0  0  0  0
 22 31  1  0  0  0  0
 23 32  1  0  0  0  0
 23 33  1  0  0  0  0
 21 28  1  0  0  0  0
 21 29  1  0  0  0  0
 24 34  1  0  0  0  0
 24 35  1  0  0  0  0
 39 44  1  0  0  0  0
  8 13  1  0  0  0  0
 18 27  1  0  0  0  0
 25 36  1  0  0  0  0
 25 37  1  0  0  0  0
 48 50  1  0  0  0  0
  7 12  1  0  0  0  0
 38 43  1  0  0  0  0
 17 26  1  0  0  0  0
M  END
$$$$

  -OEChem-02062319033D

 53 52  0     1  0  0  0  0  0999 V2000
   -1.0338   -5.6785    0.1476 C   0  0  0  0  0  0  0  0  0  0  0  0
   -2.0514   -5.7797    0.8227 O   0  0  0  0  0  0  0  0  0  0  0  0
   -0.6558   -6.7819   -0.7841 C   0  0  0  0  0  0  0  0  0  0  0  0
   -0.0111   -7.5354   -0.3038 H   0  0  0  0  0  0  0  0  0  0  0  0
   -1.5317   -7.3401   -1.1520 H   0  0  0  0  0  0  0  0  0  0  0  0
   -0.1109   -6.4687   -1.6890 H   0  0  0  0  0  0  0  0  0  0  0  0
   -0.1543   -4.6083    0.1480 N   0  0  0  0  0  0  0  0  0  0  0  0
   -0.3302   -3.4398    0.9696 C   0  0  2  0  0  0  0  0  0  0  0  0
    0.2328   -2.2439    0.2131 C   0  0  0  0  0  0  0  0  0  0  0  0
    1.2097   -2.3192   -0.5294 O   0  0  0  0  0  0  0  0  0  0  0  0
    0.3557   -3.6024    2.3171 C   0  0  0  0  0  0  0  0  0  0  0  0
    0.6584   -4.6506   -0.4643 H   0  0  0  0  0  0  0  0  0  0  0  0
   -1.4091   -3.3101    1.1082 H   0  0  0  0  0  0  0  0  0  0  0  0
    1.4375   -3.7336    2.1985 H   0  0  0  0  0  0  0  0  0  0  0  0
    0.1969   -2.7243    2.9517 H   0  0  0  0  0  0  0  0  0  0  0  0
   -0.0294   -4.4803    2.8470 H   0  0  0  0  0  0  0  0  0  0  0  0
   -0.4616   -1.0893    0.5050 N   0  0  0  0  0  0  0  0  0  0  0  0
    0.1876    0.0773    1.0999 C   0  0  2  0  0  0  0  0  0  0  0  0
    0.7720   -0.3534    2.4422 C   0  0  0  0  0  0  0  0  0  0  0  0
    1.9108   -0.0614    2.8019 O   0  0  0  0  0  0  0  0  0  0  0  0
   -0.7921    1.2398    1.3188 C   0  0  0  0  0  0  0  0  0  0  0  0
   -1.2965    1.8639    0.0135 C   0  0  0  0  0  0  0  0  0  0  0  0
   -2.2484    3.0310    0.2890 C   0  0  0  0  0  0  0  0  0  0  0  0
   -2.7704    3.6372   -1.0126 C   0  0  0  0  0  0  0  0  0  0  0  0
   -3.6923    4.7303   -0.7281 N   0  0  0  0  0  0  0  0  0  0  0  0
   -1.4396   -1.0014    0.2780 H   0  0  0  0  0  0  0  0  0  0  0  0
    1.0032    0.3965    0.4399 H   0  0  0  0  0  0  0  0  0  0  0  0
   -0.2984    2.0182    1.9154 H   0  0  0  0  0  0  0  0  0  0  0  0
   -1.6478    0.8999    1.9179 H   0  0  0  0  0  0  0  0  0  0  0  0
   -1.8185    1.1113   -0.5883 H   0  0  0  0  0  0  0  0  0  0  0  0
   -0.4432    2.2190   -0.5766 H   0  0  0  0  0  0  0  0  0  0  0  0
   -3.0895    2.6788    0.8996 H   0  0  0  0  0  0  0  0  0  0  0  0
   -1.7256    3.7996    0.8722 H   0  0  0  0  0  0  0  0  0  0  0  0
   -3.2849    2.8740   -1.6067 H   0  0  0  0  0  0  0  0  0  0  0  0
   -1.9367    4.0199   -1.6109 H   0  0  0  0  0  0  0  0  0  0  0  0
   -3.7847    4.8134    0.2573 H   0  0  0  0  0  0  0  0  0  0  0  0
   -3.3166    5.5645   -1.1150 H   0  0  0  0  0  0  0  0  0  0  0  0
   -0.1206   -1.1199    3.1787 N   0  0  0  0  0  0  0  0  0  0  0  0
    0.1928   -1.6725    4.4769 C   0  0  2  0  0  0  0  0  0  0  0  0
   -0.5492   -2.9951    4.6166 C   0  0  0  0  0  0  0  0  0  0  0  0
   -1.6576   -3.1976    4.1252 O   0  0  0  0  0  0  0  0  0  0  0  0
   -0.1904   -0.7137    5.5935 C   0  0  0  0  0  0  0  0  0  0  0  0
   -1.0467   -1.3029    2.8039 H   0  0  0  0  0  0  0  0  0  0  0  0
    1.2727   -1.8557    4.4903 H   0  0  0  0  0  0  0  0  0  0  0  0
   -1.2689   -0.5181    5.5960 H   0  0  0  0  0  0  0  0  0  0  0  0
    0.0738   -1.1216    6.5747 H   0  0  0  0  0  0  0  0  0  0  0  0
    0.3214    0.2474    5.4747 H   0  0  0  0  0  0  0  0  0  0  0  0
    0.1530   -3.9081    5.3909 N   0  0  0  0  0  0  0  0  0  0  0  0
   -0.3601   -5.2210    5.7056 C   0  0  0  0  0  0  0  0  0  0  0  0
    1.0825   -3.6701    5.7243 H   0  0  0  0  0  0  0  0  0  0  0  0
   -0.9001   -5.1844    6.6632 H   0  0  0  0  0  0  0  0  0  0  0  0
   -1.0464   -5.5467    4.9100 H   0  0  0  0  0  0  0  0  0  0  0  0
    0.4754   -5.9323    5.7829 H   0  0  0  0  0  0  0  0  0  0  0  0
  1  3  1  0  0  0  0
  1  7  1  0  0  0  0
  1  2  2  0  0  0  0
 39 40  1  0  0  0  0
 40 48  1  0  0  0  0
 40 41  2  0  0  0  0
  8  9  1  0  0  0  0
  9 17  1  0  0  0  0
  9 10  2  0  0  0  0
 18 19  1  0  0  0  0
 19 38  1  0  0  0  0
 19 20  2  0  0  0  0
 39 42  1  0  0  0  0
  8 11  1  0  0  0  0
 48 49  1  0  0  0  0
 22 23  1  0  0  0  0
 21 22  1  0  0  0  0
 23 24  1  0  0  0  0
 18 21  1  0  0  0  0
 24 25  1  0  0  0  0
 38 39  1  0  0  0  0
  7  8  1  0  0  0  0
 17 18  1  0  0  0  0
  3  4  1  0  0  0  0
  3  5  1  0  0  0  0
  3  6  1  0  0  0  0
 42 45  1  0  0  0  0
 42 46  1  0  0  0  0
 42 47  1  0  0  0  0
 11 14  1  0  0  0  0
 11 15  1  0  0  0  0
 11 16  1  0  0  0  0
 49 51  1  0  0  0  0
 49 52  1  0  0  0  0
 49 53  1  0  0  0  0
 22 30  1  0  0  0  0
 22 31  1  0  0  0  0
 23 32  1  0  0  0  0
 23 33  1  0  0  0  0
 21 28  1  0  0  0  0
 21 29  1  0  0  0  0
 24 34  1  0  0  0  0
 24 35  1  0  0  0  0
 39 44  1  0  0  0  0
  8 13  1  0  0  0  0
 18 27  1  0  0  0  0
 25 36  1  0  0  0  0
 25 37  1  0  0  0  0
 48 50  1  0  0  0  0
  7 12  1  0  0  0  0
 38 43  1  0  0  0  0
 17 26  1  0  0  0  0
M  END
$$$$

  -OEChem-02062319033D

 53 52  0     1  0  0  0  0  0999 V2000
   -1.0338   -5.6785    0.1476 C   0  0  0  0  0  0  0  0  0  0  0  0
   -2.0514   -5.7797    0.8227 O   0  0  0  0  0  0  0  0  0  0  0  0
   -0.6558   -6.7819   -0.7841 C   0  0  0  0  0  0  0  0  0  0  0  0
   -0.0111   -7.5354   -0.3038 H   0  0  0  0  0  0  0  0  0  0  0  0
   -1.5317   -7.3401   -1.1520 H   0  0  0  0  0  0  0  0  0  0  0  0
   -0.1109   -6.4687   -1.6890 H   0  0  0  0  0  0  0  0  0  0  0  0
   -0.1543   -4.6083    0.1480 N   0  0  0  0  0  0  0  0  0  0  0  0
   -0.3302   -3.4398    0.9696 C   0  0  2  0  0  0  0  0  0  0  0  0
    0.2328   -2.2439    0.2131 C   0  0  0  0  0  0  0  0  0  0  0  0
    1.2097   -2.3192   -0.5294 O   0  0  0  0  0  0  0  0  0  0  0  0
    0.3557   -3.6024    2.3171 C   0  0  0  0  0  0  0  0  0  0  0  0
    0.6584   -4.6506   -0.4643 H   0  0  0  0  0  0  0  0  0  0  0  0
   -1.4091   -3.3101    1.1082 H   0  0  0  0  0  0  0  0  0  0  0  0
    1.4375   -3.7336    2.1985 H   0  0  0  0  0  0  0  0  0  0  0  0
    0.1969   -2.7243    2.9517 H   0  0  0  0  0  0  0  0  0  0  0  0
   -0.0294   -4.4803    2.8470 H   0  0  0  0  0  0  0  0  0  0  0  0
   -0.4616   -1.0893    0.5050 N   0  0  0  0  0  0  0  0  0  0  0  0
    0.2172    0.1728    0.7924 C   0  0  2  0  0  0  0  0  0  0  0  0
    1.1026   -0.0468    2.0158 C   0  0  0  0  0  0  0  0  0  0  0  0
    2.2689    0.3374    2.0764 O   0  0  0  0  0  0  0  0  0  0  0  0
   -0.7714    1.3138    1.0756 C   0  0  0  0  0  0  0  0  0  0  0  0
   -1.5843    1.7330   -0.1536 C   0  0  0  0  0  0  0  0  0  0  0  0
   -2.5341    2.8874    0.1776 C   0  0  0  0  0  0  0  0  0  0  0  0
   -3.3621    3.2887   -1.0420 C   0  0  0  0  0  0  0  0  0  0  0  0
   -4.2755    4.3723   -0.6995 N   0  0  0  0  0  0  0  0  0  0  0  0
   -1.4692   -1.0728    0.4900 H   0  0  0  0  0  0  0  0  0  0  0  0
    0.8493    0.4317   -0.0655 H   0  0  0  0  0  0  0  0  0  0  0  0
   -0.2169    2.1856    1.4472 H   0  0  0  0  0  0  0  0  0  0  0  0
   -1.4541    1.0244    1.8860 H   0  0  0  0  0  0  0  0  0  0  0  0
   -2.1692    0.8850   -0.5272 H   0  0  0  0  0  0  0  0  0  0  0  0
   -0.9030    2.0386   -0.9568 H   0  0  0  0  0  0  0  0  0  0  0  0
   -3.1992    2.5881    0.9974 H   0  0  0  0  0  0  0  0  0  0  0  0
   -1.9533    3.7489    0.5310 H   0  0  0  0  0  0  0  0  0  0  0  0
   -3.9373    2.4314   -1.4084 H   0  0  0  0  0  0  0  0  0  0  0  0
   -2.7036    3.6197   -1.8521 H   0  0  0  0  0  0  0  0  0  0  0  0
   -4.1613    4.5852    0.2640 H   0  0  0  0  0  0  0  0  0  0  0  0
   -4.0496    5.1604   -1.2602 H   0  0  0  0  0  0  0  0  0  0  0  0
    0.4427   -0.7411    3.0204 N   0  0  0  0  0  0  0  0  0  0  0  0
    1.0630   -1.0983    4.2759 C   0  0  2  0  0  0  0  0  0  0  0  0
    0.4612   -2.4184    4.7391 C   0  0  0  0  0  0  0  0  0  0  0  0
   -0.7097   -2.7307    4.5331 O   0  0  0  0  0  0  0  0  0  0  0  0
    0.8613   -0.0125    5.3214 C   0  0  0  0  0  0  0  0  0  0  0  0
   -0.5270   -1.0108    2.8846 H   0  0  0  0  0  0  0  0  0  0  0  0
    2.1310   -1.2341    4.0736 H   0  0  0  0  0  0  0  0  0  0  0  0
   -0.2028    0.1379    5.5372 H   0  0  0  0  0  0  0  0  0  0  0  0
    1.3561   -0.2717    6.2632 H   0  0  0  0  0  0  0  0  0  0  0  0
    1.2683    0.9434    4.9741 H   0  0  0  0  0  0  0  0  0  0  0  0
    1.3737   -3.1881    5.4469 N   0  0  0  0  0  0  0  0  0  0  0  0
    1.0315   -4.4655    6.0277 C   0  0  0  0  0  0  0  0  0  0  0  0
    2.3342   -2.8695    5.5349 H   0  0  0  0  0  0  0  0  0  0  0  0
    0.7068   -4.3204    7.0686 H   0  0  0  0  0  0  0  0  0  0  0  0
    0.2156   -4.9241    5.4497 H   0  0  0  0  0  0  0  0  0  0  0  0
    1.9115   -5.1252    6.0068 H   0  0  0  0  0  0  0  0  0  0  0  0
  1  3  1  0  0  0  0
  1  7  1  0  0  0  0
  1  2  2  0  0  0  0
 39 40  1  0  0  0  0
 40 48  1  0  0  0  0
 40 41  2  0  0  0  0
  8  9  1  0  0  0  0
  9 17  1  0  0  0  0
  9 10  2  0  0  0  0
 18 19  1  0  0  0  0
 19 38  1  0  0  0  0
 19 20  2  0  0  0  0
 39 42  1  0  0  0  0
  8 11  1  0  0  0  0
 48 49  1  0  0  0  0
 22 23  1  0  0  0  0
 21 22  1  0  0  0  0
 23 24  1  0  0  0  0
 18 21  1  0  0  0  0
 24 25  1  0  0  0  0
 38 39  1  0  0  0  0
  7  8  1  0  0  0  0
 17 18  1  0  0  0  0
  3  4  1  0  0  0  0
  3  5  1  0  0  0  0
  3  6  1  0  0  0  0
 42 45  1  0  0  0  0
 42 46  1  0  0  0  0
 42 47  1  0  0  0  0
 11 14  1  0  0  0  0
 11 15  1  0  0  0  0
 11 16  1  0  0  0  0
 49 51  1  0  0  0  0
 49 52  1  0  0  0  0
 49 53  1  0  0  0  0
 22 30  1  0  0  0  0
 22 31  1  0  0  0  0
 23 32  1  0  0  0  0
 23 33  1  0  0  0  0
 21 28  1  0  0  0  0
 21 29  1  0  0  0  0
 24 34  1  0  0  0  0
 24 35  1  0  0  0  0
 39 44  1  0  0  0  0
  8 13  1  0  0  0  0
 18 27  1  0  0  0  0
 25 36  1  0  0  0  0
 25 37  1  0  0  0  0
 48 50  1  0  0  0  0
  7 12  1  0  0  0  0
 38 43  1  0  0  0  0
 17 26  1  0  0  0  0
M  END
$$$$

  -OEChem-02062319033D

 53 52  0     1  0  0  0  0  0999 V2000
   -1.0338   -5.6785    0.1476 C   0  0  0  0  0  0  0  0  0  0  0  0
   -2.0514   -5.7797    0.8227 O   0  0  0  0  0  0  0  0  0  0  0  0
   -0.6558   -6.7819   -0.7841 C   0  0  0  0  0  0  0  0  0  0  0  0
   -0.0111   -7.5354   -0.3038 H   0  0  0  0  0  0  0  0  0  0  0  0
   -1.5317   -7.3401   -1.1520 H   0  0  0  0  0  0  0  0  0  0  0  0
   -0.1109   -6.4687   -1.6890 H   0  0  0  0  0  0  0  0  0  0  0  0
   -0.1543   -4.6083    0.1480 N   0  0  0  0  0  0  0  0  0  0  0  0
   -0.3302   -3.4398    0.9696 C   0  0  2  0  0  0  0  0  0  0  0  0
    0.2328   -2.2439    0.2131 C   0  0  0  0  0  0  0  0  0  0  0  0
    1.2097   -2.3192   -0.5294 O   0  0  0  0  0  0  0  0  0  0  0  0
    0.3557   -3.6024    2.3171 C   0  0  0  0  0  0  0  0  0  0  0  0
    0.6584   -4.6506   -0.4643 H   0  0  0  0  0  0  0  0  0  0  0  0
   -1.4091   -3.3101    1.1082 H   0  0  0  0  0  0  0  0  0  0  0  0
    1.4375   -3.7336    2.1985 H   0  0  0  0  0  0  0  0  0  0  0  0
    0.1969   -2.7243    2.9517 H   0  0  0  0  0  0  0  0  0  0  0  0
   -0.0294   -4.4803    2.8470 H   0  0  0  0  0  0  0  0  0  0  0  0
   -0.4616   -1.0893    0.5050 N   0  0  0  0  0  0  0  0  0  0  0  0
    0.1739    0.2266    0.4765 C   0  0  2  0  0  0  0  0  0  0  0  0
    1.3127    0.2119    1.4922 C   0  0  0  0  0  0  0  0  0  0  0  0
    2.4357    0.6476    1.2461 O   0  0  0  0  0  0  0  0  0  0  0  0
   -0.8081    1.3546    0.8265 C   0  0  0  0  0  0  0  0  0  0  0  0
   -1.8914    1.5691   -0.2356 C   0  0  0  0  0  0  0  0  0  0  0  0
   -2.8262    2.7185    0.1507 C   0  0  0  0  0  0  0  0  0  0  0  0
   -3.9209    2.9159   -0.8967 C   0  0  0  0  0  0  0  0  0  0  0  0
   -4.8130    3.9983   -0.4987 N   0  0  0  0  0  0  0  0  0  0  0  0
   -1.4479   -1.1158    0.7105 H   0  0  0  0  0  0  0  0  0  0  0  0
    0.5891    0.3914   -0.5250 H   0  0  0  0  0  0  0  0  0  0  0  0
   -0.2489    2.2907    0.9555 H   0  0  0  0  0  0  0  0  0  0  0  0
   -1.2807    1.1512    1.7970 H   0  0  0  0  0  0  0  0  0  0  0  0
   -2.4823    0.6550   -0.3627 H   0  0  0  0  0  0  0  0  0  0  0  0
   -1.4197    1.7895   -1.2008 H   0  0  0  0  0  0  0  0  0  0  0  0
   -3.2790    2.5072    1.1276 H   0  0  0  0  0  0  0  0  0  0  0  0
   -2.2445    3.6429    0.2575 H   0  0  0  0  0  0  0  0  0  0  0  0
   -4.5003    1.9941   -1.0178 H   0  0  0  0  0  0  0  0  0  0  0  0
   -3.4747    3.1596   -1.8667 H   0  0  0  0  0  0  0  0  0  0  0  0
   -4.5112    4.3450    0.3817 H   0  0  0  0  0  0  0  0  0  0  0  0
   -4.7669    4.7110   -1.1890 H   0  0  0  0  0  0  0  0  0  0  0  0
    0.9317   -0.3649    2.6959 N   0  0  0  0  0  0  0  0  0  0  0  0
    1.8286   -0.5221    3.8183 C   0  0  2  0  0  0  0  0  0  0  0  0
    1.4321   -1.7900    4.5631 C   0  0  0  0  0  0  0  0  0  0  0  0
    0.2687   -2.1746    4.6608 O   0  0  0  0  0  0  0  0  0  0  0  0
    1.7797    0.6871    4.7392 C   0  0  0  0  0  0  0  0  0  0  0  0
   -0.0236   -0.6896    2.8118 H   0  0  0  0  0  0  0  0  0  0  0  0
    2.8357   -0.6410    3.4041 H   0  0  0  0  0  0  0  0  0  0  0  0
    0.7783    0.8223    5.1638 H   0  0  0  0  0  0  0  0  0  0  0  0
    2.4806    0.5790    5.5735 H   0  0  0  0  0  0  0  0  0  0  0  0
    2.0362    1.6023    4.1947 H   0  0  0  0  0  0  0  0  0  0  0  0
    2.5255   -2.4184    5.1425 N   0  0  0  0  0  0  0  0  0  0  0  0
    2.4042   -3.6174    5.9386 C   0  0  0  0  0  0  0  0  0  0  0  0
    3.4583   -2.0522    4.9764 H   0  0  0  0  0  0  0  0  0  0  0  0
    2.2996   -3.3450    6.9992 H   0  0  0  0  0  0  0  0  0  0  0  0
    1.5176   -4.1832    5.6163 H   0  0  0  0  0  0  0  0  0  0  0  0
    3.3030   -4.2377    5.8064 H   0  0  0  0  0  0  0  0  0  0  0  0
  1  3  1  0  0  0  0
  1  7  1  0  0  0  0
  1  2  2  0  0  0  0
 39 40  1  0  0  0  0
 40 48  1  0  0  0  0
 40 41  2  0  0  0  0
  8  9  1  0  0  0  0
  9 17  1  0  0  0  0
  9 10  2  0  0  0  0
 18 19  1  0  0  0  0
 19 38  1  0  0  0  0
 19 20  2  0  0  0  0
 39 42  1  0  0  0  0
  8 11  1  0  0  0  0
 48 49  1  0  0  0  0
 22 23  1  0  0  0  0
 21 22  1  0  0  0  0
 23 24  1  0  0  0  0
 18 21  1  0  0  0  0
 24 25  1  0  0  0  0
 38 39  1  0  0  0  0
  7  8  1  0  0  0  0
 17 18  1  0  0  0  0
  3  4  1  0  0  0  0
  3  5  1  0  0  0  0
  3  6  1  0  0  0  0
 42 45  1  0  0  0  0
 42 46  1  0  0  0  0
 42 47  1  0  0  0  0
 11 14  1  0  0  0  0
 11 15  1  0  0  0  0
 11 16  1  0  0  0  0
 49 51  1  0  0  0  0
 49 52  1  0  0  0  0
 49 53  1  0  0  0  0
 22 30  1  0  0  0  0
 22 31  1  0  0  0  0
 23 32  1  0  0  0  0
 23 33  1  0  0  0  0
 21 28  1  0  0  0  0
 21 29  1  0  0  0  0
 24 34  1  0  0  0  0
 24 35  1  0  0  0  0
 39 44  1  0  0  0  0
  8 13  1  0  0  0  0
 18 27  1  0  0  0  0
 25 36  1  0  0  0  0
 25 37  1  0  0  0  0
 48 50  1  0  0  0  0
  7 12  1  0  0  0  0
 38 43  1  0  0  0  0
 17 26  1  0  0  0  0
M  END
$$$$

  -OEChem-02062319033D

 53 52  0     1  0  0  0  0  0999 V2000
   -1.0338   -5.6785    0.1476 C   0  0  0  0  0  0  0  0  0  0  0  0
   -2.0514   -5.7797    0.8227 O   0  0  0  0  0  0  0  0  0  0  0  0
   -0.6558   -6.7819   -0.7841 C   0  0  0  0  0  0  0  0  0  0  0  0
   -0.0111   -7.5354   -0.3038 H   0  0  0  0  0  0  0  0  0  0  0  0
   -1.5317   -7.3401   -1.1520 H   0  0  0  0  0  0  0  0  0  0  0  0
   -0.1109   -6.4687   -1.6890 H   0  0  0  0  0  0  0  0  0  0  0  0
   -0.1543   -4.6083    0.1480 N   0  0  0  0  0  0  0  0  0  0  0  0
   -0.3302   -3.4398    0.9696 C   0  0  2  0  0  0  0  0  0  0  0  0
    0.2328   -2.2439    0.2131 C   0  0  0  0  0  0  0  0  0  0  0  0
    1.2097   -2.3192   -0.5294 O   0  0  0  0  0  0  0  0  0  0  0  0
    0.3557   -3.6024    2.3171 C   0  0  0  0  0  0  0  0  0  0  0  0
    0.6584   -4.6506   -0.4643 H   0  0  0  0  0  0  0  0  0  0  0  0
   -1.4091   -3.3101    1.1082 H   0  0  0  0  0  0  0  0  0  0  0  0
    1.4375   -3.7336    2.1985 H   0  0  0  0  0  0  0  0  0  0  0  0
    0.1969   -2.7243    2.9517 H   0  0  0  0  0  0  0  0  0  0  0  0
   -0.0294   -4.4803    2.8470 H   0  0  0  0  0  0  0  0  0  0  0  0
   -0.4616   -1.0893    0.5050 N   0  0  0  0  0  0  0  0  0  0  0  0
    0.0606    0.2350    0.1738 C   0  0  2  0  0  0  0  0  0  0  0  0
    1.3880    0.4051    0.9073 C   0  0  0  0  0  0  0  0  0  0  0  0
    2.3998    0.8482    0.3675 O   0  0  0  0  0  0  0  0  0  0  0  0
   -0.8999    1.3596    0.5886 C   0  0  0  0  0  0  0  0  0  0  0  0
   -2.1968    1.3832   -0.2269 C   0  0  0  0  0  0  0  0  0  0  0  0
   -3.1050    2.5359    0.2100 C   0  0  0  0  0  0  0  0  0  0  0  0
   -4.4087    2.5441   -0.5866 C   0  0  0  0  0  0  0  0  0  0  0  0
   -5.2682    3.6337   -0.1395 N   0  0  0  0  0  0  0  0  0  0  0  0
   -1.3771   -1.1273    0.9245 H   0  0  0  0  0  0  0  0  0  0  0  0
    0.2405    0.2783   -0.9071 H   0  0  0  0  0  0  0  0  0  0  0  0
   -0.3921    2.3263    0.4737 H   0  0  0  0  0  0  0  0  0  0  0  0
   -1.1395    1.2715    1.6570 H   0  0  0  0  0  0  0  0  0  0  0  0
   -2.7365    0.4372   -0.1060 H   0  0  0  0  0  0  0  0  0  0  0  0
   -1.9581    1.4888   -1.2920 H   0  0  0  0  0  0  0  0  0  0  0  0
   -3.3235    2.4416    1.2812 H   0  0  0  0  0  0  0  0  0  0  0  0
   -2.5793    3.4890    0.0702 H   0  0  0  0  0  0  0  0  0  0  0  0
   -4.9354    1.5917   -0.4615 H   0  0  0  0  0  0  0  0  0  0  0  0
   -4.1975    2.6710   -1.6536 H   0  0  0  0  0  0  0  0  0  0  0  0
   -4.8104    4.1092    0.6027 H   0  0  0  0  0  0  0  0  0  0  0  0
   -5.4197    4.2469   -0.9061 H   0  0  0  0  0  0  0  0  0  0  0  0
    1.3132   -0.0171    2.2275 N   0  0  0  0  0  0  0  0  0  0  0  0
    2.4373    0.0167    3.1352 C   0  0  2  0  0  0  0  0  0  0  0  0
    2.2974   -1.1527    4.1008 C   0  0  0  0  0  0  0  0  0  0  0  0
    1.2109   -1.5671    4.4995 O   0  0  0  0  0  0  0  0  0  0  0  0
    2.5023    1.3372    3.8866 C   0  0  0  0  0  0  0  0  0  0  0  0
    0.4293   -0.3613    2.5905 H   0  0  0  0  0  0  0  0  0  0  0  0
    3.3388   -0.1168    2.5273 H   0  0  0  0  0  0  0  0  0  0  0  0
    1.6075    1.4885    4.5012 H   0  0  0  0  0  0  0  0  0  0  0  0
    3.3707    1.3724    4.5527 H   0  0  0  0  0  0  0  0  0  0  0  0
    2.5729    2.1792    3.1895 H   0  0  0  0  0  0  0  0  0  0  0  0
    3.5299   -1.6515    4.4985 N   0  0  0  0  0  0  0  0  0  0  0  0
    3.6643   -2.7346    5.4444 C   0  0  0  0  0  0  0  0  0  0  0  0
    4.3782   -1.2740    4.0866 H   0  0  0  0  0  0  0  0  0  0  0  0
    3.7695   -2.3245    6.4597 H   0  0  0  0  0  0  0  0  0  0  0  0
    2.7707   -3.3744    5.3984 H   0  0  0  0  0  0  0  0  0  0  0  0
    4.5550   -3.3303    5.1956 H   0  0  0  0  0  0  0  0  0  0  0  0
  1  3  1  0  0  0  0
  1  7  1  0  0  0  0
  1  2  2  0  0  0  0
 39 40  1  0  0  0  0
 40 48  1  0  0  0  0
 40 41  2  0  0  0  0
  8  9  1  0  0  0  0
  9 17  1  0  0  0  0
  9 10  2  0  0  0  0
 18 19  1  0  0  0  0
 19 38  1  0  0  0  0
 19 20  2  0  0  0  0
 39 42  1  0  0  0  0
  8 11  1  0  0  0  0
 48 49  1  0  0  0  0
 22 23  1  0  0  0  0
 21 22  1  0  0  0  0
 23 24  1  0  0  0  0
 18 21  1  0  0  0  0
 24 25  1  0  0  0  0
 38 39  1  0  0  0  0
  7  8  1  0  0  0  0
 17 18  1  0  0  0  0
  3  4  1  0  0  0  0
  3  5  1  0  0  0  0
  3  6  1  0  0  0  0
 42 45  1  0  0  0  0
 42 46  1  0  0  0  0
 42 47  1  0  0  0  0
 11 14  1  0  0  0  0
 11 15  1  0  0  0  0
 11 16  1  0  0  0  0
 49 51  1  0  0  0  0
 49 52  1  0  0  0  0
 49 53  1  0  0  0  0
 22 30  1  0  0  0  0
 22 31  1  0  0  0  0
 23 32  1  0  0  0  0
 23 33  1  0  0  0  0
 21 28  1  0  0  0  0
 21 29  1  0  0  0  0
 24 34  1  0  0  0  0
 24 35  1  0  0  0  0
 39 44  1  0  0  0  0
  8 13  1  0  0  0  0
 18 27  1  0  0  0  0
 25 36  1  0  0  0  0
 25 37  1  0  0  0  0
 48 50  1  0  0  0  0
  7 12  1  0  0  0  0
 38 43  1  0  0  0  0
 17 26  1  0  0  0  0
M  END
$$$$
