
  -OEChem-01062216093D

 32 32  0     1  0  0  0  0  0999 V2000
   -3.4467   -2.3142    0.8908 H   0  0  0  0  0  0  0  0  0  0  0  0
   -3.3586   -1.4344    0.2473 C   0  0  0  0  0  0  0  0  0  0  0  0
   -4.2627   -0.8291    0.3477 H   0  0  0  0  0  0  0  0  0  0  0  0
   -3.2633   -1.7661   -0.7893 H   0  0  0  0  0  0  0  0  0  0  0  0
   -2.1440   -0.6178    0.6466 C   0  0  0  0  0  0  0  0  0  0  0  0
   -1.6346   -0.7932    1.7403 O   0  0  0  0  0  0  0  0  0  0  0  0
   -1.7291    0.4231   -0.1570 N   0  0  0  0  0  0  0  0  0  0  0  0
   -2.2911    0.6012   -0.9895 H   0  0  0  0  0  0  0  0  0  0  0  0
   -0.4171    1.0988   -0.1332 C   0  0  1  0  0  0  0  0  0  0  0  0
   -0.2435    1.5393    0.8536 H   0  0  0  0  0  0  0  0  0  0  0  0
    0.7630    0.1603   -0.5231 C   0  0  0  0  0  0  0  0  0  0  0  0
    0.5493   -0.2672   -1.5086 H   0  0  0  0  0  0  0  0  0  0  0  0
    1.6789    0.7496   -0.6275 H   0  0  0  0  0  0  0  0  0  0  0  0
    1.0773   -0.9626    0.4358 C   0  0  0  0  0  0  0  0  0  0  0  0
    1.8433   -0.7175    1.5858 C   0  0  0  0  0  0  0  0  0  0  0  0
    2.1715    0.2903    1.8183 H   0  0  0  0  0  0  0  0  0  0  0  0
    2.1791   -1.7629    2.4530 C   0  0  0  0  0  0  0  0  0  0  0  0
    2.7565   -1.5601    3.3498 H   0  0  0  0  0  0  0  0  0  0  0  0
    1.7650   -3.0676    2.1699 C   0  0  0  0  0  0  0  0  0  0  0  0
    2.0190   -3.8778    2.8466 H   0  0  0  0  0  0  0  0  0  0  0  0
    1.0190   -3.3268    1.0168 C   0  0  0  0  0  0  0  0  0  0  0  0
    0.6969   -4.3397    0.7956 H   0  0  0  0  0  0  0  0  0  0  0  0
    0.6834   -2.2805    0.1506 C   0  0  0  0  0  0  0  0  0  0  0  0
    0.1076   -2.4956   -0.7436 H   0  0  0  0  0  0  0  0  0  0  0  0
   -0.4145    2.2139   -1.2111 C   0  0  0  0  0  0  0  0  0  0  0  0
   -1.3770    2.3528   -1.9602 O   0  0  0  0  0  0  0  0  0  0  0  0
    0.6952    3.0180   -1.4116 N   0  0  0  0  0  0  0  0  0  0  0  0
    1.4784    2.9078   -0.7741 H   0  0  0  0  0  0  0  0  0  0  0  0
    0.7599    4.0597   -2.4303 C   0  0  0  0  0  0  0  0  0  0  0  0
   -0.0073    4.8202   -2.2507 H   0  0  0  0  0  0  0  0  0  0  0  0
    1.7400    4.5461   -2.4121 H   0  0  0  0  0  0  0  0  0  0  0  0
    0.6062    3.6319   -3.4267 H   0  0  0  0  0  0  0  0  0  0  0  0
  1  2  1  0  0  0  0
  2  3  1  0  0  0  0
  2  4  1  0  0  0  0
  2  5  1  0  0  0  0
  5  6  2  0  0  0  0
  5  7  1  0  0  0  0
  7  8  1  0  0  0  0
  7  9  1  0  0  0  0
  9 10  1  0  0  0  0
  9 11  1  0  0  0  0
  9 25  1  0  0  0  0
 11 12  1  0  0  0  0
 11 13  1  0  0  0  0
 11 14  1  0  0  0  0
 14 15  1  0  0  0  0
 14 23  2  0  0  0  0
 15 16  1  0  0  0  0
 15 17  2  0  0  0  0
 17 18  1  0  0  0  0
 17 19  1  0  0  0  0
 19 20  1  0  0  0  0
 19 21  2  0  0  0  0
 21 22  1  0  0  0  0
 21 23  1  0  0  0  0
 23 24  1  0  0  0  0
 25 26  2  0  0  0  0
 25 27  1  0  0  0  0
 27 28  1  0  0  0  0
 27 29  1  0  0  0  0
 29 30  1  0  0  0  0
 29 31  1  0  0  0  0
 29 32  1  0  0  0  0
M  END
$$$$

  -OEChem-01062216093D

 32 32  0     1  0  0  0  0  0999 V2000
   -3.5629   -2.2142    0.9211 H   0  0  0  0  0  0  0  0  0  0  0  0
   -3.3916   -1.3858    0.2278 C   0  0  0  0  0  0  0  0  0  0  0  0
   -4.2562   -0.7180    0.2537 H   0  0  0  0  0  0  0  0  0  0  0  0
   -3.2807   -1.7893   -0.7814 H   0  0  0  0  0  0  0  0  0  0  0  0
   -2.1399   -0.6249    0.6220 C   0  0  0  0  0  0  0  0  0  0  0  0
   -1.6209   -0.8425    1.7032 O   0  0  0  0  0  0  0  0  0  0  0  0
   -1.7070    0.4188   -0.1682 N   0  0  0  0  0  0  0  0  0  0  0  0
   -2.2991    0.6580   -0.9634 H   0  0  0  0  0  0  0  0  0  0  0  0
   -0.3925    1.0904   -0.1405 C   0  0  1  0  0  0  0  0  0  0  0  0
   -0.2210    1.5346    0.8449 H   0  0  0  0  0  0  0  0  0  0  0  0
    0.7871    0.1421   -0.5167 C   0  0  0  0  0  0  0  0  0  0  0  0
    0.5805   -0.2877   -1.5027 H   0  0  0  0  0  0  0  0  0  0  0  0
    1.7088    0.7226   -0.6107 H   0  0  0  0  0  0  0  0  0  0  0  0
    1.0945   -0.9773    0.4478 C   0  0  0  0  0  0  0  0  0  0  0  0
    1.8563   -0.7301    1.6001 C   0  0  0  0  0  0  0  0  0  0  0  0
    2.1785    0.2790    1.8354 H   0  0  0  0  0  0  0  0  0  0  0  0
    2.1927   -1.7749    2.4677 C   0  0  0  0  0  0  0  0  0  0  0  0
    2.7664   -1.5710    3.3666 H   0  0  0  0  0  0  0  0  0  0  0  0
    1.7843   -3.0809    2.1823 C   0  0  0  0  0  0  0  0  0  0  0  0
    2.0389   -3.8908    2.8591 H   0  0  0  0  0  0  0  0  0  0  0  0
    1.0439   -3.3420    1.0260 C   0  0  0  0  0  0  0  0  0  0  0  0
    0.7260   -4.3558    0.8032 H   0  0  0  0  0  0  0  0  0  0  0  0
    0.7070   -2.2963    0.1598 C   0  0  0  0  0  0  0  0  0  0  0  0
    0.1339   -2.5130   -0.7358 H   0  0  0  0  0  0  0  0  0  0  0  0
   -0.4037    2.2101   -1.2197 C   0  0  0  0  0  0  0  0  0  0  0  0
   -1.4542    2.5120   -1.7786 O   0  0  0  0  0  0  0  0  0  0  0  0
    0.7569    2.8262   -1.6600 N   0  0  0  0  0  0  0  0  0  0  0  0
    1.6243    2.5896   -1.1880 H   0  0  0  0  0  0  0  0  0  0  0  0
    0.7810    3.8497   -2.6990 C   0  0  0  0  0  0  0  0  0  0  0  0
    0.1786    4.7139   -2.3997 H   0  0  0  0  0  0  0  0  0  0  0  0
    1.8072    4.1872   -2.8735 H   0  0  0  0  0  0  0  0  0  0  0  0
    0.3843    3.4515   -3.6389 H   0  0  0  0  0  0  0  0  0  0  0  0
  1  2  1  0  0  0  0
  2  3  1  0  0  0  0
  2  4  1  0  0  0  0
  2  5  1  0  0  0  0
  5  6  2  0  0  0  0
  5  7  1  0  0  0  0
  7  8  1  0  0  0  0
  7  9  1  0  0  0  0
  9 10  1  0  0  0  0
  9 11  1  0  0  0  0
  9 25  1  0  0  0  0
 11 12  1  0  0  0  0
 11 13  1  0  0  0  0
 11 14  1  0  0  0  0
 14 15  1  0  0  0  0
 14 23  2  0  0  0  0
 15 16  1  0  0  0  0
 15 17  2  0  0  0  0
 17 18  1  0  0  0  0
 17 19  1  0  0  0  0
 19 20  1  0  0  0  0
 19 21  2  0  0  0  0
 21 22  1  0  0  0  0
 21 23  1  0  0  0  0
 23 24  1  0  0  0  0
 25 26  2  0  0  0  0
 25 27  1  0  0  0  0
 27 28  1  0  0  0  0
 27 29  1  0  0  0  0
 29 30  1  0  0  0  0
 29 31  1  0  0  0  0
 29 32  1  0  0  0  0
M  END
$$$$

  -OEChem-01062216093D

 32 32  0     1  0  0  0  0  0999 V2000
   -3.6072   -2.1855    0.8715 H   0  0  0  0  0  0  0  0  0  0  0  0
   -3.4284   -1.3378    0.2042 C   0  0  0  0  0  0  0  0  0  0  0  0
   -4.2694   -0.6443    0.2792 H   0  0  0  0  0  0  0  0  0  0  0  0
   -3.3585   -1.7065   -0.8218 H   0  0  0  0  0  0  0  0  0  0  0  0
   -2.1421   -0.6327    0.5900 C   0  0  0  0  0  0  0  0  0  0  0  0
   -1.6140   -0.8936    1.6566 O   0  0  0  0  0  0  0  0  0  0  0  0
   -1.6904    0.4127   -0.1876 N   0  0  0  0  0  0  0  0  0  0  0  0
   -2.3104    0.7131   -0.9393 H   0  0  0  0  0  0  0  0  0  0  0  0
   -0.3691    1.0721   -0.1574 C   0  0  1  0  0  0  0  0  0  0  0  0
   -0.2001    1.5192    0.8273 H   0  0  0  0  0  0  0  0  0  0  0  0
    0.8135    0.1207   -0.5149 C   0  0  0  0  0  0  0  0  0  0  0  0
    0.6198   -0.3141   -1.5013 H   0  0  0  0  0  0  0  0  0  0  0  0
    1.7349    0.7035   -0.5944 H   0  0  0  0  0  0  0  0  0  0  0  0
    1.1153   -0.9920    0.4583 C   0  0  0  0  0  0  0  0  0  0  0  0
    1.8683   -0.7367    1.6144 C   0  0  0  0  0  0  0  0  0  0  0  0
    2.1853    0.2747    1.8464 H   0  0  0  0  0  0  0  0  0  0  0  0
    2.2025   -1.7761    2.4895 C   0  0  0  0  0  0  0  0  0  0  0  0
    2.7690   -1.5651    3.3914 H   0  0  0  0  0  0  0  0  0  0  0  0
    1.8015   -3.0852    2.2071 C   0  0  0  0  0  0  0  0  0  0  0  0
    2.0540   -3.8909    2.8897 H   0  0  0  0  0  0  0  0  0  0  0  0
    1.0701   -3.3542    1.0468 C   0  0  0  0  0  0  0  0  0  0  0  0
    0.7569   -4.3697    0.8256 H   0  0  0  0  0  0  0  0  0  0  0  0
    0.7351   -2.3137    0.1737 C   0  0  0  0  0  0  0  0  0  0  0  0
    0.1673   -2.5359   -0.7239 H   0  0  0  0  0  0  0  0  0  0  0  0
   -0.3907    2.1967   -1.2346 C   0  0  0  0  0  0  0  0  0  0  0  0
   -1.4653    2.6756   -1.5828 O   0  0  0  0  0  0  0  0  0  0  0  0
    0.7398    2.6181   -1.9182 N   0  0  0  0  0  0  0  0  0  0  0  0
    1.6337    2.2245   -1.6412 H   0  0  0  0  0  0  0  0  0  0  0  0
    0.7173    3.6352   -2.9637 C   0  0  0  0  0  0  0  0  0  0  0  0
    0.3359    4.5827   -2.5685 H   0  0  0  0  0  0  0  0  0  0  0  0
    1.7270    3.8039   -3.3502 H   0  0  0  0  0  0  0  0  0  0  0  0
    0.0785    3.3168   -3.7942 H   0  0  0  0  0  0  0  0  0  0  0  0
  1  2  1  0  0  0  0
  2  3  1  0  0  0  0
  2  4  1  0  0  0  0
  2  5  1  0  0  0  0
  5  6  2  0  0  0  0
  5  7  1  0  0  0  0
  7  8  1  0  0  0  0
  7  9  1  0  0  0  0
  9 10  1  0  0  0  0
  9 11  1  0  0  0  0
  9 25  1  0  0  0  0
 11 12  1  0  0  0  0
 11 13  1  0  0  0  0
 11 14  1  0  0  0  0
 14 15  1  0  0  0  0
 14 23  2  0  0  0  0
 15 16  1  0  0  0  0
 15 17  2  0  0  0  0
 17 18  1  0  0  0  0
 17 19  1  0  0  0  0
 19 20  1  0  0  0  0
 19 21  2  0  0  0  0
 21 22  1  0  0  0  0
 21 23  1  0  0  0  0
 23 24  1  0  0  0  0
 25 26  2  0  0  0  0
 25 27  1  0  0  0  0
 27 28  1  0  0  0  0
 27 29  1  0  0  0  0
 29 30  1  0  0  0  0
 29 31  1  0  0  0  0
 29 32  1  0  0  0  0
M  END
$$$$

  -OEChem-01062216093D

 32 32  0     1  0  0  0  0  0999 V2000
   -3.6723   -2.1360    0.8587 H   0  0  0  0  0  0  0  0  0  0  0  0
   -3.4696   -1.2944    0.1906 C   0  0  0  0  0  0  0  0  0  0  0  0
   -4.2811   -0.5682    0.2806 H   0  0  0  0  0  0  0  0  0  0  0  0
   -3.4309   -1.6629   -0.8372 H   0  0  0  0  0  0  0  0  0  0  0  0
   -2.1504   -0.6420    0.5581 C   0  0  0  0  0  0  0  0  0  0  0  0
   -1.6075   -0.9466    1.6048 O   0  0  0  0  0  0  0  0  0  0  0  0
   -1.6855    0.4063   -0.2084 N   0  0  0  0  0  0  0  0  0  0  0  0
   -2.3250    0.7532   -0.9217 H   0  0  0  0  0  0  0  0  0  0  0  0
   -0.3574    1.0527   -0.1746 C   0  0  1  0  0  0  0  0  0  0  0  0
   -0.1928    1.5002    0.8108 H   0  0  0  0  0  0  0  0  0  0  0  0
    0.8342    0.1075   -0.5175 C   0  0  0  0  0  0  0  0  0  0  0  0
    0.6529   -0.3349   -1.5025 H   0  0  0  0  0  0  0  0  0  0  0  0
    1.7495    0.7030   -0.5900 H   0  0  0  0  0  0  0  0  0  0  0  0
    1.1365   -1.0006    0.4609 C   0  0  0  0  0  0  0  0  0  0  0  0
    1.8785   -0.7363    1.6223 C   0  0  0  0  0  0  0  0  0  0  0  0
    2.1873    0.2782    1.8530 H   0  0  0  0  0  0  0  0  0  0  0  0
    2.2125   -1.7700    2.5041 C   0  0  0  0  0  0  0  0  0  0  0  0
    2.7691   -1.5520    3.4104 H   0  0  0  0  0  0  0  0  0  0  0  0
    1.8224   -3.0825    2.2231 C   0  0  0  0  0  0  0  0  0  0  0  0
    2.0734   -3.8840    2.9111 H   0  0  0  0  0  0  0  0  0  0  0  0
    1.1034   -3.3607    1.0571 C   0  0  0  0  0  0  0  0  0  0  0  0
    0.7991   -4.3794    0.8374 H   0  0  0  0  0  0  0  0  0  0  0  0
    0.7692   -2.3261    0.1768 C   0  0  0  0  0  0  0  0  0  0  0  0
    0.2111   -2.5562   -0.7246 H   0  0  0  0  0  0  0  0  0  0  0  0
   -0.3840    2.1833   -1.2438 C   0  0  0  0  0  0  0  0  0  0  0  0
   -1.4110    2.8371   -1.3876 O   0  0  0  0  0  0  0  0  0  0  0  0
    0.6435    2.4137   -2.1467 N   0  0  0  0  0  0  0  0  0  0  0  0
    1.4839    1.8509   -2.0594 H   0  0  0  0  0  0  0  0  0  0  0  0
    0.5814    3.4195   -3.2017 C   0  0  0  0  0  0  0  0  0  0  0  0
    0.4480    4.4180   -2.7722 H   0  0  0  0  0  0  0  0  0  0  0  0
    1.5082    3.4149   -3.7835 H   0  0  0  0  0  0  0  0  0  0  0  0
   -0.2529    3.2132   -3.8804 H   0  0  0  0  0  0  0  0  0  0  0  0
  1  2  1  0  0  0  0
  2  3  1  0  0  0  0
  2  4  1  0  0  0  0
  2  5  1  0  0  0  0
  5  6  2  0  0  0  0
  5  7  1  0  0  0  0
  7  8  1  0  0  0  0
  7  9  1  0  0  0  0
  9 10  1  0  0  0  0
  9 11  1  0  0  0  0
  9 25  1  0  0  0  0
 11 12  1  0  0  0  0
 11 13  1  0  0  0  0
 11 14  1  0  0  0  0
 14 15  1  0  0  0  0
 14 23  2  0  0  0  0
 15 16  1  0  0  0  0
 15 17  2  0  0  0  0
 17 18  1  0  0  0  0
 17 19  1  0  0  0  0
 19 20  1  0  0  0  0
 19 21  2  0  0  0  0
 21 22  1  0  0  0  0
 21 23  1  0  0  0  0
 23 24  1  0  0  0  0
 25 26  2  0  0  0  0
 25 27  1  0  0  0  0
 27 28  1  0  0  0  0
 27 29  1  0  0  0  0
 29 30  1  0  0  0  0
 29 31  1  0  0  0  0
 29 32  1  0  0  0  0
M  END
$$$$

  -OEChem-01062216093D

 32 32  0     1  0  0  0  0  0999 V2000
   -3.6917   -2.1248    0.8568 H   0  0  0  0  0  0  0  0  0  0  0  0
   -3.4868   -1.2848    0.1871 C   0  0  0  0  0  0  0  0  0  0  0  0
   -4.2938   -0.5539    0.2800 H   0  0  0  0  0  0  0  0  0  0  0  0
   -3.4546   -1.6543   -0.8405 H   0  0  0  0  0  0  0  0  0  0  0  0
   -2.1621   -0.6403    0.5489 C   0  0  0  0  0  0  0  0  0  0  0  0
   -1.6107   -0.9591    1.5865 O   0  0  0  0  0  0  0  0  0  0  0  0
   -1.6961    0.4071   -0.2189 N   0  0  0  0  0  0  0  0  0  0  0  0
   -2.3428    0.7606   -0.9211 H   0  0  0  0  0  0  0  0  0  0  0  0
   -0.3618    1.0410   -0.1948 C   0  0  1  0  0  0  0  0  0  0  0  0
   -0.1926    1.4880    0.7903 H   0  0  0  0  0  0  0  0  0  0  0  0
    0.8290    0.0940   -0.5322 C   0  0  0  0  0  0  0  0  0  0  0  0
    0.6419   -0.3630   -1.5093 H   0  0  0  0  0  0  0  0  0  0  0  0
    1.7397    0.6953   -0.6210 H   0  0  0  0  0  0  0  0  0  0  0  0
    1.1360   -1.0070    0.4524 C   0  0  0  0  0  0  0  0  0  0  0  0
    1.8819   -0.7285    1.6076 C   0  0  0  0  0  0  0  0  0  0  0  0
    2.1876    0.2895    1.8262 H   0  0  0  0  0  0  0  0  0  0  0  0
    2.2263   -1.7522    2.4967 C   0  0  0  0  0  0  0  0  0  0  0  0
    2.7893   -1.5225    3.3962 H   0  0  0  0  0  0  0  0  0  0  0  0
    1.8405   -3.0690    2.2303 C   0  0  0  0  0  0  0  0  0  0  0  0
    2.1005   -3.8629    2.9239 H   0  0  0  0  0  0  0  0  0  0  0  0
    1.1145   -3.3612    1.0720 C   0  0  0  0  0  0  0  0  0  0  0  0
    0.8120   -4.3829    0.8653 H   0  0  0  0  0  0  0  0  0  0  0  0
    0.7706   -2.3364    0.1836 C   0  0  0  0  0  0  0  0  0  0  0  0
    0.2063   -2.5776   -0.7111 H   0  0  0  0  0  0  0  0  0  0  0  0
   -0.3803    2.1752   -1.2557 C   0  0  0  0  0  0  0  0  0  0  0  0
   -1.2857    2.9986   -1.2176 O   0  0  0  0  0  0  0  0  0  0  0  0
    0.4782    2.2218   -2.3443 N   0  0  0  0  0  0  0  0  0  0  0  0
    1.1995    1.5099   -2.4066 H   0  0  0  0  0  0  0  0  0  0  0  0
    0.3993    3.2334   -3.3924 C   0  0  0  0  0  0  0  0  0  0  0  0
    0.5298    4.2349   -2.9694 H   0  0  0  0  0  0  0  0  0  0  0  0
    1.1836    3.0684   -4.1373 H   0  0  0  0  0  0  0  0  0  0  0  0
   -0.5714    3.1876   -3.8971 H   0  0  0  0  0  0  0  0  0  0  0  0
  1  2  1  0  0  0  0
  2  3  1  0  0  0  0
  2  4  1  0  0  0  0
  2  5  1  0  0  0  0
  5  6  2  0  0  0  0
  5  7  1  0  0  0  0
  7  8  1  0  0  0  0
  7  9  1  0  0  0  0
  9 10  1  0  0  0  0
  9 11  1  0  0  0  0
  9 25  1  0  0  0  0
 11 12  1  0  0  0  0
 11 13  1  0  0  0  0
 11 14  1  0  0  0  0
 14 15  1  0  0  0  0
 14 23  2  0  0  0  0
 15 16  1  0  0  0  0
 15 17  2  0  0  0  0
 17 18  1  0  0  0  0
 17 19  1  0  0  0  0
 19 20  1  0  0  0  0
 19 21  2  0  0  0  0
 21 22  1  0  0  0  0
 21 23  1  0  0  0  0
 23 24  1  0  0  0  0
 25 26  2  0  0  0  0
 25 27  1  0  0  0  0
 27 28  1  0  0  0  0
 27 29  1  0  0  0  0
 29 30  1  0  0  0  0
 29 31  1  0  0  0  0
 29 32  1  0  0  0  0
M  END
$$$$

  -OEChem-01062216093D

 32 32  0     1  0  0  0  0  0999 V2000
   -3.6744   -2.1399    0.8832 H   0  0  0  0  0  0  0  0  0  0  0  0
   -3.4844   -1.3015    0.2070 C   0  0  0  0  0  0  0  0  0  0  0  0
   -4.3005   -0.5809    0.2993 H   0  0  0  0  0  0  0  0  0  0  0  0
   -3.4524   -1.6774   -0.8182 H   0  0  0  0  0  0  0  0  0  0  0  0
   -2.1666   -0.6371    0.5586 C   0  0  0  0  0  0  0  0  0  0  0  0
   -1.6107   -0.9372    1.5991 O   0  0  0  0  0  0  0  0  0  0  0  0
   -1.7123    0.4071   -0.2212 N   0  0  0  0  0  0  0  0  0  0  0  0
   -2.3531    0.7242   -0.9445 H   0  0  0  0  0  0  0  0  0  0  0  0
   -0.3750    1.0357   -0.2116 C   0  0  1  0  0  0  0  0  0  0  0  0
   -0.1979    1.4828    0.7722 H   0  0  0  0  0  0  0  0  0  0  0  0
    0.8141    0.0888   -0.5536 C   0  0  0  0  0  0  0  0  0  0  0  0
    0.6181   -0.3821   -1.5220 H   0  0  0  0  0  0  0  0  0  0  0  0
    1.7211    0.6932   -0.6620 H   0  0  0  0  0  0  0  0  0  0  0  0
    1.1262   -1.0052    0.4364 C   0  0  0  0  0  0  0  0  0  0  0  0
    1.8785   -0.7172    1.5847 C   0  0  0  0  0  0  0  0  0  0  0  0
    2.1848    0.3032    1.7928 H   0  0  0  0  0  0  0  0  0  0  0  0
    2.2266   -1.7336    2.4805 C   0  0  0  0  0  0  0  0  0  0  0  0
    2.7934   -1.4966    3.3756 H   0  0  0  0  0  0  0  0  0  0  0  0
    1.8393   -3.0526    2.2269 C   0  0  0  0  0  0  0  0  0  0  0  0
    2.1030   -3.8401    2.9263 H   0  0  0  0  0  0  0  0  0  0  0  0
    1.1080   -3.3546    1.0745 C   0  0  0  0  0  0  0  0  0  0  0  0
    0.8056   -4.3783    0.8770 H   0  0  0  0  0  0  0  0  0  0  0  0
    0.7595   -2.3368    0.1800 C   0  0  0  0  0  0  0  0  0  0  0  0
    0.1918   -2.5853   -0.7103 H   0  0  0  0  0  0  0  0  0  0  0  0
   -0.3847    2.1683   -1.2696 C   0  0  0  0  0  0  0  0  0  0  0  0
   -1.0950    3.1453   -1.0779 O   0  0  0  0  0  0  0  0  0  0  0  0
    0.2440    2.0613   -2.5009 N   0  0  0  0  0  0  0  0  0  0  0  0
    0.8046    1.2325   -2.6731 H   0  0  0  0  0  0  0  0  0  0  0  0
    0.1689    3.0855   -3.5365 C   0  0  0  0  0  0  0  0  0  0  0  0
    0.5754    4.0336   -3.1684 H   0  0  0  0  0  0  0  0  0  0  0  0
    0.7472    2.7791   -4.4134 H   0  0  0  0  0  0  0  0  0  0  0  0
   -0.8697    3.2432   -3.8459 H   0  0  0  0  0  0  0  0  0  0  0  0
  1  2  1  0  0  0  0
  2  3  1  0  0  0  0
  2  4  1  0  0  0  0
  2  5  1  0  0  0  0
  5  6  2  0  0  0  0
  5  7  1  0  0  0  0
  7  8  1  0  0  0  0
  7  9  1  0  0  0  0
  9 10  1  0  0  0  0
  9 11  1  0  0  0  0
  9 25  1  0  0  0  0
 11 12  1  0  0  0  0
 11 13  1  0  0  0  0
 11 14  1  0  0  0  0
 14 15  1  0  0  0  0
 14 23  2  0  0  0  0
 15 16  1  0  0  0  0
 15 17  2  0  0  0  0
 17 18  1  0  0  0  0
 17 19  1  0  0  0  0
 19 20  1  0  0  0  0
 19 21  2  0  0  0  0
 21 22  1  0  0  0  0
 21 23  1  0  0  0  0
 23 24  1  0  0  0  0
 25 26  2  0  0  0  0
 25 27  1  0  0  0  0
 27 28  1  0  0  0  0
 27 29  1  0  0  0  0
 29 30  1  0  0  0  0
 29 31  1  0  0  0  0
 29 32  1  0  0  0  0
M  END
$$$$

  -OEChem-01062216093D

 32 32  0     1  0  0  0  0  0999 V2000
   -3.6467   -2.1647    0.9185 H   0  0  0  0  0  0  0  0  0  0  0  0
   -3.4753   -1.3298    0.2333 C   0  0  0  0  0  0  0  0  0  0  0  0
   -4.3090   -0.6284    0.3164 H   0  0  0  0  0  0  0  0  0  0  0  0
   -3.4321   -1.7168   -0.7873 H   0  0  0  0  0  0  0  0  0  0  0  0
   -2.1745   -0.6305    0.5804 C   0  0  0  0  0  0  0  0  0  0  0  0
   -1.6145   -0.9035    1.6260 O   0  0  0  0  0  0  0  0  0  0  0  0
   -1.7369    0.4100   -0.2143 N   0  0  0  0  0  0  0  0  0  0  0  0
   -2.3683    0.6821   -0.9629 H   0  0  0  0  0  0  0  0  0  0  0  0
   -0.3987    1.0372   -0.2188 C   0  0  1  0  0  0  0  0  0  0  0  0
   -0.2136    1.4853    0.7637 H   0  0  0  0  0  0  0  0  0  0  0  0
    0.7889    0.0936   -0.5705 C   0  0  0  0  0  0  0  0  0  0  0  0
    0.5879   -0.3824   -1.5349 H   0  0  0  0  0  0  0  0  0  0  0  0
    1.6914    0.7025   -0.6922 H   0  0  0  0  0  0  0  0  0  0  0  0
    1.1107   -0.9977    0.4197 C   0  0  0  0  0  0  0  0  0  0  0  0
    1.8718   -0.7052    1.5608 C   0  0  0  0  0  0  0  0  0  0  0  0
    2.1791    0.3161    1.7624 H   0  0  0  0  0  0  0  0  0  0  0  0
    2.2285   -1.7182    2.4570 C   0  0  0  0  0  0  0  0  0  0  0  0
    2.8033   -1.4771    3.3459 H   0  0  0  0  0  0  0  0  0  0  0  0
    1.8396   -3.0384    2.2119 C   0  0  0  0  0  0  0  0  0  0  0  0
    2.1100   -3.8233    2.9117 H   0  0  0  0  0  0  0  0  0  0  0  0
    1.0978   -3.3446    1.0674 C   0  0  0  0  0  0  0  0  0  0  0  0
    0.7937   -4.3691    0.8765 H   0  0  0  0  0  0  0  0  0  0  0  0
    0.7412   -2.3302    0.1722 C   0  0  0  0  0  0  0  0  0  0  0  0
    0.1654   -2.5826   -0.7116 H   0  0  0  0  0  0  0  0  0  0  0  0
   -0.4023    2.1651   -1.2776 C   0  0  0  0  0  0  0  0  0  0  0  0
   -0.8381    3.2662   -0.9748 O   0  0  0  0  0  0  0  0  0  0  0  0
   -0.0494    1.9432   -2.5996 N   0  0  0  0  0  0  0  0  0  0  0  0
    0.2954    1.0207   -2.8464 H   0  0  0  0  0  0  0  0  0  0  0  0
   -0.0940    2.9757   -3.6285 C   0  0  0  0  0  0  0  0  0  0  0  0
    0.5601    3.8120   -3.3603 H   0  0  0  0  0  0  0  0  0  0  0  0
    0.2412    2.5688   -4.5873 H   0  0  0  0  0  0  0  0  0  0  0  0
   -1.1154    3.3512   -3.7508 H   0  0  0  0  0  0  0  0  0  0  0  0
  1  2  1  0  0  0  0
  2  3  1  0  0  0  0
  2  4  1  0  0  0  0
  2  5  1  0  0  0  0
  5  6  2  0  0  0  0
  5  7  1  0  0  0  0
  7  8  1  0  0  0  0
  7  9  1  0  0  0  0
  9 10  1  0  0  0  0
  9 11  1  0  0  0  0
  9 25  1  0  0  0  0
 11 12  1  0  0  0  0
 11 13  1  0  0  0  0
 11 14  1  0  0  0  0
 14 15  1  0  0  0  0
 14 23  2  0  0  0  0
 15 16  1  0  0  0  0
 15 17  2  0  0  0  0
 17 18  1  0  0  0  0
 17 19  1  0  0  0  0
 19 20  1  0  0  0  0
 19 21  2  0  0  0  0
 21 22  1  0  0  0  0
 21 23  1  0  0  0  0
 23 24  1  0  0  0  0
 25 26  2  0  0  0  0
 25 27  1  0  0  0  0
 27 28  1  0  0  0  0
 27 29  1  0  0  0  0
 29 30  1  0  0  0  0
 29 31  1  0  0  0  0
 29 32  1  0  0  0  0
M  END
$$$$

  -OEChem-01062216093D

 32 32  0     1  0  0  0  0  0999 V2000
   -3.6294   -2.1844    0.9678 H   0  0  0  0  0  0  0  0  0  0  0  0
   -3.4704   -1.3583    0.2686 C   0  0  0  0  0  0  0  0  0  0  0  0
   -4.3167   -0.6705    0.3372 H   0  0  0  0  0  0  0  0  0  0  0  0
   -3.4170   -1.7620   -0.7450 H   0  0  0  0  0  0  0  0  0  0  0  0
   -2.1829   -0.6303    0.6073 C   0  0  0  0  0  0  0  0  0  0  0  0
   -1.6163   -0.8818    1.6547 O   0  0  0  0  0  0  0  0  0  0  0  0
   -1.7626    0.4081   -0.2001 N   0  0  0  0  0  0  0  0  0  0  0  0
   -2.3898    0.6475   -0.9628 H   0  0  0  0  0  0  0  0  0  0  0  0
   -0.4270    1.0421   -0.2132 C   0  0  1  0  0  0  0  0  0  0  0  0
   -0.2361    1.4897    0.7686 H   0  0  0  0  0  0  0  0  0  0  0  0
    0.7633    0.1104   -0.5819 C   0  0  0  0  0  0  0  0  0  0  0  0
    0.5628   -0.3584   -1.5495 H   0  0  0  0  0  0  0  0  0  0  0  0
    1.6603    0.7275   -0.7052 H   0  0  0  0  0  0  0  0  0  0  0  0
    1.0966   -0.9836    0.4019 C   0  0  0  0  0  0  0  0  0  0  0  0
    1.8633   -0.6926    1.5400 C   0  0  0  0  0  0  0  0  0  0  0  0
    2.1701    0.3290    1.7419 H   0  0  0  0  0  0  0  0  0  0  0  0
    2.2262   -1.7072    2.4322 C   0  0  0  0  0  0  0  0  0  0  0  0
    2.8052   -1.4668    3.3186 H   0  0  0  0  0  0  0  0  0  0  0  0
    1.8372   -3.0271    2.1862 C   0  0  0  0  0  0  0  0  0  0  0  0
    2.1124   -3.8132    2.8828 H   0  0  0  0  0  0  0  0  0  0  0  0
    1.0890   -3.3317    1.0453 C   0  0  0  0  0  0  0  0  0  0  0  0
    0.7856   -4.3563    0.8541 H   0  0  0  0  0  0  0  0  0  0  0  0
    0.7262   -2.3158    0.1540 C   0  0  0  0  0  0  0  0  0  0  0  0
    0.1466   -2.5672   -0.7276 H   0  0  0  0  0  0  0  0  0  0  0  0
   -0.4309    2.1634   -1.2750 C   0  0  0  0  0  0  0  0  0  0  0  0
   -0.5492    3.3286   -0.9265 O   0  0  0  0  0  0  0  0  0  0  0  0
   -0.3785    1.8784   -2.6301 N   0  0  0  0  0  0  0  0  0  0  0  0
   -0.2548    0.9079   -2.9018 H   0  0  0  0  0  0  0  0  0  0  0  0
   -0.3786    2.9056   -3.6656 C   0  0  0  0  0  0  0  0  0  0  0  0
    0.4775    3.5767   -3.5394 H   0  0  0  0  0  0  0  0  0  0  0  0
   -0.3131    2.4451   -4.6559 H   0  0  0  0  0  0  0  0  0  0  0  0
   -1.2996    3.4964   -3.6199 H   0  0  0  0  0  0  0  0  0  0  0  0
  1  2  1  0  0  0  0
  2  3  1  0  0  0  0
  2  4  1  0  0  0  0
  2  5  1  0  0  0  0
  5  6  2  0  0  0  0
  5  7  1  0  0  0  0
  7  8  1  0  0  0  0
  7  9  1  0  0  0  0
  9 10  1  0  0  0  0
  9 11  1  0  0  0  0
  9 25  1  0  0  0  0
 11 12  1  0  0  0  0
 11 13  1  0  0  0  0
 11 14  1  0  0  0  0
 14 15  1  0  0  0  0
 14 23  2  0  0  0  0
 15 16  1  0  0  0  0
 15 17  2  0  0  0  0
 17 18  1  0  0  0  0
 17 19  1  0  0  0  0
 19 20  1  0  0  0  0
 19 21  2  0  0  0  0
 21 22  1  0  0  0  0
 21 23  1  0  0  0  0
 23 24  1  0  0  0  0
 25 26  2  0  0  0  0
 25 27  1  0  0  0  0
 27 28  1  0  0  0  0
 27 29  1  0  0  0  0
 29 30  1  0  0  0  0
 29 31  1  0  0  0  0
 29 32  1  0  0  0  0
M  END
$$$$

  -OEChem-01062216093D

 32 32  0     1  0  0  0  0  0999 V2000
   -3.6230   -2.1988    1.0215 H   0  0  0  0  0  0  0  0  0  0  0  0
   -3.4719   -1.3831    0.3087 C   0  0  0  0  0  0  0  0  0  0  0  0
   -4.3270   -0.7048    0.3628 H   0  0  0  0  0  0  0  0  0  0  0  0
   -3.4104   -1.8044   -0.6973 H   0  0  0  0  0  0  0  0  0  0  0  0
   -2.1947   -0.6334    0.6388 C   0  0  0  0  0  0  0  0  0  0  0  0
   -1.6225   -0.8657    1.6876 O   0  0  0  0  0  0  0  0  0  0  0  0
   -1.7906    0.4039   -0.1784 N   0  0  0  0  0  0  0  0  0  0  0  0
   -2.4181    0.6235   -0.9464 H   0  0  0  0  0  0  0  0  0  0  0  0
   -0.4621    1.0542   -0.1913 C   0  0  1  0  0  0  0  0  0  0  0  0
   -0.2713    1.5007    0.7909 H   0  0  0  0  0  0  0  0  0  0  0  0
    0.7328    0.1392   -0.5803 C   0  0  0  0  0  0  0  0  0  0  0  0
    0.5322   -0.3139   -1.5557 H   0  0  0  0  0  0  0  0  0  0  0  0
    1.6238    0.7658   -0.6985 H   0  0  0  0  0  0  0  0  0  0  0  0
    1.0801   -0.9636    0.3880 C   0  0  0  0  0  0  0  0  0  0  0  0
    1.8509   -0.6797    1.5248 C   0  0  0  0  0  0  0  0  0  0  0  0
    2.1534    0.3414    1.7358 H   0  0  0  0  0  0  0  0  0  0  0  0
    2.2252   -1.7016    2.4034 C   0  0  0  0  0  0  0  0  0  0  0  0
    2.8105   -1.4681    3.2875 H   0  0  0  0  0  0  0  0  0  0  0  0
    1.8407   -3.0208    2.1466 C   0  0  0  0  0  0  0  0  0  0  0  0
    2.1262   -3.8129    2.8320 H   0  0  0  0  0  0  0  0  0  0  0  0
    1.0853   -3.3174    1.0083 C   0  0  0  0  0  0  0  0  0  0  0  0
    0.7855   -4.3415    0.8092 H   0  0  0  0  0  0  0  0  0  0  0  0
    0.7128   -2.2945    0.1294 C   0  0  0  0  0  0  0  0  0  0  0  0
    0.1293   -2.5393   -0.7515 H   0  0  0  0  0  0  0  0  0  0  0  0
   -0.4636    2.1680   -1.2573 C   0  0  0  0  0  0  0  0  0  0  0  0
   -0.2665    3.3293   -0.9327 O   0  0  0  0  0  0  0  0  0  0  0  0
   -0.7061    1.8731   -2.5890 N   0  0  0  0  0  0  0  0  0  0  0  0
   -0.7721    0.8929   -2.8452 H   0  0  0  0  0  0  0  0  0  0  0  0
   -0.6635    2.8758   -3.6469 C   0  0  0  0  0  0  0  0  0  0  0  0
    0.3285    3.3369   -3.6988 H   0  0  0  0  0  0  0  0  0  0  0  0
   -0.8821    2.4147   -4.6149 H   0  0  0  0  0  0  0  0  0  0  0  0
   -1.4061    3.6593   -3.4625 H   0  0  0  0  0  0  0  0  0  0  0  0
  1  2  1  0  0  0  0
  2  3  1  0  0  0  0
  2  4  1  0  0  0  0
  2  5  1  0  0  0  0
  5  6  2  0  0  0  0
  5  7  1  0  0  0  0
  7  8  1  0  0  0  0
  7  9  1  0  0  0  0
  9 10  1  0  0  0  0
  9 11  1  0  0  0  0
  9 25  1  0  0  0  0
 11 12  1  0  0  0  0
 11 13  1  0  0  0  0
 11 14  1  0  0  0  0
 14 15  1  0  0  0  0
 14 23  2  0  0  0  0
 15 16  1  0  0  0  0
 15 17  2  0  0  0  0
 17 18  1  0  0  0  0
 17 19  1  0  0  0  0
 19 20  1  0  0  0  0
 19 21  2  0  0  0  0
 21 22  1  0  0  0  0
 21 23  1  0  0  0  0
 23 24  1  0  0  0  0
 25 26  2  0  0  0  0
 25 27  1  0  0  0  0
 27 28  1  0  0  0  0
 27 29  1  0  0  0  0
 29 30  1  0  0  0  0
 29 31  1  0  0  0  0
 29 32  1  0  0  0  0
M  END
$$$$

  -OEChem-01062216093D

 32 32  0     1  0  0  0  0  0999 V2000
   -3.6279   -2.2067    1.0746 H   0  0  0  0  0  0  0  0  0  0  0  0
   -3.4780   -1.4036    0.3474 C   0  0  0  0  0  0  0  0  0  0  0  0
   -4.3366   -0.7290    0.3861 H   0  0  0  0  0  0  0  0  0  0  0  0
   -3.4101   -1.8428   -0.6505 H   0  0  0  0  0  0  0  0  0  0  0  0
   -2.2056   -0.6417    0.6677 C   0  0  0  0  0  0  0  0  0  0  0  0
   -1.6279   -0.8614    1.7160 O   0  0  0  0  0  0  0  0  0  0  0  0
   -1.8142    0.3951   -0.1567 N   0  0  0  0  0  0  0  0  0  0  0  0
   -2.4561    0.6207   -0.9105 H   0  0  0  0  0  0  0  0  0  0  0  0
   -0.4938    1.0641   -0.1681 C   0  0  1  0  0  0  0  0  0  0  0  0
   -0.3036    1.5107    0.8141 H   0  0  0  0  0  0  0  0  0  0  0  0
    0.7035    0.1599   -0.5712 C   0  0  0  0  0  0  0  0  0  0  0  0
    0.4993   -0.2803   -1.5522 H   0  0  0  0  0  0  0  0  0  0  0  0
    1.5910    0.7922   -0.6869 H   0  0  0  0  0  0  0  0  0  0  0  0
    1.0633   -0.9501    0.3851 C   0  0  0  0  0  0  0  0  0  0  0  0
    1.8389   -0.6733    1.5206 C   0  0  0  0  0  0  0  0  0  0  0  0
    2.1355    0.3480    1.7394 H   0  0  0  0  0  0  0  0  0  0  0  0
    2.2254   -1.7021    2.3862 C   0  0  0  0  0  0  0  0  0  0  0  0
    2.8131   -1.4740    3.2700 H   0  0  0  0  0  0  0  0  0  0  0  0
    1.8512   -3.0215    2.1160 C   0  0  0  0  0  0  0  0  0  0  0  0
    2.1473   -3.8189    2.7908 H   0  0  0  0  0  0  0  0  0  0  0  0
    1.0931   -3.3112    0.9777 C   0  0  0  0  0  0  0  0  0  0  0  0
    0.8026   -4.3358    0.7671 H   0  0  0  0  0  0  0  0  0  0  0  0
    0.7067   -2.2810    0.1130 C   0  0  0  0  0  0  0  0  0  0  0  0
    0.1229   -2.5201   -0.7690 H   0  0  0  0  0  0  0  0  0  0  0  0
   -0.4878    2.1737   -1.2382 C   0  0  0  0  0  0  0  0  0  0  0  0
   -0.0169    3.2720   -0.9824 O   0  0  0  0  0  0  0  0  0  0  0  0
   -1.0064    1.9376   -2.5014 N   0  0  0  0  0  0  0  0  0  0  0  0
   -1.2409    0.9775   -2.7326 H   0  0  0  0  0  0  0  0  0  0  0  0
   -0.9429    2.9199   -3.5774 C   0  0  0  0  0  0  0  0  0  0  0  0
    0.0987    3.1510   -3.8241 H   0  0  0  0  0  0  0  0  0  0  0  0
   -1.4346    2.5323   -4.4748 H   0  0  0  0  0  0  0  0  0  0  0  0
   -1.4480    3.8454   -3.2812 H   0  0  0  0  0  0  0  0  0  0  0  0
  1  2  1  0  0  0  0
  2  3  1  0  0  0  0
  2  4  1  0  0  0  0
  2  5  1  0  0  0  0
  5  6  2  0  0  0  0
  5  7  1  0  0  0  0
  7  8  1  0  0  0  0
  7  9  1  0  0  0  0
  9 10  1  0  0  0  0
  9 11  1  0  0  0  0
  9 25  1  0  0  0  0
 11 12  1  0  0  0  0
 11 13  1  0  0  0  0
 11 14  1  0  0  0  0
 14 15  1  0  0  0  0
 14 23  2  0  0  0  0
 15 16  1  0  0  0  0
 15 17  2  0  0  0  0
 17 18  1  0  0  0  0
 17 19  1  0  0  0  0
 19 20  1  0  0  0  0
 19 21  2  0  0  0  0
 21 22  1  0  0  0  0
 21 23  1  0  0  0  0
 23 24  1  0  0  0  0
 25 26  2  0  0  0  0
 25 27  1  0  0  0  0
 27 28  1  0  0  0  0
 27 29  1  0  0  0  0
 29 30  1  0  0  0  0
 29 31  1  0  0  0  0
 29 32  1  0  0  0  0
M  END
$$$$

  -OEChem-01062216093D

 32 32  0     1  0  0  0  0  0999 V2000
   -3.5908   -2.2425    1.1117 H   0  0  0  0  0  0  0  0  0  0  0  0
   -3.4594   -1.4399    0.3803 C   0  0  0  0  0  0  0  0  0  0  0  0
   -4.3294   -0.7804    0.4217 H   0  0  0  0  0  0  0  0  0  0  0  0
   -3.3897   -1.8829   -0.6158 H   0  0  0  0  0  0  0  0  0  0  0  0
   -2.1985   -0.6553    0.6911 C   0  0  0  0  0  0  0  0  0  0  0  0
   -1.6206   -0.8522    1.7439 O   0  0  0  0  0  0  0  0  0  0  0  0
   -1.8225    0.3810   -0.1416 N   0  0  0  0  0  0  0  0  0  0  0  0
   -2.4768    0.6058   -0.8836 H   0  0  0  0  0  0  0  0  0  0  0  0
   -0.5107    1.0699   -0.1526 C   0  0  1  0  0  0  0  0  0  0  0  0
   -0.3221    1.5163    0.8300 H   0  0  0  0  0  0  0  0  0  0  0  0
    0.6860    0.1678   -0.5651 C   0  0  0  0  0  0  0  0  0  0  0  0
    0.4762   -0.2668   -1.5478 H   0  0  0  0  0  0  0  0  0  0  0  0
    1.5748    0.7984   -0.6827 H   0  0  0  0  0  0  0  0  0  0  0  0
    1.0523   -0.9448    0.3854 C   0  0  0  0  0  0  0  0  0  0  0  0
    1.8337   -0.6725    1.5180 C   0  0  0  0  0  0  0  0  0  0  0  0
    2.1331    0.3476    1.7389 H   0  0  0  0  0  0  0  0  0  0  0  0
    2.2214   -1.7050    2.3787 C   0  0  0  0  0  0  0  0  0  0  0  0
    2.8137   -1.4809    3.2605 H   0  0  0  0  0  0  0  0  0  0  0  0
    1.8419   -3.0227    2.1066 C   0  0  0  0  0  0  0  0  0  0  0  0
    2.1385   -3.8227    2.7781 H   0  0  0  0  0  0  0  0  0  0  0  0
    1.0784   -3.3075    0.9708 C   0  0  0  0  0  0  0  0  0  0  0  0
    0.7841   -4.3306    0.7588 H   0  0  0  0  0  0  0  0  0  0  0  0
    0.6915   -2.2741    0.1107 C   0  0  0  0  0  0  0  0  0  0  0  0
    0.1028   -2.5089   -0.7695 H   0  0  0  0  0  0  0  0  0  0  0  0
   -0.4945    2.1783   -1.2267 C   0  0  0  0  0  0  0  0  0  0  0  0
    0.1823    3.1823   -1.0586 O   0  0  0  0  0  0  0  0  0  0  0  0
   -1.2520    2.0634   -2.3819 N   0  0  0  0  0  0  0  0  0  0  0  0
   -1.6375    1.1485   -2.5882 H   0  0  0  0  0  0  0  0  0  0  0  0
   -1.2111    3.0540   -3.4517 C   0  0  0  0  0  0  0  0  0  0  0  0
   -0.2075    3.1086   -3.8866 H   0  0  0  0  0  0  0  0  0  0  0  0
   -1.9191    2.7863   -4.2418 H   0  0  0  0  0  0  0  0  0  0  0  0
   -1.4822    4.0438   -3.0691 H   0  0  0  0  0  0  0  0  0  0  0  0
  1  2  1  0  0  0  0
  2  3  1  0  0  0  0
  2  4  1  0  0  0  0
  2  5  1  0  0  0  0
  5  6  2  0  0  0  0
  5  7  1  0  0  0  0
  7  8  1  0  0  0  0
  7  9  1  0  0  0  0
  9 10  1  0  0  0  0
  9 11  1  0  0  0  0
  9 25  1  0  0  0  0
 11 12  1  0  0  0  0
 11 13  1  0  0  0  0
 11 14  1  0  0  0  0
 14 15  1  0  0  0  0
 14 23  2  0  0  0  0
 15 16  1  0  0  0  0
 15 17  2  0  0  0  0
 17 18  1  0  0  0  0
 17 19  1  0  0  0  0
 19 20  1  0  0  0  0
 19 21  2  0  0  0  0
 21 22  1  0  0  0  0
 21 23  1  0  0  0  0
 23 24  1  0  0  0  0
 25 26  2  0  0  0  0
 25 27  1  0  0  0  0
 27 28  1  0  0  0  0
 27 29  1  0  0  0  0
 29 30  1  0  0  0  0
 29 31  1  0  0  0  0
 29 32  1  0  0  0  0
M  END
$$$$

  -OEChem-01062216093D

 32 32  0     1  0  0  0  0  0999 V2000
   -3.2217   -2.3923    1.1766 H   0  0  0  0  0  0  0  0  0  0  0  0
   -3.1767   -1.6239    0.3994 C   0  0  0  0  0  0  0  0  0  0  0  0
   -4.1586   -1.1528    0.3118 H   0  0  0  0  0  0  0  0  0  0  0  0
   -2.9202   -2.1015   -0.5489 H   0  0  0  0  0  0  0  0  0  0  0  0
   -2.1320   -0.5841    0.7591 C   0  0  0  0  0  0  0  0  0  0  0  0
   -1.6586   -0.5679    1.8815 O   0  0  0  0  0  0  0  0  0  0  0  0
   -1.8371    0.4314   -0.1301 N   0  0  0  0  0  0  0  0  0  0  0  0
   -2.3016    0.3104   -1.0219 H   0  0  0  0  0  0  0  0  0  0  0  0
   -0.5114    1.0937   -0.1887 C   0  0  1  0  0  0  0  0  0  0  0  0
   -0.2839    1.5457    0.7830 H   0  0  0  0  0  0  0  0  0  0  0  0
    0.6364    0.1273   -0.6063 C   0  0  0  0  0  0  0  0  0  0  0  0
    0.3820   -0.3239   -1.5706 H   0  0  0  0  0  0  0  0  0  0  0  0
    1.5529    0.7070   -0.7637 H   0  0  0  0  0  0  0  0  0  0  0  0
    0.9752   -0.9690    0.3742 C   0  0  0  0  0  0  0  0  0  0  0  0
    1.7948   -0.6928    1.4779 C   0  0  0  0  0  0  0  0  0  0  0  0
    2.1444    0.3202    1.6539 H   0  0  0  0  0  0  0  0  0  0  0  0
    2.1540   -1.7097    2.3687 C   0  0  0  0  0  0  0  0  0  0  0  0
    2.7740   -1.4798    3.2299 H   0  0  0  0  0  0  0  0  0  0  0  0
    1.7119   -3.0181    2.1522 C   0  0  0  0  0  0  0  0  0  0  0  0
    1.9886   -3.8058    2.8462 H   0  0  0  0  0  0  0  0  0  0  0  0
    0.9157   -3.3097    1.0409 C   0  0  0  0  0  0  0  0  0  0  0  0
    0.5785   -4.3270    0.8687 H   0  0  0  0  0  0  0  0  0  0  0  0
    0.5554   -2.2910    0.1521 C   0  0  0  0  0  0  0  0  0  0  0  0
   -0.0537   -2.5325   -0.7124 H   0  0  0  0  0  0  0  0  0  0  0  0
   -0.4749    2.2018   -1.2701 C   0  0  0  0  0  0  0  0  0  0  0  0
    0.4704    2.9773   -1.3156 O   0  0  0  0  0  0  0  0  0  0  0  0
   -1.4489    2.2974   -2.2524 N   0  0  0  0  0  0  0  0  0  0  0  0
   -2.3100    1.7876   -2.0974 H   0  0  0  0  0  0  0  0  0  0  0  0
   -1.4468    3.3500   -3.2629 C   0  0  0  0  0  0  0  0  0  0  0  0
   -0.5208    3.3196   -3.8469 H   0  0  0  0  0  0  0  0  0  0  0  0
   -2.2887    3.2178   -3.9490 H   0  0  0  0  0  0  0  0  0  0  0  0
   -1.5335    4.3348   -2.7917 H   0  0  0  0  0  0  0  0  0  0  0  0
  1  2  1  0  0  0  0
  2  3  1  0  0  0  0
  2  4  1  0  0  0  0
  2  5  1  0  0  0  0
  5  6  2  0  0  0  0
  5  7  1  0  0  0  0
  7  8  1  0  0  0  0
  7  9  1  0  0  0  0
  9 10  1  0  0  0  0
  9 11  1  0  0  0  0
  9 25  1  0  0  0  0
 11 12  1  0  0  0  0
 11 13  1  0  0  0  0
 11 14  1  0  0  0  0
 14 15  1  0  0  0  0
 14 23  2  0  0  0  0
 15 16  1  0  0  0  0
 15 17  2  0  0  0  0
 17 18  1  0  0  0  0
 17 19  1  0  0  0  0
 19 20  1  0  0  0  0
 19 21  2  0  0  0  0
 21 22  1  0  0  0  0
 21 23  1  0  0  0  0
 23 24  1  0  0  0  0
 25 26  2  0  0  0  0
 25 27  1  0  0  0  0
 27 28  1  0  0  0  0
 27 29  1  0  0  0  0
 29 30  1  0  0  0  0
 29 31  1  0  0  0  0
 29 32  1  0  0  0  0
M  END
$$$$

  -OEChem-01062216093D

 32 32  0     1  0  0  0  0  0999 V2000
   -3.1707   -2.4120    1.1267 H   0  0  0  0  0  0  0  0  0  0  0  0
   -3.1456   -1.6231    0.3695 C   0  0  0  0  0  0  0  0  0  0  0  0
   -4.1350   -1.1642    0.3042 H   0  0  0  0  0  0  0  0  0  0  0  0
   -2.8924   -2.0717   -0.5938 H   0  0  0  0  0  0  0  0  0  0  0  0
   -2.1126   -0.5777    0.7454 C   0  0  0  0  0  0  0  0  0  0  0  0
   -1.6572   -0.5566    1.8753 O   0  0  0  0  0  0  0  0  0  0  0  0
   -1.8132    0.4435   -0.1350 N   0  0  0  0  0  0  0  0  0  0  0  0
   -2.2630    0.3208   -1.0364 H   0  0  0  0  0  0  0  0  0  0  0  0
   -0.4832    1.0977   -0.1907 C   0  0  1  0  0  0  0  0  0  0  0  0
   -0.2528    1.5498    0.7799 H   0  0  0  0  0  0  0  0  0  0  0  0
    0.6588    0.1194   -0.6036 C   0  0  0  0  0  0  0  0  0  0  0  0
    0.4037   -0.3291   -1.5691 H   0  0  0  0  0  0  0  0  0  0  0  0
    1.5826    0.6879   -0.7562 H   0  0  0  0  0  0  0  0  0  0  0  0
    0.9855   -0.9780    0.3808 C   0  0  0  0  0  0  0  0  0  0  0  0
    1.8043   -0.7087    1.4871 C   0  0  0  0  0  0  0  0  0  0  0  0
    2.1650    0.3003    1.6622 H   0  0  0  0  0  0  0  0  0  0  0  0
    2.1498   -1.7275    2.3811 C   0  0  0  0  0  0  0  0  0  0  0  0
    2.7708   -1.5034    3.2431 H   0  0  0  0  0  0  0  0  0  0  0  0
    1.6931   -3.0311    2.1665 C   0  0  0  0  0  0  0  0  0  0  0  0
    1.9587   -3.8206    2.8628 H   0  0  0  0  0  0  0  0  0  0  0  0
    0.8971   -3.3160    1.0533 C   0  0  0  0  0  0  0  0  0  0  0  0
    0.5484   -4.3298    0.8827 H   0  0  0  0  0  0  0  0  0  0  0  0
    0.5524   -2.2959    0.1601 C   0  0  0  0  0  0  0  0  0  0  0  0
   -0.0554   -2.5328   -0.7066 H   0  0  0  0  0  0  0  0  0  0  0  0
   -0.4758    2.2097   -1.2720 C   0  0  0  0  0  0  0  0  0  0  0  0
    0.5442    2.8383   -1.5216 O   0  0  0  0  0  0  0  0  0  0  0  0
   -1.6092    2.4757   -2.0247 N   0  0  0  0  0  0  0  0  0  0  0  0
   -2.4856    2.1371   -1.6419 H   0  0  0  0  0  0  0  0  0  0  0  0
   -1.6638    3.5456   -3.0149 C   0  0  0  0  0  0  0  0  0  0  0  0
   -0.8924    3.4014   -3.7788 H   0  0  0  0  0  0  0  0  0  0  0  0
   -2.6393    3.5522   -3.5106 H   0  0  0  0  0  0  0  0  0  0  0  0
   -1.5091    4.5190   -2.5376 H   0  0  0  0  0  0  0  0  0  0  0  0
  1  2  1  0  0  0  0
  2  3  1  0  0  0  0
  2  4  1  0  0  0  0
  2  5  1  0  0  0  0
  5  6  2  0  0  0  0
  5  7  1  0  0  0  0
  7  8  1  0  0  0  0
  7  9  1  0  0  0  0
  9 10  1  0  0  0  0
  9 11  1  0  0  0  0
  9 25  1  0  0  0  0
 11 12  1  0  0  0  0
 11 13  1  0  0  0  0
 11 14  1  0  0  0  0
 14 15  1  0  0  0  0
 14 23  2  0  0  0  0
 15 16  1  0  0  0  0
 15 17  2  0  0  0  0
 17 18  1  0  0  0  0
 17 19  1  0  0  0  0
 19 20  1  0  0  0  0
 19 21  2  0  0  0  0
 21 22  1  0  0  0  0
 21 23  1  0  0  0  0
 23 24  1  0  0  0  0
 25 26  2  0  0  0  0
 25 27  1  0  0  0  0
 27 28  1  0  0  0  0
 27 29  1  0  0  0  0
 29 30  1  0  0  0  0
 29 31  1  0  0  0  0
 29 32  1  0  0  0  0
M  END
$$$$

  -OEChem-01062216093D

 32 32  0     1  0  0  0  0  0999 V2000
   -3.1880   -2.3950    1.1009 H   0  0  0  0  0  0  0  0  0  0  0  0
   -3.1389   -1.6104    0.3405 C   0  0  0  0  0  0  0  0  0  0  0  0
   -4.1220   -1.1422    0.2513 H   0  0  0  0  0  0  0  0  0  0  0  0
   -2.8694   -2.0668   -0.6148 H   0  0  0  0  0  0  0  0  0  0  0  0
   -2.1031   -0.5734    0.7320 C   0  0  0  0  0  0  0  0  0  0  0  0
   -1.6540   -0.5617    1.8646 O   0  0  0  0  0  0  0  0  0  0  0  0
   -1.7928    0.4531   -0.1377 N   0  0  0  0  0  0  0  0  0  0  0  0
   -2.2535    0.3575   -1.0381 H   0  0  0  0  0  0  0  0  0  0  0  0
   -0.4583    1.0971   -0.1939 C   0  0  1  0  0  0  0  0  0  0  0  0
   -0.2244    1.5495    0.7758 H   0  0  0  0  0  0  0  0  0  0  0  0
    0.6790    0.1099   -0.6017 C   0  0  0  0  0  0  0  0  0  0  0  0
    0.4252   -0.3377   -1.5677 H   0  0  0  0  0  0  0  0  0  0  0  0
    1.6078    0.6712   -0.7499 H   0  0  0  0  0  0  0  0  0  0  0  0
    0.9974   -0.9868    0.3870 C   0  0  0  0  0  0  0  0  0  0  0  0
    1.8158   -0.7210    1.4946 C   0  0  0  0  0  0  0  0  0  0  0  0
    2.1840    0.2855    1.6675 H   0  0  0  0  0  0  0  0  0  0  0  0
    2.1525   -1.7406    2.3915 C   0  0  0  0  0  0  0  0  0  0  0  0
    2.7737   -1.5196    3.2542 H   0  0  0  0  0  0  0  0  0  0  0  0
    1.6864   -3.0414    2.1791 C   0  0  0  0  0  0  0  0  0  0  0  0
    1.9434   -3.8314    2.8783 H   0  0  0  0  0  0  0  0  0  0  0  0
    0.8911   -3.3231    1.0646 C   0  0  0  0  0  0  0  0  0  0  0  0
    0.5343   -4.3343    0.8957 H   0  0  0  0  0  0  0  0  0  0  0  0
    0.5567   -2.3026    0.1681 C   0  0  0  0  0  0  0  0  0  0  0  0
   -0.0509   -2.5370   -0.6994 H   0  0  0  0  0  0  0  0  0  0  0  0
   -0.4767    2.2133   -1.2733 C   0  0  0  0  0  0  0  0  0  0  0  0
    0.5535    2.6847   -1.7368 O   0  0  0  0  0  0  0  0  0  0  0  0
   -1.6850    2.6740   -1.7719 N   0  0  0  0  0  0  0  0  0  0  0  0
   -2.5090    2.4348   -1.2278 H   0  0  0  0  0  0  0  0  0  0  0  0
   -1.7833    3.7671   -2.7329 C   0  0  0  0  0  0  0  0  0  0  0  0
   -1.2256    3.5279   -3.6446 H   0  0  0  0  0  0  0  0  0  0  0  0
   -2.8290    3.9378   -3.0060 H   0  0  0  0  0  0  0  0  0  0  0  0
   -1.3801    4.6913   -2.3057 H   0  0  0  0  0  0  0  0  0  0  0  0
  1  2  1  0  0  0  0
  2  3  1  0  0  0  0
  2  4  1  0  0  0  0
  2  5  1  0  0  0  0
  5  6  2  0  0  0  0
  5  7  1  0  0  0  0
  7  8  1  0  0  0  0
  7  9  1  0  0  0  0
  9 10  1  0  0  0  0
  9 11  1  0  0  0  0
  9 25  1  0  0  0  0
 11 12  1  0  0  0  0
 11 13  1  0  0  0  0
 11 14  1  0  0  0  0
 14 15  1  0  0  0  0
 14 23  2  0  0  0  0
 15 16  1  0  0  0  0
 15 17  2  0  0  0  0
 17 18  1  0  0  0  0
 17 19  1  0  0  0  0
 19 20  1  0  0  0  0
 19 21  2  0  0  0  0
 21 22  1  0  0  0  0
 21 23  1  0  0  0  0
 23 24  1  0  0  0  0
 25 26  2  0  0  0  0
 25 27  1  0  0  0  0
 27 28  1  0  0  0  0
 27 29  1  0  0  0  0
 29 30  1  0  0  0  0
 29 31  1  0  0  0  0
 29 32  1  0  0  0  0
M  END
$$$$

  -OEChem-01062216093D

 32 32  0     1  0  0  0  0  0999 V2000
   -3.2001   -2.3870    1.0700 H   0  0  0  0  0  0  0  0  0  0  0  0
   -3.1497   -1.5913    0.3211 C   0  0  0  0  0  0  0  0  0  0  0  0
   -4.1280   -1.1102    0.2495 H   0  0  0  0  0  0  0  0  0  0  0  0
   -2.8955   -2.0354   -0.6440 H   0  0  0  0  0  0  0  0  0  0  0  0
   -2.0979   -0.5723    0.7170 C   0  0  0  0  0  0  0  0  0  0  0  0
   -1.6487   -0.5732    1.8498 O   0  0  0  0  0  0  0  0  0  0  0  0
   -1.7774    0.4595   -0.1424 N   0  0  0  0  0  0  0  0  0  0  0  0
   -2.2514    0.3945   -1.0391 H   0  0  0  0  0  0  0  0  0  0  0  0
   -0.4397    1.0948   -0.1946 C   0  0  1  0  0  0  0  0  0  0  0  0
   -0.2063    1.5460    0.7754 H   0  0  0  0  0  0  0  0  0  0  0  0
    0.6982    0.1061   -0.5971 C   0  0  0  0  0  0  0  0  0  0  0  0
    0.4492   -0.3418   -1.5646 H   0  0  0  0  0  0  0  0  0  0  0  0
    1.6268    0.6689   -0.7398 H   0  0  0  0  0  0  0  0  0  0  0  0
    1.0102   -0.9907    0.3931 C   0  0  0  0  0  0  0  0  0  0  0  0
    1.8233   -0.7279    1.5054 C   0  0  0  0  0  0  0  0  0  0  0  0
    2.1924    0.2774    1.6830 H   0  0  0  0  0  0  0  0  0  0  0  0
    2.1526   -1.7497    2.4027 C   0  0  0  0  0  0  0  0  0  0  0  0
    2.7689   -1.5319    3.2696 H   0  0  0  0  0  0  0  0  0  0  0  0
    1.6853   -3.0492    2.1860 C   0  0  0  0  0  0  0  0  0  0  0  0
    1.9370   -3.8402    2.8860 H   0  0  0  0  0  0  0  0  0  0  0  0
    0.8962   -3.3281    1.0665 C   0  0  0  0  0  0  0  0  0  0  0  0
    0.5395   -4.3387    0.8941 H   0  0  0  0  0  0  0  0  0  0  0  0
    0.5681   -2.3054    0.1699 C   0  0  0  0  0  0  0  0  0  0  0  0
   -0.0351   -2.5368   -0.7017 H   0  0  0  0  0  0  0  0  0  0  0  0
   -0.4753    2.2153   -1.2695 C   0  0  0  0  0  0  0  0  0  0  0  0
    0.4996    2.5228   -1.9435 O   0  0  0  0  0  0  0  0  0  0  0  0
   -1.6674    2.8764   -1.5135 N   0  0  0  0  0  0  0  0  0  0  0  0
   -2.4194    2.7067   -0.8506 H   0  0  0  0  0  0  0  0  0  0  0  0
   -1.7927    3.9886   -2.4486 C   0  0  0  0  0  0  0  0  0  0  0  0
   -1.4968    3.6781   -3.4563 H   0  0  0  0  0  0  0  0  0  0  0  0
   -2.8298    4.3352   -2.4866 H   0  0  0  0  0  0  0  0  0  0  0  0
   -1.1579    4.8248   -2.1372 H   0  0  0  0  0  0  0  0  0  0  0  0
  1  2  1  0  0  0  0
  2  3  1  0  0  0  0
  2  4  1  0  0  0  0
  2  5  1  0  0  0  0
  5  6  2  0  0  0  0
  5  7  1  0  0  0  0
  7  8  1  0  0  0  0
  7  9  1  0  0  0  0
  9 10  1  0  0  0  0
  9 11  1  0  0  0  0
  9 25  1  0  0  0  0
 11 12  1  0  0  0  0
 11 13  1  0  0  0  0
 11 14  1  0  0  0  0
 14 15  1  0  0  0  0
 14 23  2  0  0  0  0
 15 16  1  0  0  0  0
 15 17  2  0  0  0  0
 17 18  1  0  0  0  0
 17 19  1  0  0  0  0
 19 20  1  0  0  0  0
 19 21  2  0  0  0  0
 21 22  1  0  0  0  0
 21 23  1  0  0  0  0
 23 24  1  0  0  0  0
 25 26  2  0  0  0  0
 25 27  1  0  0  0  0
 27 28  1  0  0  0  0
 27 29  1  0  0  0  0
 29 30  1  0  0  0  0
 29 31  1  0  0  0  0
 29 32  1  0  0  0  0
M  END
$$$$

  -OEChem-01062216093D

 32 32  0     1  0  0  0  0  0999 V2000
   -3.2391   -2.3749    1.0277 H   0  0  0  0  0  0  0  0  0  0  0  0
   -3.1798   -1.5653    0.2948 C   0  0  0  0  0  0  0  0  0  0  0  0
   -4.1487   -1.0629    0.2435 H   0  0  0  0  0  0  0  0  0  0  0  0
   -2.9454   -1.9947   -0.6820 H   0  0  0  0  0  0  0  0  0  0  0  0
   -2.1026   -0.5771    0.7004 C   0  0  0  0  0  0  0  0  0  0  0  0
   -1.6462   -0.6069    1.8300 O   0  0  0  0  0  0  0  0  0  0  0  0
   -1.7677    0.4631   -0.1426 N   0  0  0  0  0  0  0  0  0  0  0  0
   -2.2573    0.4348   -1.0331 H   0  0  0  0  0  0  0  0  0  0  0  0
   -0.4265    1.0885   -0.1901 C   0  0  1  0  0  0  0  0  0  0  0  0
   -0.1931    1.5314    0.7834 H   0  0  0  0  0  0  0  0  0  0  0  0
    0.7150    0.1039   -0.5903 C   0  0  0  0  0  0  0  0  0  0  0  0
    0.4695   -0.3448   -1.5584 H   0  0  0  0  0  0  0  0  0  0  0  0
    1.6400    0.6738   -0.7317 H   0  0  0  0  0  0  0  0  0  0  0  0
    1.0256   -0.9947    0.3980 C   0  0  0  0  0  0  0  0  0  0  0  0
    1.8338   -0.7315    1.5137 C   0  0  0  0  0  0  0  0  0  0  0  0
    2.2013    0.2740    1.6932 H   0  0  0  0  0  0  0  0  0  0  0  0
    2.1617   -1.7534    2.4112 C   0  0  0  0  0  0  0  0  0  0  0  0
    2.7751   -1.5351    3.2800 H   0  0  0  0  0  0  0  0  0  0  0  0
    1.6964   -3.0533    2.1920 C   0  0  0  0  0  0  0  0  0  0  0  0
    1.9459   -3.8448    2.8922 H   0  0  0  0  0  0  0  0  0  0  0  0
    0.9116   -3.3320    1.0692 C   0  0  0  0  0  0  0  0  0  0  0  0
    0.5563   -4.3428    0.8943 H   0  0  0  0  0  0  0  0  0  0  0  0
    0.5854   -2.3092    0.1721 C   0  0  0  0  0  0  0  0  0  0  0  0
   -0.0150   -2.5403   -0.7015 H   0  0  0  0  0  0  0  0  0  0  0  0
   -0.4715    2.2182   -1.2525 C   0  0  0  0  0  0  0  0  0  0  0  0
    0.3773    2.3563   -2.1244 O   0  0  0  0  0  0  0  0  0  0  0  0
   -1.5554    3.0785   -1.2568 N   0  0  0  0  0  0  0  0  0  0  0  0
   -2.2163    2.9850   -0.4896 H   0  0  0  0  0  0  0  0  0  0  0  0
   -1.6989    4.1949   -2.1842 C   0  0  0  0  0  0  0  0  0  0  0  0
   -1.6870    3.8384   -3.2196 H   0  0  0  0  0  0  0  0  0  0  0  0
   -2.6472    4.7120   -2.0094 H   0  0  0  0  0  0  0  0  0  0  0  0
   -0.8827    4.9123   -2.0496 H   0  0  0  0  0  0  0  0  0  0  0  0
  1  2  1  0  0  0  0
  2  3  1  0  0  0  0
  2  4  1  0  0  0  0
  2  5  1  0  0  0  0
  5  6  2  0  0  0  0
  5  7  1  0  0  0  0
  7  8  1  0  0  0  0
  7  9  1  0  0  0  0
  9 10  1  0  0  0  0
  9 11  1  0  0  0  0
  9 25  1  0  0  0  0
 11 12  1  0  0  0  0
 11 13  1  0  0  0  0
 11 14  1  0  0  0  0
 14 15  1  0  0  0  0
 14 23  2  0  0  0  0
 15 16  1  0  0  0  0
 15 17  2  0  0  0  0
 17 18  1  0  0  0  0
 17 19  1  0  0  0  0
 19 20  1  0  0  0  0
 19 21  2  0  0  0  0
 21 22  1  0  0  0  0
 21 23  1  0  0  0  0
 23 24  1  0  0  0  0
 25 26  2  0  0  0  0
 25 27  1  0  0  0  0
 27 28  1  0  0  0  0
 27 29  1  0  0  0  0
 29 30  1  0  0  0  0
 29 31  1  0  0  0  0
 29 32  1  0  0  0  0
M  END
$$$$

  -OEChem-01062216093D

 32 32  0     1  0  0  0  0  0999 V2000
   -3.2644   -2.3585    1.0133 H   0  0  0  0  0  0  0  0  0  0  0  0
   -3.1845   -1.5533    0.2774 C   0  0  0  0  0  0  0  0  0  0  0  0
   -4.1472   -1.0416    0.2064 H   0  0  0  0  0  0  0  0  0  0  0  0
   -2.9374   -1.9899   -0.6933 H   0  0  0  0  0  0  0  0  0  0  0  0
   -2.1048   -0.5735    0.6962 C   0  0  0  0  0  0  0  0  0  0  0  0
   -1.6493   -0.6172    1.8259 O   0  0  0  0  0  0  0  0  0  0  0  0
   -1.7633    0.4722   -0.1363 N   0  0  0  0  0  0  0  0  0  0  0  0
   -2.2521    0.4568   -1.0278 H   0  0  0  0  0  0  0  0  0  0  0  0
   -0.4216    1.0918   -0.1755 C   0  0  1  0  0  0  0  0  0  0  0  0
   -0.1897    1.5255    0.8026 H   0  0  0  0  0  0  0  0  0  0  0  0
    0.7219    0.1115   -0.5768 C   0  0  0  0  0  0  0  0  0  0  0  0
    0.4763   -0.3366   -1.5453 H   0  0  0  0  0  0  0  0  0  0  0  0
    1.6430    0.6869   -0.7196 H   0  0  0  0  0  0  0  0  0  0  0  0
    1.0309   -0.9938    0.4049 C   0  0  0  0  0  0  0  0  0  0  0  0
    1.8351   -0.7371    1.5250 C   0  0  0  0  0  0  0  0  0  0  0  0
    2.2013    0.2674    1.7114 H   0  0  0  0  0  0  0  0  0  0  0  0
    2.1632   -1.7647    2.4160 C   0  0  0  0  0  0  0  0  0  0  0  0
    2.7751   -1.5513    3.2870 H   0  0  0  0  0  0  0  0  0  0  0  0
    1.7010   -3.0639    2.1863 C   0  0  0  0  0  0  0  0  0  0  0  0
    1.9518   -3.8605    2.8802 H   0  0  0  0  0  0  0  0  0  0  0  0
    0.9166   -3.3355    1.0616 C   0  0  0  0  0  0  0  0  0  0  0  0
    0.5614   -4.3450    0.8794 H   0  0  0  0  0  0  0  0  0  0  0  0
    0.5908   -2.3070    0.1711 C   0  0  0  0  0  0  0  0  0  0  0  0
   -0.0098   -2.5327   -0.7038 H   0  0  0  0  0  0  0  0  0  0  0  0
   -0.4631    2.2281   -1.2273 C   0  0  0  0  0  0  0  0  0  0  0  0
    0.1957    2.2101   -2.2599 O   0  0  0  0  0  0  0  0  0  0  0  0
   -1.3574    3.2662   -1.0390 N   0  0  0  0  0  0  0  0  0  0  0  0
   -1.9080    3.2532   -0.1842 H   0  0  0  0  0  0  0  0  0  0  0  0
   -1.5151    4.3780   -1.9693 C   0  0  0  0  0  0  0  0  0  0  0  0
   -1.8186    4.0127   -2.9560 H   0  0  0  0  0  0  0  0  0  0  0  0
   -2.2820    5.0691   -1.6065 H   0  0  0  0  0  0  0  0  0  0  0  0
   -0.5738    4.9283   -2.0712 H   0  0  0  0  0  0  0  0  0  0  0  0
  1  2  1  0  0  0  0
  2  3  1  0  0  0  0
  2  4  1  0  0  0  0
  2  5  1  0  0  0  0
  5  6  2  0  0  0  0
  5  7  1  0  0  0  0
  7  8  1  0  0  0  0
  7  9  1  0  0  0  0
  9 10  1  0  0  0  0
  9 11  1  0  0  0  0
  9 25  1  0  0  0  0
 11 12  1  0  0  0  0
 11 13  1  0  0  0  0
 11 14  1  0  0  0  0
 14 15  1  0  0  0  0
 14 23  2  0  0  0  0
 15 16  1  0  0  0  0
 15 17  2  0  0  0  0
 17 18  1  0  0  0  0
 17 19  1  0  0  0  0
 19 20  1  0  0  0  0
 19 21  2  0  0  0  0
 21 22  1  0  0  0  0
 21 23  1  0  0  0  0
 23 24  1  0  0  0  0
 25 26  2  0  0  0  0
 25 27  1  0  0  0  0
 27 28  1  0  0  0  0
 27 29  1  0  0  0  0
 29 30  1  0  0  0  0
 29 31  1  0  0  0  0
 29 32  1  0  0  0  0
M  END
$$$$

  -OEChem-01062216093D

 32 32  0     1  0  0  0  0  0999 V2000
   -3.2692   -2.3582    0.9993 H   0  0  0  0  0  0  0  0  0  0  0  0
   -3.1916   -1.5448    0.2723 C   0  0  0  0  0  0  0  0  0  0  0  0
   -4.1536   -1.0304    0.2121 H   0  0  0  0  0  0  0  0  0  0  0  0
   -2.9502   -1.9708   -0.7044 H   0  0  0  0  0  0  0  0  0  0  0  0
   -2.1083   -0.5710    0.6960 C   0  0  0  0  0  0  0  0  0  0  0  0
   -1.6519   -0.6229    1.8253 O   0  0  0  0  0  0  0  0  0  0  0  0
   -1.7613    0.4769   -0.1315 N   0  0  0  0  0  0  0  0  0  0  0  0
   -2.2460    0.4686   -1.0256 H   0  0  0  0  0  0  0  0  0  0  0  0
   -0.4200    1.0945   -0.1603 C   0  0  1  0  0  0  0  0  0  0  0  0
   -0.1923    1.5211    0.8216 H   0  0  0  0  0  0  0  0  0  0  0  0
    0.7282    0.1222   -0.5638 C   0  0  0  0  0  0  0  0  0  0  0  0
    0.4872   -0.3241   -1.5344 H   0  0  0  0  0  0  0  0  0  0  0  0
    1.6457    0.7044   -0.7033 H   0  0  0  0  0  0  0  0  0  0  0  0
    1.0352   -0.9898    0.4111 C   0  0  0  0  0  0  0  0  0  0  0  0
    1.8324   -0.7408    1.5380 C   0  0  0  0  0  0  0  0  0  0  0  0
    2.1942    0.2629    1.7373 H   0  0  0  0  0  0  0  0  0  0  0  0
    2.1575   -1.7758    2.4216 C   0  0  0  0  0  0  0  0  0  0  0  0
    2.7621   -1.5699    3.2994 H   0  0  0  0  0  0  0  0  0  0  0  0
    1.7003   -3.0741    2.1780 C   0  0  0  0  0  0  0  0  0  0  0  0
    1.9482   -3.8758    2.8671 H   0  0  0  0  0  0  0  0  0  0  0  0
    0.9242   -3.3382    1.0459 C   0  0  0  0  0  0  0  0  0  0  0  0
    0.5728   -4.3472    0.8531 H   0  0  0  0  0  0  0  0  0  0  0  0
    0.6003   -2.3022    0.1632 C   0  0  0  0  0  0  0  0  0  0  0  0
    0.0060   -2.5211   -0.7178 H   0  0  0  0  0  0  0  0  0  0  0  0
   -0.4493    2.2331   -1.2065 C   0  0  0  0  0  0  0  0  0  0  0  0
   -0.0239    2.0927   -2.3468 O   0  0  0  0  0  0  0  0  0  0  0  0
   -1.0929    3.4132   -0.8829 N   0  0  0  0  0  0  0  0  0  0  0  0
   -1.5063    3.4777    0.0438 H   0  0  0  0  0  0  0  0  0  0  0  0
   -1.2556    4.5262   -1.8107 C   0  0  0  0  0  0  0  0  0  0  0  0
   -1.8350    4.2146   -2.6861 H   0  0  0  0  0  0  0  0  0  0  0  0
   -1.7832    5.3512   -1.3225 H   0  0  0  0  0  0  0  0  0  0  0  0
   -0.2791    4.8913   -2.1459 H   0  0  0  0  0  0  0  0  0  0  0  0
  1  2  1  0  0  0  0
  2  3  1  0  0  0  0
  2  4  1  0  0  0  0
  2  5  1  0  0  0  0
  5  6  2  0  0  0  0
  5  7  1  0  0  0  0
  7  8  1  0  0  0  0
  7  9  1  0  0  0  0
  9 10  1  0  0  0  0
  9 11  1  0  0  0  0
  9 25  1  0  0  0  0
 11 12  1  0  0  0  0
 11 13  1  0  0  0  0
 11 14  1  0  0  0  0
 14 15  1  0  0  0  0
 14 23  2  0  0  0  0
 15 16  1  0  0  0  0
 15 17  2  0  0  0  0
 17 18  1  0  0  0  0
 17 19  1  0  0  0  0
 19 20  1  0  0  0  0
 19 21  2  0  0  0  0
 21 22  1  0  0  0  0
 21 23  1  0  0  0  0
 23 24  1  0  0  0  0
 25 26  2  0  0  0  0
 25 27  1  0  0  0  0
 27 28  1  0  0  0  0
 27 29  1  0  0  0  0
 29 30  1  0  0  0  0
 29 31  1  0  0  0  0
 29 32  1  0  0  0  0
M  END
$$$$

  -OEChem-01062216093D

 32 32  0     1  0  0  0  0  0999 V2000
   -3.2909   -2.3387    1.0054 H   0  0  0  0  0  0  0  0  0  0  0  0
   -3.1905   -1.5382    0.2670 C   0  0  0  0  0  0  0  0  0  0  0  0
   -4.1463   -1.0163    0.1787 H   0  0  0  0  0  0  0  0  0  0  0  0
   -2.9329   -1.9821   -0.6976 H   0  0  0  0  0  0  0  0  0  0  0  0
   -2.1069   -0.5677    0.6969 C   0  0  0  0  0  0  0  0  0  0  0  0
   -1.6516   -0.6263    1.8267 O   0  0  0  0  0  0  0  0  0  0  0  0
   -1.7526    0.4800   -0.1273 N   0  0  0  0  0  0  0  0  0  0  0  0
   -2.2275    0.4752   -1.0272 H   0  0  0  0  0  0  0  0  0  0  0  0
   -0.4127    1.0971   -0.1438 C   0  0  1  0  0  0  0  0  0  0  0  0
   -0.1908    1.5158    0.8431 H   0  0  0  0  0  0  0  0  0  0  0  0
    0.7395    0.1346   -0.5532 C   0  0  0  0  0  0  0  0  0  0  0  0
    0.5052   -0.3042   -1.5289 H   0  0  0  0  0  0  0  0  0  0  0  0
    1.6553    0.7207   -0.6837 H   0  0  0  0  0  0  0  0  0  0  0  0
    1.0405   -0.9849    0.4134 C   0  0  0  0  0  0  0  0  0  0  0  0
    1.8289   -0.7445    1.5483 C   0  0  0  0  0  0  0  0  0  0  0  0
    2.1890    0.2576    1.7584 H   0  0  0  0  0  0  0  0  0  0  0  0
    2.1443   -1.7858    2.4278 C   0  0  0  0  0  0  0  0  0  0  0  0
    2.7407   -1.5862    3.3128 H   0  0  0  0  0  0  0  0  0  0  0  0
    1.6879   -3.0818    2.1707 C   0  0  0  0  0  0  0  0  0  0  0  0
    1.9281   -3.8882    2.8567 H   0  0  0  0  0  0  0  0  0  0  0  0
    0.9216   -3.3371    1.0300 C   0  0  0  0  0  0  0  0  0  0  0  0
    0.5710   -4.3443    0.8269 H   0  0  0  0  0  0  0  0  0  0  0  0
    0.6062   -2.2947    0.1519 C   0  0  0  0  0  0  0  0  0  0  0  0
    0.0175   -2.5062   -0.7348 H   0  0  0  0  0  0  0  0  0  0  0  0
   -0.4276    2.2347   -1.1878 C   0  0  0  0  0  0  0  0  0  0  0  0
   -0.2771    2.0116   -2.3832 O   0  0  0  0  0  0  0  0  0  0  0  0
   -0.7809    3.5103   -0.7887 N   0  0  0  0  0  0  0  0  0  0  0  0
   -1.0154    3.6429    0.1915 H   0  0  0  0  0  0  0  0  0  0  0  0
   -0.9538    4.6249   -1.7126 C   0  0  0  0  0  0  0  0  0  0  0  0
   -1.7735    4.4220   -2.4096 H   0  0  0  0  0  0  0  0  0  0  0  0
   -1.1868    5.5401   -1.1599 H   0  0  0  0  0  0  0  0  0  0  0  0
   -0.0367    4.7932   -2.2867 H   0  0  0  0  0  0  0  0  0  0  0  0
  1  2  1  0  0  0  0
  2  3  1  0  0  0  0
  2  4  1  0  0  0  0
  2  5  1  0  0  0  0
  5  6  2  0  0  0  0
  5  7  1  0  0  0  0
  7  8  1  0  0  0  0
  7  9  1  0  0  0  0
  9 10  1  0  0  0  0
  9 11  1  0  0  0  0
  9 25  1  0  0  0  0
 11 12  1  0  0  0  0
 11 13  1  0  0  0  0
 11 14  1  0  0  0  0
 14 15  1  0  0  0  0
 14 23  2  0  0  0  0
 15 16  1  0  0  0  0
 15 17  2  0  0  0  0
 17 18  1  0  0  0  0
 17 19  1  0  0  0  0
 19 20  1  0  0  0  0
 19 21  2  0  0  0  0
 21 22  1  0  0  0  0
 21 23  1  0  0  0  0
 23 24  1  0  0  0  0
 25 26  2  0  0  0  0
 25 27  1  0  0  0  0
 27 28  1  0  0  0  0
 27 29  1  0  0  0  0
 29 30  1  0  0  0  0
 29 31  1  0  0  0  0
 29 32  1  0  0  0  0
M  END
$$$$

  -OEChem-01062216093D

 32 32  0     1  0  0  0  0  0999 V2000
   -3.3268   -2.3249    0.9924 H   0  0  0  0  0  0  0  0  0  0  0  0
   -3.2181   -1.5187    0.2616 C   0  0  0  0  0  0  0  0  0  0  0  0
   -4.1650   -0.9790    0.1854 H   0  0  0  0  0  0  0  0  0  0  0  0
   -2.9756   -1.9564   -0.7096 H   0  0  0  0  0  0  0  0  0  0  0  0
   -2.1152   -0.5713    0.6939 C   0  0  0  0  0  0  0  0  0  0  0  0
   -1.6537   -0.6490    1.8201 O   0  0  0  0  0  0  0  0  0  0  0  0
   -1.7460    0.4741   -0.1264 N   0  0  0  0  0  0  0  0  0  0  0  0
   -2.2183    0.4855   -1.0284 H   0  0  0  0  0  0  0  0  0  0  0  0
   -0.4097    1.0968   -0.1285 C   0  0  1  0  0  0  0  0  0  0  0  0
   -0.1996    1.5133    0.8617 H   0  0  0  0  0  0  0  0  0  0  0  0
    0.7489    0.1453   -0.5388 C   0  0  0  0  0  0  0  0  0  0  0  0
    0.5222   -0.2849   -1.5201 H   0  0  0  0  0  0  0  0  0  0  0  0
    1.6628    0.7370   -0.6588 H   0  0  0  0  0  0  0  0  0  0  0  0
    1.0494   -0.9816    0.4198 C   0  0  0  0  0  0  0  0  0  0  0  0
    1.8295   -0.7468    1.5617 C   0  0  0  0  0  0  0  0  0  0  0  0
    2.1847    0.2548    1.7814 H   0  0  0  0  0  0  0  0  0  0  0  0
    2.1471   -1.7939    2.4335 C   0  0  0  0  0  0  0  0  0  0  0  0
    2.7397   -1.5988    3.3220 H   0  0  0  0  0  0  0  0  0  0  0  0
    1.6976   -3.0897    2.1640 C   0  0  0  0  0  0  0  0  0  0  0  0
    1.9401   -3.9014    2.8433 H   0  0  0  0  0  0  0  0  0  0  0  0
    0.9344   -3.3381    1.0196 C   0  0  0  0  0  0  0  0  0  0  0  0
    0.5867   -4.3446    0.8083 H   0  0  0  0  0  0  0  0  0  0  0  0
    0.6177   -2.2901    0.1485 C   0  0  0  0  0  0  0  0  0  0  0  0
    0.0299   -2.4966   -0.7401 H   0  0  0  0  0  0  0  0  0  0  0  0
   -0.4150    2.2278   -1.1769 C   0  0  0  0  0  0  0  0  0  0  0  0
   -0.5198    1.9718   -2.3709 O   0  0  0  0  0  0  0  0  0  0  0  0
   -0.4678    3.5469   -0.7661 N   0  0  0  0  0  0  0  0  0  0  0  0
   -0.5016    3.7249    0.2339 H   0  0  0  0  0  0  0  0  0  0  0  0
   -0.6142    4.6684   -1.6861 C   0  0  0  0  0  0  0  0  0  0  0  0
   -1.5643    4.5994   -2.2263 H   0  0  0  0  0  0  0  0  0  0  0  0
   -0.5965    5.6139   -1.1357 H   0  0  0  0  0  0  0  0  0  0  0  0
    0.2053    4.6774   -2.4126 H   0  0  0  0  0  0  0  0  0  0  0  0
  1  2  1  0  0  0  0
  2  3  1  0  0  0  0
  2  4  1  0  0  0  0
  2  5  1  0  0  0  0
  5  6  2  0  0  0  0
  5  7  1  0  0  0  0
  7  8  1  0  0  0  0
  7  9  1  0  0  0  0
  9 10  1  0  0  0  0
  9 11  1  0  0  0  0
  9 25  1  0  0  0  0
 11 12  1  0  0  0  0
 11 13  1  0  0  0  0
 11 14  1  0  0  0  0
 14 15  1  0  0  0  0
 14 23  2  0  0  0  0
 15 16  1  0  0  0  0
 15 17  2  0  0  0  0
 17 18  1  0  0  0  0
 17 19  1  0  0  0  0
 19 20  1  0  0  0  0
 19 21  2  0  0  0  0
 21 22  1  0  0  0  0
 21 23  1  0  0  0  0
 23 24  1  0  0  0  0
 25 26  2  0  0  0  0
 25 27  1  0  0  0  0
 27 28  1  0  0  0  0
 27 29  1  0  0  0  0
 29 30  1  0  0  0  0
 29 31  1  0  0  0  0
 29 32  1  0  0  0  0
M  END
$$$$

  -OEChem-01062216093D

 32 32  0     1  0  0  0  0  0999 V2000
   -3.3419   -2.3306    0.9850 H   0  0  0  0  0  0  0  0  0  0  0  0
   -3.2442   -1.5101    0.2689 C   0  0  0  0  0  0  0  0  0  0  0  0
   -4.1891   -0.9633    0.2261 H   0  0  0  0  0  0  0  0  0  0  0  0
   -3.0267   -1.9288   -0.7165 H   0  0  0  0  0  0  0  0  0  0  0  0
   -2.1258   -0.5781    0.6948 C   0  0  0  0  0  0  0  0  0  0  0  0
   -1.6559   -0.6662    1.8169 O   0  0  0  0  0  0  0  0  0  0  0  0
   -1.7496    0.4626   -0.1279 N   0  0  0  0  0  0  0  0  0  0  0  0
   -2.2261    0.4883   -1.0279 H   0  0  0  0  0  0  0  0  0  0  0  0
   -0.4181    1.0942   -0.1223 C   0  0  1  0  0  0  0  0  0  0  0  0
   -0.2187    1.5137    0.8688 H   0  0  0  0  0  0  0  0  0  0  0  0
    0.7486    0.1556   -0.5337 C   0  0  0  0  0  0  0  0  0  0  0  0
    0.5283   -0.2686   -1.5194 H   0  0  0  0  0  0  0  0  0  0  0  0
    1.6592    0.7540   -0.6451 H   0  0  0  0  0  0  0  0  0  0  0  0
    1.0525   -0.9735    0.4206 C   0  0  0  0  0  0  0  0  0  0  0  0
    1.8253   -0.7390    1.5675 C   0  0  0  0  0  0  0  0  0  0  0  0
    2.1726    0.2636    1.7946 H   0  0  0  0  0  0  0  0  0  0  0  0
    2.1430   -1.7878    2.4369 C   0  0  0  0  0  0  0  0  0  0  0  0
    2.7280   -1.5934    3.3306 H   0  0  0  0  0  0  0  0  0  0  0  0
    1.7028   -3.0850    2.1586 C   0  0  0  0  0  0  0  0  0  0  0  0
    1.9451   -3.8980    2.8363 H   0  0  0  0  0  0  0  0  0  0  0  0
    0.9494   -3.3334    1.0076 C   0  0  0  0  0  0  0  0  0  0  0  0
    0.6100   -4.3410    0.7888 H   0  0  0  0  0  0  0  0  0  0  0  0
    0.6318   -2.2834    0.1396 C   0  0  0  0  0  0  0  0  0  0  0  0
    0.0516   -2.4887   -0.7542 H   0  0  0  0  0  0  0  0  0  0  0  0
   -0.4122    2.2171   -1.1779 C   0  0  0  0  0  0  0  0  0  0  0  0
   -0.7354    1.9759   -2.3358 O   0  0  0  0  0  0  0  0  0  0  0  0
   -0.1628    3.5240   -0.8023 N   0  0  0  0  0  0  0  0  0  0  0  0
    0.0083    3.7050    0.1829 H   0  0  0  0  0  0  0  0  0  0  0  0
   -0.2483    4.6524   -1.7215 C   0  0  0  0  0  0  0  0  0  0  0  0
   -1.2634    4.7454   -2.1215 H   0  0  0  0  0  0  0  0  0  0  0  0
    0.0061    5.5820   -1.2033 H   0  0  0  0  0  0  0  0  0  0  0  0
    0.4485    4.5211   -2.5560 H   0  0  0  0  0  0  0  0  0  0  0  0
  1  2  1  0  0  0  0
  2  3  1  0  0  0  0
  2  4  1  0  0  0  0
  2  5  1  0  0  0  0
  5  6  2  0  0  0  0
  5  7  1  0  0  0  0
  7  8  1  0  0  0  0
  7  9  1  0  0  0  0
  9 10  1  0  0  0  0
  9 11  1  0  0  0  0
  9 25  1  0  0  0  0
 11 12  1  0  0  0  0
 11 13  1  0  0  0  0
 11 14  1  0  0  0  0
 14 15  1  0  0  0  0
 14 23  2  0  0  0  0
 15 16  1  0  0  0  0
 15 17  2  0  0  0  0
 17 18  1  0  0  0  0
 17 19  1  0  0  0  0
 19 20  1  0  0  0  0
 19 21  2  0  0  0  0
 21 22  1  0  0  0  0
 21 23  1  0  0  0  0
 23 24  1  0  0  0  0
 25 26  2  0  0  0  0
 25 27  1  0  0  0  0
 27 28  1  0  0  0  0
 27 29  1  0  0  0  0
 29 30  1  0  0  0  0
 29 31  1  0  0  0  0
 29 32  1  0  0  0  0
M  END
$$$$

  -OEChem-01062216093D

 32 32  0     1  0  0  0  0  0999 V2000
   -3.4130   -2.2870    1.0167 H   0  0  0  0  0  0  0  0  0  0  0  0
   -3.2661   -1.5018    0.2699 C   0  0  0  0  0  0  0  0  0  0  0  0
   -4.1919   -0.9304    0.1698 H   0  0  0  0  0  0  0  0  0  0  0  0
   -3.0274   -1.9688   -0.6885 H   0  0  0  0  0  0  0  0  0  0  0  0
   -2.1346   -0.5851    0.6940 C   0  0  0  0  0  0  0  0  0  0  0  0
   -1.6539   -0.6897    1.8102 O   0  0  0  0  0  0  0  0  0  0  0  0
   -1.7502    0.4531   -0.1280 N   0  0  0  0  0  0  0  0  0  0  0  0
   -2.2359    0.5006   -1.0229 H   0  0  0  0  0  0  0  0  0  0  0  0
   -0.4246    1.0973   -0.1159 C   0  0  1  0  0  0  0  0  0  0  0  0
   -0.2339    1.5221    0.8745 H   0  0  0  0  0  0  0  0  0  0  0  0
    0.7468    0.1664   -0.5279 C   0  0  0  0  0  0  0  0  0  0  0  0
    0.5291   -0.2528   -1.5163 H   0  0  0  0  0  0  0  0  0  0  0  0
    1.6549    0.7689   -0.6350 H   0  0  0  0  0  0  0  0  0  0  0  0
    1.0563   -0.9650    0.4218 C   0  0  0  0  0  0  0  0  0  0  0  0
    1.8268   -0.7324    1.5707 C   0  0  0  0  0  0  0  0  0  0  0  0
    2.1684    0.2709    1.8033 H   0  0  0  0  0  0  0  0  0  0  0  0
    2.1500   -1.7842    2.4349 C   0  0  0  0  0  0  0  0  0  0  0  0
    2.7338   -1.5913    3.3298 H   0  0  0  0  0  0  0  0  0  0  0  0
    1.7151   -3.0820    2.1508 C   0  0  0  0  0  0  0  0  0  0  0  0
    1.9605   -3.8970    2.8248 H   0  0  0  0  0  0  0  0  0  0  0  0
    0.9614   -3.3277    0.9994 C   0  0  0  0  0  0  0  0  0  0  0  0
    0.6231   -4.3350    0.7775 H   0  0  0  0  0  0  0  0  0  0  0  0
    0.6397   -2.2751    0.1358 C   0  0  0  0  0  0  0  0  0  0  0  0
    0.0578   -2.4785   -0.7574 H   0  0  0  0  0  0  0  0  0  0  0  0
   -0.4150    2.2134   -1.1791 C   0  0  0  0  0  0  0  0  0  0  0  0
   -0.9286    2.0202   -2.2761 O   0  0  0  0  0  0  0  0  0  0  0  0
    0.1148    3.4564   -0.8857 N   0  0  0  0  0  0  0  0  0  0  0  0
    0.4659    3.6092    0.0555 H   0  0  0  0  0  0  0  0  0  0  0  0
    0.0948    4.5745   -1.8211 C   0  0  0  0  0  0  0  0  0  0  0  0
   -0.9363    4.8533   -2.0622 H   0  0  0  0  0  0  0  0  0  0  0  0
    0.5953    5.4432   -1.3829 H   0  0  0  0  0  0  0  0  0  0  0  0
    0.6142    4.3083   -2.7478 H   0  0  0  0  0  0  0  0  0  0  0  0
  1  2  1  0  0  0  0
  2  3  1  0  0  0  0
  2  4  1  0  0  0  0
  2  5  1  0  0  0  0
  5  6  2  0  0  0  0
  5  7  1  0  0  0  0
  7  8  1  0  0  0  0
  7  9  1  0  0  0  0
  9 10  1  0  0  0  0
  9 11  1  0  0  0  0
  9 25  1  0  0  0  0
 11 12  1  0  0  0  0
 11 13  1  0  0  0  0
 11 14  1  0  0  0  0
 14 15  1  0  0  0  0
 14 23  2  0  0  0  0
 15 16  1  0  0  0  0
 15 17  2  0  0  0  0
 17 18  1  0  0  0  0
 17 19  1  0  0  0  0
 19 20  1  0  0  0  0
 19 21  2  0  0  0  0
 21 22  1  0  0  0  0
 21 23  1  0  0  0  0
 23 24  1  0  0  0  0
 25 26  2  0  0  0  0
 25 27  1  0  0  0  0
 27 28  1  0  0  0  0
 27 29  1  0  0  0  0
 29 30  1  0  0  0  0
 29 31  1  0  0  0  0
 29 32  1  0  0  0  0
M  END
$$$$

  -OEChem-01062216093D

 32 32  0     1  0  0  0  0  0999 V2000
   -3.4207   -2.3040    0.9939 H   0  0  0  0  0  0  0  0  0  0  0  0
   -3.2999   -1.4908    0.2730 C   0  0  0  0  0  0  0  0  0  0  0  0
   -4.2270   -0.9141    0.2314 H   0  0  0  0  0  0  0  0  0  0  0  0
   -3.1012   -1.9210   -0.7114 H   0  0  0  0  0  0  0  0  0  0  0  0
   -2.1489   -0.5935    0.6876 C   0  0  0  0  0  0  0  0  0  0  0  0
   -1.6588   -0.7101    1.7985 O   0  0  0  0  0  0  0  0  0  0  0  0
   -1.7583    0.4421   -0.1348 N   0  0  0  0  0  0  0  0  0  0  0  0
   -2.2607    0.5167   -1.0188 H   0  0  0  0  0  0  0  0  0  0  0  0
   -0.4398    1.1013   -0.1182 C   0  0  1  0  0  0  0  0  0  0  0  0
   -0.2592    1.5338    0.8708 H   0  0  0  0  0  0  0  0  0  0  0  0
    0.7378    0.1744   -0.5244 C   0  0  0  0  0  0  0  0  0  0  0  0
    0.5215   -0.2478   -1.5119 H   0  0  0  0  0  0  0  0  0  0  0  0
    1.6448    0.7787   -0.6328 H   0  0  0  0  0  0  0  0  0  0  0  0
    1.0555   -0.9548    0.4254 C   0  0  0  0  0  0  0  0  0  0  0  0
    1.8244   -0.7182    1.5749 C   0  0  0  0  0  0  0  0  0  0  0  0
    2.1570    0.2871    1.8116 H   0  0  0  0  0  0  0  0  0  0  0  0
    2.1591   -1.7700    2.4348 C   0  0  0  0  0  0  0  0  0  0  0  0
    2.7421   -1.5755    3.3298 H   0  0  0  0  0  0  0  0  0  0  0  0
    1.7383   -3.0712    2.1460 C   0  0  0  0  0  0  0  0  0  0  0  0
    1.9926   -3.8859    2.8171 H   0  0  0  0  0  0  0  0  0  0  0  0
    0.9870   -3.3207    0.9940 C   0  0  0  0  0  0  0  0  0  0  0  0
    0.6612   -4.3312    0.7677 H   0  0  0  0  0  0  0  0  0  0  0  0
    0.6532   -2.2685    0.1349 C   0  0  0  0  0  0  0  0  0  0  0  0
    0.0741   -2.4756   -0.7591 H   0  0  0  0  0  0  0  0  0  0  0  0
   -0.4234    2.2119   -1.1892 C   0  0  0  0  0  0  0  0  0  0  0  0
   -1.0987    2.0982   -2.2072 O   0  0  0  0  0  0  0  0  0  0  0  0
    0.3565    3.3408   -1.0143 N   0  0  0  0  0  0  0  0  0  0  0  0
    0.8708    3.4286   -0.1425 H   0  0  0  0  0  0  0  0  0  0  0  0
    0.4109    4.4340   -1.9774 C   0  0  0  0  0  0  0  0  0  0  0  0
   -0.5766    4.8932   -2.0920 H   0  0  0  0  0  0  0  0  0  0  0  0
    1.1125    5.2023   -1.6384 H   0  0  0  0  0  0  0  0  0  0  0  0
    0.7458    4.0682   -2.9538 H   0  0  0  0  0  0  0  0  0  0  0  0
  1  2  1  0  0  0  0
  2  3  1  0  0  0  0
  2  4  1  0  0  0  0
  2  5  1  0  0  0  0
  5  6  2  0  0  0  0
  5  7  1  0  0  0  0
  7  8  1  0  0  0  0
  7  9  1  0  0  0  0
  9 10  1  0  0  0  0
  9 11  1  0  0  0  0
  9 25  1  0  0  0  0
 11 12  1  0  0  0  0
 11 13  1  0  0  0  0
 11 14  1  0  0  0  0
 14 15  1  0  0  0  0
 14 23  2  0  0  0  0
 15 16  1  0  0  0  0
 15 17  2  0  0  0  0
 17 18  1  0  0  0  0
 17 19  1  0  0  0  0
 19 20  1  0  0  0  0
 19 21  2  0  0  0  0
 21 22  1  0  0  0  0
 21 23  1  0  0  0  0
 23 24  1  0  0  0  0
 25 26  2  0  0  0  0
 25 27  1  0  0  0  0
 27 28  1  0  0  0  0
 27 29  1  0  0  0  0
 29 30  1  0  0  0  0
 29 31  1  0  0  0  0
 29 32  1  0  0  0  0
M  END
$$$$

  -OEChem-01062216093D

 32 32  0     1  0  0  0  0  0999 V2000
   -3.4664   -2.2777    0.9846 H   0  0  0  0  0  0  0  0  0  0  0  0
   -3.3277   -1.4671    0.2639 C   0  0  0  0  0  0  0  0  0  0  0  0
   -4.2383   -0.8642    0.2289 H   0  0  0  0  0  0  0  0  0  0  0  0
   -3.1475   -1.9009   -0.7226 H   0  0  0  0  0  0  0  0  0  0  0  0
   -2.1499   -0.6031    0.6730 C   0  0  0  0  0  0  0  0  0  0  0  0
   -1.6503   -0.7436    1.7765 O   0  0  0  0  0  0  0  0  0  0  0  0
   -1.7494    0.4335   -0.1426 N   0  0  0  0  0  0  0  0  0  0  0  0
   -2.2776    0.5511   -1.0070 H   0  0  0  0  0  0  0  0  0  0  0  0
   -0.4355    1.1028   -0.1230 C   0  0  1  0  0  0  0  0  0  0  0  0
   -0.2580    1.5405    0.8643 H   0  0  0  0  0  0  0  0  0  0  0  0
    0.7428    0.1719   -0.5241 C   0  0  0  0  0  0  0  0  0  0  0  0
    0.5268   -0.2517   -1.5109 H   0  0  0  0  0  0  0  0  0  0  0  0
    1.6528    0.7705   -0.6324 H   0  0  0  0  0  0  0  0  0  0  0  0
    1.0612   -0.9552    0.4281 C   0  0  0  0  0  0  0  0  0  0  0  0
    1.8305   -0.7141    1.5763 C   0  0  0  0  0  0  0  0  0  0  0  0
    2.1584    0.2930    1.8114 H   0  0  0  0  0  0  0  0  0  0  0  0
    2.1719   -1.7632    2.4365 C   0  0  0  0  0  0  0  0  0  0  0  0
    2.7565   -1.5650    3.3297 H   0  0  0  0  0  0  0  0  0  0  0  0
    1.7566   -3.0668    2.1497 C   0  0  0  0  0  0  0  0  0  0  0  0
    2.0171   -3.8802    2.8205 H   0  0  0  0  0  0  0  0  0  0  0  0
    1.0036   -3.3207    0.9996 C   0  0  0  0  0  0  0  0  0  0  0  0
    0.6809   -4.3327    0.7753 H   0  0  0  0  0  0  0  0  0  0  0  0
    0.6635   -2.2708    0.1399 C   0  0  0  0  0  0  0  0  0  0  0  0
    0.0822   -2.4812   -0.7519 H   0  0  0  0  0  0  0  0  0  0  0  0
   -0.4228    2.2134   -1.1983 C   0  0  0  0  0  0  0  0  0  0  0  0
   -1.2549    2.2133   -2.1005 O   0  0  0  0  0  0  0  0  0  0  0  0
    0.5568    3.1909   -1.1893 N   0  0  0  0  0  0  0  0  0  0  0  0
    1.2184    3.1886   -0.4183 H   0  0  0  0  0  0  0  0  0  0  0  0
    0.6336    4.2574   -2.1805 C   0  0  0  0  0  0  0  0  0  0  0  0
   -0.2731    4.8710   -2.1543 H   0  0  0  0  0  0  0  0  0  0  0  0
    1.4937    4.9023   -1.9765 H   0  0  0  0  0  0  0  0  0  0  0  0
    0.7472    3.8386   -3.1860 H   0  0  0  0  0  0  0  0  0  0  0  0
  1  2  1  0  0  0  0
  2  3  1  0  0  0  0
  2  4  1  0  0  0  0
  2  5  1  0  0  0  0
  5  6  2  0  0  0  0
  5  7  1  0  0  0  0
  7  8  1  0  0  0  0
  7  9  1  0  0  0  0
  9 10  1  0  0  0  0
  9 11  1  0  0  0  0
  9 25  1  0  0  0  0
 11 12  1  0  0  0  0
 11 13  1  0  0  0  0
 11 14  1  0  0  0  0
 14 15  1  0  0  0  0
 14 23  2  0  0  0  0
 15 16  1  0  0  0  0
 15 17  2  0  0  0  0
 17 18  1  0  0  0  0
 17 19  1  0  0  0  0
 19 20  1  0  0  0  0
 19 21  2  0  0  0  0
 21 22  1  0  0  0  0
 21 23  1  0  0  0  0
 23 24  1  0  0  0  0
 25 26  2  0  0  0  0
 25 27  1  0  0  0  0
 27 28  1  0  0  0  0
 27 29  1  0  0  0  0
 29 30  1  0  0  0  0
 29 31  1  0  0  0  0
 29 32  1  0  0  0  0
M  END
$$$$

  -OEChem-01062216093D

 32 32  0     1  0  0  0  0  0999 V2000
   -3.3733   -2.3484    0.9845 H   0  0  0  0  0  0  0  0  0  0  0  0
   -3.3017   -1.4739    0.3318 C   0  0  0  0  0  0  0  0  0  0  0  0
   -4.1584   -0.8218    0.5176 H   0  0  0  0  0  0  0  0  0  0  0  0
   -3.3248   -1.8089   -0.7078 H   0  0  0  0  0  0  0  0  0  0  0  0
   -2.0126   -0.7232    0.6065 C   0  0  0  0  0  0  0  0  0  0  0  0
   -1.3532   -0.9973    1.5958 O   0  0  0  0  0  0  0  0  0  0  0  0
   -1.6583    0.3397   -0.1985 N   0  0  0  0  0  0  0  0  0  0  0  0
   -2.3196    0.6211   -0.9212 H   0  0  0  0  0  0  0  0  0  0  0  0
   -0.3661    1.0476   -0.1802 C   0  0  1  0  0  0  0  0  0  0  0  0
   -0.0622    1.2490    0.8520 H   0  0  0  0  0  0  0  0  0  0  0  0
    0.7315    0.2365   -0.9195 C   0  0  0  0  0  0  0  0  0  0  0  0
    0.3861    0.0250   -1.9370 H   0  0  0  0  0  0  0  0  0  0  0  0
    1.6375    0.8428   -1.0130 H   0  0  0  0  0  0  0  0  0  0  0  0
    1.1265   -1.0577   -0.2514 C   0  0  0  0  0  0  0  0  0  0  0  0
    2.0299   -1.0567    0.8217 C   0  0  0  0  0  0  0  0  0  0  0  0
    2.4237   -0.1202    1.2027 H   0  0  0  0  0  0  0  0  0  0  0  0
    2.4182   -2.2583    1.4241 C   0  0  0  0  0  0  0  0  0  0  0  0
    3.1048   -2.2463    2.2651 H   0  0  0  0  0  0  0  0  0  0  0  0
    1.9151   -3.4734    0.9499 C   0  0  0  0  0  0  0  0  0  0  0  0
    2.2111   -4.4051    1.4222 H   0  0  0  0  0  0  0  0  0  0  0  0
    1.0257   -3.4861   -0.1285 C   0  0  0  0  0  0  0  0  0  0  0  0
    0.6335   -4.4288   -0.4973 H   0  0  0  0  0  0  0  0  0  0  0  0
    0.6371   -2.2839   -0.7286 C   0  0  0  0  0  0  0  0  0  0  0  0
   -0.0541   -2.3055   -1.5650 H   0  0  0  0  0  0  0  0  0  0  0  0
   -0.4996    2.3902   -0.9391 C   0  0  0  0  0  0  0  0  0  0  0  0
   -1.5476    2.6794   -1.5083 O   0  0  0  0  0  0  0  0  0  0  0  0
    0.5789    3.2493   -1.0643 N   0  0  0  0  0  0  0  0  0  0  0  0
    1.4330    3.0086   -0.5699 H   0  0  0  0  0  0  0  0  0  0  0  0
    0.5170    4.5127   -1.7897 C   0  0  0  0  0  0  0  0  0  0  0  0
   -0.2252    5.1782   -1.3363 H   0  0  0  0  0  0  0  0  0  0  0  0
    1.4906    5.0116   -1.7648 H   0  0  0  0  0  0  0  0  0  0  0  0
    0.2443    4.3412   -2.8364 H   0  0  0  0  0  0  0  0  0  0  0  0
  1  2  1  0  0  0  0
  2  3  1  0  0  0  0
  2  4  1  0  0  0  0
  2  5  1  0  0  0  0
  5  6  2  0  0  0  0
  5  7  1  0  0  0  0
  7  8  1  0  0  0  0
  7  9  1  0  0  0  0
  9 10  1  0  0  0  0
  9 11  1  0  0  0  0
  9 25  1  0  0  0  0
 11 12  1  0  0  0  0
 11 13  1  0  0  0  0
 11 14  1  0  0  0  0
 14 15  1  0  0  0  0
 14 23  2  0  0  0  0
 15 16  1  0  0  0  0
 15 17  2  0  0  0  0
 17 18  1  0  0  0  0
 17 19  1  0  0  0  0
 19 20  1  0  0  0  0
 19 21  2  0  0  0  0
 21 22  1  0  0  0  0
 21 23  1  0  0  0  0
 23 24  1  0  0  0  0
 25 26  2  0  0  0  0
 25 27  1  0  0  0  0
 27 28  1  0  0  0  0
 27 29  1  0  0  0  0
 29 30  1  0  0  0  0
 29 31  1  0  0  0  0
 29 32  1  0  0  0  0
M  END
$$$$

  -OEChem-01062216093D

 32 32  0     1  0  0  0  0  0999 V2000
   -3.4016   -2.3202    0.9760 H   0  0  0  0  0  0  0  0  0  0  0  0
   -3.3179   -1.4438    0.3273 C   0  0  0  0  0  0  0  0  0  0  0  0
   -4.1563   -0.7728    0.5290 H   0  0  0  0  0  0  0  0  0  0  0  0
   -3.3633   -1.7719   -0.7137 H   0  0  0  0  0  0  0  0  0  0  0  0
   -2.0071   -0.7259    0.5869 C   0  0  0  0  0  0  0  0  0  0  0  0
   -1.3379   -1.0279    1.5610 O   0  0  0  0  0  0  0  0  0  0  0  0
   -1.6453    0.3391   -0.2123 N   0  0  0  0  0  0  0  0  0  0  0  0
   -2.3340    0.6724   -0.8855 H   0  0  0  0  0  0  0  0  0  0  0  0
   -0.3513    1.0451   -0.1919 C   0  0  1  0  0  0  0  0  0  0  0  0
   -0.0491    1.2498    0.8403 H   0  0  0  0  0  0  0  0  0  0  0  0
    0.7463    0.2206   -0.9214 C   0  0  0  0  0  0  0  0  0  0  0  0
    0.4051    0.0076   -1.9401 H   0  0  0  0  0  0  0  0  0  0  0  0
    1.6592    0.8158   -1.0098 H   0  0  0  0  0  0  0  0  0  0  0  0
    1.1361   -1.0716   -0.2468 C   0  0  0  0  0  0  0  0  0  0  0  0
    2.0380   -1.0677    0.8278 C   0  0  0  0  0  0  0  0  0  0  0  0
    2.4304   -0.1303    1.2081 H   0  0  0  0  0  0  0  0  0  0  0  0
    2.4261   -2.2678    1.4331 C   0  0  0  0  0  0  0  0  0  0  0  0
    3.1114   -2.2542    2.2753 H   0  0  0  0  0  0  0  0  0  0  0  0
    1.9242   -3.4843    0.9611 C   0  0  0  0  0  0  0  0  0  0  0  0
    2.2195   -4.4148    1.4364 H   0  0  0  0  0  0  0  0  0  0  0  0
    1.0371   -3.5001   -0.1190 C   0  0  0  0  0  0  0  0  0  0  0  0
    0.6462   -4.4441   -0.4858 H   0  0  0  0  0  0  0  0  0  0  0  0
    0.6488   -2.2994   -0.7223 C   0  0  0  0  0  0  0  0  0  0  0  0
   -0.0410   -2.3235   -1.5597 H   0  0  0  0  0  0  0  0  0  0  0  0
   -0.4946    2.3916   -0.9510 C   0  0  0  0  0  0  0  0  0  0  0  0
   -1.6041    2.7894   -1.2925 O   0  0  0  0  0  0  0  0  0  0  0  0
    0.6092    3.1244   -1.3563 N   0  0  0  0  0  0  0  0  0  0  0  0
    1.5241    2.8026   -1.0553 H   0  0  0  0  0  0  0  0  0  0  0  0
    0.5163    4.3728   -2.1044 C   0  0  0  0  0  0  0  0  0  0  0  0
   -0.0285    5.1266   -1.5264 H   0  0  0  0  0  0  0  0  0  0  0  0
    1.5168    4.7595   -2.3209 H   0  0  0  0  0  0  0  0  0  0  0  0
   -0.0040    4.2124   -3.0545 H   0  0  0  0  0  0  0  0  0  0  0  0
  1  2  1  0  0  0  0
  2  3  1  0  0  0  0
  2  4  1  0  0  0  0
  2  5  1  0  0  0  0
  5  6  2  0  0  0  0
  5  7  1  0  0  0  0
  7  8  1  0  0  0  0
  7  9  1  0  0  0  0
  9 10  1  0  0  0  0
  9 11  1  0  0  0  0
  9 25  1  0  0  0  0
 11 12  1  0  0  0  0
 11 13  1  0  0  0  0
 11 14  1  0  0  0  0
 14 15  1  0  0  0  0
 14 23  2  0  0  0  0
 15 16  1  0  0  0  0
 15 17  2  0  0  0  0
 17 18  1  0  0  0  0
 17 19  1  0  0  0  0
 19 20  1  0  0  0  0
 19 21  2  0  0  0  0
 21 22  1  0  0  0  0
 21 23  1  0  0  0  0
 23 24  1  0  0  0  0
 25 26  2  0  0  0  0
 25 27  1  0  0  0  0
 27 28  1  0  0  0  0
 27 29  1  0  0  0  0
 29 30  1  0  0  0  0
 29 31  1  0  0  0  0
 29 32  1  0  0  0  0
M  END
$$$$

  -OEChem-01062216093D

 32 32  0     1  0  0  0  0  0999 V2000
   -3.4633   -2.2566    0.9873 H   0  0  0  0  0  0  0  0  0  0  0  0
   -3.3472   -1.3962    0.3224 C   0  0  0  0  0  0  0  0  0  0  0  0
   -4.1547   -0.6864    0.5180 H   0  0  0  0  0  0  0  0  0  0  0  0
   -3.4143   -1.7400   -0.7125 H   0  0  0  0  0  0  0  0  0  0  0  0
   -2.0056   -0.7301    0.5607 C   0  0  0  0  0  0  0  0  0  0  0  0
   -1.3283   -1.0682    1.5167 O   0  0  0  0  0  0  0  0  0  0  0  0
   -1.6322    0.3376   -0.2298 N   0  0  0  0  0  0  0  0  0  0  0  0
   -2.3417    0.7186   -0.8539 H   0  0  0  0  0  0  0  0  0  0  0  0
   -0.3322    1.0338   -0.2080 C   0  0  1  0  0  0  0  0  0  0  0  0
   -0.0325    1.2405    0.8245 H   0  0  0  0  0  0  0  0  0  0  0  0
    0.7702    0.2020   -0.9241 C   0  0  0  0  0  0  0  0  0  0  0  0
    0.4398   -0.0137   -1.9458 H   0  0  0  0  0  0  0  0  0  0  0  0
    1.6857    0.7951   -0.9992 H   0  0  0  0  0  0  0  0  0  0  0  0
    1.1561   -1.0883   -0.2436 C   0  0  0  0  0  0  0  0  0  0  0  0
    2.0516   -1.0808    0.8363 C   0  0  0  0  0  0  0  0  0  0  0  0
    2.4409   -0.1417    1.2157 H   0  0  0  0  0  0  0  0  0  0  0  0
    2.4375   -2.2789    1.4468 C   0  0  0  0  0  0  0  0  0  0  0  0
    3.1182   -2.2617    2.2924 H   0  0  0  0  0  0  0  0  0  0  0  0
    1.9393   -3.4973    0.9755 C   0  0  0  0  0  0  0  0  0  0  0  0
    2.2328   -4.4260    1.4554 H   0  0  0  0  0  0  0  0  0  0  0  0
    1.0583   -3.5169   -0.1094 C   0  0  0  0  0  0  0  0  0  0  0  0
    0.6692   -4.4621   -0.4750 H   0  0  0  0  0  0  0  0  0  0  0  0
    0.6729   -2.3181   -0.7189 C   0  0  0  0  0  0  0  0  0  0  0  0
   -0.0125   -2.3454   -1.5597 H   0  0  0  0  0  0  0  0  0  0  0  0
   -0.4874    2.3843   -0.9623 C   0  0  0  0  0  0  0  0  0  0  0  0
   -1.5972    2.8975   -1.0595 O   0  0  0  0  0  0  0  0  0  0  0  0
    0.5565    2.9887   -1.6453 N   0  0  0  0  0  0  0  0  0  0  0  0
    1.4773    2.5682   -1.5674 H   0  0  0  0  0  0  0  0  0  0  0  0
    0.4140    4.2258   -2.4052 C   0  0  0  0  0  0  0  0  0  0  0  0
    0.0902    5.0423   -1.7511 H   0  0  0  0  0  0  0  0  0  0  0  0
    1.3706    4.5039   -2.8579 H   0  0  0  0  0  0  0  0  0  0  0  0
   -0.3230    4.1018   -3.2057 H   0  0  0  0  0  0  0  0  0  0  0  0
  1  2  1  0  0  0  0
  2  3  1  0  0  0  0
  2  4  1  0  0  0  0
  2  5  1  0  0  0  0
  5  6  2  0  0  0  0
  5  7  1  0  0  0  0
  7  8  1  0  0  0  0
  7  9  1  0  0  0  0
  9 10  1  0  0  0  0
  9 11  1  0  0  0  0
  9 25  1  0  0  0  0
 11 12  1  0  0  0  0
 11 13  1  0  0  0  0
 11 14  1  0  0  0  0
 14 15  1  0  0  0  0
 14 23  2  0  0  0  0
 15 16  1  0  0  0  0
 15 17  2  0  0  0  0
 17 18  1  0  0  0  0
 17 19  1  0  0  0  0
 19 20  1  0  0  0  0
 19 21  2  0  0  0  0
 21 22  1  0  0  0  0
 21 23  1  0  0  0  0
 23 24  1  0  0  0  0
 25 26  2  0  0  0  0
 25 27  1  0  0  0  0
 27 28  1  0  0  0  0
 27 29  1  0  0  0  0
 29 30  1  0  0  0  0
 29 31  1  0  0  0  0
 29 32  1  0  0  0  0
M  END
$$$$

  -OEChem-01062216093D

 32 32  0     1  0  0  0  0  0999 V2000
   -3.4965   -2.2213    0.9961 H   0  0  0  0  0  0  0  0  0  0  0  0
   -3.3701   -1.3664    0.3255 C   0  0  0  0  0  0  0  0  0  0  0  0
   -4.1588   -0.6379    0.5287 H   0  0  0  0  0  0  0  0  0  0  0  0
   -3.4593   -1.7127   -0.7067 H   0  0  0  0  0  0  0  0  0  0  0  0
   -2.0104   -0.7297    0.5424 C   0  0  0  0  0  0  0  0  0  0  0  0
   -1.3233   -1.0930    1.4816 O   0  0  0  0  0  0  0  0  0  0  0  0
   -1.6321    0.3389   -0.2452 N   0  0  0  0  0  0  0  0  0  0  0  0
   -2.3541    0.7479   -0.8353 H   0  0  0  0  0  0  0  0  0  0  0  0
   -0.3256    1.0235   -0.2258 C   0  0  1  0  0  0  0  0  0  0  0  0
   -0.0282    1.2317    0.8073 H   0  0  0  0  0  0  0  0  0  0  0  0
    0.7841    0.1922   -0.9302 C   0  0  0  0  0  0  0  0  0  0  0  0
    0.4636   -0.0289   -1.9538 H   0  0  0  0  0  0  0  0  0  0  0  0
    1.6966    0.7925   -0.9956 H   0  0  0  0  0  0  0  0  0  0  0  0
    1.1698   -1.0948   -0.2444 C   0  0  0  0  0  0  0  0  0  0  0  0
    2.0578   -1.0819    0.8416 C   0  0  0  0  0  0  0  0  0  0  0  0
    2.4405   -0.1404    1.2226 H   0  0  0  0  0  0  0  0  0  0  0  0
    2.4423   -2.2774    1.4582 C   0  0  0  0  0  0  0  0  0  0  0  0
    3.1155   -2.2562    2.3096 H   0  0  0  0  0  0  0  0  0  0  0  0
    1.9521   -3.4983    0.9857 C   0  0  0  0  0  0  0  0  0  0  0  0
    2.2438   -4.4251    1.4704 H   0  0  0  0  0  0  0  0  0  0  0  0
    1.0800   -3.5232   -0.1065 C   0  0  0  0  0  0  0  0  0  0  0  0
    0.6971   -4.4708   -0.4731 H   0  0  0  0  0  0  0  0  0  0  0  0
    0.6949   -2.3270   -0.7211 C   0  0  0  0  0  0  0  0  0  0  0  0
    0.0160   -2.3589   -1.5668 H   0  0  0  0  0  0  0  0  0  0  0  0
   -0.4839    2.3760   -0.9744 C   0  0  0  0  0  0  0  0  0  0  0  0
   -1.5219    3.0130   -0.8381 O   0  0  0  0  0  0  0  0  0  0  0  0
    0.4318    2.8427   -1.9053 N   0  0  0  0  0  0  0  0  0  0  0  0
    1.2795    2.3022   -2.0457 H   0  0  0  0  0  0  0  0  0  0  0  0
    0.2493    4.0709   -2.6710 C   0  0  0  0  0  0  0  0  0  0  0  0
    0.1766    4.9335   -2.0002 H   0  0  0  0  0  0  0  0  0  0  0  0
    1.0981    4.2264   -3.3436 H   0  0  0  0  0  0  0  0  0  0  0  0
   -0.6628    4.0153   -3.2743 H   0  0  0  0  0  0  0  0  0  0  0  0
  1  2  1  0  0  0  0
  2  3  1  0  0  0  0
  2  4  1  0  0  0  0
  2  5  1  0  0  0  0
  5  6  2  0  0  0  0
  5  7  1  0  0  0  0
  7  8  1  0  0  0  0
  7  9  1  0  0  0  0
  9 10  1  0  0  0  0
  9 11  1  0  0  0  0
  9 25  1  0  0  0  0
 11 12  1  0  0  0  0
 11 13  1  0  0  0  0
 11 14  1  0  0  0  0
 14 15  1  0  0  0  0
 14 23  2  0  0  0  0
 15 16  1  0  0  0  0
 15 17  2  0  0  0  0
 17 18  1  0  0  0  0
 17 19  1  0  0  0  0
 19 20  1  0  0  0  0
 19 21  2  0  0  0  0
 21 22  1  0  0  0  0
 21 23  1  0  0  0  0
 23 24  1  0  0  0  0
 25 26  2  0  0  0  0
 25 27  1  0  0  0  0
 27 28  1  0  0  0  0
 27 29  1  0  0  0  0
 29 30  1  0  0  0  0
 29 31  1  0  0  0  0
 29 32  1  0  0  0  0
M  END
$$$$

  -OEChem-01062216093D

 32 32  0     1  0  0  0  0  0999 V2000
   -3.4978   -2.2166    1.0087 H   0  0  0  0  0  0  0  0  0  0  0  0
   -3.3763   -1.3652    0.3330 C   0  0  0  0  0  0  0  0  0  0  0  0
   -4.1671   -0.6385    0.5348 H   0  0  0  0  0  0  0  0  0  0  0  0
   -3.4675   -1.7179   -0.6968 H   0  0  0  0  0  0  0  0  0  0  0  0
   -2.0180   -0.7231    0.5426 C   0  0  0  0  0  0  0  0  0  0  0  0
   -1.3250   -1.0835    1.4783 O   0  0  0  0  0  0  0  0  0  0  0  0
   -1.6447    0.3431   -0.2514 N   0  0  0  0  0  0  0  0  0  0  0  0
   -2.3652    0.7339   -0.8538 H   0  0  0  0  0  0  0  0  0  0  0  0
   -0.3344    1.0210   -0.2428 C   0  0  1  0  0  0  0  0  0  0  0  0
   -0.0339    1.2326    0.7890 H   0  0  0  0  0  0  0  0  0  0  0  0
    0.7756    0.1864   -0.9413 C   0  0  0  0  0  0  0  0  0  0  0  0
    0.4525   -0.0487   -1.9606 H   0  0  0  0  0  0  0  0  0  0  0  0
    1.6821    0.7955   -1.0163 H   0  0  0  0  0  0  0  0  0  0  0  0
    1.1663   -1.0958   -0.2490 C   0  0  0  0  0  0  0  0  0  0  0  0
    2.0565   -1.0738    0.8350 C   0  0  0  0  0  0  0  0  0  0  0  0
    2.4362   -0.1286    1.2096 H   0  0  0  0  0  0  0  0  0  0  0  0
    2.4491   -2.2647    1.4554 C   0  0  0  0  0  0  0  0  0  0  0  0
    3.1254   -2.2362    2.3042 H   0  0  0  0  0  0  0  0  0  0  0  0
    1.9632   -3.4902    0.9900 C   0  0  0  0  0  0  0  0  0  0  0  0
    2.2614   -4.4134    1.4777 H   0  0  0  0  0  0  0  0  0  0  0  0
    1.0875   -3.5241   -0.0990 C   0  0  0  0  0  0  0  0  0  0  0  0
    0.7084   -4.4749   -0.4603 H   0  0  0  0  0  0  0  0  0  0  0  0
    0.6948   -2.3326   -0.7179 C   0  0  0  0  0  0  0  0  0  0  0  0
    0.0126   -2.3720   -1.5608 H   0  0  0  0  0  0  0  0  0  0  0  0
   -0.4865    2.3725   -0.9896 C   0  0  0  0  0  0  0  0  0  0  0  0
   -1.3825    3.1354   -0.6528 O   0  0  0  0  0  0  0  0  0  0  0  0
    0.2394    2.7004   -2.1250 N   0  0  0  0  0  0  0  0  0  0  0  0
    0.9582    2.0512   -2.4297 H   0  0  0  0  0  0  0  0  0  0  0  0
    0.0397    3.9317   -2.8811 C   0  0  0  0  0  0  0  0  0  0  0  0
    0.2310    4.8049   -2.2485 H   0  0  0  0  0  0  0  0  0  0  0  0
    0.7234    3.9666   -3.7347 H   0  0  0  0  0  0  0  0  0  0  0  0
   -0.9867    3.9882   -3.2589 H   0  0  0  0  0  0  0  0  0  0  0  0
  1  2  1  0  0  0  0
  2  3  1  0  0  0  0
  2  4  1  0  0  0  0
  2  5  1  0  0  0  0
  5  6  2  0  0  0  0
  5  7  1  0  0  0  0
  7  8  1  0  0  0  0
  7  9  1  0  0  0  0
  9 10  1  0  0  0  0
  9 11  1  0  0  0  0
  9 25  1  0  0  0  0
 11 12  1  0  0  0  0
 11 13  1  0  0  0  0
 11 14  1  0  0  0  0
 14 15  1  0  0  0  0
 14 23  2  0  0  0  0
 15 16  1  0  0  0  0
 15 17  2  0  0  0  0
 17 18  1  0  0  0  0
 17 19  1  0  0  0  0
 19 20  1  0  0  0  0
 19 21  2  0  0  0  0
 21 22  1  0  0  0  0
 21 23  1  0  0  0  0
 23 24  1  0  0  0  0
 25 26  2  0  0  0  0
 25 27  1  0  0  0  0
 27 28  1  0  0  0  0
 27 29  1  0  0  0  0
 29 30  1  0  0  0  0
 29 31  1  0  0  0  0
 29 32  1  0  0  0  0
M  END
$$$$

  -OEChem-01062216093D

 32 32  0     1  0  0  0  0  0999 V2000
   -3.4804   -2.2316    1.0323 H   0  0  0  0  0  0  0  0  0  0  0  0
   -3.3695   -1.3870    0.3463 C   0  0  0  0  0  0  0  0  0  0  0  0
   -4.1739   -0.6718    0.5348 H   0  0  0  0  0  0  0  0  0  0  0  0
   -3.4492   -1.7548   -0.6792 H   0  0  0  0  0  0  0  0  0  0  0  0
   -2.0236   -0.7191    0.5559 C   0  0  0  0  0  0  0  0  0  0  0  0
   -1.3277   -1.0608    1.4963 O   0  0  0  0  0  0  0  0  0  0  0  0
   -1.6641    0.3451   -0.2475 N   0  0  0  0  0  0  0  0  0  0  0  0
   -2.3746    0.6899   -0.8873 H   0  0  0  0  0  0  0  0  0  0  0  0
   -0.3525    1.0207   -0.2558 C   0  0  1  0  0  0  0  0  0  0  0  0
   -0.0434    1.2333    0.7735 H   0  0  0  0  0  0  0  0  0  0  0  0
    0.7537    0.1860   -0.9580 C   0  0  0  0  0  0  0  0  0  0  0  0
    0.4216   -0.0638   -1.9706 H   0  0  0  0  0  0  0  0  0  0  0  0
    1.6542    0.8025   -1.0509 H   0  0  0  0  0  0  0  0  0  0  0  0
    1.1518   -1.0907   -0.2596 C   0  0  0  0  0  0  0  0  0  0  0  0
    2.0493   -1.0581    0.8179 C   0  0  0  0  0  0  0  0  0  0  0  0
    2.4273   -0.1088    1.1838 H   0  0  0  0  0  0  0  0  0  0  0  0
    2.4507   -2.2434    1.4438 C   0  0  0  0  0  0  0  0  0  0  0  0
    3.1325   -2.2062    2.2880 H   0  0  0  0  0  0  0  0  0  0  0  0
    1.9670   -3.4740    0.9893 C   0  0  0  0  0  0  0  0  0  0  0  0
    2.2730   -4.3928    1.4802 H   0  0  0  0  0  0  0  0  0  0  0  0
    1.0834   -3.5185   -0.0930 C   0  0  0  0  0  0  0  0  0  0  0  0
    0.7057   -4.4732   -0.4457 H   0  0  0  0  0  0  0  0  0  0  0  0
    0.6810   -2.3325   -0.7161 C   0  0  0  0  0  0  0  0  0  0  0  0
   -0.0063   -2.3806   -1.5540 H   0  0  0  0  0  0  0  0  0  0  0  0
   -0.4964    2.3717   -0.9998 C   0  0  0  0  0  0  0  0  0  0  0  0
   -1.1739    3.2567   -0.4965 O   0  0  0  0  0  0  0  0  0  0  0  0
   -0.0175    2.5766   -2.2849 N   0  0  0  0  0  0  0  0  0  0  0  0
    0.5251    1.8311   -2.7101 H   0  0  0  0  0  0  0  0  0  0  0  0
   -0.2088    3.8175   -3.0275 C   0  0  0  0  0  0  0  0  0  0  0  0
    0.2443    4.6587   -2.4923 H   0  0  0  0  0  0  0  0  0  0  0  0
    0.2587    3.7437   -4.0140 H   0  0  0  0  0  0  0  0  0  0  0  0
   -1.2758    4.0217   -3.1657 H   0  0  0  0  0  0  0  0  0  0  0  0
  1  2  1  0  0  0  0
  2  3  1  0  0  0  0
  2  4  1  0  0  0  0
  2  5  1  0  0  0  0
  5  6  2  0  0  0  0
  5  7  1  0  0  0  0
  7  8  1  0  0  0  0
  7  9  1  0  0  0  0
  9 10  1  0  0  0  0
  9 11  1  0  0  0  0
  9 25  1  0  0  0  0
 11 12  1  0  0  0  0
 11 13  1  0  0  0  0
 11 14  1  0  0  0  0
 14 15  1  0  0  0  0
 14 23  2  0  0  0  0
 15 16  1  0  0  0  0
 15 17  2  0  0  0  0
 17 18  1  0  0  0  0
 17 19  1  0  0  0  0
 19 20  1  0  0  0  0
 19 21  2  0  0  0  0
 21 22  1  0  0  0  0
 21 23  1  0  0  0  0
 23 24  1  0  0  0  0
 25 26  2  0  0  0  0
 25 27  1  0  0  0  0
 27 28  1  0  0  0  0
 27 29  1  0  0  0  0
 29 30  1  0  0  0  0
 29 31  1  0  0  0  0
 29 32  1  0  0  0  0
M  END
$$$$

  -OEChem-01062216093D

 32 32  0     1  0  0  0  0  0999 V2000
   -3.4550   -2.2605    1.0582 H   0  0  0  0  0  0  0  0  0  0  0  0
   -3.3579   -1.4214    0.3635 C   0  0  0  0  0  0  0  0  0  0  0  0
   -4.1794   -0.7226    0.5386 H   0  0  0  0  0  0  0  0  0  0  0  0
   -3.4217   -1.8028   -0.6581 H   0  0  0  0  0  0  0  0  0  0  0  0
   -2.0288   -0.7208    0.5751 C   0  0  0  0  0  0  0  0  0  0  0  0
   -1.3300   -1.0388    1.5214 O   0  0  0  0  0  0  0  0  0  0  0  0
   -1.6858    0.3425   -0.2375 N   0  0  0  0  0  0  0  0  0  0  0  0
   -2.3847    0.6391   -0.9127 H   0  0  0  0  0  0  0  0  0  0  0  0
   -0.3748    1.0202   -0.2608 C   0  0  1  0  0  0  0  0  0  0  0  0
   -0.0572    1.2314    0.7665 H   0  0  0  0  0  0  0  0  0  0  0  0
    0.7297    0.1935   -0.9735 C   0  0  0  0  0  0  0  0  0  0  0  0
    0.3923   -0.0626   -1.9824 H   0  0  0  0  0  0  0  0  0  0  0  0
    1.6237    0.8182   -1.0785 H   0  0  0  0  0  0  0  0  0  0  0  0
    1.1373   -1.0796   -0.2746 C   0  0  0  0  0  0  0  0  0  0  0  0
    2.0418   -1.0392    0.7964 C   0  0  0  0  0  0  0  0  0  0  0  0
    2.4217   -0.0870    1.1530 H   0  0  0  0  0  0  0  0  0  0  0  0
    2.4481   -2.2195    1.4277 C   0  0  0  0  0  0  0  0  0  0  0  0
    3.1355   -2.1759    2.2669 H   0  0  0  0  0  0  0  0  0  0  0  0
    1.9620   -3.4533    0.9851 C   0  0  0  0  0  0  0  0  0  0  0  0
    2.2723   -4.3685    1.4802 H   0  0  0  0  0  0  0  0  0  0  0  0
    1.0713   -3.5058   -0.0911 C   0  0  0  0  0  0  0  0  0  0  0  0
    0.6926   -4.4636   -0.4346 H   0  0  0  0  0  0  0  0  0  0  0  0
    0.6643   -2.3245   -0.7200 C   0  0  0  0  0  0  0  0  0  0  0  0
   -0.0280   -2.3797   -1.5532 H   0  0  0  0  0  0  0  0  0  0  0  0
   -0.5146    2.3694   -1.0026 C   0  0  0  0  0  0  0  0  0  0  0  0
   -0.9032    3.3536   -0.3910 O   0  0  0  0  0  0  0  0  0  0  0  0
   -0.3247    2.4812   -2.3711 N   0  0  0  0  0  0  0  0  0  0  0  0
   -0.0033    1.6581   -2.8708 H   0  0  0  0  0  0  0  0  0  0  0  0
   -0.4878    3.7306   -3.1056 C   0  0  0  0  0  0  0  0  0  0  0  0
    0.1961    4.4939   -2.7197 H   0  0  0  0  0  0  0  0  0  0  0  0
   -0.2708    3.5771   -4.1671 H   0  0  0  0  0  0  0  0  0  0  0  0
   -1.5150    4.0984   -3.0129 H   0  0  0  0  0  0  0  0  0  0  0  0
  1  2  1  0  0  0  0
  2  3  1  0  0  0  0
  2  4  1  0  0  0  0
  2  5  1  0  0  0  0
  5  6  2  0  0  0  0
  5  7  1  0  0  0  0
  7  8  1  0  0  0  0
  7  9  1  0  0  0  0
  9 10  1  0  0  0  0
  9 11  1  0  0  0  0
  9 25  1  0  0  0  0
 11 12  1  0  0  0  0
 11 13  1  0  0  0  0
 11 14  1  0  0  0  0
 14 15  1  0  0  0  0
 14 23  2  0  0  0  0
 15 16  1  0  0  0  0
 15 17  2  0  0  0  0
 17 18  1  0  0  0  0
 17 19  1  0  0  0  0
 19 20  1  0  0  0  0
 19 21  2  0  0  0  0
 21 22  1  0  0  0  0
 21 23  1  0  0  0  0
 23 24  1  0  0  0  0
 25 26  2  0  0  0  0
 25 27  1  0  0  0  0
 27 28  1  0  0  0  0
 27 29  1  0  0  0  0
 29 30  1  0  0  0  0
 29 31  1  0  0  0  0
 29 32  1  0  0  0  0
M  END
$$$$

  -OEChem-01062216093D

 32 32  0     1  0  0  0  0  0999 V2000
   -3.4423   -2.2821    1.0877 H   0  0  0  0  0  0  0  0  0  0  0  0
   -3.3525   -1.4516    0.3818 C   0  0  0  0  0  0  0  0  0  0  0  0
   -4.1897   -0.7666    0.5356 H   0  0  0  0  0  0  0  0  0  0  0  0
   -3.3954   -1.8493   -0.6347 H   0  0  0  0  0  0  0  0  0  0  0  0
   -2.0401   -0.7225    0.6003 C   0  0  0  0  0  0  0  0  0  0  0  0
   -1.3407   -1.0222    1.5519 O   0  0  0  0  0  0  0  0  0  0  0  0
   -1.7098    0.3400   -0.2190 N   0  0  0  0  0  0  0  0  0  0  0  0
   -2.4021    0.6068   -0.9125 H   0  0  0  0  0  0  0  0  0  0  0  0
   -0.4012    1.0230   -0.2493 C   0  0  1  0  0  0  0  0  0  0  0  0
   -0.0764    1.2326    0.7764 H   0  0  0  0  0  0  0  0  0  0  0  0
    0.7022    0.2094   -0.9752 C   0  0  0  0  0  0  0  0  0  0  0  0
    0.3637   -0.0401   -1.9851 H   0  0  0  0  0  0  0  0  0  0  0  0
    1.5911    0.8410   -1.0805 H   0  0  0  0  0  0  0  0  0  0  0  0
    1.1187   -1.0650   -0.2831 C   0  0  0  0  0  0  0  0  0  0  0  0
    2.0287   -1.0220    0.7831 C   0  0  0  0  0  0  0  0  0  0  0  0
    2.4028   -0.0679    1.1410 H   0  0  0  0  0  0  0  0  0  0  0  0
    2.4481   -2.2014    1.4072 C   0  0  0  0  0  0  0  0  0  0  0  0
    3.1410   -2.1560    2.2419 H   0  0  0  0  0  0  0  0  0  0  0  0
    1.9684   -3.4370    0.9630 C   0  0  0  0  0  0  0  0  0  0  0  0
    2.2905   -4.3515    1.4517 H   0  0  0  0  0  0  0  0  0  0  0  0
    1.0689   -3.4922   -0.1056 C   0  0  0  0  0  0  0  0  0  0  0  0
    0.6939   -4.4517   -0.4480 H   0  0  0  0  0  0  0  0  0  0  0  0
    0.6494   -2.3117   -0.7282 C   0  0  0  0  0  0  0  0  0  0  0  0
   -0.0486   -2.3685   -1.5565 H   0  0  0  0  0  0  0  0  0  0  0  0
   -0.5405    2.3686   -0.9921 C   0  0  0  0  0  0  0  0  0  0  0  0
   -0.6049    3.4122   -0.3596 O   0  0  0  0  0  0  0  0  0  0  0  0
   -0.6560    2.4197   -2.3718 N   0  0  0  0  0  0  0  0  0  0  0  0
   -0.5680    1.5473   -2.8833 H   0  0  0  0  0  0  0  0  0  0  0  0
   -0.7806    3.6657   -3.1194 C   0  0  0  0  0  0  0  0  0  0  0  0
    0.0879    4.3086   -2.9407 H   0  0  0  0  0  0  0  0  0  0  0  0
   -0.8426    3.4589   -4.1922 H   0  0  0  0  0  0  0  0  0  0  0  0
   -1.6853    4.2043   -2.8184 H   0  0  0  0  0  0  0  0  0  0  0  0
  1  2  1  0  0  0  0
  2  3  1  0  0  0  0
  2  4  1  0  0  0  0
  2  5  1  0  0  0  0
  5  6  2  0  0  0  0
  5  7  1  0  0  0  0
  7  8  1  0  0  0  0
  7  9  1  0  0  0  0
  9 10  1  0  0  0  0
  9 11  1  0  0  0  0
  9 25  1  0  0  0  0
 11 12  1  0  0  0  0
 11 13  1  0  0  0  0
 11 14  1  0  0  0  0
 14 15  1  0  0  0  0
 14 23  2  0  0  0  0
 15 16  1  0  0  0  0
 15 17  2  0  0  0  0
 17 18  1  0  0  0  0
 17 19  1  0  0  0  0
 19 20  1  0  0  0  0
 19 21  2  0  0  0  0
 21 22  1  0  0  0  0
 21 23  1  0  0  0  0
 23 24  1  0  0  0  0
 25 26  2  0  0  0  0
 25 27  1  0  0  0  0
 27 28  1  0  0  0  0
 27 29  1  0  0  0  0
 29 30  1  0  0  0  0
 29 31  1  0  0  0  0
 29 32  1  0  0  0  0
M  END
$$$$

  -OEChem-01062216093D

 32 32  0     1  0  0  0  0  0999 V2000
   -3.4333   -2.3079    1.1322 H   0  0  0  0  0  0  0  0  0  0  0  0
   -3.3536   -1.4840    0.4171 C   0  0  0  0  0  0  0  0  0  0  0  0
   -4.1996   -0.8083    0.5637 H   0  0  0  0  0  0  0  0  0  0  0  0
   -3.3906   -1.8937   -0.5948 H   0  0  0  0  0  0  0  0  0  0  0  0
   -2.0508   -0.7359    0.6283 C   0  0  0  0  0  0  0  0  0  0  0  0
   -1.3474   -1.0199    1.5816 O   0  0  0  0  0  0  0  0  0  0  0  0
   -1.7355    0.3273   -0.1966 N   0  0  0  0  0  0  0  0  0  0  0  0
   -2.4294    0.5796   -0.8935 H   0  0  0  0  0  0  0  0  0  0  0  0
   -0.4348    1.0272   -0.2229 C   0  0  1  0  0  0  0  0  0  0  0  0
   -0.1098    1.2353    0.8032 H   0  0  0  0  0  0  0  0  0  0  0  0
    0.6723    0.2360   -0.9644 C   0  0  0  0  0  0  0  0  0  0  0  0
    0.3341    0.0018   -1.9783 H   0  0  0  0  0  0  0  0  0  0  0  0
    1.5547    0.8780   -1.0622 H   0  0  0  0  0  0  0  0  0  0  0  0
    1.1032   -1.0426   -0.2895 C   0  0  0  0  0  0  0  0  0  0  0  0
    2.0169   -1.0054    0.7740 C   0  0  0  0  0  0  0  0  0  0  0  0
    2.3867   -0.0527    1.1404 H   0  0  0  0  0  0  0  0  0  0  0  0
    2.4455   -2.1890    1.3843 C   0  0  0  0  0  0  0  0  0  0  0  0
    3.1413   -2.1482    2.2168 H   0  0  0  0  0  0  0  0  0  0  0  0
    1.9711   -3.4225    0.9290 C   0  0  0  0  0  0  0  0  0  0  0  0
    2.2992   -4.3403    1.4075 H   0  0  0  0  0  0  0  0  0  0  0  0
    1.0692   -3.4715   -0.1378 C   0  0  0  0  0  0  0  0  0  0  0  0
    0.6996   -4.4296   -0.4898 H   0  0  0  0  0  0  0  0  0  0  0  0
    0.6404   -2.2870   -0.7467 C   0  0  0  0  0  0  0  0  0  0  0  0
   -0.0587   -2.3392   -1.5745 H   0  0  0  0  0  0  0  0  0  0  0  0
   -0.5747    2.3686   -0.9696 C   0  0  0  0  0  0  0  0  0  0  0  0
   -0.3323    3.4209   -0.3977 O   0  0  0  0  0  0  0  0  0  0  0  0
   -0.9825    2.4007   -2.2935 N   0  0  0  0  0  0  0  0  0  0  0  0
   -1.0773    1.5117   -2.7741 H   0  0  0  0  0  0  0  0  0  0  0  0
   -1.0612    3.6319   -3.0712 C   0  0  0  0  0  0  0  0  0  0  0  0
   -0.0796    4.1146   -3.1255 H   0  0  0  0  0  0  0  0  0  0  0  0
   -1.3973    3.4156   -4.0897 H   0  0  0  0  0  0  0  0  0  0  0  0
   -1.7714    4.3290   -2.6142 H   0  0  0  0  0  0  0  0  0  0  0  0
  1  2  1  0  0  0  0
  2  3  1  0  0  0  0
  2  4  1  0  0  0  0
  2  5  1  0  0  0  0
  5  6  2  0  0  0  0
  5  7  1  0  0  0  0
  7  8  1  0  0  0  0
  7  9  1  0  0  0  0
  9 10  1  0  0  0  0
  9 11  1  0  0  0  0
  9 25  1  0  0  0  0
 11 12  1  0  0  0  0
 11 13  1  0  0  0  0
 11 14  1  0  0  0  0
 14 15  1  0  0  0  0
 14 23  2  0  0  0  0
 15 16  1  0  0  0  0
 15 17  2  0  0  0  0
 17 18  1  0  0  0  0
 17 19  1  0  0  0  0
 19 20  1  0  0  0  0
 19 21  2  0  0  0  0
 21 22  1  0  0  0  0
 21 23  1  0  0  0  0
 23 24  1  0  0  0  0
 25 26  2  0  0  0  0
 25 27  1  0  0  0  0
 27 28  1  0  0  0  0
 27 29  1  0  0  0  0
 29 30  1  0  0  0  0
 29 31  1  0  0  0  0
 29 32  1  0  0  0  0
M  END
$$$$

  -OEChem-01062216093D

 32 32  0     1  0  0  0  0  0999 V2000
   -3.4199   -2.3369    1.1538 H   0  0  0  0  0  0  0  0  0  0  0  0
   -3.3469   -1.5151    0.4356 C   0  0  0  0  0  0  0  0  0  0  0  0
   -4.2041   -0.8515    0.5723 H   0  0  0  0  0  0  0  0  0  0  0  0
   -3.3708   -1.9301   -0.5746 H   0  0  0  0  0  0  0  0  0  0  0  0
   -2.0561   -0.7476    0.6518 C   0  0  0  0  0  0  0  0  0  0  0  0
   -1.3538   -1.0160    1.6102 O   0  0  0  0  0  0  0  0  0  0  0  0
   -1.7507    0.3156   -0.1767 N   0  0  0  0  0  0  0  0  0  0  0  0
   -2.4500    0.5627   -0.8692 H   0  0  0  0  0  0  0  0  0  0  0  0
   -0.4561    1.0290   -0.2005 C   0  0  1  0  0  0  0  0  0  0  0  0
   -0.1298    1.2350    0.8255 H   0  0  0  0  0  0  0  0  0  0  0  0
    0.6496    0.2486   -0.9532 C   0  0  0  0  0  0  0  0  0  0  0  0
    0.3050    0.0238   -1.9672 H   0  0  0  0  0  0  0  0  0  0  0  0
    1.5299    0.8938   -1.0519 H   0  0  0  0  0  0  0  0  0  0  0  0
    1.0892   -1.0326   -0.2889 C   0  0  0  0  0  0  0  0  0  0  0  0
    2.0082   -0.9977    0.7701 C   0  0  0  0  0  0  0  0  0  0  0  0
    2.3780   -0.0453    1.1377 H   0  0  0  0  0  0  0  0  0  0  0  0
    2.4449   -2.1828    1.3714 C   0  0  0  0  0  0  0  0  0  0  0  0
    3.1468   -2.1428    2.1989 H   0  0  0  0  0  0  0  0  0  0  0  0
    1.9721   -3.4157    0.9124 C   0  0  0  0  0  0  0  0  0  0  0  0
    2.3074   -4.3348    1.3832 H   0  0  0  0  0  0  0  0  0  0  0  0
    1.0653   -3.4624   -0.1505 C   0  0  0  0  0  0  0  0  0  0  0  0
    0.6989   -4.4199   -0.5074 H   0  0  0  0  0  0  0  0  0  0  0  0
    0.6292   -2.2762   -0.7509 C   0  0  0  0  0  0  0  0  0  0  0  0
   -0.0727   -2.3261   -1.5764 H   0  0  0  0  0  0  0  0  0  0  0  0
   -0.5878    2.3695   -0.9491 C   0  0  0  0  0  0  0  0  0  0  0  0
   -0.0776    3.3813   -0.4914 O   0  0  0  0  0  0  0  0  0  0  0  0
   -1.2654    2.4417   -2.1559 N   0  0  0  0  0  0  0  0  0  0  0  0
   -1.5357    1.5650   -2.5893 H   0  0  0  0  0  0  0  0  0  0  0  0
   -1.3431    3.6652   -2.9460 C   0  0  0  0  0  0  0  0  0  0  0  0
   -0.3428    3.9880   -3.2531 H   0  0  0  0  0  0  0  0  0  0  0  0
   -1.9449    3.4986   -3.8444 H   0  0  0  0  0  0  0  0  0  0  0  0
   -1.8086    4.4681   -2.3644 H   0  0  0  0  0  0  0  0  0  0  0  0
  1  2  1  0  0  0  0
  2  3  1  0  0  0  0
  2  4  1  0  0  0  0
  2  5  1  0  0  0  0
  5  6  2  0  0  0  0
  5  7  1  0  0  0  0
  7  8  1  0  0  0  0
  7  9  1  0  0  0  0
  9 10  1  0  0  0  0
  9 11  1  0  0  0  0
  9 25  1  0  0  0  0
 11 12  1  0  0  0  0
 11 13  1  0  0  0  0
 11 14  1  0  0  0  0
 14 15  1  0  0  0  0
 14 23  2  0  0  0  0
 15 16  1  0  0  0  0
 15 17  2  0  0  0  0
 17 18  1  0  0  0  0
 17 19  1  0  0  0  0
 19 20  1  0  0  0  0
 19 21  2  0  0  0  0
 21 22  1  0  0  0  0
 21 23  1  0  0  0  0
 23 24  1  0  0  0  0
 25 26  2  0  0  0  0
 25 27  1  0  0  0  0
 27 28  1  0  0  0  0
 27 29  1  0  0  0  0
 29 30  1  0  0  0  0
 29 31  1  0  0  0  0
 29 32  1  0  0  0  0
M  END
$$$$

  -OEChem-01062216093D

 32 32  0     1  0  0  0  0  0999 V2000
   -3.2629   -2.4250    1.1884 H   0  0  0  0  0  0  0  0  0  0  0  0
   -3.2155   -1.6361    0.4322 C   0  0  0  0  0  0  0  0  0  0  0  0
   -4.1429   -1.0595    0.4669 H   0  0  0  0  0  0  0  0  0  0  0  0
   -3.1164   -2.1001   -0.5517 H   0  0  0  0  0  0  0  0  0  0  0  0
   -2.0297   -0.7289    0.7018 C   0  0  0  0  0  0  0  0  0  0  0  0
   -1.3712   -0.8861    1.7149 O   0  0  0  0  0  0  0  0  0  0  0  0
   -1.7710    0.3278   -0.1513 N   0  0  0  0  0  0  0  0  0  0  0  0
   -2.3766    0.3856   -0.9608 H   0  0  0  0  0  0  0  0  0  0  0  0
   -0.4777    1.0468   -0.1961 C   0  0  1  0  0  0  0  0  0  0  0  0
   -0.1352    1.2545    0.8241 H   0  0  0  0  0  0  0  0  0  0  0  0
    0.6059    0.2465   -0.9609 C   0  0  0  0  0  0  0  0  0  0  0  0
    0.2411    0.0179   -1.9671 H   0  0  0  0  0  0  0  0  0  0  0  0
    1.4936    0.8781   -1.0809 H   0  0  0  0  0  0  0  0  0  0  0  0
    1.0417   -1.0312   -0.2864 C   0  0  0  0  0  0  0  0  0  0  0  0
    1.9787   -0.9955    0.7564 C   0  0  0  0  0  0  0  0  0  0  0  0
    2.3656   -0.0432    1.1070 H   0  0  0  0  0  0  0  0  0  0  0  0
    2.4099   -2.1795    1.3641 C   0  0  0  0  0  0  0  0  0  0  0  0
    3.1259   -2.1397    2.1793 H   0  0  0  0  0  0  0  0  0  0  0  0
    1.9140   -3.4114    0.9272 C   0  0  0  0  0  0  0  0  0  0  0  0
    2.2454   -4.3293    1.4033 H   0  0  0  0  0  0  0  0  0  0  0  0
    0.9902   -3.4586   -0.1211 C   0  0  0  0  0  0  0  0  0  0  0  0
    0.6074   -4.4155   -0.4621 H   0  0  0  0  0  0  0  0  0  0  0  0
    0.5601   -2.2740   -0.7281 C   0  0  0  0  0  0  0  0  0  0  0  0
   -0.1515   -2.3240   -1.5453 H   0  0  0  0  0  0  0  0  0  0  0  0
   -0.5847    2.3922   -0.9462 C   0  0  0  0  0  0  0  0  0  0  0  0
    0.1901    3.2986   -0.6757 O   0  0  0  0  0  0  0  0  0  0  0  0
   -1.4943    2.5816   -1.9748 N   0  0  0  0  0  0  0  0  0  0  0  0
   -2.0731    1.7970   -2.2476 H   0  0  0  0  0  0  0  0  0  0  0  0
   -1.5782    3.8167   -2.7460 C   0  0  0  0  0  0  0  0  0  0  0  0
   -0.6504    3.9842   -3.3032 H   0  0  0  0  0  0  0  0  0  0  0  0
   -2.4063    3.7627   -3.4591 H   0  0  0  0  0  0  0  0  0  0  0  0
   -1.7504    4.6714   -2.0831 H   0  0  0  0  0  0  0  0  0  0  0  0
  1  2  1  0  0  0  0
  2  3  1  0  0  0  0
  2  4  1  0  0  0  0
  2  5  1  0  0  0  0
  5  6  2  0  0  0  0
  5  7  1  0  0  0  0
  7  8  1  0  0  0  0
  7  9  1  0  0  0  0
  9 10  1  0  0  0  0
  9 11  1  0  0  0  0
  9 25  1  0  0  0  0
 11 12  1  0  0  0  0
 11 13  1  0  0  0  0
 11 14  1  0  0  0  0
 14 15  1  0  0  0  0
 14 23  2  0  0  0  0
 15 16  1  0  0  0  0
 15 17  2  0  0  0  0
 17 18  1  0  0  0  0
 17 19  1  0  0  0  0
 19 20  1  0  0  0  0
 19 21  2  0  0  0  0
 21 22  1  0  0  0  0
 21 23  1  0  0  0  0
 23 24  1  0  0  0  0
 25 26  2  0  0  0  0
 25 27  1  0  0  0  0
 27 28  1  0  0  0  0
 27 29  1  0  0  0  0
 29 30  1  0  0  0  0
 29 31  1  0  0  0  0
 29 32  1  0  0  0  0
M  END
$$$$

  -OEChem-01062216093D

 32 32  0     1  0  0  0  0  0999 V2000
   -3.0399   -2.5211    1.1316 H   0  0  0  0  0  0  0  0  0  0  0  0
   -3.0669   -1.7110    0.3972 C   0  0  0  0  0  0  0  0  0  0  0  0
   -4.0519   -1.2393    0.4281 H   0  0  0  0  0  0  0  0  0  0  0  0
   -2.9016   -2.1347   -0.5959 H   0  0  0  0  0  0  0  0  0  0  0  0
   -1.9919   -0.6883    0.7137 C   0  0  0  0  0  0  0  0  0  0  0  0
   -1.3959   -0.7485    1.7753 O   0  0  0  0  0  0  0  0  0  0  0  0
   -1.7634    0.3597   -0.1590 N   0  0  0  0  0  0  0  0  0  0  0  0
   -2.2582    0.2657   -1.0391 H   0  0  0  0  0  0  0  0  0  0  0  0
   -0.4629    1.0657   -0.2156 C   0  0  1  0  0  0  0  0  0  0  0  0
   -0.1083    1.2801    0.7990 H   0  0  0  0  0  0  0  0  0  0  0  0
    0.5999    0.2336   -0.9799 C   0  0  0  0  0  0  0  0  0  0  0  0
    0.2225    0.0003   -1.9806 H   0  0  0  0  0  0  0  0  0  0  0  0
    1.5023    0.8403   -1.1161 H   0  0  0  0  0  0  0  0  0  0  0  0
    1.0117   -1.0428   -0.2869 C   0  0  0  0  0  0  0  0  0  0  0  0
    1.9548   -1.0110    0.7500 C   0  0  0  0  0  0  0  0  0  0  0  0
    2.3640   -0.0617    1.0828 H   0  0  0  0  0  0  0  0  0  0  0  0
    2.3612   -2.1939    1.3763 C   0  0  0  0  0  0  0  0  0  0  0  0
    3.0797   -2.1564    2.1893 H   0  0  0  0  0  0  0  0  0  0  0  0
    1.8387   -3.4220    0.9601 C   0  0  0  0  0  0  0  0  0  0  0  0
    2.1526   -4.3389    1.4500 H   0  0  0  0  0  0  0  0  0  0  0  0
    0.9125   -3.4668   -0.0860 C   0  0  0  0  0  0  0  0  0  0  0  0
    0.5112   -4.4213   -0.4130 H   0  0  0  0  0  0  0  0  0  0  0  0
    0.5056   -2.2826   -0.7098 C   0  0  0  0  0  0  0  0  0  0  0  0
   -0.2063   -2.3309   -1.5269 H   0  0  0  0  0  0  0  0  0  0  0  0
   -0.5701    2.4104   -0.9709 C   0  0  0  0  0  0  0  0  0  0  0  0
    0.3707    3.1925   -0.9642 O   0  0  0  0  0  0  0  0  0  0  0  0
   -1.6698    2.7048   -1.7607 N   0  0  0  0  0  0  0  0  0  0  0  0
   -2.5017    2.1479   -1.6019 H   0  0  0  0  0  0  0  0  0  0  0  0
   -1.8107    3.9680   -2.4763 C   0  0  0  0  0  0  0  0  0  0  0  0
   -0.9712    4.1147   -3.1642 H   0  0  0  0  0  0  0  0  0  0  0  0
   -2.7362    3.9714   -3.0600 H   0  0  0  0  0  0  0  0  0  0  0  0
   -1.8400    4.8062   -1.7723 H   0  0  0  0  0  0  0  0  0  0  0  0
  1  2  1  0  0  0  0
  2  3  1  0  0  0  0
  2  4  1  0  0  0  0
  2  5  1  0  0  0  0
  5  6  2  0  0  0  0
  5  7  1  0  0  0  0
  7  8  1  0  0  0  0
  7  9  1  0  0  0  0
  9 10  1  0  0  0  0
  9 11  1  0  0  0  0
  9 25  1  0  0  0  0
 11 12  1  0  0  0  0
 11 13  1  0  0  0  0
 11 14  1  0  0  0  0
 14 15  1  0  0  0  0
 14 23  2  0  0  0  0
 15 16  1  0  0  0  0
 15 17  2  0  0  0  0
 17 18  1  0  0  0  0
 17 19  1  0  0  0  0
 19 20  1  0  0  0  0
 19 21  2  0  0  0  0
 21 22  1  0  0  0  0
 21 23  1  0  0  0  0
 23 24  1  0  0  0  0
 25 26  2  0  0  0  0
 25 27  1  0  0  0  0
 27 28  1  0  0  0  0
 27 29  1  0  0  0  0
 29 30  1  0  0  0  0
 29 31  1  0  0  0  0
 29 32  1  0  0  0  0
M  END
$$$$

  -OEChem-01062216093D

 32 32  0     1  0  0  0  0  0999 V2000
   -3.0391   -2.5184    1.1012 H   0  0  0  0  0  0  0  0  0  0  0  0
   -3.0606   -1.7022    0.3733 C   0  0  0  0  0  0  0  0  0  0  0  0
   -4.0423   -1.2240    0.4072 H   0  0  0  0  0  0  0  0  0  0  0  0
   -2.8975   -2.1185   -0.6233 H   0  0  0  0  0  0  0  0  0  0  0  0
   -1.9790   -0.6890    0.6978 C   0  0  0  0  0  0  0  0  0  0  0  0
   -1.3895   -0.7542    1.7627 O   0  0  0  0  0  0  0  0  0  0  0  0
   -1.7436    0.3638   -0.1669 N   0  0  0  0  0  0  0  0  0  0  0  0
   -2.2401    0.2845   -1.0488 H   0  0  0  0  0  0  0  0  0  0  0  0
   -0.4410    1.0664   -0.2223 C   0  0  1  0  0  0  0  0  0  0  0  0
   -0.0855    1.2807    0.7918 H   0  0  0  0  0  0  0  0  0  0  0  0
    0.6182    0.2245   -0.9844 C   0  0  0  0  0  0  0  0  0  0  0  0
    0.2403   -0.0073   -1.9851 H   0  0  0  0  0  0  0  0  0  0  0  0
    1.5261    0.8222   -1.1206 H   0  0  0  0  0  0  0  0  0  0  0  0
    1.0231   -1.0528   -0.2881 C   0  0  0  0  0  0  0  0  0  0  0  0
    1.9668   -1.0229    0.7484 C   0  0  0  0  0  0  0  0  0  0  0  0
    2.3846   -0.0752    1.0750 H   0  0  0  0  0  0  0  0  0  0  0  0
    2.3647   -2.2055    1.3810 C   0  0  0  0  0  0  0  0  0  0  0  0
    3.0850   -2.1691    2.1926 H   0  0  0  0  0  0  0  0  0  0  0  0
    1.8310   -3.4315    0.9730 C   0  0  0  0  0  0  0  0  0  0  0  0
    2.1376   -4.3477    1.4684 H   0  0  0  0  0  0  0  0  0  0  0  0
    0.9042   -3.4748   -0.0724 C   0  0  0  0  0  0  0  0  0  0  0  0
    0.4946   -4.4280   -0.3925 H   0  0  0  0  0  0  0  0  0  0  0  0
    0.5073   -2.2912   -0.7043 C   0  0  0  0  0  0  0  0  0  0  0  0
   -0.2056   -2.3384   -1.5208 H   0  0  0  0  0  0  0  0  0  0  0  0
   -0.5678    2.4140   -0.9739 C   0  0  0  0  0  0  0  0  0  0  0  0
    0.4162    3.1112   -1.1813 O   0  0  0  0  0  0  0  0  0  0  0  0
   -1.7869    2.8221   -1.4898 N   0  0  0  0  0  0  0  0  0  0  0  0
   -2.6049    2.3410   -1.1297 H   0  0  0  0  0  0  0  0  0  0  0  0
   -1.9753    4.1066   -2.1545 C   0  0  0  0  0  0  0  0  0  0  0  0
   -1.3060    4.1940   -3.0170 H   0  0  0  0  0  0  0  0  0  0  0  0
   -3.0060    4.2012   -2.5096 H   0  0  0  0  0  0  0  0  0  0  0  0
   -1.7681    4.9303   -1.4632 H   0  0  0  0  0  0  0  0  0  0  0  0
  1  2  1  0  0  0  0
  2  3  1  0  0  0  0
  2  4  1  0  0  0  0
  2  5  1  0  0  0  0
  5  6  2  0  0  0  0
  5  7  1  0  0  0  0
  7  8  1  0  0  0  0
  7  9  1  0  0  0  0
  9 10  1  0  0  0  0
  9 11  1  0  0  0  0
  9 25  1  0  0  0  0
 11 12  1  0  0  0  0
 11 13  1  0  0  0  0
 11 14  1  0  0  0  0
 14 15  1  0  0  0  0
 14 23  2  0  0  0  0
 15 16  1  0  0  0  0
 15 17  2  0  0  0  0
 17 18  1  0  0  0  0
 17 19  1  0  0  0  0
 19 20  1  0  0  0  0
 19 21  2  0  0  0  0
 21 22  1  0  0  0  0
 21 23  1  0  0  0  0
 23 24  1  0  0  0  0
 25 26  2  0  0  0  0
 25 27  1  0  0  0  0
 27 28  1  0  0  0  0
 27 29  1  0  0  0  0
 29 30  1  0  0  0  0
 29 31  1  0  0  0  0
 29 32  1  0  0  0  0
M  END
$$$$

  -OEChem-01062216093D

 32 32  0     1  0  0  0  0  0999 V2000
   -3.0354   -2.5182    1.0621 H   0  0  0  0  0  0  0  0  0  0  0  0
   -3.0701   -1.6828    0.3571 C   0  0  0  0  0  0  0  0  0  0  0  0
   -4.0487   -1.2020    0.4265 H   0  0  0  0  0  0  0  0  0  0  0  0
   -2.9316   -2.0730   -0.6537 H   0  0  0  0  0  0  0  0  0  0  0  0
   -1.9764   -0.6837    0.6839 C   0  0  0  0  0  0  0  0  0  0  0  0
   -1.3893   -0.7560    1.7498 O   0  0  0  0  0  0  0  0  0  0  0  0
   -1.7303    0.3726   -0.1731 N   0  0  0  0  0  0  0  0  0  0  0  0
   -2.2422    0.3234   -1.0493 H   0  0  0  0  0  0  0  0  0  0  0  0
   -0.4230    1.0662   -0.2296 C   0  0  1  0  0  0  0  0  0  0  0  0
   -0.0665    1.2806    0.7837 H   0  0  0  0  0  0  0  0  0  0  0  0
    0.6346    0.2143   -0.9857 C   0  0  0  0  0  0  0  0  0  0  0  0
    0.2584   -0.0186   -1.9868 H   0  0  0  0  0  0  0  0  0  0  0  0
    1.5481    0.8032   -1.1212 H   0  0  0  0  0  0  0  0  0  0  0  0
    1.0308   -1.0620   -0.2827 C   0  0  0  0  0  0  0  0  0  0  0  0
    1.9719   -1.0332    0.7565 C   0  0  0  0  0  0  0  0  0  0  0  0
    2.3902   -0.0863    1.0842 H   0  0  0  0  0  0  0  0  0  0  0  0
    2.3671   -2.2160    1.3900 C   0  0  0  0  0  0  0  0  0  0  0  0
    3.0849   -2.1803    2.2039 H   0  0  0  0  0  0  0  0  0  0  0  0
    1.8355   -3.4417    0.9786 C   0  0  0  0  0  0  0  0  0  0  0  0
    2.1415   -4.3590    1.4726 H   0  0  0  0  0  0  0  0  0  0  0  0
    0.9120   -3.4839   -0.0699 C   0  0  0  0  0  0  0  0  0  0  0  0
    0.5050   -4.4366   -0.3944 H   0  0  0  0  0  0  0  0  0  0  0  0
    0.5160   -2.2997   -0.7010 C   0  0  0  0  0  0  0  0  0  0  0  0
   -0.1936   -2.3460   -1.5205 H   0  0  0  0  0  0  0  0  0  0  0  0
   -0.5669    2.4160   -0.9774 C   0  0  0  0  0  0  0  0  0  0  0  0
    0.4058    3.0148   -1.4173 O   0  0  0  0  0  0  0  0  0  0  0  0
   -1.8242    2.9527   -1.1990 N   0  0  0  0  0  0  0  0  0  0  0  0
   -2.5858    2.5331   -0.6734 H   0  0  0  0  0  0  0  0  0  0  0  0
   -2.0379    4.2553   -1.8190 C   0  0  0  0  0  0  0  0  0  0  0  0
   -1.5790    4.2875   -2.8129 H   0  0  0  0  0  0  0  0  0  0  0  0
   -3.1089    4.4504   -1.9293 H   0  0  0  0  0  0  0  0  0  0  0  0
   -1.6013    5.0489   -1.2038 H   0  0  0  0  0  0  0  0  0  0  0  0
  1  2  1  0  0  0  0
  2  3  1  0  0  0  0
  2  4  1  0  0  0  0
  2  5  1  0  0  0  0
  5  6  2  0  0  0  0
  5  7  1  0  0  0  0
  7  8  1  0  0  0  0
  7  9  1  0  0  0  0
  9 10  1  0  0  0  0
  9 11  1  0  0  0  0
  9 25  1  0  0  0  0
 11 12  1  0  0  0  0
 11 13  1  0  0  0  0
 11 14  1  0  0  0  0
 14 15  1  0  0  0  0
 14 23  2  0  0  0  0
 15 16  1  0  0  0  0
 15 17  2  0  0  0  0
 17 18  1  0  0  0  0
 17 19  1  0  0  0  0
 19 20  1  0  0  0  0
 19 21  2  0  0  0  0
 21 22  1  0  0  0  0
 21 23  1  0  0  0  0
 23 24  1  0  0  0  0
 25 26  2  0  0  0  0
 25 27  1  0  0  0  0
 27 28  1  0  0  0  0
 27 29  1  0  0  0  0
 29 30  1  0  0  0  0
 29 31  1  0  0  0  0
 29 32  1  0  0  0  0
M  END
$$$$

  -OEChem-01062216093D

 32 32  0     1  0  0  0  0  0999 V2000
   -3.0571   -2.4949    1.0508 H   0  0  0  0  0  0  0  0  0  0  0  0
   -3.0712   -1.6647    0.3390 C   0  0  0  0  0  0  0  0  0  0  0  0
   -4.0431   -1.1686    0.3932 H   0  0  0  0  0  0  0  0  0  0  0  0
   -2.9278   -2.0650   -0.6673 H   0  0  0  0  0  0  0  0  0  0  0  0
   -1.9663   -0.6797    0.6705 C   0  0  0  0  0  0  0  0  0  0  0  0
   -1.3783   -0.7641    1.7351 O   0  0  0  0  0  0  0  0  0  0  0  0
   -1.7128    0.3825   -0.1759 N   0  0  0  0  0  0  0  0  0  0  0  0
   -2.2396    0.3616   -1.0446 H   0  0  0  0  0  0  0  0  0  0  0  0
   -0.4026    1.0680   -0.2314 C   0  0  1  0  0  0  0  0  0  0  0  0
   -0.0451    1.2791    0.7822 H   0  0  0  0  0  0  0  0  0  0  0  0
    0.6543    0.2134   -0.9859 C   0  0  0  0  0  0  0  0  0  0  0  0
    0.2797   -0.0173   -1.9883 H   0  0  0  0  0  0  0  0  0  0  0  0
    1.5692    0.8011   -1.1170 H   0  0  0  0  0  0  0  0  0  0  0  0
    1.0449   -1.0646   -0.2829 C   0  0  0  0  0  0  0  0  0  0  0  0
    1.9833   -1.0418    0.7587 C   0  0  0  0  0  0  0  0  0  0  0  0
    2.4082   -0.0979    1.0865 H   0  0  0  0  0  0  0  0  0  0  0  0
    2.3658   -2.2274    1.3954 C   0  0  0  0  0  0  0  0  0  0  0  0
    3.0805   -2.1966    2.2123 H   0  0  0  0  0  0  0  0  0  0  0  0
    1.8251   -3.4494    0.9842 C   0  0  0  0  0  0  0  0  0  0  0  0
    2.1210   -4.3684    1.4812 H   0  0  0  0  0  0  0  0  0  0  0  0
    0.9052   -3.4856   -0.0675 C   0  0  0  0  0  0  0  0  0  0  0  0
    0.4896   -4.4348   -0.3915 H   0  0  0  0  0  0  0  0  0  0  0  0
    0.5221   -2.2989   -0.7015 C   0  0  0  0  0  0  0  0  0  0  0  0
   -0.1853   -2.3397   -1.5230 H   0  0  0  0  0  0  0  0  0  0  0  0
   -0.5638    2.4213   -0.9698 C   0  0  0  0  0  0  0  0  0  0  0  0
    0.3309    2.9127   -1.6460 O   0  0  0  0  0  0  0  0  0  0  0  0
   -1.7736    3.0895   -0.8977 N   0  0  0  0  0  0  0  0  0  0  0  0
   -2.4558    2.7171   -0.2423 H   0  0  0  0  0  0  0  0  0  0  0  0
   -2.0067    4.4007   -1.4917 C   0  0  0  0  0  0  0  0  0  0  0  0
   -1.8187    4.3725   -2.5702 H   0  0  0  0  0  0  0  0  0  0  0  0
   -3.0443    4.7094   -1.3318 H   0  0  0  0  0  0  0  0  0  0  0  0
   -1.3479    5.1488   -1.0386 H   0  0  0  0  0  0  0  0  0  0  0  0
  1  2  1  0  0  0  0
  2  3  1  0  0  0  0
  2  4  1  0  0  0  0
  2  5  1  0  0  0  0
  5  6  2  0  0  0  0
  5  7  1  0  0  0  0
  7  8  1  0  0  0  0
  7  9  1  0  0  0  0
  9 10  1  0  0  0  0
  9 11  1  0  0  0  0
  9 25  1  0  0  0  0
 11 12  1  0  0  0  0
 11 13  1  0  0  0  0
 11 14  1  0  0  0  0
 14 15  1  0  0  0  0
 14 23  2  0  0  0  0
 15 16  1  0  0  0  0
 15 17  2  0  0  0  0
 17 18  1  0  0  0  0
 17 19  1  0  0  0  0
 19 20  1  0  0  0  0
 19 21  2  0  0  0  0
 21 22  1  0  0  0  0
 21 23  1  0  0  0  0
 23 24  1  0  0  0  0
 25 26  2  0  0  0  0
 25 27  1  0  0  0  0
 27 28  1  0  0  0  0
 27 29  1  0  0  0  0
 29 30  1  0  0  0  0
 29 31  1  0  0  0  0
 29 32  1  0  0  0  0
M  END
$$$$

  -OEChem-01062216093D

 32 32  0     1  0  0  0  0  0999 V2000
   -3.0880   -2.4725    1.0363 H   0  0  0  0  0  0  0  0  0  0  0  0
   -3.0811   -1.6442    0.3220 C   0  0  0  0  0  0  0  0  0  0  0  0
   -4.0468   -1.1347    0.3612 H   0  0  0  0  0  0  0  0  0  0  0  0
   -2.9289   -2.0496   -0.6809 H   0  0  0  0  0  0  0  0  0  0  0  0
   -1.9671   -0.6730    0.6639 C   0  0  0  0  0  0  0  0  0  0  0  0
   -1.3779   -0.7734    1.7268 O   0  0  0  0  0  0  0  0  0  0  0  0
   -1.7036    0.3951   -0.1714 N   0  0  0  0  0  0  0  0  0  0  0  0
   -2.2406    0.4000   -1.0344 H   0  0  0  0  0  0  0  0  0  0  0  0
   -0.3890    1.0685   -0.2249 C   0  0  1  0  0  0  0  0  0  0  0  0
   -0.0297    1.2708    0.7897 H   0  0  0  0  0  0  0  0  0  0  0  0
    0.6673    0.2139   -0.9785 C   0  0  0  0  0  0  0  0  0  0  0  0
    0.2944   -0.0137   -1.9823 H   0  0  0  0  0  0  0  0  0  0  0  0
    1.5818    0.8034   -1.1061 H   0  0  0  0  0  0  0  0  0  0  0  0
    1.0528   -1.0676   -0.2794 C   0  0  0  0  0  0  0  0  0  0  0  0
    1.9887   -1.0498    0.7648 C   0  0  0  0  0  0  0  0  0  0  0  0
    2.4144   -0.1079    1.0967 H   0  0  0  0  0  0  0  0  0  0  0  0
    2.3696   -2.2379    1.3972 C   0  0  0  0  0  0  0  0  0  0  0  0
    3.0843   -2.2110    2.2140 H   0  0  0  0  0  0  0  0  0  0  0  0
    1.8270   -3.4574    0.9813 C   0  0  0  0  0  0  0  0  0  0  0  0
    2.1203   -4.3787    1.4755 H   0  0  0  0  0  0  0  0  0  0  0  0
    0.9082   -3.4880   -0.0717 C   0  0  0  0  0  0  0  0  0  0  0  0
    0.4920   -4.4353   -0.3997 H   0  0  0  0  0  0  0  0  0  0  0  0
    0.5281   -2.2991   -0.7029 C   0  0  0  0  0  0  0  0  0  0  0  0
   -0.1785   -2.3358   -1.5255 H   0  0  0  0  0  0  0  0  0  0  0  0
   -0.5557    2.4264   -0.9506 C   0  0  0  0  0  0  0  0  0  0  0  0
    0.1929    2.7987   -1.8454 O   0  0  0  0  0  0  0  0  0  0  0  0
   -1.6283    3.2321   -0.6138 N   0  0  0  0  0  0  0  0  0  0  0  0
   -2.2107    2.9189    0.1587 H   0  0  0  0  0  0  0  0  0  0  0  0
   -1.8768    4.5403   -1.2075 C   0  0  0  0  0  0  0  0  0  0  0  0
   -1.9884    4.4540   -2.2934 H   0  0  0  0  0  0  0  0  0  0  0  0
   -2.7963    4.9713   -0.8001 H   0  0  0  0  0  0  0  0  0  0  0  0
   -1.0478    5.2224   -0.9913 H   0  0  0  0  0  0  0  0  0  0  0  0
  1  2  1  0  0  0  0
  2  3  1  0  0  0  0
  2  4  1  0  0  0  0
  2  5  1  0  0  0  0
  5  6  2  0  0  0  0
  5  7  1  0  0  0  0
  7  8  1  0  0  0  0
  7  9  1  0  0  0  0
  9 10  1  0  0  0  0
  9 11  1  0  0  0  0
  9 25  1  0  0  0  0
 11 12  1  0  0  0  0
 11 13  1  0  0  0  0
 11 14  1  0  0  0  0
 14 15  1  0  0  0  0
 14 23  2  0  0  0  0
 15 16  1  0  0  0  0
 15 17  2  0  0  0  0
 17 18  1  0  0  0  0
 17 19  1  0  0  0  0
 19 20  1  0  0  0  0
 19 21  2  0  0  0  0
 21 22  1  0  0  0  0
 21 23  1  0  0  0  0
 23 24  1  0  0  0  0
 25 26  2  0  0  0  0
 25 27  1  0  0  0  0
 27 28  1  0  0  0  0
 27 29  1  0  0  0  0
 29 30  1  0  0  0  0
 29 31  1  0  0  0  0
 29 32  1  0  0  0  0
M  END
$$$$

  -OEChem-01062216093D

 32 32  0     1  0  0  0  0  0999 V2000
   -3.1013   -2.4604    1.0296 H   0  0  0  0  0  0  0  0  0  0  0  0
   -3.0882   -1.6306    0.3172 C   0  0  0  0  0  0  0  0  0  0  0  0
   -4.0491   -1.1126    0.3590 H   0  0  0  0  0  0  0  0  0  0  0  0
   -2.9414   -2.0346   -0.6872 H   0  0  0  0  0  0  0  0  0  0  0  0
   -1.9657   -0.6702    0.6613 C   0  0  0  0  0  0  0  0  0  0  0  0
   -1.3749   -0.7822    1.7224 O   0  0  0  0  0  0  0  0  0  0  0  0
   -1.6955    0.4018   -0.1665 N   0  0  0  0  0  0  0  0  0  0  0  0
   -2.2354    0.4216   -1.0276 H   0  0  0  0  0  0  0  0  0  0  0  0
   -0.3795    1.0695   -0.2127 C   0  0  1  0  0  0  0  0  0  0  0  0
   -0.0212    1.2641    0.8037 H   0  0  0  0  0  0  0  0  0  0  0  0
    0.6791    0.2197   -0.9680 C   0  0  0  0  0  0  0  0  0  0  0  0
    0.3079   -0.0054   -1.9733 H   0  0  0  0  0  0  0  0  0  0  0  0
    1.5907    0.8144   -1.0918 H   0  0  0  0  0  0  0  0  0  0  0  0
    1.0607   -1.0665   -0.2762 C   0  0  0  0  0  0  0  0  0  0  0  0
    1.9921   -1.0570    0.7718 C   0  0  0  0  0  0  0  0  0  0  0  0
    2.4177   -0.1178    1.1113 H   0  0  0  0  0  0  0  0  0  0  0  0
    2.3668   -2.2498    1.3993 C   0  0  0  0  0  0  0  0  0  0  0  0
    3.0768   -2.2290    2.2205 H   0  0  0  0  0  0  0  0  0  0  0  0
    1.8233   -3.4657    0.9735 C   0  0  0  0  0  0  0  0  0  0  0  0
    2.1113   -4.3905    1.4643 H   0  0  0  0  0  0  0  0  0  0  0  0
    0.9098   -3.4881   -0.0846 C   0  0  0  0  0  0  0  0  0  0  0  0
    0.4918   -4.4320   -0.4210 H   0  0  0  0  0  0  0  0  0  0  0  0
    0.5353   -2.2941   -0.7098 C   0  0  0  0  0  0  0  0  0  0  0  0
   -0.1679   -2.3237   -1.5356 H   0  0  0  0  0  0  0  0  0  0  0  0
   -0.5424    2.4303   -0.9303 C   0  0  0  0  0  0  0  0  0  0  0  0
    0.0120    2.6921   -1.9908 O   0  0  0  0  0  0  0  0  0  0  0  0
   -1.4064    3.3639   -0.3885 N   0  0  0  0  0  0  0  0  0  0  0  0
   -1.8748    3.1119    0.4782 H   0  0  0  0  0  0  0  0  0  0  0  0
   -1.6636    4.6699   -0.9833 C   0  0  0  0  0  0  0  0  0  0  0  0
   -2.0689    4.5570   -1.9944 H   0  0  0  0  0  0  0  0  0  0  0  0
   -2.3887    5.2247   -0.3803 H   0  0  0  0  0  0  0  0  0  0  0  0
   -0.7392    5.2546   -1.0370 H   0  0  0  0  0  0  0  0  0  0  0  0
  1  2  1  0  0  0  0
  2  3  1  0  0  0  0
  2  4  1  0  0  0  0
  2  5  1  0  0  0  0
  5  6  2  0  0  0  0
  5  7  1  0  0  0  0
  7  8  1  0  0  0  0
  7  9  1  0  0  0  0
  9 10  1  0  0  0  0
  9 11  1  0  0  0  0
  9 25  1  0  0  0  0
 11 12  1  0  0  0  0
 11 13  1  0  0  0  0
 11 14  1  0  0  0  0
 14 15  1  0  0  0  0
 14 23  2  0  0  0  0
 15 16  1  0  0  0  0
 15 17  2  0  0  0  0
 17 18  1  0  0  0  0
 17 19  1  0  0  0  0
 19 20  1  0  0  0  0
 19 21  2  0  0  0  0
 21 22  1  0  0  0  0
 21 23  1  0  0  0  0
 23 24  1  0  0  0  0
 25 26  2  0  0  0  0
 25 27  1  0  0  0  0
 27 28  1  0  0  0  0
 27 29  1  0  0  0  0
 29 30  1  0  0  0  0
 29 31  1  0  0  0  0
 29 32  1  0  0  0  0
M  END
$$$$

  -OEChem-01062216093D

 32 32  0     1  0  0  0  0  0999 V2000
   -3.1498   -2.4384    1.0137 H   0  0  0  0  0  0  0  0  0  0  0  0
   -3.1162   -1.6052    0.3059 C   0  0  0  0  0  0  0  0  0  0  0  0
   -4.0645   -1.0645    0.3501 H   0  0  0  0  0  0  0  0  0  0  0  0
   -2.9790   -2.0067   -0.7007 H   0  0  0  0  0  0  0  0  0  0  0  0
   -1.9706   -0.6732    0.6534 C   0  0  0  0  0  0  0  0  0  0  0  0
   -1.3738   -0.8095    1.7085 O   0  0  0  0  0  0  0  0  0  0  0  0
   -1.6858    0.4017   -0.1649 N   0  0  0  0  0  0  0  0  0  0  0  0
   -2.2304    0.4437   -1.0225 H   0  0  0  0  0  0  0  0  0  0  0  0
   -0.3691    1.0652   -0.2036 C   0  0  1  0  0  0  0  0  0  0  0  0
   -0.0130    1.2506    0.8150 H   0  0  0  0  0  0  0  0  0  0  0  0
    0.6937    0.2237   -0.9597 C   0  0  0  0  0  0  0  0  0  0  0  0
    0.3254    0.0003   -1.9665 H   0  0  0  0  0  0  0  0  0  0  0  0
    1.6009    0.8257   -1.0803 H   0  0  0  0  0  0  0  0  0  0  0  0
    1.0757   -1.0671   -0.2756 C   0  0  0  0  0  0  0  0  0  0  0  0
    2.0036   -1.0622    0.7759 C   0  0  0  0  0  0  0  0  0  0  0  0
    2.4322   -0.1257    1.1183 H   0  0  0  0  0  0  0  0  0  0  0  0
    2.3755   -2.2572    1.4009 C   0  0  0  0  0  0  0  0  0  0  0  0
    3.0849   -2.2411    2.2227 H   0  0  0  0  0  0  0  0  0  0  0  0
    1.8298   -3.4707    0.9717 C   0  0  0  0  0  0  0  0  0  0  0  0
    2.1155   -4.3974    1.4603 H   0  0  0  0  0  0  0  0  0  0  0  0
    0.9168   -3.4884   -0.0869 C   0  0  0  0  0  0  0  0  0  0  0  0
    0.4956   -4.4308   -0.4231 H   0  0  0  0  0  0  0  0  0  0  0  0
    0.5466   -2.2924   -0.7113 C   0  0  0  0  0  0  0  0  0  0  0  0
   -0.1574   -2.3182   -1.5367 H   0  0  0  0  0  0  0  0  0  0  0  0
   -0.5251    2.4276   -0.9146 C   0  0  0  0  0  0  0  0  0  0  0  0
   -0.2178    2.5921   -2.0890 O   0  0  0  0  0  0  0  0  0  0  0  0
   -1.1250    3.4689   -0.2314 N   0  0  0  0  0  0  0  0  0  0  0  0
   -1.4373    3.2818    0.7180 H   0  0  0  0  0  0  0  0  0  0  0  0
   -1.3907    4.7753   -0.8211 C   0  0  0  0  0  0  0  0  0  0  0  0
   -2.0518    4.6772   -1.6885 H   0  0  0  0  0  0  0  0  0  0  0  0
   -1.8755    5.4287   -0.0893 H   0  0  0  0  0  0  0  0  0  0  0  0
   -0.4561    5.2481   -1.1409 H   0  0  0  0  0  0  0  0  0  0  0  0
  1  2  1  0  0  0  0
  2  3  1  0  0  0  0
  2  4  1  0  0  0  0
  2  5  1  0  0  0  0
  5  6  2  0  0  0  0
  5  7  1  0  0  0  0
  7  8  1  0  0  0  0
  7  9  1  0  0  0  0
  9 10  1  0  0  0  0
  9 11  1  0  0  0  0
  9 25  1  0  0  0  0
 11 12  1  0  0  0  0
 11 13  1  0  0  0  0
 11 14  1  0  0  0  0
 14 15  1  0  0  0  0
 14 23  2  0  0  0  0
 15 16  1  0  0  0  0
 15 17  2  0  0  0  0
 17 18  1  0  0  0  0
 17 19  1  0  0  0  0
 19 20  1  0  0  0  0
 19 21  2  0  0  0  0
 21 22  1  0  0  0  0
 21 23  1  0  0  0  0
 23 24  1  0  0  0  0
 25 26  2  0  0  0  0
 25 27  1  0  0  0  0
 27 28  1  0  0  0  0
 27 29  1  0  0  0  0
 29 30  1  0  0  0  0
 29 31  1  0  0  0  0
 29 32  1  0  0  0  0
M  END
$$$$

  -OEChem-01062216093D

 32 32  0     1  0  0  0  0  0999 V2000
   -3.1578   -2.4260    1.0218 H   0  0  0  0  0  0  0  0  0  0  0  0
   -3.1095   -1.6022    0.3041 C   0  0  0  0  0  0  0  0  0  0  0  0
   -4.0594   -1.0624    0.3201 H   0  0  0  0  0  0  0  0  0  0  0  0
   -2.9482   -2.0161   -0.6940 H   0  0  0  0  0  0  0  0  0  0  0  0
   -1.9735   -0.6640    0.6641 C   0  0  0  0  0  0  0  0  0  0  0  0
   -1.3797   -0.8028    1.7210 O   0  0  0  0  0  0  0  0  0  0  0  0
   -1.6817    0.4078   -0.1555 N   0  0  0  0  0  0  0  0  0  0  0  0
   -2.2192    0.4525   -1.0180 H   0  0  0  0  0  0  0  0  0  0  0  0
   -0.3651    1.0682   -0.1838 C   0  0  1  0  0  0  0  0  0  0  0  0
   -0.0142    1.2479    0.8378 H   0  0  0  0  0  0  0  0  0  0  0  0
    0.6990    0.2326   -0.9422 C   0  0  0  0  0  0  0  0  0  0  0  0
    0.3344    0.0156   -1.9518 H   0  0  0  0  0  0  0  0  0  0  0  0
    1.6063    0.8349   -1.0560 H   0  0  0  0  0  0  0  0  0  0  0  0
    1.0756   -1.0643   -0.2666 C   0  0  0  0  0  0  0  0  0  0  0  0
    1.9984   -1.0721    0.7897 C   0  0  0  0  0  0  0  0  0  0  0  0
    2.4247   -0.1400    1.1470 H   0  0  0  0  0  0  0  0  0  0  0  0
    2.3666   -2.2750    1.4020 C   0  0  0  0  0  0  0  0  0  0  0  0
    3.0716   -2.2686    2.2276 H   0  0  0  0  0  0  0  0  0  0  0  0
    1.8231   -3.4832    0.9557 C   0  0  0  0  0  0  0  0  0  0  0  0
    2.1062   -4.4160    1.4340 H   0  0  0  0  0  0  0  0  0  0  0  0
    0.9145   -3.4879   -0.1066 C   0  0  0  0  0  0  0  0  0  0  0  0
    0.4939   -4.4258   -0.4566 H   0  0  0  0  0  0  0  0  0  0  0  0
    0.5475   -2.2845   -0.7180 C   0  0  0  0  0  0  0  0  0  0  0  0
   -0.1532   -2.3008   -1.5464 H   0  0  0  0  0  0  0  0  0  0  0  0
   -0.5062    2.4280   -0.8991 C   0  0  0  0  0  0  0  0  0  0  0  0
   -0.4609    2.5153   -2.1204 O   0  0  0  0  0  0  0  0  0  0  0  0
   -0.8102    3.5549   -0.1583 N   0  0  0  0  0  0  0  0  0  0  0  0
   -0.9497    3.4311    0.8411 H   0  0  0  0  0  0  0  0  0  0  0  0
   -1.0715    4.8607   -0.7518 C   0  0  0  0  0  0  0  0  0  0  0  0
   -1.9511    4.8169   -1.4025 H   0  0  0  0  0  0  0  0  0  0  0  0
   -1.2563    5.6019    0.0317 H   0  0  0  0  0  0  0  0  0  0  0  0
   -0.2116    5.1918   -1.3435 H   0  0  0  0  0  0  0  0  0  0  0  0
  1  2  1  0  0  0  0
  2  3  1  0  0  0  0
  2  4  1  0  0  0  0
  2  5  1  0  0  0  0
  5  6  2  0  0  0  0
  5  7  1  0  0  0  0
  7  8  1  0  0  0  0
  7  9  1  0  0  0  0
  9 10  1  0  0  0  0
  9 11  1  0  0  0  0
  9 25  1  0  0  0  0
 11 12  1  0  0  0  0
 11 13  1  0  0  0  0
 11 14  1  0  0  0  0
 14 15  1  0  0  0  0
 14 23  2  0  0  0  0
 15 16  1  0  0  0  0
 15 17  2  0  0  0  0
 17 18  1  0  0  0  0
 17 19  1  0  0  0  0
 19 20  1  0  0  0  0
 19 21  2  0  0  0  0
 21 22  1  0  0  0  0
 21 23  1  0  0  0  0
 23 24  1  0  0  0  0
 25 26  2  0  0  0  0
 25 27  1  0  0  0  0
 27 28  1  0  0  0  0
 27 29  1  0  0  0  0
 29 30  1  0  0  0  0
 29 31  1  0  0  0  0
 29 32  1  0  0  0  0
M  END
$$$$

  -OEChem-01062216093D

 32 32  0     1  0  0  0  0  0999 V2000
   -3.2022   -2.4060    1.0242 H   0  0  0  0  0  0  0  0  0  0  0  0
   -3.1411   -1.5823    0.3074 C   0  0  0  0  0  0  0  0  0  0  0  0
   -4.0782   -1.0210    0.3327 H   0  0  0  0  0  0  0  0  0  0  0  0
   -2.9983   -1.9980   -0.6928 H   0  0  0  0  0  0  0  0  0  0  0  0
   -1.9810   -0.6706    0.6594 C   0  0  0  0  0  0  0  0  0  0  0  0
   -1.3796   -0.8282    1.7096 O   0  0  0  0  0  0  0  0  0  0  0  0
   -1.6748    0.3987   -0.1579 N   0  0  0  0  0  0  0  0  0  0  0  0
   -2.2195    0.4688   -1.0147 H   0  0  0  0  0  0  0  0  0  0  0  0
   -0.3595    1.0606   -0.1765 C   0  0  1  0  0  0  0  0  0  0  0  0
   -0.0171    1.2360    0.8485 H   0  0  0  0  0  0  0  0  0  0  0  0
    0.7113    0.2375   -0.9359 C   0  0  0  0  0  0  0  0  0  0  0  0
    0.3523    0.0276   -1.9492 H   0  0  0  0  0  0  0  0  0  0  0  0
    1.6169    0.8440   -1.0408 H   0  0  0  0  0  0  0  0  0  0  0  0
    1.0873   -1.0622   -0.2662 C   0  0  0  0  0  0  0  0  0  0  0  0
    2.0031   -1.0730    0.7960 C   0  0  0  0  0  0  0  0  0  0  0  0
    2.4259   -0.1420    1.1600 H   0  0  0  0  0  0  0  0  0  0  0  0
    2.3682   -2.2777    1.4064 C   0  0  0  0  0  0  0  0  0  0  0  0
    3.0674   -2.2745    2.2369 H   0  0  0  0  0  0  0  0  0  0  0  0
    1.8288   -3.4846    0.9518 C   0  0  0  0  0  0  0  0  0  0  0  0
    2.1093   -4.4187    1.4291 H   0  0  0  0  0  0  0  0  0  0  0  0
    0.9273   -3.4864   -0.1165 C   0  0  0  0  0  0  0  0  0  0  0  0
    0.5105   -4.4236   -0.4720 H   0  0  0  0  0  0  0  0  0  0  0  0
    0.5626   -2.2808   -0.7255 C   0  0  0  0  0  0  0  0  0  0  0  0
   -0.1342   -2.2938   -1.5575 H   0  0  0  0  0  0  0  0  0  0  0  0
   -0.4912    2.4166   -0.8971 C   0  0  0  0  0  0  0  0  0  0  0  0
   -0.7056    2.4645   -2.1028 O   0  0  0  0  0  0  0  0  0  0  0  0
   -0.4901    3.5893   -0.1648 N   0  0  0  0  0  0  0  0  0  0  0  0
   -0.4241    3.5081    0.8462 H   0  0  0  0  0  0  0  0  0  0  0  0
   -0.7296    4.9020   -0.7521 C   0  0  0  0  0  0  0  0  0  0  0  0
   -1.7314    4.9485   -1.1919 H   0  0  0  0  0  0  0  0  0  0  0  0
   -0.6513    5.6786    0.0148 H   0  0  0  0  0  0  0  0  0  0  0  0
    0.0082    5.1136   -1.5333 H   0  0  0  0  0  0  0  0  0  0  0  0
  1  2  1  0  0  0  0
  2  3  1  0  0  0  0
  2  4  1  0  0  0  0
  2  5  1  0  0  0  0
  5  6  2  0  0  0  0
  5  7  1  0  0  0  0
  7  8  1  0  0  0  0
  7  9  1  0  0  0  0
  9 10  1  0  0  0  0
  9 11  1  0  0  0  0
  9 25  1  0  0  0  0
 11 12  1  0  0  0  0
 11 13  1  0  0  0  0
 11 14  1  0  0  0  0
 14 15  1  0  0  0  0
 14 23  2  0  0  0  0
 15 16  1  0  0  0  0
 15 17  2  0  0  0  0
 17 18  1  0  0  0  0
 17 19  1  0  0  0  0
 19 20  1  0  0  0  0
 19 21  2  0  0  0  0
 21 22  1  0  0  0  0
 21 23  1  0  0  0  0
 23 24  1  0  0  0  0
 25 26  2  0  0  0  0
 25 27  1  0  0  0  0
 27 28  1  0  0  0  0
 27 29  1  0  0  0  0
 29 30  1  0  0  0  0
 29 31  1  0  0  0  0
 29 32  1  0  0  0  0
M  END
$$$$

  -OEChem-01062216093D

 32 32  0     1  0  0  0  0  0999 V2000
   -3.2511   -2.3901    1.0242 H   0  0  0  0  0  0  0  0  0  0  0  0
   -3.1827   -1.5602    0.3153 C   0  0  0  0  0  0  0  0  0  0  0  0
   -4.1042   -0.9753    0.3648 H   0  0  0  0  0  0  0  0  0  0  0  0
   -3.0700   -1.9677   -0.6921 H   0  0  0  0  0  0  0  0  0  0  0  0
   -1.9933   -0.6819    0.6548 C   0  0  0  0  0  0  0  0  0  0  0  0
   -1.3808   -0.8622    1.6949 O   0  0  0  0  0  0  0  0  0  0  0  0
   -1.6731    0.3838   -0.1616 N   0  0  0  0  0  0  0  0  0  0  0  0
   -2.2295    0.4832   -1.0085 H   0  0  0  0  0  0  0  0  0  0  0  0
   -0.3621    1.0537   -0.1701 C   0  0  1  0  0  0  0  0  0  0  0  0
   -0.0311    1.2327    0.8579 H   0  0  0  0  0  0  0  0  0  0  0  0
    0.7165    0.2416   -0.9274 C   0  0  0  0  0  0  0  0  0  0  0  0
    0.3625    0.0367   -1.9434 H   0  0  0  0  0  0  0  0  0  0  0  0
    1.6196    0.8532   -1.0246 H   0  0  0  0  0  0  0  0  0  0  0  0
    1.0980   -1.0593   -0.2634 C   0  0  0  0  0  0  0  0  0  0  0  0
    2.0093   -1.0704    0.8028 C   0  0  0  0  0  0  0  0  0  0  0  0
    2.4262   -0.1393    1.1731 H   0  0  0  0  0  0  0  0  0  0  0  0
    2.3790   -2.2764    1.4080 C   0  0  0  0  0  0  0  0  0  0  0  0
    3.0759   -2.2739    2.2405 H   0  0  0  0  0  0  0  0  0  0  0  0
    1.8471   -3.4837    0.9458 C   0  0  0  0  0  0  0  0  0  0  0  0
    2.1309   -4.4188    1.4193 H   0  0  0  0  0  0  0  0  0  0  0  0
    0.9482   -3.4846   -0.1248 C   0  0  0  0  0  0  0  0  0  0  0  0
    0.5348   -4.4217   -0.4848 H   0  0  0  0  0  0  0  0  0  0  0  0
    0.5797   -2.2779   -0.7295 C   0  0  0  0  0  0  0  0  0  0  0  0
   -0.1166   -2.2898   -1.5620 H   0  0  0  0  0  0  0  0  0  0  0  0
   -0.4883    2.4039   -0.9010 C   0  0  0  0  0  0  0  0  0  0  0  0
   -0.9226    2.4461   -2.0466 O   0  0  0  0  0  0  0  0  0  0  0  0
   -0.1948    3.5834   -0.2417 N   0  0  0  0  0  0  0  0  0  0  0  0
    0.0718    3.5198    0.7369 H   0  0  0  0  0  0  0  0  0  0  0  0
   -0.3806    4.9013   -0.8366 C   0  0  0  0  0  0  0  0  0  0  0  0
   -1.4340    5.0631   -1.0879 H   0  0  0  0  0  0  0  0  0  0  0  0
   -0.0686    5.6805   -0.1345 H   0  0  0  0  0  0  0  0  0  0  0  0
    0.2187    4.9987   -1.7479 H   0  0  0  0  0  0  0  0  0  0  0  0
  1  2  1  0  0  0  0
  2  3  1  0  0  0  0
  2  4  1  0  0  0  0
  2  5  1  0  0  0  0
  5  6  2  0  0  0  0
  5  7  1  0  0  0  0
  7  8  1  0  0  0  0
  7  9  1  0  0  0  0
  9 10  1  0  0  0  0
  9 11  1  0  0  0  0
  9 25  1  0  0  0  0
 11 12  1  0  0  0  0
 11 13  1  0  0  0  0
 11 14  1  0  0  0  0
 14 15  1  0  0  0  0
 14 23  2  0  0  0  0
 15 16  1  0  0  0  0
 15 17  2  0  0  0  0
 17 18  1  0  0  0  0
 17 19  1  0  0  0  0
 19 20  1  0  0  0  0
 19 21  2  0  0  0  0
 21 22  1  0  0  0  0
 21 23  1  0  0  0  0
 23 24  1  0  0  0  0
 25 26  2  0  0  0  0
 25 27  1  0  0  0  0
 27 28  1  0  0  0  0
 27 29  1  0  0  0  0
 29 30  1  0  0  0  0
 29 31  1  0  0  0  0
 29 32  1  0  0  0  0
M  END
$$$$

  -OEChem-01062216093D

 32 32  0     1  0  0  0  0  0999 V2000
   -3.2947   -2.3730    1.0345 H   0  0  0  0  0  0  0  0  0  0  0  0
   -3.2133   -1.5471    0.3222 C   0  0  0  0  0  0  0  0  0  0  0  0
   -4.1233   -0.9444    0.3736 H   0  0  0  0  0  0  0  0  0  0  0  0
   -3.1131   -1.9602   -0.6842 H   0  0  0  0  0  0  0  0  0  0  0  0
   -2.0058   -0.6901    0.6525 C   0  0  0  0  0  0  0  0  0  0  0  0
   -1.3836   -0.8871    1.6838 O   0  0  0  0  0  0  0  0  0  0  0  0
   -1.6769    0.3720   -0.1643 N   0  0  0  0  0  0  0  0  0  0  0  0
   -2.2500    0.5022   -0.9963 H   0  0  0  0  0  0  0  0  0  0  0  0
   -0.3710    1.0513   -0.1660 C   0  0  1  0  0  0  0  0  0  0  0  0
   -0.0487    1.2354    0.8640 H   0  0  0  0  0  0  0  0  0  0  0  0
    0.7130    0.2463   -0.9214 C   0  0  0  0  0  0  0  0  0  0  0  0
    0.3607    0.0429   -1.9384 H   0  0  0  0  0  0  0  0  0  0  0  0
    1.6138    0.8618   -1.0155 H   0  0  0  0  0  0  0  0  0  0  0  0
    1.1004   -1.0541   -0.2605 C   0  0  0  0  0  0  0  0  0  0  0  0
    2.0096   -1.0630    0.8075 C   0  0  0  0  0  0  0  0  0  0  0  0
    2.4192   -0.1305    1.1823 H   0  0  0  0  0  0  0  0  0  0  0  0
    2.3875   -2.2685    1.4083 C   0  0  0  0  0  0  0  0  0  0  0  0
    3.0824   -2.2642    2.2425 H   0  0  0  0  0  0  0  0  0  0  0  0
    1.8657   -3.4777    0.9398 C   0  0  0  0  0  0  0  0  0  0  0  0
    2.1558   -4.4125    1.4098 H   0  0  0  0  0  0  0  0  0  0  0  0
    0.9681   -3.4808   -0.1318 C   0  0  0  0  0  0  0  0  0  0  0  0
    0.5630   -4.4198   -0.4966 H   0  0  0  0  0  0  0  0  0  0  0  0
    0.5910   -2.2745   -0.7317 C   0  0  0  0  0  0  0  0  0  0  0  0
   -0.1041   -2.2884   -1.5650 H   0  0  0  0  0  0  0  0  0  0  0  0
   -0.4927    2.3965   -0.9066 C   0  0  0  0  0  0  0  0  0  0  0  0
   -1.1161    2.4634   -1.9605 O   0  0  0  0  0  0  0  0  0  0  0  0
    0.0725    3.5411   -0.3752 N   0  0  0  0  0  0  0  0  0  0  0  0
    0.5219    3.4661    0.5331 H   0  0  0  0  0  0  0  0  0  0  0  0
   -0.0498    4.8549   -0.9948 C   0  0  0  0  0  0  0  0  0  0  0  0
   -1.1014    5.1546   -1.0523 H   0  0  0  0  0  0  0  0  0  0  0  0
    0.4917    5.6023   -0.4071 H   0  0  0  0  0  0  0  0  0  0  0  0
    0.3693    4.8420   -2.0065 H   0  0  0  0  0  0  0  0  0  0  0  0
  1  2  1  0  0  0  0
  2  3  1  0  0  0  0
  2  4  1  0  0  0  0
  2  5  1  0  0  0  0
  5  6  2  0  0  0  0
  5  7  1  0  0  0  0
  7  8  1  0  0  0  0
  7  9  1  0  0  0  0
  9 10  1  0  0  0  0
  9 11  1  0  0  0  0
  9 25  1  0  0  0  0
 11 12  1  0  0  0  0
 11 13  1  0  0  0  0
 11 14  1  0  0  0  0
 14 15  1  0  0  0  0
 14 23  2  0  0  0  0
 15 16  1  0  0  0  0
 15 17  2  0  0  0  0
 17 18  1  0  0  0  0
 17 19  1  0  0  0  0
 19 20  1  0  0  0  0
 19 21  2  0  0  0  0
 21 22  1  0  0  0  0
 21 23  1  0  0  0  0
 23 24  1  0  0  0  0
 25 26  2  0  0  0  0
 25 27  1  0  0  0  0
 27 28  1  0  0  0  0
 27 29  1  0  0  0  0
 29 30  1  0  0  0  0
 29 31  1  0  0  0  0
 29 32  1  0  0  0  0
M  END
$$$$

  -OEChem-01062216093D

 32 32  0     1  0  0  0  0  0999 V2000
   -3.3272   -2.3715    1.0277 H   0  0  0  0  0  0  0  0  0  0  0  0
   -3.2514   -1.5308    0.3322 C   0  0  0  0  0  0  0  0  0  0  0  0
   -4.1462   -0.9110    0.4273 H   0  0  0  0  0  0  0  0  0  0  0  0
   -3.1924   -1.9217   -0.6863 H   0  0  0  0  0  0  0  0  0  0  0  0
   -2.0161   -0.7069    0.6427 C   0  0  0  0  0  0  0  0  0  0  0  0
   -1.3797   -0.9281    1.6601 O   0  0  0  0  0  0  0  0  0  0  0  0
   -1.6790    0.3553   -0.1708 N   0  0  0  0  0  0  0  0  0  0  0  0
   -2.2779    0.5302   -0.9763 H   0  0  0  0  0  0  0  0  0  0  0  0
   -0.3797    1.0482   -0.1636 C   0  0  1  0  0  0  0  0  0  0  0  0
   -0.0669    1.2371    0.8685 H   0  0  0  0  0  0  0  0  0  0  0  0
    0.7134    0.2532   -0.9170 C   0  0  0  0  0  0  0  0  0  0  0  0
    0.3651    0.0508   -1.9357 H   0  0  0  0  0  0  0  0  0  0  0  0
    1.6117    0.8731   -1.0071 H   0  0  0  0  0  0  0  0  0  0  0  0
    1.1080   -1.0456   -0.2581 C   0  0  0  0  0  0  0  0  0  0  0  0
    2.0130   -1.0519    0.8135 C   0  0  0  0  0  0  0  0  0  0  0  0
    2.4138   -0.1182    1.1944 H   0  0  0  0  0  0  0  0  0  0  0  0
    2.3963   -2.2570    1.4118 C   0  0  0  0  0  0  0  0  0  0  0  0
    3.0865   -2.2510    2.2497 H   0  0  0  0  0  0  0  0  0  0  0  0
    1.8857   -3.4681    0.9357 C   0  0  0  0  0  0  0  0  0  0  0  0
    2.1797   -4.4029    1.4033 H   0  0  0  0  0  0  0  0  0  0  0  0
    0.9933   -3.4732   -0.1403 C   0  0  0  0  0  0  0  0  0  0  0  0
    0.5963   -4.4131   -0.5112 H   0  0  0  0  0  0  0  0  0  0  0  0
    0.6094   -2.2674   -0.7364 C   0  0  0  0  0  0  0  0  0  0  0  0
   -0.0832   -2.2827   -1.5720 H   0  0  0  0  0  0  0  0  0  0  0  0
   -0.5011    2.3909   -0.9112 C   0  0  0  0  0  0  0  0  0  0  0  0
   -1.2919    2.5090   -1.8414 O   0  0  0  0  0  0  0  0  0  0  0  0
    0.2941    3.4652   -0.5555 N   0  0  0  0  0  0  0  0  0  0  0  0
    0.9124    3.3514    0.2427 H   0  0  0  0  0  0  0  0  0  0  0  0
    0.2312    4.7607   -1.2210 C   0  0  0  0  0  0  0  0  0  0  0  0
   -0.7639    5.2025   -1.1050 H   0  0  0  0  0  0  0  0  0  0  0  0
    0.9669    5.4452   -0.7881 H   0  0  0  0  0  0  0  0  0  0  0  0
    0.4470    4.6531   -2.2892 H   0  0  0  0  0  0  0  0  0  0  0  0
  1  2  1  0  0  0  0
  2  3  1  0  0  0  0
  2  4  1  0  0  0  0
  2  5  1  0  0  0  0
  5  6  2  0  0  0  0
  5  7  1  0  0  0  0
  7  8  1  0  0  0  0
  7  9  1  0  0  0  0
  9 10  1  0  0  0  0
  9 11  1  0  0  0  0
  9 25  1  0  0  0  0
 11 12  1  0  0  0  0
 11 13  1  0  0  0  0
 11 14  1  0  0  0  0
 14 15  1  0  0  0  0
 14 23  2  0  0  0  0
 15 16  1  0  0  0  0
 15 17  2  0  0  0  0
 17 18  1  0  0  0  0
 17 19  1  0  0  0  0
 19 20  1  0  0  0  0
 19 21  2  0  0  0  0
 21 22  1  0  0  0  0
 21 23  1  0  0  0  0
 23 24  1  0  0  0  0
 25 26  2  0  0  0  0
 25 27  1  0  0  0  0
 27 28  1  0  0  0  0
 27 29  1  0  0  0  0
 29 30  1  0  0  0  0
 29 31  1  0  0  0  0
 29 32  1  0  0  0  0
M  END
$$$$

  -OEChem-01062216093D

 32 32  0     1  0  0  0  0  0999 V2000
   -3.3618   -2.3540    1.0159 H   0  0  0  0  0  0  0  0  0  0  0  0
   -3.2822   -1.5039    0.3328 C   0  0  0  0  0  0  0  0  0  0  0  0
   -4.1597   -0.8651    0.4583 H   0  0  0  0  0  0  0  0  0  0  0  0
   -3.2553   -1.8787   -0.6930 H   0  0  0  0  0  0  0  0  0  0  0  0
   -2.0215   -0.7141    0.6288 C   0  0  0  0  0  0  0  0  0  0  0  0
   -1.3736   -0.9609    1.6328 O   0  0  0  0  0  0  0  0  0  0  0  0
   -1.6746    0.3467   -0.1821 N   0  0  0  0  0  0  0  0  0  0  0  0
   -2.3032    0.5713   -0.9522 H   0  0  0  0  0  0  0  0  0  0  0  0
   -0.3807    1.0499   -0.1685 C   0  0  1  0  0  0  0  0  0  0  0  0
   -0.0744    1.2470    0.8641 H   0  0  0  0  0  0  0  0  0  0  0  0
    0.7149    0.2481   -0.9141 C   0  0  0  0  0  0  0  0  0  0  0  0
    0.3676    0.0409   -1.9321 H   0  0  0  0  0  0  0  0  0  0  0  0
    1.6151    0.8642   -1.0064 H   0  0  0  0  0  0  0  0  0  0  0  0
    1.1136   -1.0484   -0.2525 C   0  0  0  0  0  0  0  0  0  0  0  0
    2.0194   -1.0502    0.8187 C   0  0  0  0  0  0  0  0  0  0  0  0
    2.4138   -0.1148    1.2016 H   0  0  0  0  0  0  0  0  0  0  0  0
    2.4131   -2.2538    1.4135 C   0  0  0  0  0  0  0  0  0  0  0  0
    3.1052   -2.2449    2.2499 H   0  0  0  0  0  0  0  0  0  0  0  0
    1.9105   -3.4679    0.9359 C   0  0  0  0  0  0  0  0  0  0  0  0
    2.2122   -4.4018    1.4008 H   0  0  0  0  0  0  0  0  0  0  0  0
    1.0151   -3.4774   -0.1375 C   0  0  0  0  0  0  0  0  0  0  0  0
    0.6223   -4.4191   -0.5084 H   0  0  0  0  0  0  0  0  0  0  0  0
    0.6221   -2.2732   -0.7309 C   0  0  0  0  0  0  0  0  0  0  0  0
   -0.0728   -2.2919   -1.5642 H   0  0  0  0  0  0  0  0  0  0  0  0
   -0.5040    2.3906   -0.9250 C   0  0  0  0  0  0  0  0  0  0  0  0
   -1.4377    2.5839   -1.6971 O   0  0  0  0  0  0  0  0  0  0  0  0
    0.4692    3.3649   -0.7900 N   0  0  0  0  0  0  0  0  0  0  0  0
    1.2177    3.1947   -0.1247 H   0  0  0  0  0  0  0  0  0  0  0  0
    0.4262    4.6431   -1.4900 C   0  0  0  0  0  0  0  0  0  0  0  0
   -0.4654    5.2089   -1.2001 H   0  0  0  0  0  0  0  0  0  0  0  0
    1.3100    5.2395   -1.2435 H   0  0  0  0  0  0  0  0  0  0  0  0
    0.4076    4.4858   -2.5737 H   0  0  0  0  0  0  0  0  0  0  0  0
  1  2  1  0  0  0  0
  2  3  1  0  0  0  0
  2  4  1  0  0  0  0
  2  5  1  0  0  0  0
  5  6  2  0  0  0  0
  5  7  1  0  0  0  0
  7  8  1  0  0  0  0
  7  9  1  0  0  0  0
  9 10  1  0  0  0  0
  9 11  1  0  0  0  0
  9 25  1  0  0  0  0
 11 12  1  0  0  0  0
 11 13  1  0  0  0  0
 11 14  1  0  0  0  0
 14 15  1  0  0  0  0
 14 23  2  0  0  0  0
 15 16  1  0  0  0  0
 15 17  2  0  0  0  0
 17 18  1  0  0  0  0
 17 19  1  0  0  0  0
 19 20  1  0  0  0  0
 19 21  2  0  0  0  0
 21 22  1  0  0  0  0
 21 23  1  0  0  0  0
 23 24  1  0  0  0  0
 25 26  2  0  0  0  0
 25 27  1  0  0  0  0
 27 28  1  0  0  0  0
 27 29  1  0  0  0  0
 29 30  1  0  0  0  0
 29 31  1  0  0  0  0
 29 32  1  0  0  0  0
M  END
$$$$

  -OEChem-01062216093D

 32 32  0     1  0  0  0  0  0999 V2000
   -3.3254   -2.3566    1.0216 H   0  0  0  0  0  0  0  0  0  0  0  0
   -3.2644   -1.4848    0.3643 C   0  0  0  0  0  0  0  0  0  0  0  0
   -4.0601   -0.7848    0.6302 H   0  0  0  0  0  0  0  0  0  0  0  0
   -3.4055   -1.8130   -0.6682 H   0  0  0  0  0  0  0  0  0  0  0  0
   -1.9130   -0.8120    0.5131 C   0  0  0  0  0  0  0  0  0  0  0  0
   -1.1366   -1.1971    1.3727 O   0  0  0  0  0  0  0  0  0  0  0  0
   -1.6047    0.2761   -0.2779 N   0  0  0  0  0  0  0  0  0  0  0  0
   -2.3547    0.6779   -0.8386 H   0  0  0  0  0  0  0  0  0  0  0  0
   -0.3278    1.0088   -0.2504 C   0  0  1  0  0  0  0  0  0  0  0  0
    0.1117    0.9722    0.7522 H   0  0  0  0  0  0  0  0  0  0  0  0
    0.6490    0.3995   -1.2838 C   0  0  0  0  0  0  0  0  0  0  0  0
    0.1727    0.4006   -2.2700 H   0  0  0  0  0  0  0  0  0  0  0  0
    1.5439    1.0239   -1.3614 H   0  0  0  0  0  0  0  0  0  0  0  0
    1.0923   -1.0015   -0.9386 C   0  0  0  0  0  0  0  0  0  0  0  0
    2.1188   -1.2151   -0.0067 C   0  0  0  0  0  0  0  0  0  0  0  0
    2.5883   -0.3733    0.4913 H   0  0  0  0  0  0  0  0  0  0  0  0
    2.5365   -2.5138    0.3039 C   0  0  0  0  0  0  0  0  0  0  0  0
    3.3222   -2.6703    1.0367 H   0  0  0  0  0  0  0  0  0  0  0  0
    1.9360   -3.6106   -0.3212 C   0  0  0  0  0  0  0  0  0  0  0  0
    2.2563   -4.6186   -0.0755 H   0  0  0  0  0  0  0  0  0  0  0  0
    0.9182   -3.4076   -1.2576 C   0  0  0  0  0  0  0  0  0  0  0  0
    0.4487   -4.2582   -1.7420 H   0  0  0  0  0  0  0  0  0  0  0  0
    0.5004   -2.1088   -1.5657 C   0  0  0  0  0  0  0  0  0  0  0  0
   -0.2935   -1.9619   -2.2910 H   0  0  0  0  0  0  0  0  0  0  0  0
   -0.5534    2.4921   -0.6257 C   0  0  0  0  0  0  0  0  0  0  0  0
   -1.6659    2.8835   -0.9644 O   0  0  0  0  0  0  0  0  0  0  0  0
    0.5046    3.3839   -0.6659 N   0  0  0  0  0  0  0  0  0  0  0  0
    1.4137    3.0508   -0.3581 H   0  0  0  0  0  0  0  0  0  0  0  0
    0.3543    4.7891   -1.0256 C   0  0  0  0  0  0  0  0  0  0  0  0
   -0.3303    5.2904   -0.3333 H   0  0  0  0  0  0  0  0  0  0  0  0
    1.3224    5.2970   -0.9826 H   0  0  0  0  0  0  0  0  0  0  0  0
   -0.0406    4.8842   -2.0425 H   0  0  0  0  0  0  0  0  0  0  0  0
  1  2  1  0  0  0  0
  2  3  1  0  0  0  0
  2  4  1  0  0  0  0
  2  5  1  0  0  0  0
  5  6  2  0  0  0  0
  5  7  1  0  0  0  0
  7  8  1  0  0  0  0
  7  9  1  0  0  0  0
  9 10  1  0  0  0  0
  9 11  1  0  0  0  0
  9 25  1  0  0  0  0
 11 12  1  0  0  0  0
 11 13  1  0  0  0  0
 11 14  1  0  0  0  0
 14 15  1  0  0  0  0
 14 23  2  0  0  0  0
 15 16  1  0  0  0  0
 15 17  2  0  0  0  0
 17 18  1  0  0  0  0
 17 19  1  0  0  0  0
 19 20  1  0  0  0  0
 19 21  2  0  0  0  0
 21 22  1  0  0  0  0
 21 23  1  0  0  0  0
 23 24  1  0  0  0  0
 25 26  2  0  0  0  0
 25 27  1  0  0  0  0
 27 28  1  0  0  0  0
 27 29  1  0  0  0  0
 29 30  1  0  0  0  0
 29 31  1  0  0  0  0
 29 32  1  0  0  0  0
M  END
$$$$

  -OEChem-01062216093D

 32 32  0     1  0  0  0  0  0999 V2000
   -3.3419   -2.3245    1.0335 H   0  0  0  0  0  0  0  0  0  0  0  0
   -3.2737   -1.4570    0.3711 C   0  0  0  0  0  0  0  0  0  0  0  0
   -4.0481   -0.7381    0.6489 H   0  0  0  0  0  0  0  0  0  0  0  0
   -3.4417   -1.7855   -0.6572 H   0  0  0  0  0  0  0  0  0  0  0  0
   -1.9047   -0.8149    0.4912 C   0  0  0  0  0  0  0  0  0  0  0  0
   -1.1181   -1.2245    1.3298 O   0  0  0  0  0  0  0  0  0  0  0  0
   -1.5954    0.2762   -0.2961 N   0  0  0  0  0  0  0  0  0  0  0  0
   -2.3646    0.7209   -0.7949 H   0  0  0  0  0  0  0  0  0  0  0  0
   -0.3171    1.0074   -0.2609 C   0  0  1  0  0  0  0  0  0  0  0  0
    0.1183    0.9729    0.7432 H   0  0  0  0  0  0  0  0  0  0  0  0
    0.6642    0.3866   -1.2870 C   0  0  0  0  0  0  0  0  0  0  0  0
    0.1941    0.3879   -2.2761 H   0  0  0  0  0  0  0  0  0  0  0  0
    1.5662    1.0007   -1.3602 H   0  0  0  0  0  0  0  0  0  0  0  0
    1.1024   -1.0148   -0.9370 C   0  0  0  0  0  0  0  0  0  0  0  0
    2.1243   -1.2293   -0.0002 C   0  0  0  0  0  0  0  0  0  0  0  0
    2.5917   -0.3878    0.5008 H   0  0  0  0  0  0  0  0  0  0  0  0
    2.5391   -2.5284    0.3122 C   0  0  0  0  0  0  0  0  0  0  0  0
    3.3206   -2.6857    1.0493 H   0  0  0  0  0  0  0  0  0  0  0  0
    1.9409   -3.6247   -0.3162 C   0  0  0  0  0  0  0  0  0  0  0  0
    2.2586   -4.6332   -0.0687 H   0  0  0  0  0  0  0  0  0  0  0  0
    0.9280   -3.4206   -1.2578 C   0  0  0  0  0  0  0  0  0  0  0  0
    0.4599   -4.2707   -1.7446 H   0  0  0  0  0  0  0  0  0  0  0  0
    0.5132   -2.1214   -1.5679 C   0  0  0  0  0  0  0  0  0  0  0  0
   -0.2767   -1.9739   -2.2974 H   0  0  0  0  0  0  0  0  0  0  0  0
   -0.5539    2.4932   -0.6328 C   0  0  0  0  0  0  0  0  0  0  0  0
   -1.6972    2.9288   -0.7254 O   0  0  0  0  0  0  0  0  0  0  0  0
    0.4934    3.3337   -0.9716 N   0  0  0  0  0  0  0  0  0  0  0  0
    1.4376    2.9718   -0.8779 H   0  0  0  0  0  0  0  0  0  0  0  0
    0.3107    4.7257   -1.3669 C   0  0  0  0  0  0  0  0  0  0  0  0
   -0.1603    5.2949   -0.5585 H   0  0  0  0  0  0  0  0  0  0  0  0
    1.2776    5.1845   -1.5950 H   0  0  0  0  0  0  0  0  0  0  0  0
   -0.3208    4.7916   -2.2592 H   0  0  0  0  0  0  0  0  0  0  0  0
  1  2  1  0  0  0  0
  2  3  1  0  0  0  0
  2  4  1  0  0  0  0
  2  5  1  0  0  0  0
  5  6  2  0  0  0  0
  5  7  1  0  0  0  0
  7  8  1  0  0  0  0
  7  9  1  0  0  0  0
  9 10  1  0  0  0  0
  9 11  1  0  0  0  0
  9 25  1  0  0  0  0
 11 12  1  0  0  0  0
 11 13  1  0  0  0  0
 11 14  1  0  0  0  0
 14 15  1  0  0  0  0
 14 23  2  0  0  0  0
 15 16  1  0  0  0  0
 15 17  2  0  0  0  0
 17 18  1  0  0  0  0
 17 19  1  0  0  0  0
 19 20  1  0  0  0  0
 19 21  2  0  0  0  0
 21 22  1  0  0  0  0
 21 23  1  0  0  0  0
 23 24  1  0  0  0  0
 25 26  2  0  0  0  0
 25 27  1  0  0  0  0
 27 28  1  0  0  0  0
 27 29  1  0  0  0  0
 29 30  1  0  0  0  0
 29 31  1  0  0  0  0
 29 32  1  0  0  0  0
M  END
$$$$

  -OEChem-01062216093D

 32 32  0     1  0  0  0  0  0999 V2000
   -3.3596   -2.2895    1.0471 H   0  0  0  0  0  0  0  0  0  0  0  0
   -3.2853   -1.4262    0.3798 C   0  0  0  0  0  0  0  0  0  0  0  0
   -4.0389   -0.6899    0.6690 H   0  0  0  0  0  0  0  0  0  0  0  0
   -3.4797   -1.7547   -0.6439 H   0  0  0  0  0  0  0  0  0  0  0  0
   -1.9007   -0.8134    0.4718 C   0  0  0  0  0  0  0  0  0  0  0  0
   -1.1050   -1.2455    1.2899 O   0  0  0  0  0  0  0  0  0  0  0  0
   -1.5902    0.2792   -0.3131 N   0  0  0  0  0  0  0  0  0  0  0  0
   -2.3706    0.7529   -0.7646 H   0  0  0  0  0  0  0  0  0  0  0  0
   -0.3070    1.0030   -0.2770 C   0  0  1  0  0  0  0  0  0  0  0  0
    0.1249    0.9700    0.7289 H   0  0  0  0  0  0  0  0  0  0  0  0
    0.6805    0.3733   -1.2929 C   0  0  0  0  0  0  0  0  0  0  0  0
    0.2205    0.3749   -2.2868 H   0  0  0  0  0  0  0  0  0  0  0  0
    1.5874    0.9810   -1.3549 H   0  0  0  0  0  0  0  0  0  0  0  0
    1.1140   -1.0277   -0.9364 C   0  0  0  0  0  0  0  0  0  0  0  0
    2.1296   -1.2420    0.0076 C   0  0  0  0  0  0  0  0  0  0  0  0
    2.5925   -0.4001    0.5120 H   0  0  0  0  0  0  0  0  0  0  0  0
    2.5419   -2.5411    0.3237 C   0  0  0  0  0  0  0  0  0  0  0  0
    3.3176   -2.6982    1.0671 H   0  0  0  0  0  0  0  0  0  0  0  0
    1.9479   -3.6375   -0.3087 C   0  0  0  0  0  0  0  0  0  0  0  0
    2.2638   -4.6459   -0.0589 H   0  0  0  0  0  0  0  0  0  0  0  0
    0.9413   -3.4336   -1.2571 C   0  0  0  0  0  0  0  0  0  0  0  0
    0.4759   -4.2840   -1.7458 H   0  0  0  0  0  0  0  0  0  0  0  0
    0.5287   -2.1344   -1.5707 C   0  0  0  0  0  0  0  0  0  0  0  0
   -0.2565   -1.9878   -2.3053 H   0  0  0  0  0  0  0  0  0  0  0  0
   -0.5525    2.4908   -0.6440 C   0  0  0  0  0  0  0  0  0  0  0  0
   -1.6659    2.9787   -0.4818 O   0  0  0  0  0  0  0  0  0  0  0  0
    0.4059    3.2699   -1.2726 N   0  0  0  0  0  0  0  0  0  0  0  0
    1.3278    2.8664   -1.4075 H   0  0  0  0  0  0  0  0  0  0  0  0
    0.1780    4.6505   -1.6849 C   0  0  0  0  0  0  0  0  0  0  0  0
   -0.0540    5.2764   -0.8167 H   0  0  0  0  0  0  0  0  0  0  0  0
    1.0718    5.0518   -2.1719 H   0  0  0  0  0  0  0  0  0  0  0  0
   -0.6551    4.7076   -2.3935 H   0  0  0  0  0  0  0  0  0  0  0  0
  1  2  1  0  0  0  0
  2  3  1  0  0  0  0
  2  4  1  0  0  0  0
  2  5  1  0  0  0  0
  5  6  2  0  0  0  0
  5  7  1  0  0  0  0
  7  8  1  0  0  0  0
  7  9  1  0  0  0  0
  9 10  1  0  0  0  0
  9 11  1  0  0  0  0
  9 25  1  0  0  0  0
 11 12  1  0  0  0  0
 11 13  1  0  0  0  0
 11 14  1  0  0  0  0
 14 15  1  0  0  0  0
 14 23  2  0  0  0  0
 15 16  1  0  0  0  0
 15 17  2  0  0  0  0
 17 18  1  0  0  0  0
 17 19  1  0  0  0  0
 19 20  1  0  0  0  0
 19 21  2  0  0  0  0
 21 22  1  0  0  0  0
 21 23  1  0  0  0  0
 23 24  1  0  0  0  0
 25 26  2  0  0  0  0
 25 27  1  0  0  0  0
 27 28  1  0  0  0  0
 27 29  1  0  0  0  0
 29 30  1  0  0  0  0
 29 31  1  0  0  0  0
 29 32  1  0  0  0  0
M  END
$$$$

  -OEChem-01062216093D

 32 32  0     1  0  0  0  0  0999 V2000
   -3.3726   -2.2691    1.0555 H   0  0  0  0  0  0  0  0  0  0  0  0
   -3.2960   -1.4080    0.3859 C   0  0  0  0  0  0  0  0  0  0  0  0
   -4.0392   -0.6638    0.6820 H   0  0  0  0  0  0  0  0  0  0  0  0
   -3.5044   -1.7364   -0.6349 H   0  0  0  0  0  0  0  0  0  0  0  0
   -1.9042   -0.8095    0.4619 C   0  0  0  0  0  0  0  0  0  0  0  0
   -1.1011   -1.2573    1.2639 O   0  0  0  0  0  0  0  0  0  0  0  0
   -1.5952    0.2841   -0.3228 N   0  0  0  0  0  0  0  0  0  0  0  0
   -2.3808    0.7649   -0.7558 H   0  0  0  0  0  0  0  0  0  0  0  0
   -0.3066    0.9992   -0.2952 C   0  0  1  0  0  0  0  0  0  0  0  0
    0.1255    0.9676    0.7108 H   0  0  0  0  0  0  0  0  0  0  0  0
    0.6855    0.3645   -1.3033 C   0  0  0  0  0  0  0  0  0  0  0  0
    0.2316    0.3599   -2.2999 H   0  0  0  0  0  0  0  0  0  0  0  0
    1.5917    0.9750   -1.3587 H   0  0  0  0  0  0  0  0  0  0  0  0
    1.1195   -1.0341   -0.9400 C   0  0  0  0  0  0  0  0  0  0  0  0
    2.1322   -1.2411    0.0085 C   0  0  0  0  0  0  0  0  0  0  0  0
    2.5907   -0.3954    0.5112 H   0  0  0  0  0  0  0  0  0  0  0  0
    2.5476   -2.5376    0.3311 C   0  0  0  0  0  0  0  0  0  0  0  0
    3.3212   -2.6887    1.0779 H   0  0  0  0  0  0  0  0  0  0  0  0
    1.9590   -3.6384   -0.2986 C   0  0  0  0  0  0  0  0  0  0  0  0
    2.2773   -4.6446   -0.0431 H   0  0  0  0  0  0  0  0  0  0  0  0
    0.9538   -3.4419   -1.2500 C   0  0  0  0  0  0  0  0  0  0  0  0
    0.4916   -4.2958   -1.7355 H   0  0  0  0  0  0  0  0  0  0  0  0
    0.5384   -2.1452   -1.5706 C   0  0  0  0  0  0  0  0  0  0  0  0
   -0.2458   -2.0041   -2.3075 H   0  0  0  0  0  0  0  0  0  0  0  0
   -0.5526    2.4878   -0.6552 C   0  0  0  0  0  0  0  0  0  0  0  0
   -1.5651    3.0425   -0.2447 O   0  0  0  0  0  0  0  0  0  0  0  0
    0.2484    3.1884   -1.5434 N   0  0  0  0  0  0  0  0  0  0  0  0
    1.0726    2.7200   -1.9066 H   0  0  0  0  0  0  0  0  0  0  0  0
   -0.0150    4.5628   -1.9543 C   0  0  0  0  0  0  0  0  0  0  0  0
    0.0014    5.2314   -1.0871 H   0  0  0  0  0  0  0  0  0  0  0  0
    0.7473    4.8980   -2.6641 H   0  0  0  0  0  0  0  0  0  0  0  0
   -0.9942    4.6377   -2.4390 H   0  0  0  0  0  0  0  0  0  0  0  0
  1  2  1  0  0  0  0
  2  3  1  0  0  0  0
  2  4  1  0  0  0  0
  2  5  1  0  0  0  0
  5  6  2  0  0  0  0
  5  7  1  0  0  0  0
  7  8  1  0  0  0  0
  7  9  1  0  0  0  0
  9 10  1  0  0  0  0
  9 11  1  0  0  0  0
  9 25  1  0  0  0  0
 11 12  1  0  0  0  0
 11 13  1  0  0  0  0
 11 14  1  0  0  0  0
 14 15  1  0  0  0  0
 14 23  2  0  0  0  0
 15 16  1  0  0  0  0
 15 17  2  0  0  0  0
 17 18  1  0  0  0  0
 17 19  1  0  0  0  0
 19 20  1  0  0  0  0
 19 21  2  0  0  0  0
 21 22  1  0  0  0  0
 21 23  1  0  0  0  0
 23 24  1  0  0  0  0
 25 26  2  0  0  0  0
 25 27  1  0  0  0  0
 27 28  1  0  0  0  0
 27 29  1  0  0  0  0
 29 30  1  0  0  0  0
 29 31  1  0  0  0  0
 29 32  1  0  0  0  0
M  END
$$$$

  -OEChem-01062216093D

 32 32  0     1  0  0  0  0  0999 V2000
   -3.3714   -2.2719    1.0622 H   0  0  0  0  0  0  0  0  0  0  0  0
   -3.2996   -1.4120    0.3903 C   0  0  0  0  0  0  0  0  0  0  0  0
   -4.0477   -0.6717    0.6844 H   0  0  0  0  0  0  0  0  0  0  0  0
   -3.5054   -1.7449   -0.6296 H   0  0  0  0  0  0  0  0  0  0  0  0
   -1.9112   -0.8052    0.4661 C   0  0  0  0  0  0  0  0  0  0  0  0
   -1.1045   -1.2510    1.2651 O   0  0  0  0  0  0  0  0  0  0  0  0
   -1.6078    0.2877   -0.3223 N   0  0  0  0  0  0  0  0  0  0  0  0
   -2.3926    0.7489   -0.7753 H   0  0  0  0  0  0  0  0  0  0  0  0
   -0.3171    0.9994   -0.3081 C   0  0  1  0  0  0  0  0  0  0  0  0
    0.1191    0.9702    0.6966 H   0  0  0  0  0  0  0  0  0  0  0  0
    0.6748    0.3623   -1.3133 C   0  0  0  0  0  0  0  0  0  0  0  0
    0.2191    0.3461   -2.3087 H   0  0  0  0  0  0  0  0  0  0  0  0
    1.5751    0.9823   -1.3735 H   0  0  0  0  0  0  0  0  0  0  0  0
    1.1149   -1.0329   -0.9444 C   0  0  0  0  0  0  0  0  0  0  0  0
    2.1304   -1.2301    0.0031 C   0  0  0  0  0  0  0  0  0  0  0  0
    2.5857   -0.3794    0.5001 H   0  0  0  0  0  0  0  0  0  0  0  0
    2.5539   -2.5226    0.3305 C   0  0  0  0  0  0  0  0  0  0  0  0
    3.3310   -2.6658    1.0751 H   0  0  0  0  0  0  0  0  0  0  0  0
    1.9690   -3.6297   -0.2915 C   0  0  0  0  0  0  0  0  0  0  0  0
    2.2937   -4.6328   -0.0322 H   0  0  0  0  0  0  0  0  0  0  0  0
    0.9599   -3.4433   -1.2407 C   0  0  0  0  0  0  0  0  0  0  0  0
    0.5008   -4.3026   -1.7199 H   0  0  0  0  0  0  0  0  0  0  0  0
    0.5373   -2.1504   -1.5672 C   0  0  0  0  0  0  0  0  0  0  0  0
   -0.2497   -2.0180   -2.3024 H   0  0  0  0  0  0  0  0  0  0  0  0
   -0.5579    2.4874   -0.6651 C   0  0  0  0  0  0  0  0  0  0  0  0
   -1.4010    3.1194   -0.0425 O   0  0  0  0  0  0  0  0  0  0  0  0
    0.0267    3.0991   -1.7633 N   0  0  0  0  0  0  0  0  0  0  0  0
    0.6965    2.5592   -2.3026 H   0  0  0  0  0  0  0  0  0  0  0  0
   -0.2521    4.4734   -2.1643 C   0  0  0  0  0  0  0  0  0  0  0  0
    0.0180    5.1684   -1.3624 H   0  0  0  0  0  0  0  0  0  0  0  0
    0.3272    4.7321   -3.0558 H   0  0  0  0  0  0  0  0  0  0  0  0
   -1.3153    4.5978   -2.3953 H   0  0  0  0  0  0  0  0  0  0  0  0
  1  2  1  0  0  0  0
  2  3  1  0  0  0  0
  2  4  1  0  0  0  0
  2  5  1  0  0  0  0
  5  6  2  0  0  0  0
  5  7  1  0  0  0  0
  7  8  1  0  0  0  0
  7  9  1  0  0  0  0
  9 10  1  0  0  0  0
  9 11  1  0  0  0  0
  9 25  1  0  0  0  0
 11 12  1  0  0  0  0
 11 13  1  0  0  0  0
 11 14  1  0  0  0  0
 14 15  1  0  0  0  0
 14 23  2  0  0  0  0
 15 16  1  0  0  0  0
 15 17  2  0  0  0  0
 17 18  1  0  0  0  0
 17 19  1  0  0  0  0
 19 20  1  0  0  0  0
 19 21  2  0  0  0  0
 21 22  1  0  0  0  0
 21 23  1  0  0  0  0
 23 24  1  0  0  0  0
 25 26  2  0  0  0  0
 25 27  1  0  0  0  0
 27 28  1  0  0  0  0
 27 29  1  0  0  0  0
 29 30  1  0  0  0  0
 29 31  1  0  0  0  0
 29 32  1  0  0  0  0
M  END
$$$$

  -OEChem-01062216093D

 32 32  0     1  0  0  0  0  0999 V2000
   -3.3457   -2.3025    1.0664 H   0  0  0  0  0  0  0  0  0  0  0  0
   -3.2884   -1.4419    0.3939 C   0  0  0  0  0  0  0  0  0  0  0  0
   -4.0571   -0.7196    0.6792 H   0  0  0  0  0  0  0  0  0  0  0  0
   -3.4750   -1.7813   -0.6276 H   0  0  0  0  0  0  0  0  0  0  0  0
   -1.9164   -0.8008    0.4839 C   0  0  0  0  0  0  0  0  0  0  0  0
   -1.1104   -1.2226    1.2962 O   0  0  0  0  0  0  0  0  0  0  0  0
   -1.6247    0.2902   -0.3125 N   0  0  0  0  0  0  0  0  0  0  0  0
   -2.4014    0.7046   -0.8201 H   0  0  0  0  0  0  0  0  0  0  0  0
   -0.3349    1.0044   -0.3145 C   0  0  1  0  0  0  0  0  0  0  0  0
    0.1097    0.9785    0.6868 H   0  0  0  0  0  0  0  0  0  0  0  0
    0.6523    0.3661   -1.3227 C   0  0  0  0  0  0  0  0  0  0  0  0
    0.1884    0.3348   -2.3137 H   0  0  0  0  0  0  0  0  0  0  0  0
    1.5448    0.9962   -1.3970 H   0  0  0  0  0  0  0  0  0  0  0  0
    1.1006   -1.0253   -0.9481 C   0  0  0  0  0  0  0  0  0  0  0  0
    2.1231   -1.2137   -0.0064 C   0  0  0  0  0  0  0  0  0  0  0  0
    2.5782   -0.3584    0.4829 H   0  0  0  0  0  0  0  0  0  0  0  0
    2.5545   -2.5029    0.3252 C   0  0  0  0  0  0  0  0  0  0  0  0
    3.3378   -2.6388    1.0649 H   0  0  0  0  0  0  0  0  0  0  0  0
    1.9703   -3.6156   -0.2875 C   0  0  0  0  0  0  0  0  0  0  0  0
    2.3013   -4.6161   -0.0260 H   0  0  0  0  0  0  0  0  0  0  0  0
    0.9540   -3.4380   -1.2308 C   0  0  0  0  0  0  0  0  0  0  0  0
    0.4959   -4.3012   -1.7037 H   0  0  0  0  0  0  0  0  0  0  0  0
    0.5232   -2.1487   -1.5605 C   0  0  0  0  0  0  0  0  0  0  0  0
   -0.2695   -2.0237   -2.2907 H   0  0  0  0  0  0  0  0  0  0  0  0
   -0.5696    2.4911   -0.6728 C   0  0  0  0  0  0  0  0  0  0  0  0
   -1.1782    3.2065    0.1102 O   0  0  0  0  0  0  0  0  0  0  0  0
   -0.2507    3.0140   -1.9165 N   0  0  0  0  0  0  0  0  0  0  0  0
    0.2309    2.4076   -2.5732 H   0  0  0  0  0  0  0  0  0  0  0  0
   -0.5231    4.3937   -2.3036 C   0  0  0  0  0  0  0  0  0  0  0  0
   -0.0104    5.0893   -1.6308 H   0  0  0  0  0  0  0  0  0  0  0  0
   -0.1706    4.5767   -3.3231 H   0  0  0  0  0  0  0  0  0  0  0  0
   -1.5985    4.5974   -2.2682 H   0  0  0  0  0  0  0  0  0  0  0  0
  1  2  1  0  0  0  0
  2  3  1  0  0  0  0
  2  4  1  0  0  0  0
  2  5  1  0  0  0  0
  5  6  2  0  0  0  0
  5  7  1  0  0  0  0
  7  8  1  0  0  0  0
  7  9  1  0  0  0  0
  9 10  1  0  0  0  0
  9 11  1  0  0  0  0
  9 25  1  0  0  0  0
 11 12  1  0  0  0  0
 11 13  1  0  0  0  0
 11 14  1  0  0  0  0
 14 15  1  0  0  0  0
 14 23  2  0  0  0  0
 15 16  1  0  0  0  0
 15 17  2  0  0  0  0
 17 18  1  0  0  0  0
 17 19  1  0  0  0  0
 19 20  1  0  0  0  0
 19 21  2  0  0  0  0
 21 22  1  0  0  0  0
 21 23  1  0  0  0  0
 23 24  1  0  0  0  0
 25 26  2  0  0  0  0
 25 27  1  0  0  0  0
 27 28  1  0  0  0  0
 27 29  1  0  0  0  0
 29 30  1  0  0  0  0
 29 31  1  0  0  0  0
 29 32  1  0  0  0  0
M  END
$$$$

  -OEChem-01062216093D

 32 32  0     1  0  0  0  0  0999 V2000
   -3.3429   -2.3205    1.0798 H   0  0  0  0  0  0  0  0  0  0  0  0
   -3.2877   -1.4669    0.3982 C   0  0  0  0  0  0  0  0  0  0  0  0
   -4.0693   -0.7518    0.6654 H   0  0  0  0  0  0  0  0  0  0  0  0
   -3.4563   -1.8200   -0.6217 H   0  0  0  0  0  0  0  0  0  0  0  0
   -1.9256   -0.8067    0.4988 C   0  0  0  0  0  0  0  0  0  0  0  0
   -1.1201   -1.2150    1.3181 O   0  0  0  0  0  0  0  0  0  0  0  0
   -1.6434    0.2850   -0.3000 N   0  0  0  0  0  0  0  0  0  0  0  0
   -2.4096    0.6567   -0.8535 H   0  0  0  0  0  0  0  0  0  0  0  0
   -0.3558    1.0027   -0.3157 C   0  0  1  0  0  0  0  0  0  0  0  0
    0.0967    0.9756    0.6823 H   0  0  0  0  0  0  0  0  0  0  0  0
    0.6285    0.3737   -1.3309 C   0  0  0  0  0  0  0  0  0  0  0  0
    0.1605    0.3366   -2.3193 H   0  0  0  0  0  0  0  0  0  0  0  0
    1.5131    1.0144   -1.4122 H   0  0  0  0  0  0  0  0  0  0  0  0
    1.0866   -1.0146   -0.9568 C   0  0  0  0  0  0  0  0  0  0  0  0
    2.1157   -1.1914   -0.0202 C   0  0  0  0  0  0  0  0  0  0  0  0
    2.5684   -0.3303    0.4617 H   0  0  0  0  0  0  0  0  0  0  0  0
    2.5577   -2.4756    0.3153 C   0  0  0  0  0  0  0  0  0  0  0  0
    3.3471   -2.6021    1.0498 H   0  0  0  0  0  0  0  0  0  0  0  0
    1.9765   -3.5953   -0.2865 C   0  0  0  0  0  0  0  0  0  0  0  0
    2.3153   -4.5917   -0.0201 H   0  0  0  0  0  0  0  0  0  0  0  0
    0.9535   -3.4298   -1.2245 C   0  0  0  0  0  0  0  0  0  0  0  0
    0.4985   -4.2998   -1.6879 H   0  0  0  0  0  0  0  0  0  0  0  0
    0.5129   -2.1450   -1.5600 C   0  0  0  0  0  0  0  0  0  0  0  0
   -0.2835   -2.0301   -2.2877 H   0  0  0  0  0  0  0  0  0  0  0  0
   -0.5862    2.4879   -0.6705 C   0  0  0  0  0  0  0  0  0  0  0  0
   -0.8955    3.2794    0.2080 O   0  0  0  0  0  0  0  0  0  0  0  0
   -0.5674    2.9348   -1.9820 N   0  0  0  0  0  0  0  0  0  0  0  0
   -0.3113    2.2680   -2.7033 H   0  0  0  0  0  0  0  0  0  0  0  0
   -0.8189    4.3204   -2.3609 C   0  0  0  0  0  0  0  0  0  0  0  0
   -0.0921    4.9860   -1.8833 H   0  0  0  0  0  0  0  0  0  0  0  0
   -0.7342    4.4378   -3.4456 H   0  0  0  0  0  0  0  0  0  0  0  0
   -1.8268    4.6234   -2.0581 H   0  0  0  0  0  0  0  0  0  0  0  0
  1  2  1  0  0  0  0
  2  3  1  0  0  0  0
  2  4  1  0  0  0  0
  2  5  1  0  0  0  0
  5  6  2  0  0  0  0
  5  7  1  0  0  0  0
  7  8  1  0  0  0  0
  7  9  1  0  0  0  0
  9 10  1  0  0  0  0
  9 11  1  0  0  0  0
  9 25  1  0  0  0  0
 11 12  1  0  0  0  0
 11 13  1  0  0  0  0
 11 14  1  0  0  0  0
 14 15  1  0  0  0  0
 14 23  2  0  0  0  0
 15 16  1  0  0  0  0
 15 17  2  0  0  0  0
 17 18  1  0  0  0  0
 17 19  1  0  0  0  0
 19 20  1  0  0  0  0
 19 21  2  0  0  0  0
 21 22  1  0  0  0  0
 21 23  1  0  0  0  0
 23 24  1  0  0  0  0
 25 26  2  0  0  0  0
 25 27  1  0  0  0  0
 27 28  1  0  0  0  0
 27 29  1  0  0  0  0
 29 30  1  0  0  0  0
 29 31  1  0  0  0  0
 29 32  1  0  0  0  0
M  END
$$$$

  -OEChem-01062216093D

 32 32  0     1  0  0  0  0  0999 V2000
   -3.3227   -2.3565    1.0941 H   0  0  0  0  0  0  0  0  0  0  0  0
   -3.2783   -1.5043    0.4100 C   0  0  0  0  0  0  0  0  0  0  0  0
   -4.0785   -0.8057    0.6658 H   0  0  0  0  0  0  0  0  0  0  0  0
   -3.4278   -1.8652   -0.6101 H   0  0  0  0  0  0  0  0  0  0  0  0
   -1.9327   -0.8131    0.5239 C   0  0  0  0  0  0  0  0  0  0  0  0
   -1.1301   -1.1970    1.3572 O   0  0  0  0  0  0  0  0  0  0  0  0
   -1.6619    0.2782   -0.2800 N   0  0  0  0  0  0  0  0  0  0  0  0
   -2.4177    0.6114   -0.8707 H   0  0  0  0  0  0  0  0  0  0  0  0
   -0.3781    1.0040   -0.3000 C   0  0  1  0  0  0  0  0  0  0  0  0
    0.0805    0.9762    0.6956 H   0  0  0  0  0  0  0  0  0  0  0  0
    0.6042    0.3908   -1.3248 C   0  0  0  0  0  0  0  0  0  0  0  0
    0.1336    0.3583   -2.3119 H   0  0  0  0  0  0  0  0  0  0  0  0
    1.4835    1.0390   -1.4060 H   0  0  0  0  0  0  0  0  0  0  0  0
    1.0708   -0.9968   -0.9584 C   0  0  0  0  0  0  0  0  0  0  0  0
    2.1040   -1.1724   -0.0266 C   0  0  0  0  0  0  0  0  0  0  0  0
    2.5540   -0.3104    0.4561 H   0  0  0  0  0  0  0  0  0  0  0  0
    2.5521   -2.4558    0.3037 C   0  0  0  0  0  0  0  0  0  0  0  0
    3.3436   -2.5809    1.0364 H   0  0  0  0  0  0  0  0  0  0  0  0
    1.9742   -3.5760   -0.3012 C   0  0  0  0  0  0  0  0  0  0  0  0
    2.3188   -4.5721   -0.0398 H   0  0  0  0  0  0  0  0  0  0  0  0
    0.9481   -3.4114   -1.2363 C   0  0  0  0  0  0  0  0  0  0  0  0
    0.4969   -4.2811   -1.7040 H   0  0  0  0  0  0  0  0  0  0  0  0
    0.5004   -2.1273   -1.5646 C   0  0  0  0  0  0  0  0  0  0  0  0
   -0.2982   -2.0130   -2.2898 H   0  0  0  0  0  0  0  0  0  0  0  0
   -0.6099    2.4862   -0.6574 C   0  0  0  0  0  0  0  0  0  0  0  0
   -0.6014    3.3384    0.2184 O   0  0  0  0  0  0  0  0  0  0  0  0
   -0.8962    2.8702   -1.9573 N   0  0  0  0  0  0  0  0  0  0  0  0
   -0.8597    2.1557   -2.6774 H   0  0  0  0  0  0  0  0  0  0  0  0
   -1.1182    4.2569   -2.3505 C   0  0  0  0  0  0  0  0  0  0  0  0
   -0.2396    4.8673   -2.1161 H   0  0  0  0  0  0  0  0  0  0  0  0
   -1.3059    4.3203   -3.4266 H   0  0  0  0  0  0  0  0  0  0  0  0
   -1.9847    4.6706   -1.8237 H   0  0  0  0  0  0  0  0  0  0  0  0
  1  2  1  0  0  0  0
  2  3  1  0  0  0  0
  2  4  1  0  0  0  0
  2  5  1  0  0  0  0
  5  6  2  0  0  0  0
  5  7  1  0  0  0  0
  7  8  1  0  0  0  0
  7  9  1  0  0  0  0
  9 10  1  0  0  0  0
  9 11  1  0  0  0  0
  9 25  1  0  0  0  0
 11 12  1  0  0  0  0
 11 13  1  0  0  0  0
 11 14  1  0  0  0  0
 14 15  1  0  0  0  0
 14 23  2  0  0  0  0
 15 16  1  0  0  0  0
 15 17  2  0  0  0  0
 17 18  1  0  0  0  0
 17 19  1  0  0  0  0
 19 20  1  0  0  0  0
 19 21  2  0  0  0  0
 21 22  1  0  0  0  0
 21 23  1  0  0  0  0
 23 24  1  0  0  0  0
 25 26  2  0  0  0  0
 25 27  1  0  0  0  0
 27 28  1  0  0  0  0
 27 29  1  0  0  0  0
 29 30  1  0  0  0  0
 29 31  1  0  0  0  0
 29 32  1  0  0  0  0
M  END
$$$$

  -OEChem-01062216093D

 32 32  0     1  0  0  0  0  0999 V2000
   -3.3074   -2.3955    1.1079 H   0  0  0  0  0  0  0  0  0  0  0  0
   -3.2731   -1.5416    0.4249 C   0  0  0  0  0  0  0  0  0  0  0  0
   -4.0885   -0.8585    0.6744 H   0  0  0  0  0  0  0  0  0  0  0  0
   -3.4066   -1.9044   -0.5969 H   0  0  0  0  0  0  0  0  0  0  0  0
   -1.9416   -0.8256    0.5516 C   0  0  0  0  0  0  0  0  0  0  0  0
   -1.1428   -1.1907    1.3968 O   0  0  0  0  0  0  0  0  0  0  0  0
   -1.6797    0.2665   -0.2548 N   0  0  0  0  0  0  0  0  0  0  0  0
   -2.4323    0.5812   -0.8586 H   0  0  0  0  0  0  0  0  0  0  0  0
   -0.4014    1.0040   -0.2703 C   0  0  1  0  0  0  0  0  0  0  0  0
    0.0599    0.9745    0.7240 H   0  0  0  0  0  0  0  0  0  0  0  0
    0.5800    0.4127   -1.3063 C   0  0  0  0  0  0  0  0  0  0  0  0
    0.1071    0.3936   -2.2927 H   0  0  0  0  0  0  0  0  0  0  0  0
    1.4549    1.0677   -1.3809 H   0  0  0  0  0  0  0  0  0  0  0  0
    1.0564   -0.9758   -0.9565 C   0  0  0  0  0  0  0  0  0  0  0  0
    2.0938   -1.1557   -0.0301 C   0  0  0  0  0  0  0  0  0  0  0  0
    2.5425   -0.2960    0.4582 H   0  0  0  0  0  0  0  0  0  0  0  0
    2.5484   -2.4404    0.2862 C   0  0  0  0  0  0  0  0  0  0  0  0
    3.3438   -2.5691    1.0139 H   0  0  0  0  0  0  0  0  0  0  0  0
    1.9730   -3.5573   -0.3268 C   0  0  0  0  0  0  0  0  0  0  0  0
    2.3229   -4.5541   -0.0762 H   0  0  0  0  0  0  0  0  0  0  0  0
    0.9428   -3.3883   -1.2565 C   0  0  0  0  0  0  0  0  0  0  0  0
    0.4941   -4.2557   -1.7306 H   0  0  0  0  0  0  0  0  0  0  0  0
    0.4883   -2.1030   -1.5709 C   0  0  0  0  0  0  0  0  0  0  0  0
   -0.3126   -1.9849   -2.2931 H   0  0  0  0  0  0  0  0  0  0  0  0
   -0.6336    2.4838   -0.6310 C   0  0  0  0  0  0  0  0  0  0  0  0
   -0.3191    3.3691    0.1503 O   0  0  0  0  0  0  0  0  0  0  0  0
   -1.2082    2.8283   -1.8436 N   0  0  0  0  0  0  0  0  0  0  0  0
   -1.3689    2.0827   -2.5130 H   0  0  0  0  0  0  0  0  0  0  0  0
   -1.4012    4.2096   -2.2690 C   0  0  0  0  0  0  0  0  0  0  0  0
   -0.4426    4.7383   -2.3019 H   0  0  0  0  0  0  0  0  0  0  0  0
   -1.8470    4.2391   -3.2679 H   0  0  0  0  0  0  0  0  0  0  0  0
   -2.0692    4.7333   -1.5769 H   0  0  0  0  0  0  0  0  0  0  0  0
  1  2  1  0  0  0  0
  2  3  1  0  0  0  0
  2  4  1  0  0  0  0
  2  5  1  0  0  0  0
  5  6  2  0  0  0  0
  5  7  1  0  0  0  0
  7  8  1  0  0  0  0
  7  9  1  0  0  0  0
  9 10  1  0  0  0  0
  9 11  1  0  0  0  0
  9 25  1  0  0  0  0
 11 12  1  0  0  0  0
 11 13  1  0  0  0  0
 11 14  1  0  0  0  0
 14 15  1  0  0  0  0
 14 23  2  0  0  0  0
 15 16  1  0  0  0  0
 15 17  2  0  0  0  0
 17 18  1  0  0  0  0
 17 19  1  0  0  0  0
 19 20  1  0  0  0  0
 19 21  2  0  0  0  0
 21 22  1  0  0  0  0
 21 23  1  0  0  0  0
 23 24  1  0  0  0  0
 25 26  2  0  0  0  0
 25 27  1  0  0  0  0
 27 28  1  0  0  0  0
 27 29  1  0  0  0  0
 29 30  1  0  0  0  0
 29 31  1  0  0  0  0
 29 32  1  0  0  0  0
M  END
$$$$

  -OEChem-01062216093D

 32 32  0     1  0  0  0  0  0999 V2000
   -3.2761   -2.4416    1.1219 H   0  0  0  0  0  0  0  0  0  0  0  0
   -3.2512   -1.5968    0.4276 C   0  0  0  0  0  0  0  0  0  0  0  0
   -4.0925   -0.9355    0.6477 H   0  0  0  0  0  0  0  0  0  0  0  0
   -3.3493   -1.9779   -0.5915 H   0  0  0  0  0  0  0  0  0  0  0  0
   -1.9443   -0.8406    0.5753 C   0  0  0  0  0  0  0  0  0  0  0  0
   -1.1518   -1.1762    1.4384 O   0  0  0  0  0  0  0  0  0  0  0  0
   -1.6972    0.2530   -0.2339 N   0  0  0  0  0  0  0  0  0  0  0  0
   -2.4381    0.5270   -0.8696 H   0  0  0  0  0  0  0  0  0  0  0  0
   -0.4243    1.0025   -0.2511 C   0  0  1  0  0  0  0  0  0  0  0  0
    0.0428    0.9697    0.7403 H   0  0  0  0  0  0  0  0  0  0  0  0
    0.5509    0.4219   -1.2968 C   0  0  0  0  0  0  0  0  0  0  0  0
    0.0701    0.4087   -2.2798 H   0  0  0  0  0  0  0  0  0  0  0  0
    1.4235    1.0800   -1.3745 H   0  0  0  0  0  0  0  0  0  0  0  0
    1.0344   -0.9655   -0.9533 C   0  0  0  0  0  0  0  0  0  0  0  0
    2.0783   -1.1414   -0.0338 C   0  0  0  0  0  0  0  0  0  0  0  0
    2.5249   -0.2799    0.4535 H   0  0  0  0  0  0  0  0  0  0  0  0
    2.5409   -2.4241    0.2783 C   0  0  0  0  0  0  0  0  0  0  0  0
    3.3409   -2.5497    1.0018 H   0  0  0  0  0  0  0  0  0  0  0  0
    1.9677   -3.5427   -0.3338 C   0  0  0  0  0  0  0  0  0  0  0  0
    2.3245   -4.5382   -0.0881 H   0  0  0  0  0  0  0  0  0  0  0  0
    0.9319   -3.3776   -1.2579 C   0  0  0  0  0  0  0  0  0  0  0  0
    0.4861   -4.2463   -1.7324 H   0  0  0  0  0  0  0  0  0  0  0  0
    0.4687   -2.0941   -1.5673 C   0  0  0  0  0  0  0  0  0  0  0  0
   -0.3361   -1.9780   -2.2856 H   0  0  0  0  0  0  0  0  0  0  0  0
   -0.6442    2.4846   -0.6105 C   0  0  0  0  0  0  0  0  0  0  0  0
   -0.0568    3.3605    0.0070 O   0  0  0  0  0  0  0  0  0  0  0  0
   -1.4762    2.8425   -1.6594 N   0  0  0  0  0  0  0  0  0  0  0  0
   -1.8333    2.0973   -2.2471 H   0  0  0  0  0  0  0  0  0  0  0  0
   -1.6524    4.2233   -2.0951 C   0  0  0  0  0  0  0  0  0  0  0  0
   -0.6991    4.6438   -2.4322 H   0  0  0  0  0  0  0  0  0  0  0  0
   -2.3651    4.2715   -2.9241 H   0  0  0  0  0  0  0  0  0  0  0  0
   -2.0376    4.8377   -1.2743 H   0  0  0  0  0  0  0  0  0  0  0  0
  1  2  1  0  0  0  0
  2  3  1  0  0  0  0
  2  4  1  0  0  0  0
  2  5  1  0  0  0  0
  5  6  2  0  0  0  0
  5  7  1  0  0  0  0
  7  8  1  0  0  0  0
  7  9  1  0  0  0  0
  9 10  1  0  0  0  0
  9 11  1  0  0  0  0
  9 25  1  0  0  0  0
 11 12  1  0  0  0  0
 11 13  1  0  0  0  0
 11 14  1  0  0  0  0
 14 15  1  0  0  0  0
 14 23  2  0  0  0  0
 15 16  1  0  0  0  0
 15 17  2  0  0  0  0
 17 18  1  0  0  0  0
 17 19  1  0  0  0  0
 19 20  1  0  0  0  0
 19 21  2  0  0  0  0
 21 22  1  0  0  0  0
 21 23  1  0  0  0  0
 23 24  1  0  0  0  0
 25 26  2  0  0  0  0
 25 27  1  0  0  0  0
 27 28  1  0  0  0  0
 27 29  1  0  0  0  0
 29 30  1  0  0  0  0
 29 31  1  0  0  0  0
 29 32  1  0  0  0  0
M  END
$$$$

  -OEChem-01062216093D

 32 32  0     1  0  0  0  0  0999 V2000
   -3.0209   -2.5743    1.0708 H   0  0  0  0  0  0  0  0  0  0  0  0
   -3.0389   -1.7564    0.3448 C   0  0  0  0  0  0  0  0  0  0  0  0
   -4.0014   -1.2442    0.4153 H   0  0  0  0  0  0  0  0  0  0  0  0
   -2.9260   -2.1765   -0.6574 H   0  0  0  0  0  0  0  0  0  0  0  0
   -1.9106   -0.7830    0.6299 C   0  0  0  0  0  0  0  0  0  0  0  0
   -1.2139   -0.9440    1.6174 O   0  0  0  0  0  0  0  0  0  0  0  0
   -1.7141    0.2980   -0.2112 N   0  0  0  0  0  0  0  0  0  0  0  0
   -2.2713    0.2794   -1.0575 H   0  0  0  0  0  0  0  0  0  0  0  0
   -0.4348    1.0394   -0.2561 C   0  0  1  0  0  0  0  0  0  0  0  0
    0.0531    1.0138    0.7250 H   0  0  0  0  0  0  0  0  0  0  0  0
    0.5076    0.4253   -1.3134 C   0  0  0  0  0  0  0  0  0  0  0  0
    0.0077    0.4077   -2.2868 H   0  0  0  0  0  0  0  0  0  0  0  0
    1.3922    1.0633   -1.4202 H   0  0  0  0  0  0  0  0  0  0  0  0
    0.9702   -0.9642   -0.9478 C   0  0  0  0  0  0  0  0  0  0  0  0
    2.0275   -1.1426   -0.0446 C   0  0  0  0  0  0  0  0  0  0  0  0
    2.5030   -0.2797    0.4126 H   0  0  0  0  0  0  0  0  0  0  0  0
    2.4657   -2.4282    0.2900 C   0  0  0  0  0  0  0  0  0  0  0  0
    3.2763   -2.5551    1.0013 H   0  0  0  0  0  0  0  0  0  0  0  0
    1.8567   -3.5471   -0.2857 C   0  0  0  0  0  0  0  0  0  0  0  0
    2.1960   -4.5445   -0.0226 H   0  0  0  0  0  0  0  0  0  0  0  0
    0.8109   -3.3793   -1.1981 C   0  0  0  0  0  0  0  0  0  0  0  0
    0.3410   -4.2483   -1.6486 H   0  0  0  0  0  0  0  0  0  0  0  0
    0.3722   -2.0930   -1.5300 C   0  0  0  0  0  0  0  0  0  0  0  0
   -0.4356   -1.9750   -2.2445 H   0  0  0  0  0  0  0  0  0  0  0  0
   -0.6231    2.5260   -0.6224 C   0  0  0  0  0  0  0  0  0  0  0  0
    0.2335    3.3404   -0.3086 O   0  0  0  0  0  0  0  0  0  0  0  0
   -1.6675    2.9392   -1.4330 N   0  0  0  0  0  0  0  0  0  0  0  0
   -2.4126    2.2745   -1.6040 H   0  0  0  0  0  0  0  0  0  0  0  0
   -1.8655    4.3298   -1.8257 C   0  0  0  0  0  0  0  0  0  0  0  0
   -0.9963    4.6992   -2.3804 H   0  0  0  0  0  0  0  0  0  0  0  0
   -2.7472    4.4200   -2.4674 H   0  0  0  0  0  0  0  0  0  0  0  0
   -2.0129    4.9602   -0.9425 H   0  0  0  0  0  0  0  0  0  0  0  0
  1  2  1  0  0  0  0
  2  3  1  0  0  0  0
  2  4  1  0  0  0  0
  2  5  1  0  0  0  0
  5  6  2  0  0  0  0
  5  7  1  0  0  0  0
  7  8  1  0  0  0  0
  7  9  1  0  0  0  0
  9 10  1  0  0  0  0
  9 11  1  0  0  0  0
  9 25  1  0  0  0  0
 11 12  1  0  0  0  0
 11 13  1  0  0  0  0
 11 14  1  0  0  0  0
 14 15  1  0  0  0  0
 14 23  2  0  0  0  0
 15 16  1  0  0  0  0
 15 17  2  0  0  0  0
 17 18  1  0  0  0  0
 17 19  1  0  0  0  0
 19 20  1  0  0  0  0
 19 21  2  0  0  0  0
 21 22  1  0  0  0  0
 21 23  1  0  0  0  0
 23 24  1  0  0  0  0
 25 26  2  0  0  0  0
 25 27  1  0  0  0  0
 27 28  1  0  0  0  0
 27 29  1  0  0  0  0
 29 30  1  0  0  0  0
 29 31  1  0  0  0  0
 29 32  1  0  0  0  0
M  END
$$$$

  -OEChem-01062216093D

 32 32  0     1  0  0  0  0  0999 V2000
   -2.9726   -2.5919    1.0396 H   0  0  0  0  0  0  0  0  0  0  0  0
   -2.9985   -1.7720    0.3162 C   0  0  0  0  0  0  0  0  0  0  0  0
   -3.9738   -1.2829    0.3719 H   0  0  0  0  0  0  0  0  0  0  0  0
   -2.8592   -2.1855   -0.6853 H   0  0  0  0  0  0  0  0  0  0  0  0
   -1.8988   -0.7734    0.6236 C   0  0  0  0  0  0  0  0  0  0  0  0
   -1.2258   -0.9106    1.6309 O   0  0  0  0  0  0  0  0  0  0  0  0
   -1.7051    0.3088   -0.2162 N   0  0  0  0  0  0  0  0  0  0  0  0
   -2.2329    0.2651   -1.0815 H   0  0  0  0  0  0  0  0  0  0  0  0
   -0.4240    1.0475   -0.2597 C   0  0  1  0  0  0  0  0  0  0  0  0
    0.0659    1.0230    0.7203 H   0  0  0  0  0  0  0  0  0  0  0  0
    0.5122    0.4221   -1.3178 C   0  0  0  0  0  0  0  0  0  0  0  0
    0.0095    0.4059   -2.2898 H   0  0  0  0  0  0  0  0  0  0  0  0
    1.4022    1.0509   -1.4297 H   0  0  0  0  0  0  0  0  0  0  0  0
    0.9658   -0.9697   -0.9474 C   0  0  0  0  0  0  0  0  0  0  0  0
    2.0238   -1.1517   -0.0457 C   0  0  0  0  0  0  0  0  0  0  0  0
    2.5063   -0.2901    0.4065 H   0  0  0  0  0  0  0  0  0  0  0  0
    2.4544   -2.4390    0.2929 C   0  0  0  0  0  0  0  0  0  0  0  0
    3.2658   -2.5684    1.0027 H   0  0  0  0  0  0  0  0  0  0  0  0
    1.8373   -3.5566   -0.2767 C   0  0  0  0  0  0  0  0  0  0  0  0
    2.1708   -4.5552   -0.0101 H   0  0  0  0  0  0  0  0  0  0  0  0
    0.7920   -3.3856   -1.1890 C   0  0  0  0  0  0  0  0  0  0  0  0
    0.3172   -4.2535   -1.6363 H   0  0  0  0  0  0  0  0  0  0  0  0
    0.3611   -2.0976   -1.5252 C   0  0  0  0  0  0  0  0  0  0  0  0
   -0.4461   -1.9771   -2.2400 H   0  0  0  0  0  0  0  0  0  0  0  0
   -0.6207    2.5352   -0.6226 C   0  0  0  0  0  0  0  0  0  0  0  0
    0.3221    3.3120   -0.5564 O   0  0  0  0  0  0  0  0  0  0  0  0
   -1.8161    2.9823   -1.1594 N   0  0  0  0  0  0  0  0  0  0  0  0
   -2.6159    2.3695   -1.0440 H   0  0  0  0  0  0  0  0  0  0  0  0
   -2.0544    4.3790   -1.5041 C   0  0  0  0  0  0  0  0  0  0  0  0
   -1.3244    4.7206   -2.2455 H   0  0  0  0  0  0  0  0  0  0  0  0
   -3.0558    4.4987   -1.9285 H   0  0  0  0  0  0  0  0  0  0  0  0
   -1.9756    5.0121   -0.6140 H   0  0  0  0  0  0  0  0  0  0  0  0
  1  2  1  0  0  0  0
  2  3  1  0  0  0  0
  2  4  1  0  0  0  0
  2  5  1  0  0  0  0
  5  6  2  0  0  0  0
  5  7  1  0  0  0  0
  7  8  1  0  0  0  0
  7  9  1  0  0  0  0
  9 10  1  0  0  0  0
  9 11  1  0  0  0  0
  9 25  1  0  0  0  0
 11 12  1  0  0  0  0
 11 13  1  0  0  0  0
 11 14  1  0  0  0  0
 14 15  1  0  0  0  0
 14 23  2  0  0  0  0
 15 16  1  0  0  0  0
 15 17  2  0  0  0  0
 17 18  1  0  0  0  0
 17 19  1  0  0  0  0
 19 20  1  0  0  0  0
 19 21  2  0  0  0  0
 21 22  1  0  0  0  0
 21 23  1  0  0  0  0
 23 24  1  0  0  0  0
 25 26  2  0  0  0  0
 25 27  1  0  0  0  0
 27 28  1  0  0  0  0
 27 29  1  0  0  0  0
 29 30  1  0  0  0  0
 29 31  1  0  0  0  0
 29 32  1  0  0  0  0
M  END
$$$$

  -OEChem-01062216093D

 32 32  0     1  0  0  0  0  0999 V2000
   -2.9655   -2.5988    1.0010 H   0  0  0  0  0  0  0  0  0  0  0  0
   -3.0050   -1.7587    0.3019 C   0  0  0  0  0  0  0  0  0  0  0  0
   -3.9752   -1.2657    0.3970 H   0  0  0  0  0  0  0  0  0  0  0  0
   -2.8954   -2.1451   -0.7140 H   0  0  0  0  0  0  0  0  0  0  0  0
   -1.8913   -0.7749    0.6079 C   0  0  0  0  0  0  0  0  0  0  0  0
   -1.2212   -0.9169    1.6165 O   0  0  0  0  0  0  0  0  0  0  0  0
   -1.6915    0.3119   -0.2241 N   0  0  0  0  0  0  0  0  0  0  0  0
   -2.2306    0.2911   -1.0844 H   0  0  0  0  0  0  0  0  0  0  0  0
   -0.4091    1.0491   -0.2669 C   0  0  1  0  0  0  0  0  0  0  0  0
    0.0802    1.0235    0.7129 H   0  0  0  0  0  0  0  0  0  0  0  0
    0.5256    0.4150   -1.3237 C   0  0  0  0  0  0  0  0  0  0  0  0
    0.0209    0.3964   -2.2948 H   0  0  0  0  0  0  0  0  0  0  0  0
    1.4197    1.0367   -1.4414 H   0  0  0  0  0  0  0  0  0  0  0  0
    0.9744   -0.9769   -0.9482 C   0  0  0  0  0  0  0  0  0  0  0  0
    2.0322   -1.1599   -0.0463 C   0  0  0  0  0  0  0  0  0  0  0  0
    2.5184   -0.2990    0.4029 H   0  0  0  0  0  0  0  0  0  0  0  0
    2.4592   -2.4474    0.2954 C   0  0  0  0  0  0  0  0  0  0  0  0
    3.2705   -2.5781    1.0054 H   0  0  0  0  0  0  0  0  0  0  0  0
    1.8387   -3.5641   -0.2722 C   0  0  0  0  0  0  0  0  0  0  0  0
    2.1698   -4.5629   -0.0043 H   0  0  0  0  0  0  0  0  0  0  0  0
    0.7931   -3.3922   -1.1839 C   0  0  0  0  0  0  0  0  0  0  0  0
    0.3147   -4.2596   -1.6283 H   0  0  0  0  0  0  0  0  0  0  0  0
    0.3664   -2.1038   -1.5233 C   0  0  0  0  0  0  0  0  0  0  0  0
   -0.4402   -1.9817   -2.2385 H   0  0  0  0  0  0  0  0  0  0  0  0
   -0.6183    2.5387   -0.6226 C   0  0  0  0  0  0  0  0  0  0  0  0
    0.3397    3.2825   -0.7854 O   0  0  0  0  0  0  0  0  0  0  0  0
   -1.8907    3.0322   -0.8542 N   0  0  0  0  0  0  0  0  0  0  0  0
   -2.6579    2.4456   -0.5410 H   0  0  0  0  0  0  0  0  0  0  0  0
   -2.1589    4.4352   -1.1471 C   0  0  0  0  0  0  0  0  0  0  0  0
   -1.6077    4.7529   -2.0386 H   0  0  0  0  0  0  0  0  0  0  0  0
   -3.2268    4.5853   -1.3324 H   0  0  0  0  0  0  0  0  0  0  0  0
   -1.8597    5.0673   -0.3045 H   0  0  0  0  0  0  0  0  0  0  0  0
  1  2  1  0  0  0  0
  2  3  1  0  0  0  0
  2  4  1  0  0  0  0
  2  5  1  0  0  0  0
  5  6  2  0  0  0  0
  5  7  1  0  0  0  0
  7  8  1  0  0  0  0
  7  9  1  0  0  0  0
  9 10  1  0  0  0  0
  9 11  1  0  0  0  0
  9 25  1  0  0  0  0
 11 12  1  0  0  0  0
 11 13  1  0  0  0  0
 11 14  1  0  0  0  0
 14 15  1  0  0  0  0
 14 23  2  0  0  0  0
 15 16  1  0  0  0  0
 15 17  2  0  0  0  0
 17 18  1  0  0  0  0
 17 19  1  0  0  0  0
 19 20  1  0  0  0  0
 19 21  2  0  0  0  0
 21 22  1  0  0  0  0
 21 23  1  0  0  0  0
 23 24  1  0  0  0  0
 25 26  2  0  0  0  0
 25 27  1  0  0  0  0
 27 28  1  0  0  0  0
 27 29  1  0  0  0  0
 29 30  1  0  0  0  0
 29 31  1  0  0  0  0
 29 32  1  0  0  0  0
M  END
$$$$

  -OEChem-01062216093D

 32 32  0     1  0  0  0  0  0999 V2000
   -2.9594   -2.5952    0.9746 H   0  0  0  0  0  0  0  0  0  0  0  0
   -3.0001   -1.7478    0.2844 C   0  0  0  0  0  0  0  0  0  0  0  0
   -3.9697   -1.2550    0.3873 H   0  0  0  0  0  0  0  0  0  0  0  0
   -2.8931   -2.1231   -0.7361 H   0  0  0  0  0  0  0  0  0  0  0  0
   -1.8842   -0.7689    0.5974 C   0  0  0  0  0  0  0  0  0  0  0  0
   -1.2130   -0.9186    1.6043 O   0  0  0  0  0  0  0  0  0  0  0  0
   -1.6801    0.3220   -0.2271 N   0  0  0  0  0  0  0  0  0  0  0  0
   -2.2330    0.3248   -1.0792 H   0  0  0  0  0  0  0  0  0  0  0  0
   -0.3957    1.0546   -0.2702 C   0  0  1  0  0  0  0  0  0  0  0  0
    0.0947    1.0274    0.7091 H   0  0  0  0  0  0  0  0  0  0  0  0
    0.5354    0.4103   -1.3261 C   0  0  0  0  0  0  0  0  0  0  0  0
    0.0299    0.3929   -2.2969 H   0  0  0  0  0  0  0  0  0  0  0  0
    1.4346    1.0238   -1.4465 H   0  0  0  0  0  0  0  0  0  0  0  0
    0.9782   -0.9834   -0.9477 C   0  0  0  0  0  0  0  0  0  0  0  0
    2.0365   -1.1687   -0.0469 C   0  0  0  0  0  0  0  0  0  0  0  0
    2.5262   -0.3084    0.3995 H   0  0  0  0  0  0  0  0  0  0  0  0
    2.4596   -2.4571    0.2965 C   0  0  0  0  0  0  0  0  0  0  0  0
    3.2720   -2.5887    1.0049 H   0  0  0  0  0  0  0  0  0  0  0  0
    1.8340   -3.5730   -0.2675 C   0  0  0  0  0  0  0  0  0  0  0  0
    2.1613   -4.5727    0.0021 H   0  0  0  0  0  0  0  0  0  0  0  0
    0.7883   -3.3989   -1.1787 C   0  0  0  0  0  0  0  0  0  0  0  0
    0.3068   -4.2651   -1.6221 H   0  0  0  0  0  0  0  0  0  0  0  0
    0.3656   -2.1097   -1.5198 C   0  0  0  0  0  0  0  0  0  0  0  0
   -0.4412   -1.9871   -2.2346 H   0  0  0  0  0  0  0  0  0  0  0  0
   -0.6183    2.5460   -0.6178 C   0  0  0  0  0  0  0  0  0  0  0  0
    0.2987    3.2506   -1.0185 O   0  0  0  0  0  0  0  0  0  0  0  0
   -1.8862    3.0951   -0.5345 N   0  0  0  0  0  0  0  0  0  0  0  0
   -2.5885    2.5300   -0.0655 H   0  0  0  0  0  0  0  0  0  0  0  0
   -2.1666    4.5042   -0.7843 C   0  0  0  0  0  0  0  0  0  0  0  0
   -1.8452    4.7861   -1.7927 H   0  0  0  0  0  0  0  0  0  0  0  0
   -3.2402    4.6977   -0.6990 H   0  0  0  0  0  0  0  0  0  0  0  0
   -1.6410    5.1337   -0.0588 H   0  0  0  0  0  0  0  0  0  0  0  0
  1  2  1  0  0  0  0
  2  3  1  0  0  0  0
  2  4  1  0  0  0  0
  2  5  1  0  0  0  0
  5  6  2  0  0  0  0
  5  7  1  0  0  0  0
  7  8  1  0  0  0  0
  7  9  1  0  0  0  0
  9 10  1  0  0  0  0
  9 11  1  0  0  0  0
  9 25  1  0  0  0  0
 11 12  1  0  0  0  0
 11 13  1  0  0  0  0
 11 14  1  0  0  0  0
 14 15  1  0  0  0  0
 14 23  2  0  0  0  0
 15 16  1  0  0  0  0
 15 17  2  0  0  0  0
 17 18  1  0  0  0  0
 17 19  1  0  0  0  0
 19 20  1  0  0  0  0
 19 21  2  0  0  0  0
 21 22  1  0  0  0  0
 21 23  1  0  0  0  0
 23 24  1  0  0  0  0
 25 26  2  0  0  0  0
 25 27  1  0  0  0  0
 27 28  1  0  0  0  0
 27 29  1  0  0  0  0
 29 30  1  0  0  0  0
 29 31  1  0  0  0  0
 29 32  1  0  0  0  0
M  END
$$$$

  -OEChem-01062216093D

 32 32  0     1  0  0  0  0  0999 V2000
   -2.9719   -2.5769    0.9623 H   0  0  0  0  0  0  0  0  0  0  0  0
   -3.0037   -1.7289    0.2724 C   0  0  0  0  0  0  0  0  0  0  0  0
   -3.9691   -1.2277    0.3735 H   0  0  0  0  0  0  0  0  0  0  0  0
   -2.8982   -2.1050   -0.7479 H   0  0  0  0  0  0  0  0  0  0  0  0
   -1.8794   -0.7605    0.5876 C   0  0  0  0  0  0  0  0  0  0  0  0
   -1.2086   -0.9178    1.5938 O   0  0  0  0  0  0  0  0  0  0  0  0
   -1.6675    0.3346   -0.2290 N   0  0  0  0  0  0  0  0  0  0  0  0
   -2.2341    0.3625   -1.0720 H   0  0  0  0  0  0  0  0  0  0  0  0
   -0.3792    1.0586   -0.2721 C   0  0  1  0  0  0  0  0  0  0  0  0
    0.1114    1.0281    0.7066 H   0  0  0  0  0  0  0  0  0  0  0  0
    0.5517    0.4095   -1.3260 C   0  0  0  0  0  0  0  0  0  0  0  0
    0.0492    0.3956   -2.2984 H   0  0  0  0  0  0  0  0  0  0  0  0
    1.4541    1.0191   -1.4419 H   0  0  0  0  0  0  0  0  0  0  0  0
    0.9880   -0.9860   -0.9477 C   0  0  0  0  0  0  0  0  0  0  0  0
    2.0439   -1.1774   -0.0454 C   0  0  0  0  0  0  0  0  0  0  0  0
    2.5391   -0.3202    0.4008 H   0  0  0  0  0  0  0  0  0  0  0  0
    2.4593   -2.4683    0.2979 C   0  0  0  0  0  0  0  0  0  0  0  0
    3.2706   -2.6050    1.0068 H   0  0  0  0  0  0  0  0  0  0  0  0
    1.8278   -3.5805   -0.2669 C   0  0  0  0  0  0  0  0  0  0  0  0
    2.1494   -4.5821    0.0023 H   0  0  0  0  0  0  0  0  0  0  0  0
    0.7836   -3.4003   -1.1788 C   0  0  0  0  0  0  0  0  0  0  0  0
    0.2972   -4.2635   -1.6229 H   0  0  0  0  0  0  0  0  0  0  0  0
    0.3689   -2.1085   -1.5200 C   0  0  0  0  0  0  0  0  0  0  0  0
   -0.4374   -1.9802   -2.2348 H   0  0  0  0  0  0  0  0  0  0  0  0
   -0.6130    2.5508   -0.6102 C   0  0  0  0  0  0  0  0  0  0  0  0
    0.2006    3.2075   -1.2471 O   0  0  0  0  0  0  0  0  0  0  0  0
   -1.7937    3.1593   -0.2230 N   0  0  0  0  0  0  0  0  0  0  0  0
   -2.4047    2.6170    0.3819 H   0  0  0  0  0  0  0  0  0  0  0  0
   -2.0840    4.5710   -0.4443 C   0  0  0  0  0  0  0  0  0  0  0  0
   -2.0388    4.8088   -1.5122 H   0  0  0  0  0  0  0  0  0  0  0  0
   -3.0870    4.8128   -0.0801 H   0  0  0  0  0  0  0  0  0  0  0  0
   -1.3609    5.1985    0.0869 H   0  0  0  0  0  0  0  0  0  0  0  0
  1  2  1  0  0  0  0
  2  3  1  0  0  0  0
  2  4  1  0  0  0  0
  2  5  1  0  0  0  0
  5  6  2  0  0  0  0
  5  7  1  0  0  0  0
  7  8  1  0  0  0  0
  7  9  1  0  0  0  0
  9 10  1  0  0  0  0
  9 11  1  0  0  0  0
  9 25  1  0  0  0  0
 11 12  1  0  0  0  0
 11 13  1  0  0  0  0
 11 14  1  0  0  0  0
 14 15  1  0  0  0  0
 14 23  2  0  0  0  0
 15 16  1  0  0  0  0
 15 17  2  0  0  0  0
 17 18  1  0  0  0  0
 17 19  1  0  0  0  0
 19 20  1  0  0  0  0
 19 21  2  0  0  0  0
 21 22  1  0  0  0  0
 21 23  1  0  0  0  0
 23 24  1  0  0  0  0
 25 26  2  0  0  0  0
 25 27  1  0  0  0  0
 27 28  1  0  0  0  0
 27 29  1  0  0  0  0
 29 30  1  0  0  0  0
 29 31  1  0  0  0  0
 29 32  1  0  0  0  0
M  END
$$$$

  -OEChem-01062216093D

 32 32  0     1  0  0  0  0  0999 V2000
   -3.0104   -2.5402    0.9627 H   0  0  0  0  0  0  0  0  0  0  0  0
   -3.0240   -1.6933    0.2707 C   0  0  0  0  0  0  0  0  0  0  0  0
   -3.9760   -1.1675    0.3741 H   0  0  0  0  0  0  0  0  0  0  0  0
   -2.9318   -2.0733   -0.7495 H   0  0  0  0  0  0  0  0  0  0  0  0
   -1.8751   -0.7521    0.5788 C   0  0  0  0  0  0  0  0  0  0  0  0
   -1.2005   -0.9256    1.5800 O   0  0  0  0  0  0  0  0  0  0  0  0
   -1.6522    0.3466   -0.2291 N   0  0  0  0  0  0  0  0  0  0  0  0
   -2.2304    0.3992   -1.0631 H   0  0  0  0  0  0  0  0  0  0  0  0
   -0.3592    1.0592   -0.2719 C   0  0  1  0  0  0  0  0  0  0  0  0
    0.1316    1.0228    0.7064 H   0  0  0  0  0  0  0  0  0  0  0  0
    0.5728    0.4109   -1.3250 C   0  0  0  0  0  0  0  0  0  0  0  0
    0.0726    0.4010   -2.2987 H   0  0  0  0  0  0  0  0  0  0  0  0
    1.4756    1.0214   -1.4363 H   0  0  0  0  0  0  0  0  0  0  0  0
    1.0028   -0.9879   -0.9498 C   0  0  0  0  0  0  0  0  0  0  0  0
    2.0549   -1.1869   -0.0441 C   0  0  0  0  0  0  0  0  0  0  0  0
    2.5533   -0.3336    0.4059 H   0  0  0  0  0  0  0  0  0  0  0  0
    2.4616   -2.4806    0.2997 C   0  0  0  0  0  0  0  0  0  0  0  0
    3.2684   -2.6232    1.0122 H   0  0  0  0  0  0  0  0  0  0  0  0
    1.8266   -3.5883   -0.2695 C   0  0  0  0  0  0  0  0  0  0  0  0
    2.1414   -4.5921   -0.0003 H   0  0  0  0  0  0  0  0  0  0  0  0
    0.7877   -3.4009   -1.1861 C   0  0  0  0  0  0  0  0  0  0  0  0
    0.2993   -4.2615   -1.6331 H   0  0  0  0  0  0  0  0  0  0  0  0
    0.3808   -2.1064   -1.5273 C   0  0  0  0  0  0  0  0  0  0  0  0
   -0.4218   -1.9732   -2.2454 H   0  0  0  0  0  0  0  0  0  0  0  0
   -0.6005    2.5514   -0.5995 C   0  0  0  0  0  0  0  0  0  0  0  0
    0.0420    3.1493   -1.4534 O   0  0  0  0  0  0  0  0  0  0  0  0
   -1.6148    3.2236    0.0577 N   0  0  0  0  0  0  0  0  0  0  0  0
   -2.1081    2.7100    0.7836 H   0  0  0  0  0  0  0  0  0  0  0  0
   -1.9221    4.6332   -0.1519 C   0  0  0  0  0  0  0  0  0  0  0  0
   -2.1702    4.8197   -1.2020 H   0  0  0  0  0  0  0  0  0  0  0  0
   -2.7783    4.9285    0.4620 H   0  0  0  0  0  0  0  0  0  0  0  0
   -1.0655    5.2568    0.1243 H   0  0  0  0  0  0  0  0  0  0  0  0
  1  2  1  0  0  0  0
  2  3  1  0  0  0  0
  2  4  1  0  0  0  0
  2  5  1  0  0  0  0
  5  6  2  0  0  0  0
  5  7  1  0  0  0  0
  7  8  1  0  0  0  0
  7  9  1  0  0  0  0
  9 10  1  0  0  0  0
  9 11  1  0  0  0  0
  9 25  1  0  0  0  0
 11 12  1  0  0  0  0
 11 13  1  0  0  0  0
 11 14  1  0  0  0  0
 14 15  1  0  0  0  0
 14 23  2  0  0  0  0
 15 16  1  0  0  0  0
 15 17  2  0  0  0  0
 17 18  1  0  0  0  0
 17 19  1  0  0  0  0
 19 20  1  0  0  0  0
 19 21  2  0  0  0  0
 21 22  1  0  0  0  0
 21 23  1  0  0  0  0
 23 24  1  0  0  0  0
 25 26  2  0  0  0  0
 25 27  1  0  0  0  0
 27 28  1  0  0  0  0
 27 29  1  0  0  0  0
 29 30  1  0  0  0  0
 29 31  1  0  0  0  0
 29 32  1  0  0  0  0
M  END
$$$$

  -OEChem-01062216093D

 32 32  0     1  0  0  0  0  0999 V2000
   -3.0429   -2.5136    0.9624 H   0  0  0  0  0  0  0  0  0  0  0  0
   -3.0438   -1.6650    0.2725 C   0  0  0  0  0  0  0  0  0  0  0  0
   -3.9832   -1.1186    0.3848 H   0  0  0  0  0  0  0  0  0  0  0  0
   -2.9691   -2.0444   -0.7493 H   0  0  0  0  0  0  0  0  0  0  0  0
   -1.8722   -0.7495    0.5733 C   0  0  0  0  0  0  0  0  0  0  0  0
   -1.1900   -0.9419    1.5663 O   0  0  0  0  0  0  0  0  0  0  0  0
   -1.6387    0.3517   -0.2275 N   0  0  0  0  0  0  0  0  0  0  0  0
   -2.2272    0.4282   -1.0526 H   0  0  0  0  0  0  0  0  0  0  0  0
   -0.3435    1.0567   -0.2666 C   0  0  1  0  0  0  0  0  0  0  0  0
    0.1475    1.0129    0.7114 H   0  0  0  0  0  0  0  0  0  0  0  0
    0.5903    0.4134   -1.3205 C   0  0  0  0  0  0  0  0  0  0  0  0
    0.0920    0.4063   -2.2954 H   0  0  0  0  0  0  0  0  0  0  0  0
    1.4911    1.0279   -1.4273 H   0  0  0  0  0  0  0  0  0  0  0  0
    1.0158   -0.9880   -0.9512 C   0  0  0  0  0  0  0  0  0  0  0  0
    2.0644   -1.1933   -0.0432 C   0  0  0  0  0  0  0  0  0  0  0  0
    2.5653   -0.3436    0.4104 H   0  0  0  0  0  0  0  0  0  0  0  0
    2.4647   -2.4895    0.2982 C   0  0  0  0  0  0  0  0  0  0  0  0
    3.2690   -2.6374    1.0123 H   0  0  0  0  0  0  0  0  0  0  0  0
    1.8260   -3.5933   -0.2746 C   0  0  0  0  0  0  0  0  0  0  0  0
    2.1355   -4.5992   -0.0063 H   0  0  0  0  0  0  0  0  0  0  0  0
    0.7897   -3.3992   -1.1927 C   0  0  0  0  0  0  0  0  0  0  0  0
    0.2975   -4.2564   -1.6420 H   0  0  0  0  0  0  0  0  0  0  0  0
    0.3896   -2.1022   -1.5322 C   0  0  0  0  0  0  0  0  0  0  0  0
   -0.4121   -1.9631   -2.2503 H   0  0  0  0  0  0  0  0  0  0  0  0
   -0.5839    2.5484   -0.5873 C   0  0  0  0  0  0  0  0  0  0  0  0
   -0.1521    3.0800   -1.6027 O   0  0  0  0  0  0  0  0  0  0  0  0
   -1.3662    3.2939    0.2751 N   0  0  0  0  0  0  0  0  0  0  0  0
   -1.7283    2.8176    1.0975 H   0  0  0  0  0  0  0  0  0  0  0  0
   -1.6845    4.7015    0.0697 C   0  0  0  0  0  0  0  0  0  0  0  0
   -2.2064    4.8418   -0.8827 H   0  0  0  0  0  0  0  0  0  0  0  0
   -2.3316    5.0639    0.8743 H   0  0  0  0  0  0  0  0  0  0  0  0
   -0.7699    5.3038    0.0632 H   0  0  0  0  0  0  0  0  0  0  0  0
  1  2  1  0  0  0  0
  2  3  1  0  0  0  0
  2  4  1  0  0  0  0
  2  5  1  0  0  0  0
  5  6  2  0  0  0  0
  5  7  1  0  0  0  0
  7  8  1  0  0  0  0
  7  9  1  0  0  0  0
  9 10  1  0  0  0  0
  9 11  1  0  0  0  0
  9 25  1  0  0  0  0
 11 12  1  0  0  0  0
 11 13  1  0  0  0  0
 11 14  1  0  0  0  0
 14 15  1  0  0  0  0
 14 23  2  0  0  0  0
 15 16  1  0  0  0  0
 15 17  2  0  0  0  0
 17 18  1  0  0  0  0
 17 19  1  0  0  0  0
 19 20  1  0  0  0  0
 19 21  2  0  0  0  0
 21 22  1  0  0  0  0
 21 23  1  0  0  0  0
 23 24  1  0  0  0  0
 25 26  2  0  0  0  0
 25 27  1  0  0  0  0
 27 28  1  0  0  0  0
 27 29  1  0  0  0  0
 29 30  1  0  0  0  0
 29 31  1  0  0  0  0
 29 32  1  0  0  0  0
M  END
$$$$

  -OEChem-01062216093D

 32 32  0     1  0  0  0  0  0999 V2000
   -3.0428   -2.5071    0.9669 H   0  0  0  0  0  0  0  0  0  0  0  0
   -3.0366   -1.6628    0.2717 C   0  0  0  0  0  0  0  0  0  0  0  0
   -3.9794   -1.1192    0.3667 H   0  0  0  0  0  0  0  0  0  0  0  0
   -2.9459   -2.0484   -0.7464 H   0  0  0  0  0  0  0  0  0  0  0  0
   -1.8717   -0.7422    0.5823 C   0  0  0  0  0  0  0  0  0  0  0  0
   -1.1904   -0.9386    1.5756 O   0  0  0  0  0  0  0  0  0  0  0  0
   -1.6317    0.3576   -0.2185 N   0  0  0  0  0  0  0  0  0  0  0  0
   -2.2182    0.4416   -1.0445 H   0  0  0  0  0  0  0  0  0  0  0  0
   -0.3352    1.0574   -0.2511 C   0  0  1  0  0  0  0  0  0  0  0  0
    0.1551    1.0082    0.7269 H   0  0  0  0  0  0  0  0  0  0  0  0
    0.5986    0.4187   -1.3063 C   0  0  0  0  0  0  0  0  0  0  0  0
    0.1011    0.4155   -2.2818 H   0  0  0  0  0  0  0  0  0  0  0  0
    1.4983    1.0346   -1.4093 H   0  0  0  0  0  0  0  0  0  0  0  0
    1.0192   -0.9865   -0.9450 C   0  0  0  0  0  0  0  0  0  0  0  0
    2.0648   -1.2042   -0.0360 C   0  0  0  0  0  0  0  0  0  0  0  0
    2.5678   -0.3608    0.4269 H   0  0  0  0  0  0  0  0  0  0  0  0
    2.4581   -2.5053    0.2951 C   0  0  0  0  0  0  0  0  0  0  0  0
    3.2604   -2.6636    1.0093 H   0  0  0  0  0  0  0  0  0  0  0  0
    1.8156   -3.6009   -0.2886 C   0  0  0  0  0  0  0  0  0  0  0  0
    2.1197   -4.6102   -0.0282 H   0  0  0  0  0  0  0  0  0  0  0  0
    0.7819   -3.3947   -1.2066 C   0  0  0  0  0  0  0  0  0  0  0  0
    0.2860   -4.2457   -1.6633 H   0  0  0  0  0  0  0  0  0  0  0  0
    0.3885   -2.0931   -1.5357 C   0  0  0  0  0  0  0  0  0  0  0  0
   -0.4116   -1.9436   -2.2536 H   0  0  0  0  0  0  0  0  0  0  0  0
   -0.5669    2.5484   -0.5736 C   0  0  0  0  0  0  0  0  0  0  0  0
   -0.3762    3.0077   -1.6932 O   0  0  0  0  0  0  0  0  0  0  0  0
   -1.0722    3.3745    0.4128 N   0  0  0  0  0  0  0  0  0  0  0  0
   -1.2887    2.9463    1.3095 H   0  0  0  0  0  0  0  0  0  0  0  0
   -1.3868    4.7824    0.2036 C   0  0  0  0  0  0  0  0  0  0  0  0
   -2.1565    4.8930   -0.5675 H   0  0  0  0  0  0  0  0  0  0  0  0
   -1.7593    5.2281    1.1309 H   0  0  0  0  0  0  0  0  0  0  0  0
   -0.4925    5.3322   -0.1088 H   0  0  0  0  0  0  0  0  0  0  0  0
  1  2  1  0  0  0  0
  2  3  1  0  0  0  0
  2  4  1  0  0  0  0
  2  5  1  0  0  0  0
  5  6  2  0  0  0  0
  5  7  1  0  0  0  0
  7  8  1  0  0  0  0
  7  9  1  0  0  0  0
  9 10  1  0  0  0  0
  9 11  1  0  0  0  0
  9 25  1  0  0  0  0
 11 12  1  0  0  0  0
 11 13  1  0  0  0  0
 11 14  1  0  0  0  0
 14 15  1  0  0  0  0
 14 23  2  0  0  0  0
 15 16  1  0  0  0  0
 15 17  2  0  0  0  0
 17 18  1  0  0  0  0
 17 19  1  0  0  0  0
 19 20  1  0  0  0  0
 19 21  2  0  0  0  0
 21 22  1  0  0  0  0
 21 23  1  0  0  0  0
 23 24  1  0  0  0  0
 25 26  2  0  0  0  0
 25 27  1  0  0  0  0
 27 28  1  0  0  0  0
 27 29  1  0  0  0  0
 29 30  1  0  0  0  0
 29 31  1  0  0  0  0
 29 32  1  0  0  0  0
M  END
$$$$

  -OEChem-01062216093D

 32 32  0     1  0  0  0  0  0999 V2000
   -3.0882   -2.4835    0.9745 H   0  0  0  0  0  0  0  0  0  0  0  0
   -3.0663   -1.6388    0.2801 C   0  0  0  0  0  0  0  0  0  0  0  0
   -3.9939   -1.0711    0.3843 H   0  0  0  0  0  0  0  0  0  0  0  0
   -2.9943   -2.0252   -0.7393 H   0  0  0  0  0  0  0  0  0  0  0  0
   -1.8762   -0.7478    0.5813 C   0  0  0  0  0  0  0  0  0  0  0  0
   -1.1858   -0.9675    1.5637 O   0  0  0  0  0  0  0  0  0  0  0  0
   -1.6221    0.3510   -0.2161 N   0  0  0  0  0  0  0  0  0  0  0  0
   -2.2192    0.4632   -1.0314 H   0  0  0  0  0  0  0  0  0  0  0  0
   -0.3258    1.0488   -0.2408 C   0  0  1  0  0  0  0  0  0  0  0  0
    0.1606    0.9923    0.7386 H   0  0  0  0  0  0  0  0  0  0  0  0
    0.6123    0.4202   -1.2970 C   0  0  0  0  0  0  0  0  0  0  0  0
    0.1177    0.4216   -2.2740 H   0  0  0  0  0  0  0  0  0  0  0  0
    1.5106    1.0391   -1.3940 H   0  0  0  0  0  0  0  0  0  0  0  0
    1.0318   -0.9869   -0.9440 C   0  0  0  0  0  0  0  0  0  0  0  0
    2.0735   -1.2105   -0.0322 C   0  0  0  0  0  0  0  0  0  0  0  0
    2.5751   -0.3705    0.4378 H   0  0  0  0  0  0  0  0  0  0  0  0
    2.4647   -2.5137    0.2930 C   0  0  0  0  0  0  0  0  0  0  0  0
    3.2636   -2.6768    1.0100 H   0  0  0  0  0  0  0  0  0  0  0  0
    1.8234   -3.6053   -0.2998 C   0  0  0  0  0  0  0  0  0  0  0  0
    2.1256   -4.6165   -0.0446 H   0  0  0  0  0  0  0  0  0  0  0  0
    0.7928   -3.3930   -1.2201 C   0  0  0  0  0  0  0  0  0  0  0  0
    0.2965   -4.2405   -1.6830 H   0  0  0  0  0  0  0  0  0  0  0  0
    0.4019   -2.0892   -1.5428 C   0  0  0  0  0  0  0  0  0  0  0  0
   -0.3965   -1.9346   -2.2614 H   0  0  0  0  0  0  0  0  0  0  0  0
   -0.5491    2.5389   -0.5665 C   0  0  0  0  0  0  0  0  0  0  0  0
   -0.6217    2.9331   -1.7243 O   0  0  0  0  0  0  0  0  0  0  0  0
   -0.7542    3.4363    0.4648 N   0  0  0  0  0  0  0  0  0  0  0  0
   -0.7870    3.0597    1.4088 H   0  0  0  0  0  0  0  0  0  0  0  0
   -1.0605    4.8458    0.2541 C   0  0  0  0  0  0  0  0  0  0  0  0
   -2.0018    4.9556   -0.2945 H   0  0  0  0  0  0  0  0  0  0  0  0
   -1.1576    5.3594    1.2155 H   0  0  0  0  0  0  0  0  0  0  0  0
   -0.2611    5.3301   -0.3167 H   0  0  0  0  0  0  0  0  0  0  0  0
  1  2  1  0  0  0  0
  2  3  1  0  0  0  0
  2  4  1  0  0  0  0
  2  5  1  0  0  0  0
  5  6  2  0  0  0  0
  5  7  1  0  0  0  0
  7  8  1  0  0  0  0
  7  9  1  0  0  0  0
  9 10  1  0  0  0  0
  9 11  1  0  0  0  0
  9 25  1  0  0  0  0
 11 12  1  0  0  0  0
 11 13  1  0  0  0  0
 11 14  1  0  0  0  0
 14 15  1  0  0  0  0
 14 23  2  0  0  0  0
 15 16  1  0  0  0  0
 15 17  2  0  0  0  0
 17 18  1  0  0  0  0
 17 19  1  0  0  0  0
 19 20  1  0  0  0  0
 19 21  2  0  0  0  0
 21 22  1  0  0  0  0
 21 23  1  0  0  0  0
 23 24  1  0  0  0  0
 25 26  2  0  0  0  0
 25 27  1  0  0  0  0
 27 28  1  0  0  0  0
 27 29  1  0  0  0  0
 29 30  1  0  0  0  0
 29 31  1  0  0  0  0
 29 32  1  0  0  0  0
M  END
$$$$

  -OEChem-01062216093D

 32 32  0     1  0  0  0  0  0999 V2000
   -3.1370   -2.4580    0.9875 H   0  0  0  0  0  0  0  0  0  0  0  0
   -3.1031   -1.6123    0.2947 C   0  0  0  0  0  0  0  0  0  0  0  0
   -4.0150   -1.0220    0.4125 H   0  0  0  0  0  0  0  0  0  0  0  0
   -3.0539   -1.9973   -0.7267 H   0  0  0  0  0  0  0  0  0  0  0  0
   -1.8870   -0.7523    0.5826 C   0  0  0  0  0  0  0  0  0  0  0  0
   -1.1853   -0.9974    1.5511 O   0  0  0  0  0  0  0  0  0  0  0  0
   -1.6165    0.3421   -0.2148 N   0  0  0  0  0  0  0  0  0  0  0  0
   -2.2285    0.4881   -1.0141 H   0  0  0  0  0  0  0  0  0  0  0  0
   -0.3203    1.0387   -0.2314 C   0  0  1  0  0  0  0  0  0  0  0  0
    0.1576    0.9798    0.7521 H   0  0  0  0  0  0  0  0  0  0  0  0
    0.6239    0.4200   -1.2857 C   0  0  0  0  0  0  0  0  0  0  0  0
    0.1336    0.4275   -2.2650 H   0  0  0  0  0  0  0  0  0  0  0  0
    1.5213    1.0413   -1.3743 H   0  0  0  0  0  0  0  0  0  0  0  0
    1.0441   -0.9886   -0.9402 C   0  0  0  0  0  0  0  0  0  0  0  0
    2.0813   -1.2177   -0.0242 C   0  0  0  0  0  0  0  0  0  0  0  0
    2.5789   -0.3810    0.4560 H   0  0  0  0  0  0  0  0  0  0  0  0
    2.4738   -2.5230    0.2916 C   0  0  0  0  0  0  0  0  0  0  0  0
    3.2687   -2.6909    1.0120 H   0  0  0  0  0  0  0  0  0  0  0  0
    1.8391   -3.6111   -0.3149 C   0  0  0  0  0  0  0  0  0  0  0  0
    2.1428   -4.6238   -0.0677 H   0  0  0  0  0  0  0  0  0  0  0  0
    0.8126   -3.3927   -1.2382 C   0  0  0  0  0  0  0  0  0  0  0  0
    0.3209   -4.2371   -1.7118 H   0  0  0  0  0  0  0  0  0  0  0  0
    0.4189   -2.0871   -1.5503 C   0  0  0  0  0  0  0  0  0  0  0  0
   -0.3776   -1.9281   -2.2702 H   0  0  0  0  0  0  0  0  0  0  0  0
   -0.5359    2.5262   -0.5672 C   0  0  0  0  0  0  0  0  0  0  0  0
   -0.8649    2.8675   -1.6972 O   0  0  0  0  0  0  0  0  0  0  0  0
   -0.4397    3.4811    0.4280 N   0  0  0  0  0  0  0  0  0  0  0  0
   -0.2686    3.1530    1.3749 H   0  0  0  0  0  0  0  0  0  0  0  0
   -0.7237    4.8946    0.2116 C   0  0  0  0  0  0  0  0  0  0  0  0
   -1.7651    5.0331   -0.0972 H   0  0  0  0  0  0  0  0  0  0  0  0
   -0.5574    5.4594    1.1340 H   0  0  0  0  0  0  0  0  0  0  0  0
   -0.0683    5.3026   -0.5651 H   0  0  0  0  0  0  0  0  0  0  0  0
  1  2  1  0  0  0  0
  2  3  1  0  0  0  0
  2  4  1  0  0  0  0
  2  5  1  0  0  0  0
  5  6  2  0  0  0  0
  5  7  1  0  0  0  0
  7  8  1  0  0  0  0
  7  9  1  0  0  0  0
  9 10  1  0  0  0  0
  9 11  1  0  0  0  0
  9 25  1  0  0  0  0
 11 12  1  0  0  0  0
 11 13  1  0  0  0  0
 11 14  1  0  0  0  0
 14 15  1  0  0  0  0
 14 23  2  0  0  0  0
 15 16  1  0  0  0  0
 15 17  2  0  0  0  0
 17 18  1  0  0  0  0
 17 19  1  0  0  0  0
 19 20  1  0  0  0  0
 19 21  2  0  0  0  0
 21 22  1  0  0  0  0
 21 23  1  0  0  0  0
 23 24  1  0  0  0  0
 25 26  2  0  0  0  0
 25 27  1  0  0  0  0
 27 28  1  0  0  0  0
 27 29  1  0  0  0  0
 29 30  1  0  0  0  0
 29 31  1  0  0  0  0
 29 32  1  0  0  0  0
M  END
$$$$

  -OEChem-01062216093D

 32 32  0     1  0  0  0  0  0999 V2000
   -3.1960   -2.4290    1.0066 H   0  0  0  0  0  0  0  0  0  0  0  0
   -3.1433   -1.5885    0.3089 C   0  0  0  0  0  0  0  0  0  0  0  0
   -4.0339   -0.9684    0.4347 H   0  0  0  0  0  0  0  0  0  0  0  0
   -3.1194   -1.9798   -0.7108 H   0  0  0  0  0  0  0  0  0  0  0  0
   -1.8970   -0.7664    0.5768 C   0  0  0  0  0  0  0  0  0  0  0  0
   -1.1813   -1.0408    1.5271 O   0  0  0  0  0  0  0  0  0  0  0  0
   -1.6124    0.3251   -0.2189 N   0  0  0  0  0  0  0  0  0  0  0  0
   -2.2463    0.5159   -0.9918 H   0  0  0  0  0  0  0  0  0  0  0  0
   -0.3199    1.0275   -0.2259 C   0  0  1  0  0  0  0  0  0  0  0  0
    0.1485    0.9692    0.7620 H   0  0  0  0  0  0  0  0  0  0  0  0
    0.6318    0.4209   -1.2784 C   0  0  0  0  0  0  0  0  0  0  0  0
    0.1445    0.4323   -2.2592 H   0  0  0  0  0  0  0  0  0  0  0  0
    1.5267    1.0467   -1.3598 H   0  0  0  0  0  0  0  0  0  0  0  0
    1.0578   -0.9873   -0.9396 C   0  0  0  0  0  0  0  0  0  0  0  0
    2.0917   -1.2174   -0.0202 C   0  0  0  0  0  0  0  0  0  0  0  0
    2.5847   -0.3818    0.4661 H   0  0  0  0  0  0  0  0  0  0  0  0
    2.4871   -2.5230    0.2906 C   0  0  0  0  0  0  0  0  0  0  0  0
    3.2798   -2.6920    1.0131 H   0  0  0  0  0  0  0  0  0  0  0  0
    1.8573   -3.6100   -0.3230 C   0  0  0  0  0  0  0  0  0  0  0  0
    2.1621   -4.6232   -0.0789 H   0  0  0  0  0  0  0  0  0  0  0  0
    0.8327   -3.3904   -1.2483 C   0  0  0  0  0  0  0  0  0  0  0  0
    0.3429   -4.2334   -1.7258 H   0  0  0  0  0  0  0  0  0  0  0  0
    0.4371   -2.0846   -1.5563 C   0  0  0  0  0  0  0  0  0  0  0  0
   -0.3588   -1.9240   -2.2766 H   0  0  0  0  0  0  0  0  0  0  0  0
   -0.5342    2.5121   -0.5723 C   0  0  0  0  0  0  0  0  0  0  0  0
   -1.0840    2.8243   -1.6224 O   0  0  0  0  0  0  0  0  0  0  0  0
   -0.1566    3.5001    0.3183 N   0  0  0  0  0  0  0  0  0  0  0  0
    0.2155    3.2045    1.2167 H   0  0  0  0  0  0  0  0  0  0  0  0
   -0.3938    4.9194    0.0853 C   0  0  0  0  0  0  0  0  0  0  0  0
   -1.4679    5.1225    0.0205 H   0  0  0  0  0  0  0  0  0  0  0  0
    0.0227    5.5119    0.9054 H   0  0  0  0  0  0  0  0  0  0  0  0
    0.0825    5.2395   -0.8474 H   0  0  0  0  0  0  0  0  0  0  0  0
  1  2  1  0  0  0  0
  2  3  1  0  0  0  0
  2  4  1  0  0  0  0
  2  5  1  0  0  0  0
  5  6  2  0  0  0  0
  5  7  1  0  0  0  0
  7  8  1  0  0  0  0
  7  9  1  0  0  0  0
  9 10  1  0  0  0  0
  9 11  1  0  0  0  0
  9 25  1  0  0  0  0
 11 12  1  0  0  0  0
 11 13  1  0  0  0  0
 11 14  1  0  0  0  0
 14 15  1  0  0  0  0
 14 23  2  0  0  0  0
 15 16  1  0  0  0  0
 15 17  2  0  0  0  0
 17 18  1  0  0  0  0
 17 19  1  0  0  0  0
 19 20  1  0  0  0  0
 19 21  2  0  0  0  0
 21 22  1  0  0  0  0
 21 23  1  0  0  0  0
 23 24  1  0  0  0  0
 25 26  2  0  0  0  0
 25 27  1  0  0  0  0
 27 28  1  0  0  0  0
 27 29  1  0  0  0  0
 29 30  1  0  0  0  0
 29 31  1  0  0  0  0
 29 32  1  0  0  0  0
M  END
$$$$

  -OEChem-01062216093D

 32 32  0     1  0  0  0  0  0999 V2000
   -3.2451   -2.4191    0.9868 H   0  0  0  0  0  0  0  0  0  0  0  0
   -3.2038   -1.5415    0.3360 C   0  0  0  0  0  0  0  0  0  0  0  0
   -4.0581   -0.8970    0.5563 H   0  0  0  0  0  0  0  0  0  0  0  0
   -3.2620   -1.8721   -0.7036 H   0  0  0  0  0  0  0  0  0  0  0  0
   -1.9113   -0.7817    0.5665 C   0  0  0  0  0  0  0  0  0  0  0  0
   -1.1778   -1.0956    1.4905 O   0  0  0  0  0  0  0  0  0  0  0  0
   -1.6092    0.3057   -0.2277 N   0  0  0  0  0  0  0  0  0  0  0  0
   -2.2751    0.5585   -0.9552 H   0  0  0  0  0  0  0  0  0  0  0  0
   -0.3205    1.0145   -0.2235 C   0  0  1  0  0  0  0  0  0  0  0  0
    0.1365    0.9615    0.7699 H   0  0  0  0  0  0  0  0  0  0  0  0
    0.6411    0.4154   -1.2701 C   0  0  0  0  0  0  0  0  0  0  0  0
    0.1604    0.4290   -2.2541 H   0  0  0  0  0  0  0  0  0  0  0  0
    1.5337    1.0455   -1.3419 H   0  0  0  0  0  0  0  0  0  0  0  0
    1.0748   -0.9915   -0.9365 C   0  0  0  0  0  0  0  0  0  0  0  0
    2.1053   -1.2196   -0.0127 C   0  0  0  0  0  0  0  0  0  0  0  0
    2.5889   -0.3835    0.4822 H   0  0  0  0  0  0  0  0  0  0  0  0
    2.5113   -2.5238    0.2898 C   0  0  0  0  0  0  0  0  0  0  0  0
    3.3025   -2.6912    1.0143 H   0  0  0  0  0  0  0  0  0  0  0  0
    1.8940   -3.6116   -0.3346 C   0  0  0  0  0  0  0  0  0  0  0  0
    2.2067   -4.6238   -0.0964 H   0  0  0  0  0  0  0  0  0  0  0  0
    0.8711   -3.3942   -1.2622 C   0  0  0  0  0  0  0  0  0  0  0  0
    0.3901   -4.2382   -1.7472 H   0  0  0  0  0  0  0  0  0  0  0  0
    0.4656   -2.0897   -1.5626 C   0  0  0  0  0  0  0  0  0  0  0  0
   -0.3298   -1.9312   -2.2837 H   0  0  0  0  0  0  0  0  0  0  0  0
   -0.5368    2.4958   -0.5838 C   0  0  0  0  0  0  0  0  0  0  0  0
   -1.2799    2.7982   -1.5112 O   0  0  0  0  0  0  0  0  0  0  0  0
    0.0887    3.4941    0.1400 N   0  0  0  0  0  0  0  0  0  0  0  0
    0.6460    3.2157    0.9427 H   0  0  0  0  0  0  0  0  0  0  0  0
   -0.1065    4.9141   -0.1257 C   0  0  0  0  0  0  0  0  0  0  0  0
   -1.1641    5.1808   -0.0266 H   0  0  0  0  0  0  0  0  0  0  0  0
    0.4696    5.5154    0.5843 H   0  0  0  0  0  0  0  0  0  0  0  0
    0.2264    5.1625   -1.1391 H   0  0  0  0  0  0  0  0  0  0  0  0
  1  2  1  0  0  0  0
  2  3  1  0  0  0  0
  2  4  1  0  0  0  0
  2  5  1  0  0  0  0
  5  6  2  0  0  0  0
  5  7  1  0  0  0  0
  7  8  1  0  0  0  0
  7  9  1  0  0  0  0
  9 10  1  0  0  0  0
  9 11  1  0  0  0  0
  9 25  1  0  0  0  0
 11 12  1  0  0  0  0
 11 13  1  0  0  0  0
 11 14  1  0  0  0  0
 14 15  1  0  0  0  0
 14 23  2  0  0  0  0
 15 16  1  0  0  0  0
 15 17  2  0  0  0  0
 17 18  1  0  0  0  0
 17 19  1  0  0  0  0
 19 20  1  0  0  0  0
 19 21  2  0  0  0  0
 21 22  1  0  0  0  0
 21 23  1  0  0  0  0
 23 24  1  0  0  0  0
 25 26  2  0  0  0  0
 25 27  1  0  0  0  0
 27 28  1  0  0  0  0
 27 29  1  0  0  0  0
 29 30  1  0  0  0  0
 29 31  1  0  0  0  0
 29 32  1  0  0  0  0
M  END
$$$$

  -OEChem-01062216093D

 32 32  0     1  0  0  0  0  0999 V2000
   -3.2794   -2.3993    0.9994 H   0  0  0  0  0  0  0  0  0  0  0  0
   -3.2312   -1.5226    0.3475 C   0  0  0  0  0  0  0  0  0  0  0  0
   -4.0678   -0.8602    0.5827 H   0  0  0  0  0  0  0  0  0  0  0  0
   -3.3155   -1.8520   -0.6909 H   0  0  0  0  0  0  0  0  0  0  0  0
   -1.9185   -0.7910    0.5534 C   0  0  0  0  0  0  0  0  0  0  0  0
   -1.1708   -1.1275    1.4579 O   0  0  0  0  0  0  0  0  0  0  0  0
   -1.6115    0.2940   -0.2418 N   0  0  0  0  0  0  0  0  0  0  0  0
   -2.3052    0.5950   -0.9240 H   0  0  0  0  0  0  0  0  0  0  0  0
   -0.3271    1.0110   -0.2309 C   0  0  1  0  0  0  0  0  0  0  0  0
    0.1222    0.9646    0.7666 H   0  0  0  0  0  0  0  0  0  0  0  0
    0.6409    0.4129   -1.2722 C   0  0  0  0  0  0  0  0  0  0  0  0
    0.1619    0.4227   -2.2571 H   0  0  0  0  0  0  0  0  0  0  0  0
    1.5316    1.0454   -1.3439 H   0  0  0  0  0  0  0  0  0  0  0  0
    1.0807   -0.9916   -0.9360 C   0  0  0  0  0  0  0  0  0  0  0  0
    2.1095   -1.2143   -0.0089 C   0  0  0  0  0  0  0  0  0  0  0  0
    2.5867   -0.3762    0.4884 H   0  0  0  0  0  0  0  0  0  0  0  0
    2.5217   -2.5165    0.2945 C   0  0  0  0  0  0  0  0  0  0  0  0
    3.3109   -2.6801    1.0219 H   0  0  0  0  0  0  0  0  0  0  0  0
    1.9126   -3.6076   -0.3322 C   0  0  0  0  0  0  0  0  0  0  0  0
    2.2296   -4.6182   -0.0930 H   0  0  0  0  0  0  0  0  0  0  0  0
    0.8916   -3.3955   -1.2631 C   0  0  0  0  0  0  0  0  0  0  0  0
    0.4167   -4.2418   -1.7497 H   0  0  0  0  0  0  0  0  0  0  0  0
    0.4794   -2.0932   -1.5641 C   0  0  0  0  0  0  0  0  0  0  0  0
   -0.3156   -1.9390   -2.2867 H   0  0  0  0  0  0  0  0  0  0  0  0
   -0.5418    2.4915   -0.6007 C   0  0  0  0  0  0  0  0  0  0  0  0
   -1.4472    2.8109   -1.3641 O   0  0  0  0  0  0  0  0  0  0  0  0
    0.2951    3.4690   -0.0940 N   0  0  0  0  0  0  0  0  0  0  0  0
    1.0069    3.1819    0.5718 H   0  0  0  0  0  0  0  0  0  0  0  0
    0.1320    4.8880   -0.3859 C   0  0  0  0  0  0  0  0  0  0  0  0
   -0.8532    5.2353   -0.0578 H   0  0  0  0  0  0  0  0  0  0  0  0
    0.8960    5.4723    0.1354 H   0  0  0  0  0  0  0  0  0  0  0  0
    0.2305    5.0712   -1.4610 H   0  0  0  0  0  0  0  0  0  0  0  0
  1  2  1  0  0  0  0
  2  3  1  0  0  0  0
  2  4  1  0  0  0  0
  2  5  1  0  0  0  0
  5  6  2  0  0  0  0
  5  7  1  0  0  0  0
  7  8  1  0  0  0  0
  7  9  1  0  0  0  0
  9 10  1  0  0  0  0
  9 11  1  0  0  0  0
  9 25  1  0  0  0  0
 11 12  1  0  0  0  0
 11 13  1  0  0  0  0
 11 14  1  0  0  0  0
 14 15  1  0  0  0  0
 14 23  2  0  0  0  0
 15 16  1  0  0  0  0
 15 17  2  0  0  0  0
 17 18  1  0  0  0  0
 17 19  1  0  0  0  0
 19 20  1  0  0  0  0
 19 21  2  0  0  0  0
 21 22  1  0  0  0  0
 21 23  1  0  0  0  0
 23 24  1  0  0  0  0
 25 26  2  0  0  0  0
 25 27  1  0  0  0  0
 27 28  1  0  0  0  0
 27 29  1  0  0  0  0
 29 30  1  0  0  0  0
 29 31  1  0  0  0  0
 29 32  1  0  0  0  0
M  END
$$$$

  -OEChem-01062216093D

 32 32  0     1  0  0  0  0  0999 V2000
   -3.3058   -2.3803    1.0100 H   0  0  0  0  0  0  0  0  0  0  0  0
   -3.2519   -1.5049    0.3569 C   0  0  0  0  0  0  0  0  0  0  0  0
   -4.0693   -0.8247    0.6082 H   0  0  0  0  0  0  0  0  0  0  0  0
   -3.3642   -1.8318   -0.6796 H   0  0  0  0  0  0  0  0  0  0  0  0
   -1.9193   -0.8024    0.5351 C   0  0  0  0  0  0  0  0  0  0  0  0
   -1.1551   -1.1647    1.4154 O   0  0  0  0  0  0  0  0  0  0  0  0
   -1.6111    0.2830   -0.2590 N   0  0  0  0  0  0  0  0  0  0  0  0
   -2.3357    0.6364   -0.8821 H   0  0  0  0  0  0  0  0  0  0  0  0
   -0.3314    1.0093   -0.2402 C   0  0  1  0  0  0  0  0  0  0  0  0
    0.1118    0.9695    0.7601 H   0  0  0  0  0  0  0  0  0  0  0  0
    0.6426    0.4090   -1.2775 C   0  0  0  0  0  0  0  0  0  0  0  0
    0.1652    0.4147   -2.2631 H   0  0  0  0  0  0  0  0  0  0  0  0
    1.5337    1.0406   -1.3518 H   0  0  0  0  0  0  0  0  0  0  0  0
    1.0869   -0.9934   -0.9373 C   0  0  0  0  0  0  0  0  0  0  0  0
    2.1145   -1.2107   -0.0073 C   0  0  0  0  0  0  0  0  0  0  0  0
    2.5868   -0.3705    0.4912 H   0  0  0  0  0  0  0  0  0  0  0  0
    2.5309   -2.5110    0.2991 C   0  0  0  0  0  0  0  0  0  0  0  0
    3.3188   -2.6707    1.0287 H   0  0  0  0  0  0  0  0  0  0  0  0
    1.9271   -3.6056   -0.3269 C   0  0  0  0  0  0  0  0  0  0  0  0
    2.2469   -4.6146   -0.0845 H   0  0  0  0  0  0  0  0  0  0  0  0
    0.9074   -3.3990   -1.2603 C   0  0  0  0  0  0  0  0  0  0  0  0
    0.4363   -4.2482   -1.7458 H   0  0  0  0  0  0  0  0  0  0  0  0
    0.4914   -2.0986   -1.5648 C   0  0  0  0  0  0  0  0  0  0  0  0
   -0.3034   -1.9491   -2.2885 H   0  0  0  0  0  0  0  0  0  0  0  0
   -0.5499    2.4899   -0.6150 C   0  0  0  0  0  0  0  0  0  0  0  0
   -1.5818    2.8412   -1.1778 O   0  0  0  0  0  0  0  0  0  0  0  0
    0.4353    3.4291   -0.3676 N   0  0  0  0  0  0  0  0  0  0  0  0
    1.2674    3.1204    0.1266 H   0  0  0  0  0  0  0  0  0  0  0  0
    0.2919    4.8433   -0.6923 C   0  0  0  0  0  0  0  0  0  0  0  0
   -0.5658    5.2724   -0.1636 H   0  0  0  0  0  0  0  0  0  0  0  0
    1.1907    5.3927   -0.3962 H   0  0  0  0  0  0  0  0  0  0  0  0
    0.1449    4.9766   -1.7693 H   0  0  0  0  0  0  0  0  0  0  0  0
  1  2  1  0  0  0  0
  2  3  1  0  0  0  0
  2  4  1  0  0  0  0
  2  5  1  0  0  0  0
  5  6  2  0  0  0  0
  5  7  1  0  0  0  0
  7  8  1  0  0  0  0
  7  9  1  0  0  0  0
  9 10  1  0  0  0  0
  9 11  1  0  0  0  0
  9 25  1  0  0  0  0
 11 12  1  0  0  0  0
 11 13  1  0  0  0  0
 11 14  1  0  0  0  0
 14 15  1  0  0  0  0
 14 23  2  0  0  0  0
 15 16  1  0  0  0  0
 15 17  2  0  0  0  0
 17 18  1  0  0  0  0
 17 19  1  0  0  0  0
 19 20  1  0  0  0  0
 19 21  2  0  0  0  0
 21 22  1  0  0  0  0
 21 23  1  0  0  0  0
 23 24  1  0  0  0  0
 25 26  2  0  0  0  0
 25 27  1  0  0  0  0
 27 28  1  0  0  0  0
 27 29  1  0  0  0  0
 29 30  1  0  0  0  0
 29 31  1  0  0  0  0
 29 32  1  0  0  0  0
M  END
$$$$

  -OEChem-01062216093D

 32 32  0     1  0  0  0  0  0999 V2000
   -3.3017   -2.3275    1.0522 H   0  0  0  0  0  0  0  0  0  0  0  0
   -3.2496   -1.4625    0.3853 C   0  0  0  0  0  0  0  0  0  0  0  0
   -3.9801   -0.7192    0.7130 H   0  0  0  0  0  0  0  0  0  0  0  0
   -3.4961   -1.7845   -0.6292 H   0  0  0  0  0  0  0  0  0  0  0  0
   -1.8556   -0.8653    0.4128 C   0  0  0  0  0  0  0  0  0  0  0  0
   -1.0052   -1.3481    1.1442 O   0  0  0  0  0  0  0  0  0  0  0  0
   -1.5795    0.2447   -0.3596 N   0  0  0  0  0  0  0  0  0  0  0  0
   -2.3789    0.7329   -0.7600 H   0  0  0  0  0  0  0  0  0  0  0  0
   -0.3099    0.9887   -0.3139 C   0  0  1  0  0  0  0  0  0  0  0  0
    0.2606    0.7298    0.5842 H   0  0  0  0  0  0  0  0  0  0  0  0
    0.5153    0.6458   -1.5712 C   0  0  0  0  0  0  0  0  0  0  0  0
   -0.0830    0.8520   -2.4650 H   0  0  0  0  0  0  0  0  0  0  0  0
    1.4005    1.2871   -1.6228 H   0  0  0  0  0  0  0  0  0  0  0  0
    0.9732   -0.7936   -1.5798 C   0  0  0  0  0  0  0  0  0  0  0  0
    2.1029   -1.1870   -0.8471 C   0  0  0  0  0  0  0  0  0  0  0  0
    2.6509   -0.4602   -0.2565 H   0  0  0  0  0  0  0  0  0  0  0  0
    2.5265   -2.5205   -0.8569 C   0  0  0  0  0  0  0  0  0  0  0  0
    3.3964   -2.8180   -0.2791 H   0  0  0  0  0  0  0  0  0  0  0  0
    1.8253   -3.4723   -1.6032 C   0  0  0  0  0  0  0  0  0  0  0  0
    2.1512   -4.5081   -1.6067 H   0  0  0  0  0  0  0  0  0  0  0  0
    0.6997   -3.0899   -2.3386 C   0  0  0  0  0  0  0  0  0  0  0  0
    0.1512   -3.8292   -2.9146 H   0  0  0  0  0  0  0  0  0  0  0  0
    0.2770   -1.7565   -2.3269 C   0  0  0  0  0  0  0  0  0  0  0  0
   -0.6020   -1.4709   -2.8958 H   0  0  0  0  0  0  0  0  0  0  0  0
   -0.5727    2.5109   -0.2765 C   0  0  0  0  0  0  0  0  0  0  0  0
   -1.7166    2.9450   -0.3664 O   0  0  0  0  0  0  0  0  0  0  0  0
    0.4780    3.4102   -0.2287 N   0  0  0  0  0  0  0  0  0  0  0  0
    1.4164    3.0341   -0.1299 H   0  0  0  0  0  0  0  0  0  0  0  0
    0.2937    4.8568   -0.2183 C   0  0  0  0  0  0  0  0  0  0  0  0
   -0.2942    5.1625    0.6537 H   0  0  0  0  0  0  0  0  0  0  0  0
    1.2636    5.3616   -0.1761 H   0  0  0  0  0  0  0  0  0  0  0  0
   -0.2262    5.1832   -1.1252 H   0  0  0  0  0  0  0  0  0  0  0  0
  1  2  1  0  0  0  0
  2  3  1  0  0  0  0
  2  4  1  0  0  0  0
  2  5  1  0  0  0  0
  5  6  2  0  0  0  0
  5  7  1  0  0  0  0
  7  8  1  0  0  0  0
  7  9  1  0  0  0  0
  9 10  1  0  0  0  0
  9 11  1  0  0  0  0
  9 25  1  0  0  0  0
 11 12  1  0  0  0  0
 11 13  1  0  0  0  0
 11 14  1  0  0  0  0
 14 15  1  0  0  0  0
 14 23  2  0  0  0  0
 15 16  1  0  0  0  0
 15 17  2  0  0  0  0
 17 18  1  0  0  0  0
 17 19  1  0  0  0  0
 19 20  1  0  0  0  0
 19 21  2  0  0  0  0
 21 22  1  0  0  0  0
 21 23  1  0  0  0  0
 23 24  1  0  0  0  0
 25 26  2  0  0  0  0
 25 27  1  0  0  0  0
 27 28  1  0  0  0  0
 27 29  1  0  0  0  0
 29 30  1  0  0  0  0
 29 31  1  0  0  0  0
 29 32  1  0  0  0  0
M  END
$$$$

  -OEChem-01062216093D

 32 32  0     1  0  0  0  0  0999 V2000
   -3.3075   -2.3032    1.0662 H   0  0  0  0  0  0  0  0  0  0  0  0
   -3.2560   -1.4385    0.3986 C   0  0  0  0  0  0  0  0  0  0  0  0
   -3.9635   -0.6819    0.7463 H   0  0  0  0  0  0  0  0  0  0  0  0
   -3.5356   -1.7548   -0.6091 H   0  0  0  0  0  0  0  0  0  0  0  0
   -1.8507   -0.8670    0.3899 C   0  0  0  0  0  0  0  0  0  0  0  0
   -0.9892   -1.3716    1.0928 O   0  0  0  0  0  0  0  0  0  0  0  0
   -1.5794    0.2462   -0.3804 N   0  0  0  0  0  0  0  0  0  0  0  0
   -2.3885    0.7572   -0.7291 H   0  0  0  0  0  0  0  0  0  0  0  0
   -0.3084    0.9892   -0.3302 C   0  0  1  0  0  0  0  0  0  0  0  0
    0.2589    0.7323    0.5708 H   0  0  0  0  0  0  0  0  0  0  0  0
    0.5219    0.6328   -1.5836 C   0  0  0  0  0  0  0  0  0  0  0  0
   -0.0716    0.8366   -2.4810 H   0  0  0  0  0  0  0  0  0  0  0  0
    1.4127    1.2647   -1.6370 H   0  0  0  0  0  0  0  0  0  0  0  0
    0.9775   -0.8069   -1.5847 C   0  0  0  0  0  0  0  0  0  0  0  0
    2.1050   -1.1966   -0.8467 C   0  0  0  0  0  0  0  0  0  0  0  0
    2.6496   -0.4672   -0.2560 H   0  0  0  0  0  0  0  0  0  0  0  0
    2.5309   -2.5291   -0.8513 C   0  0  0  0  0  0  0  0  0  0  0  0
    3.3993   -2.8228   -0.2694 H   0  0  0  0  0  0  0  0  0  0  0  0
    1.8334   -3.4844   -1.5965 C   0  0  0  0  0  0  0  0  0  0  0  0
    2.1603   -4.5198   -1.5941 H   0  0  0  0  0  0  0  0  0  0  0  0
    0.7100   -3.1057   -2.3372 C   0  0  0  0  0  0  0  0  0  0  0  0
    0.1644   -3.8474   -2.9124 H   0  0  0  0  0  0  0  0  0  0  0  0
    0.2856   -1.7727   -2.3319 C   0  0  0  0  0  0  0  0  0  0  0  0
   -0.5914   -1.4902   -2.9056 H   0  0  0  0  0  0  0  0  0  0  0  0
   -0.5771    2.5133   -0.2860 C   0  0  0  0  0  0  0  0  0  0  0  0
   -1.7186    2.9322   -0.1243 O   0  0  0  0  0  0  0  0  0  0  0  0
    0.4287    3.4309   -0.5387 N   0  0  0  0  0  0  0  0  0  0  0  0
    1.3730    3.0750   -0.6532 H   0  0  0  0  0  0  0  0  0  0  0  0
    0.2155    4.8735   -0.5494 C   0  0  0  0  0  0  0  0  0  0  0  0
   -0.1471    5.2144    0.4260 H   0  0  0  0  0  0  0  0  0  0  0  0
    1.1527    5.3930   -0.7707 H   0  0  0  0  0  0  0  0  0  0  0  0
   -0.5192    5.1469   -1.3140 H   0  0  0  0  0  0  0  0  0  0  0  0
  1  2  1  0  0  0  0
  2  3  1  0  0  0  0
  2  4  1  0  0  0  0
  2  5  1  0  0  0  0
  5  6  2  0  0  0  0
  5  7  1  0  0  0  0
  7  8  1  0  0  0  0
  7  9  1  0  0  0  0
  9 10  1  0  0  0  0
  9 11  1  0  0  0  0
  9 25  1  0  0  0  0
 11 12  1  0  0  0  0
 11 13  1  0  0  0  0
 11 14  1  0  0  0  0
 14 15  1  0  0  0  0
 14 23  2  0  0  0  0
 15 16  1  0  0  0  0
 15 17  2  0  0  0  0
 17 18  1  0  0  0  0
 17 19  1  0  0  0  0
 19 20  1  0  0  0  0
 19 21  2  0  0  0  0
 21 22  1  0  0  0  0
 21 23  1  0  0  0  0
 23 24  1  0  0  0  0
 25 26  2  0  0  0  0
 25 27  1  0  0  0  0
 27 28  1  0  0  0  0
 27 29  1  0  0  0  0
 29 30  1  0  0  0  0
 29 31  1  0  0  0  0
 29 32  1  0  0  0  0
M  END
$$$$

  -OEChem-01062216093D

 32 32  0     1  0  0  0  0  0999 V2000
   -3.3074   -2.2760    1.0765 H   0  0  0  0  0  0  0  0  0  0  0  0
   -3.2569   -1.4123    0.4078 C   0  0  0  0  0  0  0  0  0  0  0  0
   -3.9452   -0.6450    0.7706 H   0  0  0  0  0  0  0  0  0  0  0  0
   -3.5622   -1.7235   -0.5940 H   0  0  0  0  0  0  0  0  0  0  0  0
   -1.8433   -0.8634    0.3697 C   0  0  0  0  0  0  0  0  0  0  0  0
   -0.9738   -1.3896    1.0462 O   0  0  0  0  0  0  0  0  0  0  0  0
   -1.5755    0.2529   -0.3975 N   0  0  0  0  0  0  0  0  0  0  0  0
   -2.3898    0.7798   -0.7067 H   0  0  0  0  0  0  0  0  0  0  0  0
   -0.3000    0.9890   -0.3496 C   0  0  1  0  0  0  0  0  0  0  0  0
    0.2653    0.7323    0.5528 H   0  0  0  0  0  0  0  0  0  0  0  0
    0.5348    0.6201   -1.5976 C   0  0  0  0  0  0  0  0  0  0  0  0
   -0.0514    0.8224   -2.5001 H   0  0  0  0  0  0  0  0  0  0  0  0
    1.4323    1.2432   -1.6456 H   0  0  0  0  0  0  0  0  0  0  0  0
    0.9843   -0.8214   -1.5890 C   0  0  0  0  0  0  0  0  0  0  0  0
    2.1071   -1.2103   -0.8435 C   0  0  0  0  0  0  0  0  0  0  0  0
    2.6495   -0.4796   -0.2522 H   0  0  0  0  0  0  0  0  0  0  0  0
    2.5307   -2.5435   -0.8402 C   0  0  0  0  0  0  0  0  0  0  0  0
    3.3951   -2.8363   -0.2518 H   0  0  0  0  0  0  0  0  0  0  0  0
    1.8355   -3.5002   -1.5857 C   0  0  0  0  0  0  0  0  0  0  0  0
    2.1605   -4.5362   -1.5773 H   0  0  0  0  0  0  0  0  0  0  0  0
    0.7169   -3.1223   -2.3342 C   0  0  0  0  0  0  0  0  0  0  0  0
    0.1734   -3.8658   -2.9092 H   0  0  0  0  0  0  0  0  0  0  0  0
    0.2947   -1.7885   -2.3363 C   0  0  0  0  0  0  0  0  0  0  0  0
   -0.5782   -1.5065   -2.9162 H   0  0  0  0  0  0  0  0  0  0  0  0
   -0.5757    2.5131   -0.2947 C   0  0  0  0  0  0  0  0  0  0  0  0
   -1.6537    2.9202    0.1244 O   0  0  0  0  0  0  0  0  0  0  0  0
    0.3025    3.4414   -0.8296 N   0  0  0  0  0  0  0  0  0  0  0  0
    1.1941    3.1019   -1.1771 H   0  0  0  0  0  0  0  0  0  0  0  0
    0.0409    4.8762   -0.8509 C   0  0  0  0  0  0  0  0  0  0  0  0
   -0.0792    5.2592    0.1681 H   0  0  0  0  0  0  0  0  0  0  0  0
    0.8733    5.4058   -1.3241 H   0  0  0  0  0  0  0  0  0  0  0  0
   -0.8710    5.0911   -1.4179 H   0  0  0  0  0  0  0  0  0  0  0  0
  1  2  1  0  0  0  0
  2  3  1  0  0  0  0
  2  4  1  0  0  0  0
  2  5  1  0  0  0  0
  5  6  2  0  0  0  0
  5  7  1  0  0  0  0
  7  8  1  0  0  0  0
  7  9  1  0  0  0  0
  9 10  1  0  0  0  0
  9 11  1  0  0  0  0
  9 25  1  0  0  0  0
 11 12  1  0  0  0  0
 11 13  1  0  0  0  0
 11 14  1  0  0  0  0
 14 15  1  0  0  0  0
 14 23  2  0  0  0  0
 15 16  1  0  0  0  0
 15 17  2  0  0  0  0
 17 18  1  0  0  0  0
 17 19  1  0  0  0  0
 19 20  1  0  0  0  0
 19 21  2  0  0  0  0
 21 22  1  0  0  0  0
 21 23  1  0  0  0  0
 23 24  1  0  0  0  0
 25 26  2  0  0  0  0
 25 27  1  0  0  0  0
 27 28  1  0  0  0  0
 27 29  1  0  0  0  0
 29 30  1  0  0  0  0
 29 31  1  0  0  0  0
 29 32  1  0  0  0  0
M  END
$$$$

  -OEChem-01062216093D

 32 32  0     1  0  0  0  0  0999 V2000
   -3.3061   -2.2679    1.0841 H   0  0  0  0  0  0  0  0  0  0  0  0
   -3.2609   -1.4016    0.4183 C   0  0  0  0  0  0  0  0  0  0  0  0
   -3.9410   -0.6330    0.7933 H   0  0  0  0  0  0  0  0  0  0  0  0
   -3.5810   -1.7077   -0.5804 H   0  0  0  0  0  0  0  0  0  0  0  0
   -1.8456   -0.8580    0.3636 C   0  0  0  0  0  0  0  0  0  0  0  0
   -0.9706   -1.3909    1.0271 O   0  0  0  0  0  0  0  0  0  0  0  0
   -1.5821    0.2583   -0.4062 N   0  0  0  0  0  0  0  0  0  0  0  0
   -2.3988    0.7807   -0.7137 H   0  0  0  0  0  0  0  0  0  0  0  0
   -0.3034    0.9903   -0.3660 C   0  0  1  0  0  0  0  0  0  0  0  0
    0.2605    0.7375    0.5382 H   0  0  0  0  0  0  0  0  0  0  0  0
    0.5383    0.6137   -1.6070 C   0  0  0  0  0  0  0  0  0  0  0  0
   -0.0419    0.8109   -2.5144 H   0  0  0  0  0  0  0  0  0  0  0  0
    1.4357    1.2382   -1.6487 H   0  0  0  0  0  0  0  0  0  0  0  0
    0.9903   -0.8271   -1.5907 C   0  0  0  0  0  0  0  0  0  0  0  0
    2.1101   -1.2133   -0.8390 C   0  0  0  0  0  0  0  0  0  0  0  0
    2.6499   -0.4812   -0.2469 H   0  0  0  0  0  0  0  0  0  0  0  0
    2.5338   -2.5467   -0.8306 C   0  0  0  0  0  0  0  0  0  0  0  0
    3.3951   -2.8382   -0.2373 H   0  0  0  0  0  0  0  0  0  0  0  0
    1.8429   -3.5059   -1.5768 C   0  0  0  0  0  0  0  0  0  0  0  0
    2.1684   -4.5418   -1.5640 H   0  0  0  0  0  0  0  0  0  0  0  0
    0.7278   -3.1307   -2.3314 C   0  0  0  0  0  0  0  0  0  0  0  0
    0.1876   -3.8760   -2.9072 H   0  0  0  0  0  0  0  0  0  0  0  0
    0.3045   -1.7972   -2.3380 C   0  0  0  0  0  0  0  0  0  0  0  0
   -0.5672   -1.5185   -2.9212 H   0  0  0  0  0  0  0  0  0  0  0  0
   -0.5808    2.5137   -0.3081 C   0  0  0  0  0  0  0  0  0  0  0  0
   -1.5290    2.9261    0.3488 O   0  0  0  0  0  0  0  0  0  0  0  0
    0.1073    3.4270   -1.0908 N   0  0  0  0  0  0  0  0  0  0  0  0
    0.8780    3.0810   -1.6537 H   0  0  0  0  0  0  0  0  0  0  0  0
   -0.1877    4.8553   -1.1076 C   0  0  0  0  0  0  0  0  0  0  0  0
   -0.0589    5.2851   -0.1086 H   0  0  0  0  0  0  0  0  0  0  0  0
    0.4876    5.3726   -1.7959 H   0  0  0  0  0  0  0  0  0  0  0  0
   -1.2173    5.0309   -1.4369 H   0  0  0  0  0  0  0  0  0  0  0  0
  1  2  1  0  0  0  0
  2  3  1  0  0  0  0
  2  4  1  0  0  0  0
  2  5  1  0  0  0  0
  5  6  2  0  0  0  0
  5  7  1  0  0  0  0
  7  8  1  0  0  0  0
  7  9  1  0  0  0  0
  9 10  1  0  0  0  0
  9 11  1  0  0  0  0
  9 25  1  0  0  0  0
 11 12  1  0  0  0  0
 11 13  1  0  0  0  0
 11 14  1  0  0  0  0
 14 15  1  0  0  0  0
 14 23  2  0  0  0  0
 15 16  1  0  0  0  0
 15 17  2  0  0  0  0
 17 18  1  0  0  0  0
 17 19  1  0  0  0  0
 19 20  1  0  0  0  0
 19 21  2  0  0  0  0
 21 22  1  0  0  0  0
 21 23  1  0  0  0  0
 23 24  1  0  0  0  0
 25 26  2  0  0  0  0
 25 27  1  0  0  0  0
 27 28  1  0  0  0  0
 27 29  1  0  0  0  0
 29 30  1  0  0  0  0
 29 31  1  0  0  0  0
 29 32  1  0  0  0  0
M  END
$$$$

  -OEChem-01062216093D

 32 32  0     1  0  0  0  0  0999 V2000
   -3.2929   -2.2868    1.0798 H   0  0  0  0  0  0  0  0  0  0  0  0
   -3.2557   -1.4200    0.4140 C   0  0  0  0  0  0  0  0  0  0  0  0
   -3.9510   -0.6624    0.7833 H   0  0  0  0  0  0  0  0  0  0  0  0
   -3.5623   -1.7315   -0.5872 H   0  0  0  0  0  0  0  0  0  0  0  0
   -1.8486   -0.8547    0.3712 C   0  0  0  0  0  0  0  0  0  0  0  0
   -0.9703   -1.3791    1.0368 O   0  0  0  0  0  0  0  0  0  0  0  0
   -1.5933    0.2621   -0.4013 N   0  0  0  0  0  0  0  0  0  0  0  0
   -2.4108    0.7601   -0.7424 H   0  0  0  0  0  0  0  0  0  0  0  0
   -0.3152    0.9956   -0.3753 C   0  0  1  0  0  0  0  0  0  0  0  0
    0.2541    0.7452    0.5265 H   0  0  0  0  0  0  0  0  0  0  0  0
    0.5243    0.6157   -1.6159 C   0  0  0  0  0  0  0  0  0  0  0  0
   -0.0595    0.8018   -2.5232 H   0  0  0  0  0  0  0  0  0  0  0  0
    1.4160    1.2486   -1.6611 H   0  0  0  0  0  0  0  0  0  0  0  0
    0.9820   -0.8231   -1.5929 C   0  0  0  0  0  0  0  0  0  0  0  0
    2.1053   -1.1998   -0.8418 C   0  0  0  0  0  0  0  0  0  0  0  0
    2.6427   -0.4608   -0.2561 H   0  0  0  0  0  0  0  0  0  0  0  0
    2.5348   -2.5311   -0.8250 C   0  0  0  0  0  0  0  0  0  0  0  0
    3.3986   -2.8145   -0.2312 H   0  0  0  0  0  0  0  0  0  0  0  0
    1.8462   -3.4980   -1.5633 C   0  0  0  0  0  0  0  0  0  0  0  0
    2.1763   -4.5323   -1.5446 H   0  0  0  0  0  0  0  0  0  0  0  0
    0.7273   -3.1325   -2.3174 C   0  0  0  0  0  0  0  0  0  0  0  0
    0.1889   -3.8841   -2.8864 H   0  0  0  0  0  0  0  0  0  0  0  0
    0.2982   -1.8009   -2.3322 C   0  0  0  0  0  0  0  0  0  0  0  0
   -0.5758   -1.5304   -2.9156 H   0  0  0  0  0  0  0  0  0  0  0  0
   -0.5872    2.5181   -0.3149 C   0  0  0  0  0  0  0  0  0  0  0  0
   -1.3388    2.9587    0.5446 O   0  0  0  0  0  0  0  0  0  0  0  0
   -0.1423    3.3911   -1.2949 N   0  0  0  0  0  0  0  0  0  0  0  0
    0.4562    3.0162   -2.0241 H   0  0  0  0  0  0  0  0  0  0  0  0
   -0.4487    4.8171   -1.3009 C   0  0  0  0  0  0  0  0  0  0  0  0
   -0.0750    5.2930   -0.3881 H   0  0  0  0  0  0  0  0  0  0  0  0
    0.0230    5.3015   -2.1612 H   0  0  0  0  0  0  0  0  0  0  0  0
   -1.5301    4.9774   -1.3644 H   0  0  0  0  0  0  0  0  0  0  0  0
  1  2  1  0  0  0  0
  2  3  1  0  0  0  0
  2  4  1  0  0  0  0
  2  5  1  0  0  0  0
  5  6  2  0  0  0  0
  5  7  1  0  0  0  0
  7  8  1  0  0  0  0
  7  9  1  0  0  0  0
  9 10  1  0  0  0  0
  9 11  1  0  0  0  0
  9 25  1  0  0  0  0
 11 12  1  0  0  0  0
 11 13  1  0  0  0  0
 11 14  1  0  0  0  0
 14 15  1  0  0  0  0
 14 23  2  0  0  0  0
 15 16  1  0  0  0  0
 15 17  2  0  0  0  0
 17 18  1  0  0  0  0
 17 19  1  0  0  0  0
 19 20  1  0  0  0  0
 19 21  2  0  0  0  0
 21 22  1  0  0  0  0
 21 23  1  0  0  0  0
 23 24  1  0  0  0  0
 25 26  2  0  0  0  0
 25 27  1  0  0  0  0
 27 28  1  0  0  0  0
 27 29  1  0  0  0  0
 29 30  1  0  0  0  0
 29 31  1  0  0  0  0
 29 32  1  0  0  0  0
M  END
$$$$

  -OEChem-01062216093D

 32 32  0     1  0  0  0  0  0999 V2000
   -3.2849   -2.3068    1.0797 H   0  0  0  0  0  0  0  0  0  0  0  0
   -3.2517   -1.4449    0.4072 C   0  0  0  0  0  0  0  0  0  0  0  0
   -3.9634   -0.6951    0.7610 H   0  0  0  0  0  0  0  0  0  0  0  0
   -3.5396   -1.7692   -0.5955 H   0  0  0  0  0  0  0  0  0  0  0  0
   -1.8529   -0.8583    0.3792 C   0  0  0  0  0  0  0  0  0  0  0  0
   -0.9749   -1.3686    1.0555 O   0  0  0  0  0  0  0  0  0  0  0  0
   -1.6054    0.2599   -0.3945 N   0  0  0  0  0  0  0  0  0  0  0  0
   -2.4207    0.7270   -0.7803 H   0  0  0  0  0  0  0  0  0  0  0  0
   -0.3291    0.9970   -0.3821 C   0  0  1  0  0  0  0  0  0  0  0  0
    0.2474    0.7469    0.5156 H   0  0  0  0  0  0  0  0  0  0  0  0
    0.5079    0.6227   -1.6252 C   0  0  0  0  0  0  0  0  0  0  0  0
   -0.0799    0.7979   -2.5319 H   0  0  0  0  0  0  0  0  0  0  0  0
    1.3914    1.2676   -1.6750 H   0  0  0  0  0  0  0  0  0  0  0  0
    0.9726   -0.8133   -1.5982 C   0  0  0  0  0  0  0  0  0  0  0  0
    2.1000   -1.1787   -0.8480 C   0  0  0  0  0  0  0  0  0  0  0  0
    2.6360   -0.4327   -0.2697 H   0  0  0  0  0  0  0  0  0  0  0  0
    2.5353   -2.5079   -0.8220 C   0  0  0  0  0  0  0  0  0  0  0  0
    3.4026   -2.7824   -0.2292 H   0  0  0  0  0  0  0  0  0  0  0  0
    1.8479   -3.4841   -1.5487 C   0  0  0  0  0  0  0  0  0  0  0  0
    2.1824   -4.5167   -1.5216 H   0  0  0  0  0  0  0  0  0  0  0  0
    0.7248   -3.1297   -2.3017 C   0  0  0  0  0  0  0  0  0  0  0  0
    0.1873   -3.8889   -2.8614 H   0  0  0  0  0  0  0  0  0  0  0  0
    0.2902   -1.7998   -2.3270 C   0  0  0  0  0  0  0  0  0  0  0  0
   -0.5870   -1.5375   -2.9097 H   0  0  0  0  0  0  0  0  0  0  0  0
   -0.5952    2.5180   -0.3186 C   0  0  0  0  0  0  0  0  0  0  0  0
   -1.0903    3.0000    0.6902 O   0  0  0  0  0  0  0  0  0  0  0  0
   -0.4362    3.3392   -1.4233 N   0  0  0  0  0  0  0  0  0  0  0  0
   -0.0481    2.9265   -2.2658 H   0  0  0  0  0  0  0  0  0  0  0  0
   -0.7439    4.7650   -1.4145 C   0  0  0  0  0  0  0  0  0  0  0  0
   -0.1420    5.2826   -0.6599 H   0  0  0  0  0  0  0  0  0  0  0  0
   -0.5253    5.2055   -2.3919 H   0  0  0  0  0  0  0  0  0  0  0  0
   -1.8037    4.9270   -1.1913 H   0  0  0  0  0  0  0  0  0  0  0  0
  1  2  1  0  0  0  0
  2  3  1  0  0  0  0
  2  4  1  0  0  0  0
  2  5  1  0  0  0  0
  5  6  2  0  0  0  0
  5  7  1  0  0  0  0
  7  8  1  0  0  0  0
  7  9  1  0  0  0  0
  9 10  1  0  0  0  0
  9 11  1  0  0  0  0
  9 25  1  0  0  0  0
 11 12  1  0  0  0  0
 11 13  1  0  0  0  0
 11 14  1  0  0  0  0
 14 15  1  0  0  0  0
 14 23  2  0  0  0  0
 15 16  1  0  0  0  0
 15 17  2  0  0  0  0
 17 18  1  0  0  0  0
 17 19  1  0  0  0  0
 19 20  1  0  0  0  0
 19 21  2  0  0  0  0
 21 22  1  0  0  0  0
 21 23  1  0  0  0  0
 23 24  1  0  0  0  0
 25 26  2  0  0  0  0
 25 27  1  0  0  0  0
 27 28  1  0  0  0  0
 27 29  1  0  0  0  0
 29 30  1  0  0  0  0
 29 31  1  0  0  0  0
 29 32  1  0  0  0  0
M  END
$$$$

  -OEChem-01062216093D

 32 32  0     1  0  0  0  0  0999 V2000
   -3.2717   -2.3421    1.0772 H   0  0  0  0  0  0  0  0  0  0  0  0
   -3.2459   -1.4821    0.4019 C   0  0  0  0  0  0  0  0  0  0  0  0
   -3.9807   -0.7477    0.7402 H   0  0  0  0  0  0  0  0  0  0  0  0
   -3.5083   -1.8169   -0.6042 H   0  0  0  0  0  0  0  0  0  0  0  0
   -1.8598   -0.8651    0.3969 C   0  0  0  0  0  0  0  0  0  0  0  0
   -0.9825   -1.3577    1.0863 O   0  0  0  0  0  0  0  0  0  0  0  0
   -1.6197    0.2539   -0.3785 N   0  0  0  0  0  0  0  0  0  0  0  0
   -2.4290    0.6842   -0.8151 H   0  0  0  0  0  0  0  0  0  0  0  0
   -0.3475    0.9991   -0.3756 C   0  0  1  0  0  0  0  0  0  0  0  0
    0.2359    0.7501    0.5183 H   0  0  0  0  0  0  0  0  0  0  0  0
    0.4862    0.6351   -1.6224 C   0  0  0  0  0  0  0  0  0  0  0  0
   -0.1049    0.8044   -2.5276 H   0  0  0  0  0  0  0  0  0  0  0  0
    1.3621    1.2906   -1.6751 H   0  0  0  0  0  0  0  0  0  0  0  0
    0.9609   -0.7978   -1.5965 C   0  0  0  0  0  0  0  0  0  0  0  0
    2.0933   -1.1568   -0.8508 C   0  0  0  0  0  0  0  0  0  0  0  0
    2.6284   -0.4067   -0.2767 H   0  0  0  0  0  0  0  0  0  0  0  0
    2.5339   -2.4842   -0.8234 C   0  0  0  0  0  0  0  0  0  0  0  0
    3.4042   -2.7538   -0.2329 H   0  0  0  0  0  0  0  0  0  0  0  0
    1.8476   -3.4645   -1.5457 C   0  0  0  0  0  0  0  0  0  0  0  0
    2.1858   -4.4959   -1.5176 H   0  0  0  0  0  0  0  0  0  0  0  0
    0.7206   -3.1162   -2.2958 C   0  0  0  0  0  0  0  0  0  0  0  0
    0.1844   -3.8780   -2.8534 H   0  0  0  0  0  0  0  0  0  0  0  0
    0.2802   -1.7886   -2.3208 C   0  0  0  0  0  0  0  0  0  0  0  0
   -0.6006   -1.5317   -2.8998 H   0  0  0  0  0  0  0  0  0  0  0  0
   -0.6128    2.5182   -0.3132 C   0  0  0  0  0  0  0  0  0  0  0  0
   -0.8014    3.0604    0.7658 O   0  0  0  0  0  0  0  0  0  0  0  0
   -0.7599    3.2730   -1.4656 N   0  0  0  0  0  0  0  0  0  0  0  0
   -0.6057    2.8095   -2.3556 H   0  0  0  0  0  0  0  0  0  0  0  0
   -1.0474    4.7029   -1.4556 C   0  0  0  0  0  0  0  0  0  0  0  0
   -0.2645    5.2477   -0.9172 H   0  0  0  0  0  0  0  0  0  0  0  0
   -1.0938    5.0875   -2.4789 H   0  0  0  0  0  0  0  0  0  0  0  0
   -2.0092    4.8972   -0.9693 H   0  0  0  0  0  0  0  0  0  0  0  0
  1  2  1  0  0  0  0
  2  3  1  0  0  0  0
  2  4  1  0  0  0  0
  2  5  1  0  0  0  0
  5  6  2  0  0  0  0
  5  7  1  0  0  0  0
  7  8  1  0  0  0  0
  7  9  1  0  0  0  0
  9 10  1  0  0  0  0
  9 11  1  0  0  0  0
  9 25  1  0  0  0  0
 11 12  1  0  0  0  0
 11 13  1  0  0  0  0
 11 14  1  0  0  0  0
 14 15  1  0  0  0  0
 14 23  2  0  0  0  0
 15 16  1  0  0  0  0
 15 17  2  0  0  0  0
 17 18  1  0  0  0  0
 17 19  1  0  0  0  0
 19 20  1  0  0  0  0
 19 21  2  0  0  0  0
 21 22  1  0  0  0  0
 21 23  1  0  0  0  0
 23 24  1  0  0  0  0
 25 26  2  0  0  0  0
 25 27  1  0  0  0  0
 27 28  1  0  0  0  0
 27 29  1  0  0  0  0
 29 30  1  0  0  0  0
 29 31  1  0  0  0  0
 29 32  1  0  0  0  0
M  END
$$$$

  -OEChem-01062216093D

 32 32  0     1  0  0  0  0  0999 V2000
   -3.2721   -2.3787    1.0805 H   0  0  0  0  0  0  0  0  0  0  0  0
   -3.2496   -1.5183    0.4055 C   0  0  0  0  0  0  0  0  0  0  0  0
   -4.0034   -0.7972    0.7306 H   0  0  0  0  0  0  0  0  0  0  0  0
   -3.4881   -1.8583   -0.6049 H   0  0  0  0  0  0  0  0  0  0  0  0
   -1.8755   -0.8756    0.4250 C   0  0  0  0  0  0  0  0  0  0  0  0
   -1.0051   -1.3457    1.1381 O   0  0  0  0  0  0  0  0  0  0  0  0
   -1.6401    0.2429   -0.3531 N   0  0  0  0  0  0  0  0  0  0  0  0
   -2.4419    0.6414   -0.8312 H   0  0  0  0  0  0  0  0  0  0  0  0
   -0.3711    0.9948   -0.3550 C   0  0  1  0  0  0  0  0  0  0  0  0
    0.2181    0.7456    0.5355 H   0  0  0  0  0  0  0  0  0  0  0  0
    0.4612    0.6488   -1.6064 C   0  0  0  0  0  0  0  0  0  0  0  0
   -0.1314    0.8225   -2.5095 H   0  0  0  0  0  0  0  0  0  0  0  0
    1.3315    1.3122   -1.6545 H   0  0  0  0  0  0  0  0  0  0  0  0
    0.9451   -0.7810   -1.5905 C   0  0  0  0  0  0  0  0  0  0  0  0
    2.0813   -1.1354   -0.8485 C   0  0  0  0  0  0  0  0  0  0  0  0
    2.6095   -0.3846   -0.2685 H   0  0  0  0  0  0  0  0  0  0  0  0
    2.5342   -2.4588   -0.8315 C   0  0  0  0  0  0  0  0  0  0  0  0
    3.4074   -2.7247   -0.2433 H   0  0  0  0  0  0  0  0  0  0  0  0
    1.8567   -3.4397   -1.5616 C   0  0  0  0  0  0  0  0  0  0  0  0
    2.2055   -4.4679   -1.5433 H   0  0  0  0  0  0  0  0  0  0  0  0
    0.7259   -3.0956   -2.3082 C   0  0  0  0  0  0  0  0  0  0  0  0
    0.1976   -3.8574   -2.8731 H   0  0  0  0  0  0  0  0  0  0  0  0
    0.2728   -1.7720   -2.3226 C   0  0  0  0  0  0  0  0  0  0  0  0
   -0.6093   -1.5187   -2.9014 H   0  0  0  0  0  0  0  0  0  0  0  0
   -0.6352    2.5121   -0.2966 C   0  0  0  0  0  0  0  0  0  0  0  0
   -0.4947    3.1241    0.7517 O   0  0  0  0  0  0  0  0  0  0  0  0
   -1.0859    3.1958   -1.4137 N   0  0  0  0  0  0  0  0  0  0  0  0
   -1.1577    2.6789   -2.2841 H   0  0  0  0  0  0  0  0  0  0  0  0
   -1.3390    4.6319   -1.4228 C   0  0  0  0  0  0  0  0  0  0  0  0
   -0.4282    5.1829   -1.1651 H   0  0  0  0  0  0  0  0  0  0  0  0
   -1.6676    4.9527   -2.4161 H   0  0  0  0  0  0  0  0  0  0  0  0
   -2.1217    4.8872   -0.7005 H   0  0  0  0  0  0  0  0  0  0  0  0
  1  2  1  0  0  0  0
  2  3  1  0  0  0  0
  2  4  1  0  0  0  0
  2  5  1  0  0  0  0
  5  6  2  0  0  0  0
  5  7  1  0  0  0  0
  7  8  1  0  0  0  0
  7  9  1  0  0  0  0
  9 10  1  0  0  0  0
  9 11  1  0  0  0  0
  9 25  1  0  0  0  0
 11 12  1  0  0  0  0
 11 13  1  0  0  0  0
 11 14  1  0  0  0  0
 14 15  1  0  0  0  0
 14 23  2  0  0  0  0
 15 16  1  0  0  0  0
 15 17  2  0  0  0  0
 17 18  1  0  0  0  0
 17 19  1  0  0  0  0
 19 20  1  0  0  0  0
 19 21  2  0  0  0  0
 21 22  1  0  0  0  0
 21 23  1  0  0  0  0
 23 24  1  0  0  0  0
 25 26  2  0  0  0  0
 25 27  1  0  0  0  0
 27 28  1  0  0  0  0
 27 29  1  0  0  0  0
 29 30  1  0  0  0  0
 29 31  1  0  0  0  0
 29 32  1  0  0  0  0
M  END
$$$$

  -OEChem-01062216093D

 32 32  0     1  0  0  0  0  0999 V2000
   -3.2586   -2.4314    1.0721 H   0  0  0  0  0  0  0  0  0  0  0  0
   -3.2421   -1.5678    0.4010 C   0  0  0  0  0  0  0  0  0  0  0  0
   -4.0255   -0.8702    0.7067 H   0  0  0  0  0  0  0  0  0  0  0  0
   -3.4421   -1.9103   -0.6169 H   0  0  0  0  0  0  0  0  0  0  0  0
   -1.8878   -0.8868    0.4618 C   0  0  0  0  0  0  0  0  0  0  0  0
   -1.0311   -1.3223    1.2120 O   0  0  0  0  0  0  0  0  0  0  0  0
   -1.6567    0.2306   -0.3190 N   0  0  0  0  0  0  0  0  0  0  0  0
   -2.4440    0.5859   -0.8509 H   0  0  0  0  0  0  0  0  0  0  0  0
   -0.3919    0.9914   -0.3216 C   0  0  1  0  0  0  0  0  0  0  0  0
    0.2029    0.7407    0.5645 H   0  0  0  0  0  0  0  0  0  0  0  0
    0.4329    0.6627   -1.5803 C   0  0  0  0  0  0  0  0  0  0  0  0
   -0.1664    0.8451   -2.4773 H   0  0  0  0  0  0  0  0  0  0  0  0
    1.2992    1.3317   -1.6275 H   0  0  0  0  0  0  0  0  0  0  0  0
    0.9249   -0.7643   -1.5795 C   0  0  0  0  0  0  0  0  0  0  0  0
    2.0679   -1.1169   -0.8475 C   0  0  0  0  0  0  0  0  0  0  0  0
    2.5938   -0.3666   -0.2647 H   0  0  0  0  0  0  0  0  0  0  0  0
    2.5312   -2.4367   -0.8463 C   0  0  0  0  0  0  0  0  0  0  0  0
    3.4111   -2.7008   -0.2675 H   0  0  0  0  0  0  0  0  0  0  0  0
    1.8566   -3.4157   -1.5817 C   0  0  0  0  0  0  0  0  0  0  0  0
    2.2143   -4.4410   -1.5759 H   0  0  0  0  0  0  0  0  0  0  0  0
    0.7184   -3.0736   -2.3179 C   0  0  0  0  0  0  0  0  0  0  0  0
    0.1931   -3.8346   -2.8868 H   0  0  0  0  0  0  0  0  0  0  0  0
    0.2556   -1.7533   -2.3172 C   0  0  0  0  0  0  0  0  0  0  0  0
   -0.6302   -1.5002   -2.8900 H   0  0  0  0  0  0  0  0  0  0  0  0
   -0.6517    2.5085   -0.2691 C   0  0  0  0  0  0  0  0  0  0  0  0
   -0.2061    3.1831    0.6472 O   0  0  0  0  0  0  0  0  0  0  0  0
   -1.3806    3.1305   -1.2694 N   0  0  0  0  0  0  0  0  0  0  0  0
   -1.6559    2.5685   -2.0680 H   0  0  0  0  0  0  0  0  0  0  0  0
   -1.6031    4.5711   -1.3121 C   0  0  0  0  0  0  0  0  0  0  0  0
   -0.6481    5.1058   -1.3492 H   0  0  0  0  0  0  0  0  0  0  0  0
   -2.1840    4.8385   -2.1999 H   0  0  0  0  0  0  0  0  0  0  0  0
   -2.1560    4.8994   -0.4257 H   0  0  0  0  0  0  0  0  0  0  0  0
  1  2  1  0  0  0  0
  2  3  1  0  0  0  0
  2  4  1  0  0  0  0
  2  5  1  0  0  0  0
  5  6  2  0  0  0  0
  5  7  1  0  0  0  0
  7  8  1  0  0  0  0
  7  9  1  0  0  0  0
  9 10  1  0  0  0  0
  9 11  1  0  0  0  0
  9 25  1  0  0  0  0
 11 12  1  0  0  0  0
 11 13  1  0  0  0  0
 11 14  1  0  0  0  0
 14 15  1  0  0  0  0
 14 23  2  0  0  0  0
 15 16  1  0  0  0  0
 15 17  2  0  0  0  0
 17 18  1  0  0  0  0
 17 19  1  0  0  0  0
 19 20  1  0  0  0  0
 19 21  2  0  0  0  0
 21 22  1  0  0  0  0
 21 23  1  0  0  0  0
 23 24  1  0  0  0  0
 25 26  2  0  0  0  0
 25 27  1  0  0  0  0
 27 28  1  0  0  0  0
 27 29  1  0  0  0  0
 29 30  1  0  0  0  0
 29 31  1  0  0  0  0
 29 32  1  0  0  0  0
M  END
$$$$

  -OEChem-01062216093D

 32 32  0     1  0  0  0  0  0999 V2000
   -3.1134   -2.5528    1.0013 H   0  0  0  0  0  0  0  0  0  0  0  0
   -3.1094   -1.7124    0.3012 C   0  0  0  0  0  0  0  0  0  0  0  0
   -4.0145   -1.1207    0.4570 H   0  0  0  0  0  0  0  0  0  0  0  0
   -3.1072   -2.1056   -0.7180 H   0  0  0  0  0  0  0  0  0  0  0  0
   -1.8808   -0.8518    0.5292 C   0  0  0  0  0  0  0  0  0  0  0  0
   -1.1035   -1.1416    1.4226 O   0  0  0  0  0  0  0  0  0  0  0  0
   -1.6740    0.2590   -0.2687 N   0  0  0  0  0  0  0  0  0  0  0  0
   -2.3207    0.3752   -1.0400 H   0  0  0  0  0  0  0  0  0  0  0  0
   -0.4071    1.0195   -0.2922 C   0  0  1  0  0  0  0  0  0  0  0  0
    0.2036    0.7693    0.5831 H   0  0  0  0  0  0  0  0  0  0  0  0
    0.3898    0.6815   -1.5652 C   0  0  0  0  0  0  0  0  0  0  0  0
   -0.2231    0.8694   -2.4523 H   0  0  0  0  0  0  0  0  0  0  0  0
    1.2615    1.3422   -1.6295 H   0  0  0  0  0  0  0  0  0  0  0  0
    0.8709   -0.7493   -1.5605 C   0  0  0  0  0  0  0  0  0  0  0  0
    2.0242   -1.1051   -0.8469 C   0  0  0  0  0  0  0  0  0  0  0  0
    2.5683   -0.3532   -0.2826 H   0  0  0  0  0  0  0  0  0  0  0  0
    2.4740   -2.4295   -0.8401 C   0  0  0  0  0  0  0  0  0  0  0  0
    3.3622   -2.6958   -0.2751 H   0  0  0  0  0  0  0  0  0  0  0  0
    1.7773   -3.4093   -1.5536 C   0  0  0  0  0  0  0  0  0  0  0  0
    2.1265   -4.4376   -1.5451 H   0  0  0  0  0  0  0  0  0  0  0  0
    0.6305   -3.0631   -2.2743 C   0  0  0  0  0  0  0  0  0  0  0  0
    0.0903   -3.8243   -2.8291 H   0  0  0  0  0  0  0  0  0  0  0  0
    0.1810   -1.7382   -2.2790 C   0  0  0  0  0  0  0  0  0  0  0  0
   -0.7082   -1.4809   -2.8449 H   0  0  0  0  0  0  0  0  0  0  0  0
   -0.6370    2.5426   -0.2466 C   0  0  0  0  0  0  0  0  0  0  0  0
    0.1168    3.2565    0.3989 O   0  0  0  0  0  0  0  0  0  0  0  0
   -1.6035    3.1381   -1.0402 N   0  0  0  0  0  0  0  0  0  0  0  0
   -2.2020    2.5322   -1.5891 H   0  0  0  0  0  0  0  0  0  0  0  0
   -1.8170    4.5794   -1.0959 C   0  0  0  0  0  0  0  0  0  0  0  0
   -0.9263    5.0833   -1.4858 H   0  0  0  0  0  0  0  0  0  0  0  0
   -2.6612    4.8120   -1.7521 H   0  0  0  0  0  0  0  0  0  0  0  0
   -2.0369    4.9736   -0.0980 H   0  0  0  0  0  0  0  0  0  0  0  0
  1  2  1  0  0  0  0
  2  3  1  0  0  0  0
  2  4  1  0  0  0  0
  2  5  1  0  0  0  0
  5  6  2  0  0  0  0
  5  7  1  0  0  0  0
  7  8  1  0  0  0  0
  7  9  1  0  0  0  0
  9 10  1  0  0  0  0
  9 11  1  0  0  0  0
  9 25  1  0  0  0  0
 11 12  1  0  0  0  0
 11 13  1  0  0  0  0
 11 14  1  0  0  0  0
 14 15  1  0  0  0  0
 14 23  2  0  0  0  0
 15 16  1  0  0  0  0
 15 17  2  0  0  0  0
 17 18  1  0  0  0  0
 17 19  1  0  0  0  0
 19 20  1  0  0  0  0
 19 21  2  0  0  0  0
 21 22  1  0  0  0  0
 21 23  1  0  0  0  0
 23 24  1  0  0  0  0
 25 26  2  0  0  0  0
 25 27  1  0  0  0  0
 27 28  1  0  0  0  0
 27 29  1  0  0  0  0
 29 30  1  0  0  0  0
 29 31  1  0  0  0  0
 29 32  1  0  0  0  0
M  END
$$$$

  -OEChem-01062216093D

 32 32  0     1  0  0  0  0  0999 V2000
   -2.9965   -2.6191    0.9478 H   0  0  0  0  0  0  0  0  0  0  0  0
   -3.0166   -1.7787    0.2479 C   0  0  0  0  0  0  0  0  0  0  0  0
   -3.9718   -1.2583    0.3499 H   0  0  0  0  0  0  0  0  0  0  0  0
   -2.9247   -2.1680   -0.7688 H   0  0  0  0  0  0  0  0  0  0  0  0
   -1.8725   -0.8276    0.5448 C   0  0  0  0  0  0  0  0  0  0  0  0
   -1.1508   -1.0385    1.5046 O   0  0  0  0  0  0  0  0  0  0  0  0
   -1.6815    0.2778   -0.2647 N   0  0  0  0  0  0  0  0  0  0  0  0
   -2.2438    0.2889   -1.1087 H   0  0  0  0  0  0  0  0  0  0  0  0
   -0.4119    1.0355   -0.2884 C   0  0  1  0  0  0  0  0  0  0  0  0
    0.2022    0.7879    0.5850 H   0  0  0  0  0  0  0  0  0  0  0  0
    0.3753    0.6869   -1.5652 C   0  0  0  0  0  0  0  0  0  0  0  0
   -0.2424    0.8763   -2.4486 H   0  0  0  0  0  0  0  0  0  0  0  0
    1.2513    1.3408   -1.6401 H   0  0  0  0  0  0  0  0  0  0  0  0
    0.8455   -0.7478   -1.5550 C   0  0  0  0  0  0  0  0  0  0  0  0
    1.9997   -1.1087   -0.8456 C   0  0  0  0  0  0  0  0  0  0  0  0
    2.5532   -0.3578   -0.2890 H   0  0  0  0  0  0  0  0  0  0  0  0
    2.4384   -2.4369   -0.8327 C   0  0  0  0  0  0  0  0  0  0  0  0
    3.3271   -2.7076   -0.2702 H   0  0  0  0  0  0  0  0  0  0  0  0
    1.7298   -3.4153   -1.5366 C   0  0  0  0  0  0  0  0  0  0  0  0
    2.0704   -4.4465   -1.5229 H   0  0  0  0  0  0  0  0  0  0  0  0
    0.5839   -3.0634   -2.2561 C   0  0  0  0  0  0  0  0  0  0  0  0
    0.0368   -3.8230   -2.8064 H   0  0  0  0  0  0  0  0  0  0  0  0
    0.1456   -1.7347   -2.2668 C   0  0  0  0  0  0  0  0  0  0  0  0
   -0.7420   -1.4724   -2.8328 H   0  0  0  0  0  0  0  0  0  0  0  0
   -0.6302    2.5609   -0.2481 C   0  0  0  0  0  0  0  0  0  0  0  0
    0.2770    3.2952    0.1176 O   0  0  0  0  0  0  0  0  0  0  0  0
   -1.7697    3.1282   -0.7925 N   0  0  0  0  0  0  0  0  0  0  0  0
   -2.5456    2.5027   -0.9781 H   0  0  0  0  0  0  0  0  0  0  0  0
   -2.0098    4.5666   -0.8083 C   0  0  0  0  0  0  0  0  0  0  0  0
   -1.2110    5.0825   -1.3519 H   0  0  0  0  0  0  0  0  0  0  0  0
   -2.9602    4.7869   -1.3039 H   0  0  0  0  0  0  0  0  0  0  0  0
   -2.0507    4.9596    0.2131 H   0  0  0  0  0  0  0  0  0  0  0  0
  1  2  1  0  0  0  0
  2  3  1  0  0  0  0
  2  4  1  0  0  0  0
  2  5  1  0  0  0  0
  5  6  2  0  0  0  0
  5  7  1  0  0  0  0
  7  8  1  0  0  0  0
  7  9  1  0  0  0  0
  9 10  1  0  0  0  0
  9 11  1  0  0  0  0
  9 25  1  0  0  0  0
 11 12  1  0  0  0  0
 11 13  1  0  0  0  0
 11 14  1  0  0  0  0
 14 15  1  0  0  0  0
 14 23  2  0  0  0  0
 15 16  1  0  0  0  0
 15 17  2  0  0  0  0
 17 18  1  0  0  0  0
 17 19  1  0  0  0  0
 19 20  1  0  0  0  0
 19 21  2  0  0  0  0
 21 22  1  0  0  0  0
 21 23  1  0  0  0  0
 23 24  1  0  0  0  0
 25 26  2  0  0  0  0
 25 27  1  0  0  0  0
 27 28  1  0  0  0  0
 27 29  1  0  0  0  0
 29 30  1  0  0  0  0
 29 31  1  0  0  0  0
 29 32  1  0  0  0  0
M  END
$$$$

  -OEChem-01062216093D

 32 32  0     1  0  0  0  0  0999 V2000
   -2.9673   -2.6299    0.9232 H   0  0  0  0  0  0  0  0  0  0  0  0
   -2.9853   -1.7930    0.2191 C   0  0  0  0  0  0  0  0  0  0  0  0
   -3.9516   -1.2891    0.2953 H   0  0  0  0  0  0  0  0  0  0  0  0
   -2.8627   -2.1855   -0.7931 H   0  0  0  0  0  0  0  0  0  0  0  0
   -1.8648   -0.8210    0.5374 C   0  0  0  0  0  0  0  0  0  0  0  0
   -1.1636   -1.0112    1.5165 O   0  0  0  0  0  0  0  0  0  0  0  0
   -1.6748    0.2859   -0.2699 N   0  0  0  0  0  0  0  0  0  0  0  0
   -2.2219    0.2883   -1.1248 H   0  0  0  0  0  0  0  0  0  0  0  0
   -0.4045    1.0430   -0.2899 C   0  0  1  0  0  0  0  0  0  0  0  0
    0.2100    0.7948    0.5826 H   0  0  0  0  0  0  0  0  0  0  0  0
    0.3775    0.6865   -1.5696 C   0  0  0  0  0  0  0  0  0  0  0  0
   -0.2431    0.8774   -2.4508 H   0  0  0  0  0  0  0  0  0  0  0  0
    1.2575    1.3339   -1.6516 H   0  0  0  0  0  0  0  0  0  0  0  0
    0.8409   -0.7509   -1.5560 C   0  0  0  0  0  0  0  0  0  0  0  0
    1.9959   -1.1144   -0.8488 C   0  0  0  0  0  0  0  0  0  0  0  0
    2.5556   -0.3630   -0.2991 H   0  0  0  0  0  0  0  0  0  0  0  0
    2.4279   -2.4447   -0.8308 C   0  0  0  0  0  0  0  0  0  0  0  0
    3.3178   -2.7170   -0.2710 H   0  0  0  0  0  0  0  0  0  0  0  0
    1.7128   -3.4227   -1.5283 C   0  0  0  0  0  0  0  0  0  0  0  0
    2.0485   -4.4555   -1.5111 H   0  0  0  0  0  0  0  0  0  0  0  0
    0.5667   -3.0686   -2.2463 C   0  0  0  0  0  0  0  0  0  0  0  0
    0.0152   -3.8282   -2.7921 H   0  0  0  0  0  0  0  0  0  0  0  0
    0.1347   -1.7378   -2.2619 C   0  0  0  0  0  0  0  0  0  0  0  0
   -0.7523   -1.4739   -2.8282 H   0  0  0  0  0  0  0  0  0  0  0  0
   -0.6264    2.5689   -0.2457 C   0  0  0  0  0  0  0  0  0  0  0  0
    0.3282    3.3230   -0.1161 O   0  0  0  0  0  0  0  0  0  0  0  0
   -1.8755    3.1078   -0.5008 N   0  0  0  0  0  0  0  0  0  0  0  0
   -2.6580    2.4633   -0.4556 H   0  0  0  0  0  0  0  0  0  0  0  0
   -2.1452    4.5402   -0.4613 C   0  0  0  0  0  0  0  0  0  0  0  0
   -1.5148    5.0690   -1.1839 H   0  0  0  0  0  0  0  0  0  0  0  0
   -3.1924    4.7349   -0.7117 H   0  0  0  0  0  0  0  0  0  0  0  0
   -1.9463    4.9405    0.5384 H   0  0  0  0  0  0  0  0  0  0  0  0
  1  2  1  0  0  0  0
  2  3  1  0  0  0  0
  2  4  1  0  0  0  0
  2  5  1  0  0  0  0
  5  6  2  0  0  0  0
  5  7  1  0  0  0  0
  7  8  1  0  0  0  0
  7  9  1  0  0  0  0
  9 10  1  0  0  0  0
  9 11  1  0  0  0  0
  9 25  1  0  0  0  0
 11 12  1  0  0  0  0
 11 13  1  0  0  0  0
 11 14  1  0  0  0  0
 14 15  1  0  0  0  0
 14 23  2  0  0  0  0
 15 16  1  0  0  0  0
 15 17  2  0  0  0  0
 17 18  1  0  0  0  0
 17 19  1  0  0  0  0
 19 20  1  0  0  0  0
 19 21  2  0  0  0  0
 21 22  1  0  0  0  0
 21 23  1  0  0  0  0
 23 24  1  0  0  0  0
 25 26  2  0  0  0  0
 25 27  1  0  0  0  0
 27 28  1  0  0  0  0
 27 29  1  0  0  0  0
 29 30  1  0  0  0  0
 29 31  1  0  0  0  0
 29 32  1  0  0  0  0
M  END
$$$$

  -OEChem-01062216093D

 32 32  0     1  0  0  0  0  0999 V2000
   -2.9618   -2.6250    0.9044 H   0  0  0  0  0  0  0  0  0  0  0  0
   -2.9789   -1.7870    0.2017 C   0  0  0  0  0  0  0  0  0  0  0  0
   -3.9442   -1.2814    0.2799 H   0  0  0  0  0  0  0  0  0  0  0  0
   -2.8582   -2.1780   -0.8115 H   0  0  0  0  0  0  0  0  0  0  0  0
   -1.8557   -0.8184    0.5209 C   0  0  0  0  0  0  0  0  0  0  0  0
   -1.1544   -1.0107    1.4997 O   0  0  0  0  0  0  0  0  0  0  0  0
   -1.6638    0.2922   -0.2802 N   0  0  0  0  0  0  0  0  0  0  0  0
   -2.2257    0.3181   -1.1255 H   0  0  0  0  0  0  0  0  0  0  0  0
   -0.3930    1.0493   -0.2988 C   0  0  1  0  0  0  0  0  0  0  0  0
    0.2211    0.8022    0.5740 H   0  0  0  0  0  0  0  0  0  0  0  0
    0.3866    0.6839   -1.5793 C   0  0  0  0  0  0  0  0  0  0  0  0
   -0.2349    0.8730   -2.4601 H   0  0  0  0  0  0  0  0  0  0  0  0
    1.2704    1.3253   -1.6682 H   0  0  0  0  0  0  0  0  0  0  0  0
    0.8456   -0.7551   -1.5590 C   0  0  0  0  0  0  0  0  0  0  0  0
    2.0003   -1.1202   -0.8521 C   0  0  0  0  0  0  0  0  0  0  0  0
    2.5646   -0.3687   -0.3072 H   0  0  0  0  0  0  0  0  0  0  0  0
    2.4265   -2.4524   -0.8288 C   0  0  0  0  0  0  0  0  0  0  0  0
    3.3167   -2.7261   -0.2701 H   0  0  0  0  0  0  0  0  0  0  0  0
    1.7052   -3.4304   -1.5200 C   0  0  0  0  0  0  0  0  0  0  0  0
    2.0363   -4.4646   -1.4995 H   0  0  0  0  0  0  0  0  0  0  0  0
    0.5592   -3.0746   -2.2373 C   0  0  0  0  0  0  0  0  0  0  0  0
    0.0027   -3.8336   -2.7786 H   0  0  0  0  0  0  0  0  0  0  0  0
    0.1336   -1.7420   -2.2588 C   0  0  0  0  0  0  0  0  0  0  0  0
   -0.7533   -1.4758   -2.8244 H   0  0  0  0  0  0  0  0  0  0  0  0
   -0.6247    2.5753   -0.2471 C   0  0  0  0  0  0  0  0  0  0  0  0
    0.3167    3.3509   -0.3447 O   0  0  0  0  0  0  0  0  0  0  0  0
   -1.9086    3.0882   -0.1896 N   0  0  0  0  0  0  0  0  0  0  0  0
   -2.6436    2.4242    0.0344 H   0  0  0  0  0  0  0  0  0  0  0  0
   -2.1939    4.5141   -0.0850 C   0  0  0  0  0  0  0  0  0  0  0  0
   -1.7705    5.0539   -0.9386 H   0  0  0  0  0  0  0  0  0  0  0  0
   -3.2748    4.6834   -0.0732 H   0  0  0  0  0  0  0  0  0  0  0  0
   -1.7676    4.9231    0.8368 H   0  0  0  0  0  0  0  0  0  0  0  0
  1  2  1  0  0  0  0
  2  3  1  0  0  0  0
  2  4  1  0  0  0  0
  2  5  1  0  0  0  0
  5  6  2  0  0  0  0
  5  7  1  0  0  0  0
  7  8  1  0  0  0  0
  7  9  1  0  0  0  0
  9 10  1  0  0  0  0
  9 11  1  0  0  0  0
  9 25  1  0  0  0  0
 11 12  1  0  0  0  0
 11 13  1  0  0  0  0
 11 14  1  0  0  0  0
 14 15  1  0  0  0  0
 14 23  2  0  0  0  0
 15 16  1  0  0  0  0
 15 17  2  0  0  0  0
 17 18  1  0  0  0  0
 17 19  1  0  0  0  0
 19 20  1  0  0  0  0
 19 21  2  0  0  0  0
 21 22  1  0  0  0  0
 21 23  1  0  0  0  0
 23 24  1  0  0  0  0
 25 26  2  0  0  0  0
 25 27  1  0  0  0  0
 27 28  1  0  0  0  0
 27 29  1  0  0  0  0
 29 30  1  0  0  0  0
 29 31  1  0  0  0  0
 29 32  1  0  0  0  0
M  END
$$$$

  -OEChem-01062216093D

 32 32  0     1  0  0  0  0  0999 V2000
   -2.9793   -2.6047    0.8913 H   0  0  0  0  0  0  0  0  0  0  0  0
   -2.9935   -1.7607    0.1957 C   0  0  0  0  0  0  0  0  0  0  0  0
   -3.9478   -1.2382    0.2946 H   0  0  0  0  0  0  0  0  0  0  0  0
   -2.8980   -2.1454   -0.8224 H   0  0  0  0  0  0  0  0  0  0  0  0
   -1.8474   -0.8151    0.5026 C   0  0  0  0  0  0  0  0  0  0  0  0
   -1.1375   -1.0221    1.4721 O   0  0  0  0  0  0  0  0  0  0  0  0
   -1.6508    0.3010   -0.2892 N   0  0  0  0  0  0  0  0  0  0  0  0
   -2.2350    0.3590   -1.1181 H   0  0  0  0  0  0  0  0  0  0  0  0
   -0.3781    1.0542   -0.3103 C   0  0  1  0  0  0  0  0  0  0  0  0
    0.2364    0.8045    0.5612 H   0  0  0  0  0  0  0  0  0  0  0  0
    0.4017    0.6817   -1.5899 C   0  0  0  0  0  0  0  0  0  0  0  0
   -0.2188    0.8700   -2.4718 H   0  0  0  0  0  0  0  0  0  0  0  0
    1.2892    1.3171   -1.6809 H   0  0  0  0  0  0  0  0  0  0  0  0
    0.8561   -0.7585   -1.5634 C   0  0  0  0  0  0  0  0  0  0  0  0
    2.0089   -1.1255   -0.8546 C   0  0  0  0  0  0  0  0  0  0  0  0
    2.5755   -0.3742   -0.3124 H   0  0  0  0  0  0  0  0  0  0  0  0
    2.4297   -2.4594   -0.8261 C   0  0  0  0  0  0  0  0  0  0  0  0
    3.3181   -2.7345   -0.2653 H   0  0  0  0  0  0  0  0  0  0  0  0
    1.7053   -3.4371   -1.5146 C   0  0  0  0  0  0  0  0  0  0  0  0
    2.0320   -4.4724   -1.4901 H   0  0  0  0  0  0  0  0  0  0  0  0
    0.5619   -3.0790   -2.2346 C   0  0  0  0  0  0  0  0  0  0  0  0
    0.0024   -3.8370   -2.7744 H   0  0  0  0  0  0  0  0  0  0  0  0
    0.1414   -1.7450   -2.2608 C   0  0  0  0  0  0  0  0  0  0  0  0
   -0.7440   -1.4779   -2.8283 H   0  0  0  0  0  0  0  0  0  0  0  0
   -0.6220    2.5795   -0.2457 C   0  0  0  0  0  0  0  0  0  0  0  0
    0.2470    3.3756   -0.5761 O   0  0  0  0  0  0  0  0  0  0  0  0
   -1.8612    3.0663    0.1307 N   0  0  0  0  0  0  0  0  0  0  0  0
   -2.5093    2.3857    0.5172 H   0  0  0  0  0  0  0  0  0  0  0  0
   -2.1530    4.4865    0.2839 C   0  0  0  0  0  0  0  0  0  0  0  0
   -1.9723    5.0195   -0.6554 H   0  0  0  0  0  0  0  0  0  0  0  0
   -3.2014    4.6287    0.5630 H   0  0  0  0  0  0  0  0  0  0  0  0
   -1.5224    4.9246    1.0646 H   0  0  0  0  0  0  0  0  0  0  0  0
  1  2  1  0  0  0  0
  2  3  1  0  0  0  0
  2  4  1  0  0  0  0
  2  5  1  0  0  0  0
  5  6  2  0  0  0  0
  5  7  1  0  0  0  0
  7  8  1  0  0  0  0
  7  9  1  0  0  0  0
  9 10  1  0  0  0  0
  9 11  1  0  0  0  0
  9 25  1  0  0  0  0
 11 12  1  0  0  0  0
 11 13  1  0  0  0  0
 11 14  1  0  0  0  0
 14 15  1  0  0  0  0
 14 23  2  0  0  0  0
 15 16  1  0  0  0  0
 15 17  2  0  0  0  0
 17 18  1  0  0  0  0
 17 19  1  0  0  0  0
 19 20  1  0  0  0  0
 19 21  2  0  0  0  0
 21 22  1  0  0  0  0
 21 23  1  0  0  0  0
 23 24  1  0  0  0  0
 25 26  2  0  0  0  0
 25 27  1  0  0  0  0
 27 28  1  0  0  0  0
 27 29  1  0  0  0  0
 29 30  1  0  0  0  0
 29 31  1  0  0  0  0
 29 32  1  0  0  0  0
M  END
$$$$

  -OEChem-01062216093D

 32 32  0     1  0  0  0  0  0999 V2000
   -2.9974   -2.5822    0.8766 H   0  0  0  0  0  0  0  0  0  0  0  0
   -3.0034   -1.7315    0.1891 C   0  0  0  0  0  0  0  0  0  0  0  0
   -3.9483   -1.1943    0.3009 H   0  0  0  0  0  0  0  0  0  0  0  0
   -2.9225   -2.1076   -0.8335 H   0  0  0  0  0  0  0  0  0  0  0  0
   -1.8402   -0.8065    0.4938 C   0  0  0  0  0  0  0  0  0  0  0  0
   -1.1281   -1.0254    1.4594 O   0  0  0  0  0  0  0  0  0  0  0  0
   -1.6358    0.3135   -0.2893 N   0  0  0  0  0  0  0  0  0  0  0  0
   -2.2352    0.3979   -1.1050 H   0  0  0  0  0  0  0  0  0  0  0  0
   -0.3600    1.0588   -0.3124 C   0  0  1  0  0  0  0  0  0  0  0  0
    0.2553    0.8053    0.5575 H   0  0  0  0  0  0  0  0  0  0  0  0
    0.4175    0.6820   -1.5925 C   0  0  0  0  0  0  0  0  0  0  0  0
   -0.2027    0.8735   -2.4738 H   0  0  0  0  0  0  0  0  0  0  0  0
    1.3083    1.3129   -1.6836 H   0  0  0  0  0  0  0  0  0  0  0  0
    0.8651   -0.7603   -1.5664 C   0  0  0  0  0  0  0  0  0  0  0  0
    2.0168   -1.1318   -0.8581 C   0  0  0  0  0  0  0  0  0  0  0  0
    2.5877   -0.3824   -0.3178 H   0  0  0  0  0  0  0  0  0  0  0  0
    2.4318   -2.4673   -0.8280 C   0  0  0  0  0  0  0  0  0  0  0  0
    3.3196   -2.7455   -0.2680 H   0  0  0  0  0  0  0  0  0  0  0  0
    1.7017   -3.4427   -1.5137 C   0  0  0  0  0  0  0  0  0  0  0  0
    2.0236   -4.4796   -1.4879 H   0  0  0  0  0  0  0  0  0  0  0  0
    0.5584   -3.0805   -2.2320 C   0  0  0  0  0  0  0  0  0  0  0  0
   -0.0063   -3.8368   -2.7687 H   0  0  0  0  0  0  0  0  0  0  0  0
    0.1442   -1.7446   -2.2603 C   0  0  0  0  0  0  0  0  0  0  0  0
   -0.7412   -1.4740   -2.8262 H   0  0  0  0  0  0  0  0  0  0  0  0
   -0.6139    2.5818   -0.2357 C   0  0  0  0  0  0  0  0  0  0  0  0
    0.1204    3.3873   -0.7933 O   0  0  0  0  0  0  0  0  0  0  0  0
   -1.7270    3.0522    0.4371 N   0  0  0  0  0  0  0  0  0  0  0  0
   -2.2630    2.3638    0.9591 H   0  0  0  0  0  0  0  0  0  0  0  0
   -2.0257    4.4680    0.6121 C   0  0  0  0  0  0  0  0  0  0  0  0
   -2.1193    4.9630   -0.3603 H   0  0  0  0  0  0  0  0  0  0  0  0
   -2.9684    4.5913    1.1538 H   0  0  0  0  0  0  0  0  0  0  0  0
   -1.2305    4.9586    1.1829 H   0  0  0  0  0  0  0  0  0  0  0  0
  1  2  1  0  0  0  0
  2  3  1  0  0  0  0
  2  4  1  0  0  0  0
  2  5  1  0  0  0  0
  5  6  2  0  0  0  0
  5  7  1  0  0  0  0
  7  8  1  0  0  0  0
  7  9  1  0  0  0  0
  9 10  1  0  0  0  0
  9 11  1  0  0  0  0
  9 25  1  0  0  0  0
 11 12  1  0  0  0  0
 11 13  1  0  0  0  0
 11 14  1  0  0  0  0
 14 15  1  0  0  0  0
 14 23  2  0  0  0  0
 15 16  1  0  0  0  0
 15 17  2  0  0  0  0
 17 18  1  0  0  0  0
 17 19  1  0  0  0  0
 19 20  1  0  0  0  0
 19 21  2  0  0  0  0
 21 22  1  0  0  0  0
 21 23  1  0  0  0  0
 23 24  1  0  0  0  0
 25 26  2  0  0  0  0
 25 27  1  0  0  0  0
 27 28  1  0  0  0  0
 27 29  1  0  0  0  0
 29 30  1  0  0  0  0
 29 31  1  0  0  0  0
 29 32  1  0  0  0  0
M  END
$$$$

  -OEChem-01062216093D

 32 32  0     1  0  0  0  0  0999 V2000
   -3.0063   -2.5590    0.8789 H   0  0  0  0  0  0  0  0  0  0  0  0
   -3.0069   -1.7080    0.1919 C   0  0  0  0  0  0  0  0  0  0  0  0
   -3.9470   -1.1629    0.3056 H   0  0  0  0  0  0  0  0  0  0  0  0
   -2.9315   -2.0841   -0.8312 H   0  0  0  0  0  0  0  0  0  0  0  0
   -1.8353   -0.7931    0.4943 C   0  0  0  0  0  0  0  0  0  0  0  0
   -1.1218   -1.0186    1.4577 O   0  0  0  0  0  0  0  0  0  0  0  0
   -1.6239    0.3278   -0.2851 N   0  0  0  0  0  0  0  0  0  0  0  0
   -2.2328    0.4298   -1.0919 H   0  0  0  0  0  0  0  0  0  0  0  0
   -0.3438    1.0626   -0.3100 C   0  0  1  0  0  0  0  0  0  0  0  0
    0.2718    0.8056    0.5585 H   0  0  0  0  0  0  0  0  0  0  0  0
    0.4332    0.6832   -1.5895 C   0  0  0  0  0  0  0  0  0  0  0  0
   -0.1856    0.8786   -2.4711 H   0  0  0  0  0  0  0  0  0  0  0  0
    1.3259    1.3121   -1.6774 H   0  0  0  0  0  0  0  0  0  0  0  0
    0.8726   -0.7617   -1.5654 C   0  0  0  0  0  0  0  0  0  0  0  0
    2.0211   -1.1418   -0.8566 C   0  0  0  0  0  0  0  0  0  0  0  0
    2.5950   -0.3975   -0.3126 H   0  0  0  0  0  0  0  0  0  0  0  0
    2.4290   -2.4795   -0.8306 C   0  0  0  0  0  0  0  0  0  0  0  0
    3.3144   -2.7643   -0.2702 H   0  0  0  0  0  0  0  0  0  0  0  0
    1.6945   -3.4487   -1.5206 C   0  0  0  0  0  0  0  0  0  0  0  0
    2.0108   -4.4874   -1.4974 H   0  0  0  0  0  0  0  0  0  0  0  0
    0.5541   -3.0782   -2.2395 C   0  0  0  0  0  0  0  0  0  0  0  0
   -0.0138   -3.8299   -2.7796 H   0  0  0  0  0  0  0  0  0  0  0  0
    0.1476   -1.7399   -2.2639 C   0  0  0  0  0  0  0  0  0  0  0  0
   -0.7351   -1.4621   -2.8305 H   0  0  0  0  0  0  0  0  0  0  0  0
   -0.6016    2.5832   -0.2266 C   0  0  0  0  0  0  0  0  0  0  0  0
   -0.0544    3.3794   -0.9790 O   0  0  0  0  0  0  0  0  0  0  0  0
   -1.5158    3.0568    0.6960 N   0  0  0  0  0  0  0  0  0  0  0  0
   -1.9205    2.3721    1.3300 H   0  0  0  0  0  0  0  0  0  0  0  0
   -1.8213    4.4696    0.8811 C   0  0  0  0  0  0  0  0  0  0  0  0
   -2.2020    4.9043   -0.0489 H   0  0  0  0  0  0  0  0  0  0  0  0
   -2.5834    4.5929    1.6564 H   0  0  0  0  0  0  0  0  0  0  0  0
   -0.9241    5.0184    1.1858 H   0  0  0  0  0  0  0  0  0  0  0  0
  1  2  1  0  0  0  0
  2  3  1  0  0  0  0
  2  4  1  0  0  0  0
  2  5  1  0  0  0  0
  5  6  2  0  0  0  0
  5  7  1  0  0  0  0
  7  8  1  0  0  0  0
  7  9  1  0  0  0  0
  9 10  1  0  0  0  0
  9 11  1  0  0  0  0
  9 25  1  0  0  0  0
 11 12  1  0  0  0  0
 11 13  1  0  0  0  0
 11 14  1  0  0  0  0
 14 15  1  0  0  0  0
 14 23  2  0  0  0  0
 15 16  1  0  0  0  0
 15 17  2  0  0  0  0
 17 18  1  0  0  0  0
 17 19  1  0  0  0  0
 19 20  1  0  0  0  0
 19 21  2  0  0  0  0
 21 22  1  0  0  0  0
 21 23  1  0  0  0  0
 23 24  1  0  0  0  0
 25 26  2  0  0  0  0
 25 27  1  0  0  0  0
 27 28  1  0  0  0  0
 27 29  1  0  0  0  0
 29 30  1  0  0  0  0
 29 31  1  0  0  0  0
 29 32  1  0  0  0  0
M  END
$$$$

  -OEChem-01062216093D

 32 32  0     1  0  0  0  0  0999 V2000
   -3.0335   -2.5293    0.8843 H   0  0  0  0  0  0  0  0  0  0  0  0
   -3.0246   -1.6759    0.2004 C   0  0  0  0  0  0  0  0  0  0  0  0
   -3.9523   -1.1128    0.3264 H   0  0  0  0  0  0  0  0  0  0  0  0
   -2.9671   -2.0490   -0.8249 H   0  0  0  0  0  0  0  0  0  0  0  0
   -1.8320   -0.7855    0.4940 C   0  0  0  0  0  0  0  0  0  0  0  0
   -1.1114   -1.0288    1.4482 O   0  0  0  0  0  0  0  0  0  0  0  0
   -1.6090    0.3358   -0.2808 N   0  0  0  0  0  0  0  0  0  0  0  0
   -2.2282    0.4604   -1.0767 H   0  0  0  0  0  0  0  0  0  0  0  0
   -0.3255    1.0615   -0.3060 C   0  0  1  0  0  0  0  0  0  0  0  0
    0.2911    0.7978    0.5597 H   0  0  0  0  0  0  0  0  0  0  0  0
    0.4504    0.6832   -1.5860 C   0  0  0  0  0  0  0  0  0  0  0  0
   -0.1679    0.8821   -2.4674 H   0  0  0  0  0  0  0  0  0  0  0  0
    1.3423    1.3135   -1.6715 H   0  0  0  0  0  0  0  0  0  0  0  0
    0.8842   -0.7638   -1.5678 C   0  0  0  0  0  0  0  0  0  0  0  0
    2.0315   -1.1503   -0.8600 C   0  0  0  0  0  0  0  0  0  0  0  0
    2.6102   -0.4099   -0.3160 H   0  0  0  0  0  0  0  0  0  0  0  0
    2.4342   -2.4897   -0.8372 C   0  0  0  0  0  0  0  0  0  0  0  0
    3.3195   -2.7799   -0.2794 H   0  0  0  0  0  0  0  0  0  0  0  0
    1.6952   -3.4543   -1.5285 C   0  0  0  0  0  0  0  0  0  0  0  0
    2.0080   -4.4940   -1.5091 H   0  0  0  0  0  0  0  0  0  0  0  0
    0.5546   -3.0780   -2.2440 C   0  0  0  0  0  0  0  0  0  0  0  0
   -0.0172   -3.8269   -2.7835 H   0  0  0  0  0  0  0  0  0  0  0  0
    0.1528   -1.7380   -2.2649 C   0  0  0  0  0  0  0  0  0  0  0  0
   -0.7317   -1.4554   -2.8264 H   0  0  0  0  0  0  0  0  0  0  0  0
   -0.5816    2.5805   -0.2182 C   0  0  0  0  0  0  0  0  0  0  0  0
   -0.2647    3.3488   -1.1177 O   0  0  0  0  0  0  0  0  0  0  0  0
   -1.2385    3.0787    0.8911 N   0  0  0  0  0  0  0  0  0  0  0  0
   -1.5003    2.4085    1.6102 H   0  0  0  0  0  0  0  0  0  0  0  0
   -1.5599    4.4877    1.0784 C   0  0  0  0  0  0  0  0  0  0  0  0
   -2.2006    4.8461    0.2660 H   0  0  0  0  0  0  0  0  0  0  0  0
   -2.0898    4.6317    2.0249 H   0  0  0  0  0  0  0  0  0  0  0  0
   -0.6455    5.0898    1.0983 H   0  0  0  0  0  0  0  0  0  0  0  0
  1  2  1  0  0  0  0
  2  3  1  0  0  0  0
  2  4  1  0  0  0  0
  2  5  1  0  0  0  0
  5  6  2  0  0  0  0
  5  7  1  0  0  0  0
  7  8  1  0  0  0  0
  7  9  1  0  0  0  0
  9 10  1  0  0  0  0
  9 11  1  0  0  0  0
  9 25  1  0  0  0  0
 11 12  1  0  0  0  0
 11 13  1  0  0  0  0
 11 14  1  0  0  0  0
 14 15  1  0  0  0  0
 14 23  2  0  0  0  0
 15 16  1  0  0  0  0
 15 17  2  0  0  0  0
 17 18  1  0  0  0  0
 17 19  1  0  0  0  0
 19 20  1  0  0  0  0
 19 21  2  0  0  0  0
 21 22  1  0  0  0  0
 21 23  1  0  0  0  0
 23 24  1  0  0  0  0
 25 26  2  0  0  0  0
 25 27  1  0  0  0  0
 27 28  1  0  0  0  0
 27 29  1  0  0  0  0
 29 30  1  0  0  0  0
 29 31  1  0  0  0  0
 29 32  1  0  0  0  0
M  END
$$$$

  -OEChem-01062216093D

 32 32  0     1  0  0  0  0  0999 V2000
   -3.0665   -2.5062    0.8987 H   0  0  0  0  0  0  0  0  0  0  0  0
   -3.0534   -1.6456    0.2239 C   0  0  0  0  0  0  0  0  0  0  0  0
   -3.9637   -1.0615    0.3787 H   0  0  0  0  0  0  0  0  0  0  0  0
   -3.0306   -2.0088   -0.8064 H   0  0  0  0  0  0  0  0  0  0  0  0
   -1.8337   -0.7862    0.4975 C   0  0  0  0  0  0  0  0  0  0  0  0
   -1.1005   -1.0513    1.4366 O   0  0  0  0  0  0  0  0  0  0  0  0
   -1.5986    0.3326   -0.2767 N   0  0  0  0  0  0  0  0  0  0  0  0
   -2.2338    0.4878   -1.0545 H   0  0  0  0  0  0  0  0  0  0  0  0
   -0.3140    1.0533   -0.2977 C   0  0  1  0  0  0  0  0  0  0  0  0
    0.3006    0.7851    0.5679 H   0  0  0  0  0  0  0  0  0  0  0  0
    0.4653    0.6800   -1.5763 C   0  0  0  0  0  0  0  0  0  0  0  0
   -0.1514    0.8820   -2.4584 H   0  0  0  0  0  0  0  0  0  0  0  0
    1.3550    1.3138   -1.6561 H   0  0  0  0  0  0  0  0  0  0  0  0
    0.8988   -0.7673   -1.5677 C   0  0  0  0  0  0  0  0  0  0  0  0
    2.0444   -1.1605   -0.8603 C   0  0  0  0  0  0  0  0  0  0  0  0
    2.6245   -0.4250   -0.3111 H   0  0  0  0  0  0  0  0  0  0  0  0
    2.4456   -2.5007   -0.8477 C   0  0  0  0  0  0  0  0  0  0  0  0
    3.3306   -2.7960   -0.2922 H   0  0  0  0  0  0  0  0  0  0  0  0
    1.7064   -3.4595   -1.5467 C   0  0  0  0  0  0  0  0  0  0  0  0
    2.0177   -4.4998   -1.5352 H   0  0  0  0  0  0  0  0  0  0  0  0
    0.5673   -3.0764   -2.2609 C   0  0  0  0  0  0  0  0  0  0  0  0
   -0.0052   -3.8199   -2.8075 H   0  0  0  0  0  0  0  0  0  0  0  0
    0.1672   -1.7358   -2.2725 C   0  0  0  0  0  0  0  0  0  0  0  0
   -0.7166   -1.4485   -2.8330 H   0  0  0  0  0  0  0  0  0  0  0  0
   -0.5661    2.5719   -0.2145 C   0  0  0  0  0  0  0  0  0  0  0  0
   -0.4951    3.2943   -1.2012 O   0  0  0  0  0  0  0  0  0  0  0  0
   -0.9337    3.1205    0.9995 N   0  0  0  0  0  0  0  0  0  0  0  0
   -1.0459    2.4785    1.7806 H   0  0  0  0  0  0  0  0  0  0  0  0
   -1.2516    4.5303    1.1868 C   0  0  0  0  0  0  0  0  0  0  0  0
   -2.0960    4.8205    0.5531 H   0  0  0  0  0  0  0  0  0  0  0  0
   -1.5203    4.7207    2.2303 H   0  0  0  0  0  0  0  0  0  0  0  0
   -0.3888    5.1549    0.9329 H   0  0  0  0  0  0  0  0  0  0  0  0
  1  2  1  0  0  0  0
  2  3  1  0  0  0  0
  2  4  1  0  0  0  0
  2  5  1  0  0  0  0
  5  6  2  0  0  0  0
  5  7  1  0  0  0  0
  7  8  1  0  0  0  0
  7  9  1  0  0  0  0
  9 10  1  0  0  0  0
  9 11  1  0  0  0  0
  9 25  1  0  0  0  0
 11 12  1  0  0  0  0
 11 13  1  0  0  0  0
 11 14  1  0  0  0  0
 14 15  1  0  0  0  0
 14 23  2  0  0  0  0
 15 16  1  0  0  0  0
 15 17  2  0  0  0  0
 17 18  1  0  0  0  0
 17 19  1  0  0  0  0
 19 20  1  0  0  0  0
 19 21  2  0  0  0  0
 21 22  1  0  0  0  0
 21 23  1  0  0  0  0
 23 24  1  0  0  0  0
 25 26  2  0  0  0  0
 25 27  1  0  0  0  0
 27 28  1  0  0  0  0
 27 29  1  0  0  0  0
 29 30  1  0  0  0  0
 29 31  1  0  0  0  0
 29 32  1  0  0  0  0
M  END
$$$$

  -OEChem-01062216093D

 32 32  0     1  0  0  0  0  0999 V2000
   -3.1004   -2.4850    0.9175 H   0  0  0  0  0  0  0  0  0  0  0  0
   -3.0761   -1.6256    0.2417 C   0  0  0  0  0  0  0  0  0  0  0  0
   -3.9731   -1.0232    0.4037 H   0  0  0  0  0  0  0  0  0  0  0  0
   -3.0696   -1.9896   -0.7883 H   0  0  0  0  0  0  0  0  0  0  0  0
   -1.8364   -0.7912    0.5025 C   0  0  0  0  0  0  0  0  0  0  0  0
   -1.0901   -1.0817    1.4240 O   0  0  0  0  0  0  0  0  0  0  0  0
   -1.5893    0.3248   -0.2717 N   0  0  0  0  0  0  0  0  0  0  0  0
   -2.2390    0.5104   -1.0310 H   0  0  0  0  0  0  0  0  0  0  0  0
   -0.3042    1.0424   -0.2874 C   0  0  1  0  0  0  0  0  0  0  0  0
    0.3077    0.7690    0.5783 H   0  0  0  0  0  0  0  0  0  0  0  0
    0.4773    0.6782   -1.5661 C   0  0  0  0  0  0  0  0  0  0  0  0
   -0.1379    0.8847   -2.4483 H   0  0  0  0  0  0  0  0  0  0  0  0
    1.3665    1.3128   -1.6407 H   0  0  0  0  0  0  0  0  0  0  0  0
    0.9088   -0.7693   -1.5658 C   0  0  0  0  0  0  0  0  0  0  0  0
    2.0517   -1.1697   -0.8582 C   0  0  0  0  0  0  0  0  0  0  0  0
    2.6301   -0.4398   -0.3003 H   0  0  0  0  0  0  0  0  0  0  0  0
    2.4511   -2.5104   -0.8551 C   0  0  0  0  0  0  0  0  0  0  0  0
    3.3333   -2.8121   -0.2984 H   0  0  0  0  0  0  0  0  0  0  0  0
    1.7130   -3.4622   -1.5650 C   0  0  0  0  0  0  0  0  0  0  0  0
    2.0231   -4.5029   -1.5612 H   0  0  0  0  0  0  0  0  0  0  0  0
    0.5765   -3.0718   -2.2794 C   0  0  0  0  0  0  0  0  0  0  0  0
    0.0049   -3.8100   -2.8336 H   0  0  0  0  0  0  0  0  0  0  0  0
    0.1776   -1.7309   -2.2804 C   0  0  0  0  0  0  0  0  0  0  0  0
   -0.7048   -1.4370   -2.8399 H   0  0  0  0  0  0  0  0  0  0  0  0
   -0.5488    2.5613   -0.2114 C   0  0  0  0  0  0  0  0  0  0  0  0
   -0.7364    3.2260   -1.2234 O   0  0  0  0  0  0  0  0  0  0  0  0
   -0.6120    3.1764    1.0248 N   0  0  0  0  0  0  0  0  0  0  0  0
   -0.5480    2.5772    1.8443 H   0  0  0  0  0  0  0  0  0  0  0  0
   -0.9209    4.5895    1.2033 C   0  0  0  0  0  0  0  0  0  0  0  0
   -1.9159    4.8171    0.8072 H   0  0  0  0  0  0  0  0  0  0  0  0
   -0.9033    4.8487    2.2662 H   0  0  0  0  0  0  0  0  0  0  0  0
   -0.1839    5.2110    0.6840 H   0  0  0  0  0  0  0  0  0  0  0  0
  1  2  1  0  0  0  0
  2  3  1  0  0  0  0
  2  4  1  0  0  0  0
  2  5  1  0  0  0  0
  5  6  2  0  0  0  0
  5  7  1  0  0  0  0
  7  8  1  0  0  0  0
  7  9  1  0  0  0  0
  9 10  1  0  0  0  0
  9 11  1  0  0  0  0
  9 25  1  0  0  0  0
 11 12  1  0  0  0  0
 11 13  1  0  0  0  0
 11 14  1  0  0  0  0
 14 15  1  0  0  0  0
 14 23  2  0  0  0  0
 15 16  1  0  0  0  0
 15 17  2  0  0  0  0
 17 18  1  0  0  0  0
 17 19  1  0  0  0  0
 19 20  1  0  0  0  0
 19 21  2  0  0  0  0
 21 22  1  0  0  0  0
 21 23  1  0  0  0  0
 23 24  1  0  0  0  0
 25 26  2  0  0  0  0
 25 27  1  0  0  0  0
 27 28  1  0  0  0  0
 27 29  1  0  0  0  0
 29 30  1  0  0  0  0
 29 31  1  0  0  0  0
 29 32  1  0  0  0  0
M  END
$$$$

  -OEChem-01062216093D

 32 32  0     1  0  0  0  0  0999 V2000
   -3.1488   -2.4544    0.9435 H   0  0  0  0  0  0  0  0  0  0  0  0
   -3.1090   -1.5991    0.2631 C   0  0  0  0  0  0  0  0  0  0  0  0
   -3.9860   -0.9703    0.4344 H   0  0  0  0  0  0  0  0  0  0  0  0
   -3.1274   -1.9676   -0.7652 H   0  0  0  0  0  0  0  0  0  0  0  0
   -1.8421   -0.7997    0.5021 C   0  0  0  0  0  0  0  0  0  0  0  0
   -1.0816   -1.1200    1.4021 O   0  0  0  0  0  0  0  0  0  0  0  0
   -1.5802    0.3124   -0.2727 N   0  0  0  0  0  0  0  0  0  0  0  0
   -2.2504    0.5407   -1.0025 H   0  0  0  0  0  0  0  0  0  0  0  0
   -0.2953    1.0291   -0.2811 C   0  0  1  0  0  0  0  0  0  0  0  0
    0.3105    0.7526    0.5878 H   0  0  0  0  0  0  0  0  0  0  0  0
    0.4913    0.6749   -1.5581 C   0  0  0  0  0  0  0  0  0  0  0  0
   -0.1211    0.8867   -2.4411 H   0  0  0  0  0  0  0  0  0  0  0  0
    1.3802    1.3110   -1.6246 H   0  0  0  0  0  0  0  0  0  0  0  0
    0.9243   -0.7722   -1.5672 C   0  0  0  0  0  0  0  0  0  0  0  0
    2.0647   -1.1782   -0.8585 C   0  0  0  0  0  0  0  0  0  0  0  0
    2.6422   -0.4530   -0.2939 H   0  0  0  0  0  0  0  0  0  0  0  0
    2.4631   -2.5194   -0.8635 C   0  0  0  0  0  0  0  0  0  0  0  0
    3.3433   -2.8257   -0.3062 H   0  0  0  0  0  0  0  0  0  0  0  0
    1.7265   -3.4660   -1.5817 C   0  0  0  0  0  0  0  0  0  0  0  0
    2.0353   -4.5072   -1.5835 H   0  0  0  0  0  0  0  0  0  0  0  0
    0.5915   -3.0702   -2.2955 C   0  0  0  0  0  0  0  0  0  0  0  0
    0.0196   -3.8044   -2.8548 H   0  0  0  0  0  0  0  0  0  0  0  0
    0.1936   -1.7290   -2.2884 C   0  0  0  0  0  0  0  0  0  0  0  0
   -0.6888   -1.4313   -2.8458 H   0  0  0  0  0  0  0  0  0  0  0  0
   -0.5365    2.5482   -0.2156 C   0  0  0  0  0  0  0  0  0  0  0  0
   -0.9775    3.1504   -1.1875 O   0  0  0  0  0  0  0  0  0  0  0  0
   -0.3058    3.2343    0.9623 N   0  0  0  0  0  0  0  0  0  0  0  0
   -0.0492    2.6842    1.7781 H   0  0  0  0  0  0  0  0  0  0  0  0
   -0.5959    4.6528    1.1313 C   0  0  0  0  0  0  0  0  0  0  0  0
   -1.6667    4.8424    1.0037 H   0  0  0  0  0  0  0  0  0  0  0  0
   -0.3021    4.9823    2.1325 H   0  0  0  0  0  0  0  0  0  0  0  0
   -0.0422    5.2470    0.3968 H   0  0  0  0  0  0  0  0  0  0  0  0
  1  2  1  0  0  0  0
  2  3  1  0  0  0  0
  2  4  1  0  0  0  0
  2  5  1  0  0  0  0
  5  6  2  0  0  0  0
  5  7  1  0  0  0  0
  7  8  1  0  0  0  0
  7  9  1  0  0  0  0
  9 10  1  0  0  0  0
  9 11  1  0  0  0  0
  9 25  1  0  0  0  0
 11 12  1  0  0  0  0
 11 13  1  0  0  0  0
 11 14  1  0  0  0  0
 14 15  1  0  0  0  0
 14 23  2  0  0  0  0
 15 16  1  0  0  0  0
 15 17  2  0  0  0  0
 17 18  1  0  0  0  0
 17 19  1  0  0  0  0
 19 20  1  0  0  0  0
 19 21  2  0  0  0  0
 21 22  1  0  0  0  0
 21 23  1  0  0  0  0
 23 24  1  0  0  0  0
 25 26  2  0  0  0  0
 25 27  1  0  0  0  0
 27 28  1  0  0  0  0
 27 29  1  0  0  0  0
 29 30  1  0  0  0  0
 29 31  1  0  0  0  0
 29 32  1  0  0  0  0
M  END
$$$$

  -OEChem-01062216093D

 32 32  0     1  0  0  0  0  0999 V2000
   -3.2113   -2.4151    0.9792 H   0  0  0  0  0  0  0  0  0  0  0  0
   -3.1595   -1.5609    0.2984 C   0  0  0  0  0  0  0  0  0  0  0  0
   -4.0029   -0.8966    0.5009 H   0  0  0  0  0  0  0  0  0  0  0  0
   -3.2289   -1.9256   -0.7290 H   0  0  0  0  0  0  0  0  0  0  0  0
   -1.8528   -0.8157    0.4943 C   0  0  0  0  0  0  0  0  0  0  0  0
   -1.0710   -1.1777    1.3596 O   0  0  0  0  0  0  0  0  0  0  0  0
   -1.5765    0.2922   -0.2809 N   0  0  0  0  0  0  0  0  0  0  0  0
   -2.2795    0.5840   -0.9557 H   0  0  0  0  0  0  0  0  0  0  0  0
   -0.2937    1.0120   -0.2798 C   0  0  1  0  0  0  0  0  0  0  0  0
    0.3031    0.7370    0.5957 H   0  0  0  0  0  0  0  0  0  0  0  0
    0.5022    0.6677   -1.5525 C   0  0  0  0  0  0  0  0  0  0  0  0
   -0.1069    0.8827   -2.4370 H   0  0  0  0  0  0  0  0  0  0  0  0
    1.3887    1.3076   -1.6110 H   0  0  0  0  0  0  0  0  0  0  0  0
    0.9415   -0.7771   -1.5686 C   0  0  0  0  0  0  0  0  0  0  0  0
    2.0791   -1.1836   -0.8558 C   0  0  0  0  0  0  0  0  0  0  0  0
    2.6489   -0.4608   -0.2806 H   0  0  0  0  0  0  0  0  0  0  0  0
    2.4841   -2.5227   -0.8696 C   0  0  0  0  0  0  0  0  0  0  0  0
    3.3619   -2.8298   -0.3089 H   0  0  0  0  0  0  0  0  0  0  0  0
    1.7564   -3.4667   -1.6001 C   0  0  0  0  0  0  0  0  0  0  0  0
    2.0696   -4.5065   -1.6084 H   0  0  0  0  0  0  0  0  0  0  0  0
    0.6233   -3.0705   -2.3167 C   0  0  0  0  0  0  0  0  0  0  0  0
    0.0567   -3.8030   -2.8837 H   0  0  0  0  0  0  0  0  0  0  0  0
    0.2192   -1.7314   -2.3012 C   0  0  0  0  0  0  0  0  0  0  0  0
   -0.6625   -1.4331   -2.8596 H   0  0  0  0  0  0  0  0  0  0  0  0
   -0.5360    2.5311   -0.2275 C   0  0  0  0  0  0  0  0  0  0  0  0
   -1.1965    3.0778   -1.1033 O   0  0  0  0  0  0  0  0  0  0  0  0
   -0.0392    3.2829    0.8211 N   0  0  0  0  0  0  0  0  0  0  0  0
    0.4181    2.7829    1.5788 H   0  0  0  0  0  0  0  0  0  0  0  0
   -0.2932    4.7104    0.9716 C   0  0  0  0  0  0  0  0  0  0  0  0
   -1.3651    4.8982    1.0934 H   0  0  0  0  0  0  0  0  0  0  0  0
    0.2289    5.0966    1.8523 H   0  0  0  0  0  0  0  0  0  0  0  0
    0.0627    5.2583    0.0928 H   0  0  0  0  0  0  0  0  0  0  0  0
  1  2  1  0  0  0  0
  2  3  1  0  0  0  0
  2  4  1  0  0  0  0
  2  5  1  0  0  0  0
  5  6  2  0  0  0  0
  5  7  1  0  0  0  0
  7  8  1  0  0  0  0
  7  9  1  0  0  0  0
  9 10  1  0  0  0  0
  9 11  1  0  0  0  0
  9 25  1  0  0  0  0
 11 12  1  0  0  0  0
 11 13  1  0  0  0  0
 11 14  1  0  0  0  0
 14 15  1  0  0  0  0
 14 23  2  0  0  0  0
 15 16  1  0  0  0  0
 15 17  2  0  0  0  0
 17 18  1  0  0  0  0
 17 19  1  0  0  0  0
 19 20  1  0  0  0  0
 19 21  2  0  0  0  0
 21 22  1  0  0  0  0
 21 23  1  0  0  0  0
 23 24  1  0  0  0  0
 25 26  2  0  0  0  0
 25 27  1  0  0  0  0
 27 28  1  0  0  0  0
 27 29  1  0  0  0  0
 29 30  1  0  0  0  0
 29 31  1  0  0  0  0
 29 32  1  0  0  0  0
M  END
$$$$

  -OEChem-01062216093D

 32 32  0     1  0  0  0  0  0999 V2000
   -3.2540   -2.4009    0.9857 H   0  0  0  0  0  0  0  0  0  0  0  0
   -3.2073   -1.5230    0.3355 C   0  0  0  0  0  0  0  0  0  0  0  0
   -4.0095   -0.8350    0.6124 H   0  0  0  0  0  0  0  0  0  0  0  0
   -3.3516   -1.8438   -0.6988 H   0  0  0  0  0  0  0  0  0  0  0  0
   -1.8626   -0.8361    0.4804 C   0  0  0  0  0  0  0  0  0  0  0  0
   -1.0581   -1.2430    1.3038 O   0  0  0  0  0  0  0  0  0  0  0  0
   -1.5778    0.2701   -0.2936 N   0  0  0  0  0  0  0  0  0  0  0  0
   -2.3170    0.6318   -0.8923 H   0  0  0  0  0  0  0  0  0  0  0  0
   -0.2986    0.9964   -0.2838 C   0  0  1  0  0  0  0  0  0  0  0  0
    0.2892    0.7243    0.5987 H   0  0  0  0  0  0  0  0  0  0  0  0
    0.5066    0.6613   -1.5523 C   0  0  0  0  0  0  0  0  0  0  0  0
   -0.1003    0.8767   -2.4384 H   0  0  0  0  0  0  0  0  0  0  0  0
    1.3899    1.3064   -1.6037 H   0  0  0  0  0  0  0  0  0  0  0  0
    0.9557   -0.7804   -1.5733 C   0  0  0  0  0  0  0  0  0  0  0  0
    2.0923   -1.1819   -0.8562 C   0  0  0  0  0  0  0  0  0  0  0  0
    2.6547   -0.4578   -0.2756 H   0  0  0  0  0  0  0  0  0  0  0  0
    2.5068   -2.5181   -0.8728 C   0  0  0  0  0  0  0  0  0  0  0  0
    3.3837   -2.8212   -0.3087 H   0  0  0  0  0  0  0  0  0  0  0  0
    1.7887   -3.4646   -1.6095 C   0  0  0  0  0  0  0  0  0  0  0  0
    2.1079   -4.5026   -1.6181 H   0  0  0  0  0  0  0  0  0  0  0  0
    0.6565   -3.0735   -2.3303 C   0  0  0  0  0  0  0  0  0  0  0  0
    0.0968   -3.8080   -2.9012 H   0  0  0  0  0  0  0  0  0  0  0  0
    0.2432   -1.7371   -2.3122 C   0  0  0  0  0  0  0  0  0  0  0  0
   -0.6392   -1.4436   -2.8720 H   0  0  0  0  0  0  0  0  0  0  0  0
   -0.5443    2.5154   -0.2404 C   0  0  0  0  0  0  0  0  0  0  0  0
   -1.3927    3.0186   -0.9685 O   0  0  0  0  0  0  0  0  0  0  0  0
    0.1815    3.3213    0.6175 N   0  0  0  0  0  0  0  0  0  0  0  0
    0.8294    2.8669    1.2550 H   0  0  0  0  0  0  0  0  0  0  0  0
   -0.0323    4.7587    0.7347 C   0  0  0  0  0  0  0  0  0  0  0  0
   -1.0683    4.9703    1.0200 H   0  0  0  0  0  0  0  0  0  0  0  0
    0.6291    5.1789    1.4987 H   0  0  0  0  0  0  0  0  0  0  0  0
    0.1798    5.2559   -0.2178 H   0  0  0  0  0  0  0  0  0  0  0  0
  1  2  1  0  0  0  0
  2  3  1  0  0  0  0
  2  4  1  0  0  0  0
  2  5  1  0  0  0  0
  5  6  2  0  0  0  0
  5  7  1  0  0  0  0
  7  8  1  0  0  0  0
  7  9  1  0  0  0  0
  9 10  1  0  0  0  0
  9 11  1  0  0  0  0
  9 25  1  0  0  0  0
 11 12  1  0  0  0  0
 11 13  1  0  0  0  0
 11 14  1  0  0  0  0
 14 15  1  0  0  0  0
 14 23  2  0  0  0  0
 15 16  1  0  0  0  0
 15 17  2  0  0  0  0
 17 18  1  0  0  0  0
 17 19  1  0  0  0  0
 19 20  1  0  0  0  0
 19 21  2  0  0  0  0
 21 22  1  0  0  0  0
 21 23  1  0  0  0  0
 23 24  1  0  0  0  0
 25 26  2  0  0  0  0
 25 27  1  0  0  0  0
 27 28  1  0  0  0  0
 27 29  1  0  0  0  0
 29 30  1  0  0  0  0
 29 31  1  0  0  0  0
 29 32  1  0  0  0  0
M  END
$$$$

  -OEChem-01062216093D

 32 32  0     1  0  0  0  0  0999 V2000
   -3.2733   -2.3807    1.0107 H   0  0  0  0  0  0  0  0  0  0  0  0
   -3.2260   -1.5059    0.3562 C   0  0  0  0  0  0  0  0  0  0  0  0
   -4.0058   -0.8003    0.6530 H   0  0  0  0  0  0  0  0  0  0  0  0
   -3.4052   -1.8268   -0.6728 H   0  0  0  0  0  0  0  0  0  0  0  0
   -1.8633   -0.8473    0.4620 C   0  0  0  0  0  0  0  0  0  0  0  0
   -1.0414   -1.2785    1.2555 O   0  0  0  0  0  0  0  0  0  0  0  0
   -1.5792    0.2579   -0.3143 N   0  0  0  0  0  0  0  0  0  0  0  0
   -2.3422    0.6672   -0.8500 H   0  0  0  0  0  0  0  0  0  0  0  0
   -0.3039    0.9914   -0.2925 C   0  0  1  0  0  0  0  0  0  0  0  0
    0.2769    0.7252    0.5964 H   0  0  0  0  0  0  0  0  0  0  0  0
    0.5098    0.6596   -1.5560 C   0  0  0  0  0  0  0  0  0  0  0  0
   -0.0930    0.8734   -2.4450 H   0  0  0  0  0  0  0  0  0  0  0  0
    1.3919    1.3066   -1.6024 H   0  0  0  0  0  0  0  0  0  0  0  0
    0.9640   -0.7804   -1.5742 C   0  0  0  0  0  0  0  0  0  0  0  0
    2.0972   -1.1811   -0.8510 C   0  0  0  0  0  0  0  0  0  0  0  0
    2.6547   -0.4574   -0.2652 H   0  0  0  0  0  0  0  0  0  0  0  0
    2.5130   -2.5170   -0.8661 C   0  0  0  0  0  0  0  0  0  0  0  0
    3.3862   -2.8202   -0.2965 H   0  0  0  0  0  0  0  0  0  0  0  0
    1.8006   -3.4636   -1.6083 C   0  0  0  0  0  0  0  0  0  0  0  0
    2.1209   -4.5011   -1.6169 H   0  0  0  0  0  0  0  0  0  0  0  0
    0.6723   -3.0733   -2.3352 C   0  0  0  0  0  0  0  0  0  0  0  0
    0.1160   -3.8078   -2.9097 H   0  0  0  0  0  0  0  0  0  0  0  0
    0.2576   -1.7376   -2.3184 C   0  0  0  0  0  0  0  0  0  0  0  0
   -0.6218   -1.4451   -2.8833 H   0  0  0  0  0  0  0  0  0  0  0  0
   -0.5546    2.5109   -0.2574 C   0  0  0  0  0  0  0  0  0  0  0  0
   -1.5468    2.9833   -0.8018 O   0  0  0  0  0  0  0  0  0  0  0  0
    0.3480    3.3559    0.3619 N   0  0  0  0  0  0  0  0  0  0  0  0
    1.1374    2.9323    0.8411 H   0  0  0  0  0  0  0  0  0  0  0  0
    0.1632    4.7996    0.4476 C   0  0  0  0  0  0  0  0  0  0  0  0
   -0.7738    5.0364    0.9625 H   0  0  0  0  0  0  0  0  0  0  0  0
    0.9879    5.2540    1.0050 H   0  0  0  0  0  0  0  0  0  0  0  0
    0.1371    5.2430   -0.5534 H   0  0  0  0  0  0  0  0  0  0  0  0
  1  2  1  0  0  0  0
  2  3  1  0  0  0  0
  2  4  1  0  0  0  0
  2  5  1  0  0  0  0
  5  6  2  0  0  0  0
  5  7  1  0  0  0  0
  7  8  1  0  0  0  0
  7  9  1  0  0  0  0
  9 10  1  0  0  0  0
  9 11  1  0  0  0  0
  9 25  1  0  0  0  0
 11 12  1  0  0  0  0
 11 13  1  0  0  0  0
 11 14  1  0  0  0  0
 14 15  1  0  0  0  0
 14 23  2  0  0  0  0
 15 16  1  0  0  0  0
 15 17  2  0  0  0  0
 17 18  1  0  0  0  0
 17 19  1  0  0  0  0
 19 20  1  0  0  0  0
 19 21  2  0  0  0  0
 21 22  1  0  0  0  0
 21 23  1  0  0  0  0
 23 24  1  0  0  0  0
 25 26  2  0  0  0  0
 25 27  1  0  0  0  0
 27 28  1  0  0  0  0
 27 29  1  0  0  0  0
 29 30  1  0  0  0  0
 29 31  1  0  0  0  0
 29 32  1  0  0  0  0
M  END
$$$$

  -OEChem-01062216093D

 32 32  0     1  0  0  0  0  0999 V2000
   -3.2938   -2.3550    1.0319 H   0  0  0  0  0  0  0  0  0  0  0  0
   -3.2418   -1.4859    0.3702 C   0  0  0  0  0  0  0  0  0  0  0  0
   -3.9964   -0.7596    0.6813 H   0  0  0  0  0  0  0  0  0  0  0  0
   -3.4544   -1.8087   -0.6518 H   0  0  0  0  0  0  0  0  0  0  0  0
   -1.8622   -0.8592    0.4373 C   0  0  0  0  0  0  0  0  0  0  0  0
   -1.0249   -1.3162    1.1997 O   0  0  0  0  0  0  0  0  0  0  0  0
   -1.5827    0.2482   -0.3371 N   0  0  0  0  0  0  0  0  0  0  0  0
   -2.3681    0.7026   -0.7998 H   0  0  0  0  0  0  0  0  0  0  0  0
   -0.3120    0.9895   -0.3037 C   0  0  1  0  0  0  0  0  0  0  0  0
    0.2632    0.7285    0.5906 H   0  0  0  0  0  0  0  0  0  0  0  0
    0.5081    0.6540   -1.5640 C   0  0  0  0  0  0  0  0  0  0  0  0
   -0.0936    0.8614   -2.4552 H   0  0  0  0  0  0  0  0  0  0  0  0
    1.3892    1.3013   -1.6137 H   0  0  0  0  0  0  0  0  0  0  0  0
    0.9679   -0.7843   -1.5779 C   0  0  0  0  0  0  0  0  0  0  0  0
    2.1007   -1.1783   -0.8503 C   0  0  0  0  0  0  0  0  0  0  0  0
    2.6526   -0.4513   -0.2632 H   0  0  0  0  0  0  0  0  0  0  0  0
    2.5232   -2.5121   -0.8621 C   0  0  0  0  0  0  0  0  0  0  0  0
    3.3956   -2.8099   -0.2884 H   0  0  0  0  0  0  0  0  0  0  0  0
    1.8171   -3.4635   -1.6041 C   0  0  0  0  0  0  0  0  0  0  0  0
    2.1417   -4.4996   -1.6083 H   0  0  0  0  0  0  0  0  0  0  0  0
    0.6890   -3.0801   -2.3351 C   0  0  0  0  0  0  0  0  0  0  0  0
    0.1376   -3.8180   -2.9098 H   0  0  0  0  0  0  0  0  0  0  0  0
    0.2677   -1.7464   -2.3218 C   0  0  0  0  0  0  0  0  0  0  0  0
   -0.6129   -1.4593   -2.8877 H   0  0  0  0  0  0  0  0  0  0  0  0
   -0.5660    2.5104   -0.2687 C   0  0  0  0  0  0  0  0  0  0  0  0
   -1.6580    2.9633   -0.5961 O   0  0  0  0  0  0  0  0  0  0  0  0
    0.4511    3.3829    0.0749 N   0  0  0  0  0  0  0  0  0  0  0  0
    1.3356    2.9818    0.3729 H   0  0  0  0  0  0  0  0  0  0  0  0
    0.2809    4.8301    0.1241 C   0  0  0  0  0  0  0  0  0  0  0  0
   -0.5022    5.0998    0.8405 H   0  0  0  0  0  0  0  0  0  0  0  0
    1.2134    5.3109    0.4347 H   0  0  0  0  0  0  0  0  0  0  0  0
    0.0047    5.2168   -0.8624 H   0  0  0  0  0  0  0  0  0  0  0  0
  1  2  1  0  0  0  0
  2  3  1  0  0  0  0
  2  4  1  0  0  0  0
  2  5  1  0  0  0  0
  5  6  2  0  0  0  0
  5  7  1  0  0  0  0
  7  8  1  0  0  0  0
  7  9  1  0  0  0  0
  9 10  1  0  0  0  0
  9 11  1  0  0  0  0
  9 25  1  0  0  0  0
 11 12  1  0  0  0  0
 11 13  1  0  0  0  0
 11 14  1  0  0  0  0
 14 15  1  0  0  0  0
 14 23  2  0  0  0  0
 15 16  1  0  0  0  0
 15 17  2  0  0  0  0
 17 18  1  0  0  0  0
 17 19  1  0  0  0  0
 19 20  1  0  0  0  0
 19 21  2  0  0  0  0
 21 22  1  0  0  0  0
 21 23  1  0  0  0  0
 23 24  1  0  0  0  0
 25 26  2  0  0  0  0
 25 27  1  0  0  0  0
 27 28  1  0  0  0  0
 27 29  1  0  0  0  0
 29 30  1  0  0  0  0
 29 31  1  0  0  0  0
 29 32  1  0  0  0  0
M  END
$$$$

  -OEChem-01062216093D

 32 32  0     1  0  0  0  0  0999 V2000
   -3.2941   -2.2990    1.0832 H   0  0  0  0  0  0  0  0  0  0  0  0
   -3.2537   -1.4324    0.4174 C   0  0  0  0  0  0  0  0  0  0  0  0
   -3.9366   -0.6669    0.7939 H   0  0  0  0  0  0  0  0  0  0  0  0
   -3.5747   -1.7397   -0.5807 H   0  0  0  0  0  0  0  0  0  0  0  0
   -1.8411   -0.8822    0.3590 C   0  0  0  0  0  0  0  0  0  0  0  0
   -0.9560   -1.4193    1.0069 O   0  0  0  0  0  0  0  0  0  0  0  0
   -1.5834    0.2369   -0.4068 N   0  0  0  0  0  0  0  0  0  0  0  0
   -2.4014    0.7605   -0.7116 H   0  0  0  0  0  0  0  0  0  0  0  0
   -0.3142    0.9832   -0.3572 C   0  0  1  0  0  0  0  0  0  0  0  0
    0.3748    0.5400    0.3692 H   0  0  0  0  0  0  0  0  0  0  0  0
    0.3314    0.9432   -1.7556 C   0  0  0  0  0  0  0  0  0  0  0  0
   -0.3783    1.3262   -2.4965 H   0  0  0  0  0  0  0  0  0  0  0  0
    1.2077    1.5978   -1.7821 H   0  0  0  0  0  0  0  0  0  0  0  0
    0.7689   -0.4532   -2.1306 C   0  0  0  0  0  0  0  0  0  0  0  0
    1.9818   -0.9717   -1.6529 C   0  0  0  0  0  0  0  0  0  0  0  0
    2.6125   -0.3743   -1.0026 H   0  0  0  0  0  0  0  0  0  0  0  0
    2.3866   -2.2653   -1.9997 C   0  0  0  0  0  0  0  0  0  0  0  0
    3.3242   -2.6605   -1.6204 H   0  0  0  0  0  0  0  0  0  0  0  0
    1.5812   -3.0522   -2.8284 C   0  0  0  0  0  0  0  0  0  0  0  0
    1.8932   -4.0579   -3.0938 H   0  0  0  0  0  0  0  0  0  0  0  0
    0.3710   -2.5444   -3.3096 C   0  0  0  0  0  0  0  0  0  0  0  0
   -0.2576   -3.1555   -3.9501 H   0  0  0  0  0  0  0  0  0  0  0  0
   -0.0322   -1.2508   -2.9620 C   0  0  0  0  0  0  0  0  0  0  0  0
   -0.9766   -0.8682   -3.3363 H   0  0  0  0  0  0  0  0  0  0  0  0
   -0.5491    2.4490    0.0705 C   0  0  0  0  0  0  0  0  0  0  0  0
   -1.6889    2.8756    0.2239 O   0  0  0  0  0  0  0  0  0  0  0  0
    0.5126    3.3293    0.1842 N   0  0  0  0  0  0  0  0  0  0  0  0
    1.4501    2.9507    0.0868 H   0  0  0  0  0  0  0  0  0  0  0  0
    0.3549    4.7280    0.5652 C   0  0  0  0  0  0  0  0  0  0  0  0
   -0.1077    4.8061    1.5548 H   0  0  0  0  0  0  0  0  0  0  0  0
    1.3301    5.2231    0.5994 H   0  0  0  0  0  0  0  0  0  0  0  0
   -0.2743    5.2545   -0.1602 H   0  0  0  0  0  0  0  0  0  0  0  0
  1  2  1  0  0  0  0
  2  3  1  0  0  0  0
  2  4  1  0  0  0  0
  2  5  1  0  0  0  0
  5  6  2  0  0  0  0
  5  7  1  0  0  0  0
  7  8  1  0  0  0  0
  7  9  1  0  0  0  0
  9 10  1  0  0  0  0
  9 11  1  0  0  0  0
  9 25  1  0  0  0  0
 11 12  1  0  0  0  0
 11 13  1  0  0  0  0
 11 14  1  0  0  0  0
 14 15  1  0  0  0  0
 14 23  2  0  0  0  0
 15 16  1  0  0  0  0
 15 17  2  0  0  0  0
 17 18  1  0  0  0  0
 17 19  1  0  0  0  0
 19 20  1  0  0  0  0
 19 21  2  0  0  0  0
 21 22  1  0  0  0  0
 21 23  1  0  0  0  0
 23 24  1  0  0  0  0
 25 26  2  0  0  0  0
 25 27  1  0  0  0  0
 27 28  1  0  0  0  0
 27 29  1  0  0  0  0
 29 30  1  0  0  0  0
 29 31  1  0  0  0  0
 29 32  1  0  0  0  0
M  END
$$$$

  -OEChem-01062216093D

 32 32  0     1  0  0  0  0  0999 V2000
   -3.2845   -2.2737    1.0973 H   0  0  0  0  0  0  0  0  0  0  0  0
   -3.2502   -1.4063    0.4320 C   0  0  0  0  0  0  0  0  0  0  0  0
   -3.9061   -0.6294    0.8327 H   0  0  0  0  0  0  0  0  0  0  0  0
   -3.6092   -1.7048   -0.5558 H   0  0  0  0  0  0  0  0  0  0  0  0
   -1.8305   -0.8817    0.3284 C   0  0  0  0  0  0  0  0  0  0  0  0
   -0.9330   -1.4454    0.9356 O   0  0  0  0  0  0  0  0  0  0  0  0
   -1.5812    0.2428   -0.4328 N   0  0  0  0  0  0  0  0  0  0  0  0
   -2.4050    0.7814   -0.6909 H   0  0  0  0  0  0  0  0  0  0  0  0
   -0.3105    0.9876   -0.3771 C   0  0  1  0  0  0  0  0  0  0  0  0
    0.3762    0.5450    0.3521 H   0  0  0  0  0  0  0  0  0  0  0  0
    0.3393    0.9345   -1.7755 C   0  0  0  0  0  0  0  0  0  0  0  0
   -0.3664    1.3153   -2.5210 H   0  0  0  0  0  0  0  0  0  0  0  0
    1.2213    1.5803   -1.8067 H   0  0  0  0  0  0  0  0  0  0  0  0
    0.7735   -0.4660   -2.1398 C   0  0  0  0  0  0  0  0  0  0  0  0
    1.9839   -0.9848   -1.6554 C   0  0  0  0  0  0  0  0  0  0  0  0
    2.6135   -0.3861   -1.0048 H   0  0  0  0  0  0  0  0  0  0  0  0
    2.3874   -2.2811   -1.9938 C   0  0  0  0  0  0  0  0  0  0  0  0
    3.3228   -2.6761   -1.6090 H   0  0  0  0  0  0  0  0  0  0  0  0
    1.5827   -3.0713   -2.8197 C   0  0  0  0  0  0  0  0  0  0  0  0
    1.8924   -4.0800   -3.0761 H   0  0  0  0  0  0  0  0  0  0  0  0
    0.3755   -2.5634   -3.3083 C   0  0  0  0  0  0  0  0  0  0  0  0
   -0.2527   -3.1776   -3.9464 H   0  0  0  0  0  0  0  0  0  0  0  0
   -0.0260   -1.2667   -2.9698 C   0  0  0  0  0  0  0  0  0  0  0  0
   -0.9684   -0.8845   -3.3489 H   0  0  0  0  0  0  0  0  0  0  0  0
   -0.5534    2.4516    0.0638 C   0  0  0  0  0  0  0  0  0  0  0  0
   -1.6601    2.8002    0.4610 O   0  0  0  0  0  0  0  0  0  0  0  0
    0.4201    3.4230   -0.0979 N   0  0  0  0  0  0  0  0  0  0  0  0
    1.3399    3.1213   -0.4049 H   0  0  0  0  0  0  0  0  0  0  0  0
    0.2252    4.8214    0.2678 C   0  0  0  0  0  0  0  0  0  0  0  0
    0.0009    4.9110    1.3360 H   0  0  0  0  0  0  0  0  0  0  0  0
    1.1306    5.3979    0.0550 H   0  0  0  0  0  0  0  0  0  0  0  0
   -0.6023    5.2554   -0.3035 H   0  0  0  0  0  0  0  0  0  0  0  0
  1  2  1  0  0  0  0
  2  3  1  0  0  0  0
  2  4  1  0  0  0  0
  2  5  1  0  0  0  0
  5  6  2  0  0  0  0
  5  7  1  0  0  0  0
  7  8  1  0  0  0  0
  7  9  1  0  0  0  0
  9 10  1  0  0  0  0
  9 11  1  0  0  0  0
  9 25  1  0  0  0  0
 11 12  1  0  0  0  0
 11 13  1  0  0  0  0
 11 14  1  0  0  0  0
 14 15  1  0  0  0  0
 14 23  2  0  0  0  0
 15 16  1  0  0  0  0
 15 17  2  0  0  0  0
 17 18  1  0  0  0  0
 17 19  1  0  0  0  0
 19 20  1  0  0  0  0
 19 21  2  0  0  0  0
 21 22  1  0  0  0  0
 21 23  1  0  0  0  0
 23 24  1  0  0  0  0
 25 26  2  0  0  0  0
 25 27  1  0  0  0  0
 27 28  1  0  0  0  0
 27 29  1  0  0  0  0
 29 30  1  0  0  0  0
 29 31  1  0  0  0  0
 29 32  1  0  0  0  0
M  END
$$$$

  -OEChem-01062216093D

 32 32  0     1  0  0  0  0  0999 V2000
   -3.2694   -2.2672    1.0969 H   0  0  0  0  0  0  0  0  0  0  0  0
   -3.2432   -1.3966    0.4357 C   0  0  0  0  0  0  0  0  0  0  0  0
   -3.8878   -0.6191    0.8526 H   0  0  0  0  0  0  0  0  0  0  0  0
   -3.6218   -1.6881   -0.5467 H   0  0  0  0  0  0  0  0  0  0  0  0
   -1.8232   -0.8775    0.3098 C   0  0  0  0  0  0  0  0  0  0  0  0
   -0.9180   -1.4530    0.8937 O   0  0  0  0  0  0  0  0  0  0  0  0
   -1.5824    0.2509   -0.4493 N   0  0  0  0  0  0  0  0  0  0  0  0
   -2.4103    0.7909   -0.6881 H   0  0  0  0  0  0  0  0  0  0  0  0
   -0.3103    0.9947   -0.3972 C   0  0  1  0  0  0  0  0  0  0  0  0
    0.3767    0.5540    0.3330 H   0  0  0  0  0  0  0  0  0  0  0  0
    0.3427    0.9293   -1.7947 C   0  0  0  0  0  0  0  0  0  0  0  0
   -0.3593    1.3071   -2.5456 H   0  0  0  0  0  0  0  0  0  0  0  0
    1.2296    1.5683   -1.8269 H   0  0  0  0  0  0  0  0  0  0  0  0
    0.7748   -0.4747   -2.1463 C   0  0  0  0  0  0  0  0  0  0  0  0
    1.9831   -0.9914   -1.6546 C   0  0  0  0  0  0  0  0  0  0  0  0
    2.6119   -0.3891   -1.0064 H   0  0  0  0  0  0  0  0  0  0  0  0
    2.3845   -2.2916   -1.9807 C   0  0  0  0  0  0  0  0  0  0  0  0
    3.3169   -2.6863   -1.5881 H   0  0  0  0  0  0  0  0  0  0  0  0
    1.5813   -3.0865   -2.8039 C   0  0  0  0  0  0  0  0  0  0  0  0
    1.8904   -4.0975   -3.0524 H   0  0  0  0  0  0  0  0  0  0  0  0
    0.3765   -2.5802   -3.3000 C   0  0  0  0  0  0  0  0  0  0  0  0
   -0.2505   -3.1983   -3.9354 H   0  0  0  0  0  0  0  0  0  0  0  0
   -0.0238   -1.2803   -2.9726 C   0  0  0  0  0  0  0  0  0  0  0  0
   -0.9647   -0.8998   -3.3573 H   0  0  0  0  0  0  0  0  0  0  0  0
   -0.5573    2.4564    0.0538 C   0  0  0  0  0  0  0  0  0  0  0  0
   -1.5668    2.7364    0.6904 O   0  0  0  0  0  0  0  0  0  0  0  0
    0.2549    3.4982   -0.3637 N   0  0  0  0  0  0  0  0  0  0  0  0
    1.0970    3.2614   -0.8789 H   0  0  0  0  0  0  0  0  0  0  0  0
    0.0260    4.8917    0.0014 C   0  0  0  0  0  0  0  0  0  0  0  0
    0.0527    5.0124    1.0896 H   0  0  0  0  0  0  0  0  0  0  0  0
    0.8002    5.5291   -0.4363 H   0  0  0  0  0  0  0  0  0  0  0  0
   -0.9480    5.2304   -0.3672 H   0  0  0  0  0  0  0  0  0  0  0  0
  1  2  1  0  0  0  0
  2  3  1  0  0  0  0
  2  4  1  0  0  0  0
  2  5  1  0  0  0  0
  5  6  2  0  0  0  0
  5  7  1  0  0  0  0
  7  8  1  0  0  0  0
  7  9  1  0  0  0  0
  9 10  1  0  0  0  0
  9 11  1  0  0  0  0
  9 25  1  0  0  0  0
 11 12  1  0  0  0  0
 11 13  1  0  0  0  0
 11 14  1  0  0  0  0
 14 15  1  0  0  0  0
 14 23  2  0  0  0  0
 15 16  1  0  0  0  0
 15 17  2  0  0  0  0
 17 18  1  0  0  0  0
 17 19  1  0  0  0  0
 19 20  1  0  0  0  0
 19 21  2  0  0  0  0
 21 22  1  0  0  0  0
 21 23  1  0  0  0  0
 23 24  1  0  0  0  0
 25 26  2  0  0  0  0
 25 27  1  0  0  0  0
 27 28  1  0  0  0  0
 27 29  1  0  0  0  0
 29 30  1  0  0  0  0
 29 31  1  0  0  0  0
 29 32  1  0  0  0  0
M  END
$$$$

  -OEChem-01062216093D

 32 32  0     1  0  0  0  0  0999 V2000
   -3.2708   -2.2664    1.0917 H   0  0  0  0  0  0  0  0  0  0  0  0
   -3.2472   -1.3889    0.4395 C   0  0  0  0  0  0  0  0  0  0  0  0
   -3.8887   -0.6150    0.8681 H   0  0  0  0  0  0  0  0  0  0  0  0
   -3.6314   -1.6699   -0.5438 H   0  0  0  0  0  0  0  0  0  0  0  0
   -1.8270   -0.8704    0.3116 C   0  0  0  0  0  0  0  0  0  0  0  0
   -0.9198   -1.4517    0.8861 O   0  0  0  0  0  0  0  0  0  0  0  0
   -1.5890    0.2585   -0.4480 N   0  0  0  0  0  0  0  0  0  0  0  0
   -2.4181    0.7885   -0.7018 H   0  0  0  0  0  0  0  0  0  0  0  0
   -0.3147    0.9989   -0.4076 C   0  0  1  0  0  0  0  0  0  0  0  0
    0.3723    0.5601    0.3240 H   0  0  0  0  0  0  0  0  0  0  0  0
    0.3421    0.9234   -1.8027 C   0  0  0  0  0  0  0  0  0  0  0  0
   -0.3558    1.2974   -2.5589 H   0  0  0  0  0  0  0  0  0  0  0  0
    1.2306    1.5612   -1.8307 H   0  0  0  0  0  0  0  0  0  0  0  0
    0.7756   -0.4816   -2.1481 C   0  0  0  0  0  0  0  0  0  0  0  0
    1.9834   -0.9944   -1.6512 C   0  0  0  0  0  0  0  0  0  0  0  0
    2.6085   -0.3883   -1.0030 H   0  0  0  0  0  0  0  0  0  0  0  0
    2.3898   -2.2935   -1.9735 C   0  0  0  0  0  0  0  0  0  0  0  0
    3.3225   -2.6837   -1.5776 H   0  0  0  0  0  0  0  0  0  0  0  0
    1.5914   -3.0922   -2.7971 C   0  0  0  0  0  0  0  0  0  0  0  0
    1.9046   -4.1025   -3.0422 H   0  0  0  0  0  0  0  0  0  0  0  0
    0.3860   -2.5911   -3.2972 C   0  0  0  0  0  0  0  0  0  0  0  0
   -0.2374   -3.2132   -3.9324 H   0  0  0  0  0  0  0  0  0  0  0  0
   -0.0190   -1.2914   -2.9741 C   0  0  0  0  0  0  0  0  0  0  0  0
   -0.9596   -0.9146   -3.3626 H   0  0  0  0  0  0  0  0  0  0  0  0
   -0.5596    2.4591    0.0479 C   0  0  0  0  0  0  0  0  0  0  0  0
   -1.4013    2.6918    0.9064 O   0  0  0  0  0  0  0  0  0  0  0  0
    0.0293    3.5402   -0.5882 N   0  0  0  0  0  0  0  0  0  0  0  0
    0.7127    3.3467   -1.3134 H   0  0  0  0  0  0  0  0  0  0  0  0
   -0.2314    4.9278   -0.2223 C   0  0  0  0  0  0  0  0  0  0  0  0
    0.0434    5.1064    0.8227 H   0  0  0  0  0  0  0  0  0  0  0  0
    0.3545    5.6021   -0.8541 H   0  0  0  0  0  0  0  0  0  0  0  0
   -1.2921    5.1662   -0.3537 H   0  0  0  0  0  0  0  0  0  0  0  0
  1  2  1  0  0  0  0
  2  3  1  0  0  0  0
  2  4  1  0  0  0  0
  2  5  1  0  0  0  0
  5  6  2  0  0  0  0
  5  7  1  0  0  0  0
  7  8  1  0  0  0  0
  7  9  1  0  0  0  0
  9 10  1  0  0  0  0
  9 11  1  0  0  0  0
  9 25  1  0  0  0  0
 11 12  1  0  0  0  0
 11 13  1  0  0  0  0
 11 14  1  0  0  0  0
 14 15  1  0  0  0  0
 14 23  2  0  0  0  0
 15 16  1  0  0  0  0
 15 17  2  0  0  0  0
 17 18  1  0  0  0  0
 17 19  1  0  0  0  0
 19 20  1  0  0  0  0
 19 21  2  0  0  0  0
 21 22  1  0  0  0  0
 21 23  1  0  0  0  0
 23 24  1  0  0  0  0
 25 26  2  0  0  0  0
 25 27  1  0  0  0  0
 27 28  1  0  0  0  0
 27 29  1  0  0  0  0
 29 30  1  0  0  0  0
 29 31  1  0  0  0  0
 29 32  1  0  0  0  0
M  END
$$$$

  -OEChem-01062216093D

 32 32  0     1  0  0  0  0  0999 V2000
   -3.2608   -2.2745    1.0926 H   0  0  0  0  0  0  0  0  0  0  0  0
   -3.2449   -1.3975    0.4394 C   0  0  0  0  0  0  0  0  0  0  0  0
   -3.8901   -0.6276    0.8694 H   0  0  0  0  0  0  0  0  0  0  0  0
   -3.6295   -1.6822   -0.5426 H   0  0  0  0  0  0  0  0  0  0  0  0
   -1.8284   -0.8704    0.3077 C   0  0  0  0  0  0  0  0  0  0  0  0
   -0.9164   -1.4527    0.8731 O   0  0  0  0  0  0  0  0  0  0  0  0
   -1.5975    0.2612   -0.4511 N   0  0  0  0  0  0  0  0  0  0  0  0
   -2.4284    0.7758   -0.7270 H   0  0  0  0  0  0  0  0  0  0  0  0
   -0.3238    1.0030   -0.4190 C   0  0  1  0  0  0  0  0  0  0  0  0
    0.3652    0.5650    0.3115 H   0  0  0  0  0  0  0  0  0  0  0  0
    0.3373    0.9284   -1.8109 C   0  0  0  0  0  0  0  0  0  0  0  0
   -0.3592    1.2954   -2.5717 H   0  0  0  0  0  0  0  0  0  0  0  0
    1.2217    1.5726   -1.8335 H   0  0  0  0  0  0  0  0  0  0  0  0
    0.7750   -0.4765   -2.1495 C   0  0  0  0  0  0  0  0  0  0  0  0
    1.9818   -0.9855   -1.6465 C   0  0  0  0  0  0  0  0  0  0  0  0
    2.6043   -0.3756   -0.9991 H   0  0  0  0  0  0  0  0  0  0  0  0
    2.3890   -2.2869   -1.9592 C   0  0  0  0  0  0  0  0  0  0  0  0
    3.3194   -2.6756   -1.5561 H   0  0  0  0  0  0  0  0  0  0  0  0
    1.5938   -3.0905   -2.7814 C   0  0  0  0  0  0  0  0  0  0  0  0
    1.9075   -4.1025   -3.0195 H   0  0  0  0  0  0  0  0  0  0  0  0
    0.3905   -2.5919   -3.2891 C   0  0  0  0  0  0  0  0  0  0  0  0
   -0.2305   -3.2172   -3.9233 H   0  0  0  0  0  0  0  0  0  0  0  0
   -0.0163   -1.2909   -2.9741 C   0  0  0  0  0  0  0  0  0  0  0  0
   -0.9563   -0.9169   -3.3670 H   0  0  0  0  0  0  0  0  0  0  0  0
   -0.5666    2.4601    0.0414 C   0  0  0  0  0  0  0  0  0  0  0  0
   -1.1894    2.6707    1.0735 O   0  0  0  0  0  0  0  0  0  0  0  0
   -0.2465    3.5476   -0.7558 N   0  0  0  0  0  0  0  0  0  0  0  0
    0.2496    3.3672   -1.6229 H   0  0  0  0  0  0  0  0  0  0  0  0
   -0.5299    4.9289   -0.3830 C   0  0  0  0  0  0  0  0  0  0  0  0
   -0.0202    5.1856    0.5517 H   0  0  0  0  0  0  0  0  0  0  0  0
   -0.1820    5.6109   -1.1649 H   0  0  0  0  0  0  0  0  0  0  0  0
   -1.6067    5.0773   -0.2496 H   0  0  0  0  0  0  0  0  0  0  0  0
  1  2  1  0  0  0  0
  2  3  1  0  0  0  0
  2  4  1  0  0  0  0
  2  5  1  0  0  0  0
  5  6  2  0  0  0  0
  5  7  1  0  0  0  0
  7  8  1  0  0  0  0
  7  9  1  0  0  0  0
  9 10  1  0  0  0  0
  9 11  1  0  0  0  0
  9 25  1  0  0  0  0
 11 12  1  0  0  0  0
 11 13  1  0  0  0  0
 11 14  1  0  0  0  0
 14 15  1  0  0  0  0
 14 23  2  0  0  0  0
 15 16  1  0  0  0  0
 15 17  2  0  0  0  0
 17 18  1  0  0  0  0
 17 19  1  0  0  0  0
 19 20  1  0  0  0  0
 19 21  2  0  0  0  0
 21 22  1  0  0  0  0
 21 23  1  0  0  0  0
 23 24  1  0  0  0  0
 25 26  2  0  0  0  0
 25 27  1  0  0  0  0
 27 28  1  0  0  0  0
 27 29  1  0  0  0  0
 29 30  1  0  0  0  0
 29 31  1  0  0  0  0
 29 32  1  0  0  0  0
M  END
$$$$

  -OEChem-01062216093D

 32 32  0     1  0  0  0  0  0999 V2000
   -3.2647   -2.2970    1.0803 H   0  0  0  0  0  0  0  0  0  0  0  0
   -3.2489   -1.4192    0.4282 C   0  0  0  0  0  0  0  0  0  0  0  0
   -3.9125   -0.6590    0.8473 H   0  0  0  0  0  0  0  0  0  0  0  0
   -3.6117   -1.7084   -0.5609 H   0  0  0  0  0  0  0  0  0  0  0  0
   -1.8376   -0.8724    0.3224 C   0  0  0  0  0  0  0  0  0  0  0  0
   -0.9284   -1.4412    0.9048 O   0  0  0  0  0  0  0  0  0  0  0  0
   -1.6084    0.2593   -0.4371 N   0  0  0  0  0  0  0  0  0  0  0  0
   -2.4373    0.7478   -0.7610 H   0  0  0  0  0  0  0  0  0  0  0  0
   -0.3370    1.0056   -0.4160 C   0  0  1  0  0  0  0  0  0  0  0  0
    0.3565    0.5688    0.3113 H   0  0  0  0  0  0  0  0  0  0  0  0
    0.3212    0.9342   -1.8087 C   0  0  0  0  0  0  0  0  0  0  0  0
   -0.3795    1.2922   -2.5696 H   0  0  0  0  0  0  0  0  0  0  0  0
    1.1981    1.5896   -1.8321 H   0  0  0  0  0  0  0  0  0  0  0  0
    0.7655   -0.4688   -2.1468 C   0  0  0  0  0  0  0  0  0  0  0  0
    1.9762   -0.9677   -1.6441 C   0  0  0  0  0  0  0  0  0  0  0  0
    2.5945   -0.3513   -0.9987 H   0  0  0  0  0  0  0  0  0  0  0  0
    2.3926   -2.2665   -1.9541 C   0  0  0  0  0  0  0  0  0  0  0  0
    3.3265   -2.6468   -1.5511 H   0  0  0  0  0  0  0  0  0  0  0  0
    1.6025   -3.0777   -2.7736 C   0  0  0  0  0  0  0  0  0  0  0  0
    1.9239   -4.0877   -3.0096 H   0  0  0  0  0  0  0  0  0  0  0  0
    0.3947   -2.5896   -3.2809 C   0  0  0  0  0  0  0  0  0  0  0  0
   -0.2220   -3.2213   -3.9129 H   0  0  0  0  0  0  0  0  0  0  0  0
   -0.0214   -1.2909   -2.9682 C   0  0  0  0  0  0  0  0  0  0  0  0
   -0.9644   -0.9250   -3.3615 H   0  0  0  0  0  0  0  0  0  0  0  0
   -0.5737    2.4622    0.0421 C   0  0  0  0  0  0  0  0  0  0  0  0
   -0.9219    2.6871    1.1924 O   0  0  0  0  0  0  0  0  0  0  0  0
   -0.5519    3.5201   -0.8526 N   0  0  0  0  0  0  0  0  0  0  0  0
   -0.2816    3.3220   -1.8108 H   0  0  0  0  0  0  0  0  0  0  0  0
   -0.8394    4.8988   -0.4730 C   0  0  0  0  0  0  0  0  0  0  0  0
   -0.1244    5.2455    0.2807 H   0  0  0  0  0  0  0  0  0  0  0  0
   -0.7674    5.5549   -1.3460 H   0  0  0  0  0  0  0  0  0  0  0  0
   -1.8516    4.9804   -0.0626 H   0  0  0  0  0  0  0  0  0  0  0  0
  1  2  1  0  0  0  0
  2  3  1  0  0  0  0
  2  4  1  0  0  0  0
  2  5  1  0  0  0  0
  5  6  2  0  0  0  0
  5  7  1  0  0  0  0
  7  8  1  0  0  0  0
  7  9  1  0  0  0  0
  9 10  1  0  0  0  0
  9 11  1  0  0  0  0
  9 25  1  0  0  0  0
 11 12  1  0  0  0  0
 11 13  1  0  0  0  0
 11 14  1  0  0  0  0
 14 15  1  0  0  0  0
 14 23  2  0  0  0  0
 15 16  1  0  0  0  0
 15 17  2  0  0  0  0
 17 18  1  0  0  0  0
 17 19  1  0  0  0  0
 19 20  1  0  0  0  0
 19 21  2  0  0  0  0
 21 22  1  0  0  0  0
 21 23  1  0  0  0  0
 23 24  1  0  0  0  0
 25 26  2  0  0  0  0
 25 27  1  0  0  0  0
 27 28  1  0  0  0  0
 27 29  1  0  0  0  0
 29 30  1  0  0  0  0
 29 31  1  0  0  0  0
 29 32  1  0  0  0  0
M  END
$$$$

  -OEChem-01062216093D

 32 32  0     1  0  0  0  0  0999 V2000
   -3.2498   -2.3428    1.0615 H   0  0  0  0  0  0  0  0  0  0  0  0
   -3.2322   -1.4806    0.3888 C   0  0  0  0  0  0  0  0  0  0  0  0
   -3.9519   -0.7410    0.7472 H   0  0  0  0  0  0  0  0  0  0  0  0
   -3.5218   -1.8089   -0.6120 H   0  0  0  0  0  0  0  0  0  0  0  0
   -1.8412   -0.8760    0.3519 C   0  0  0  0  0  0  0  0  0  0  0  0
   -0.9410   -1.4053    0.9824 O   0  0  0  0  0  0  0  0  0  0  0  0
   -1.6179    0.2558   -0.4096 N   0  0  0  0  0  0  0  0  0  0  0  0
   -2.4391    0.6950   -0.8128 H   0  0  0  0  0  0  0  0  0  0  0  0
   -0.3524    1.0127   -0.4024 C   0  0  1  0  0  0  0  0  0  0  0  0
    0.3513    0.5797    0.3176 H   0  0  0  0  0  0  0  0  0  0  0  0
    0.2942    0.9493   -1.7998 C   0  0  0  0  0  0  0  0  0  0  0  0
   -0.4143    1.2990   -2.5569 H   0  0  0  0  0  0  0  0  0  0  0  0
    1.1630    1.6158   -1.8289 H   0  0  0  0  0  0  0  0  0  0  0  0
    0.7465   -0.4510   -2.1386 C   0  0  0  0  0  0  0  0  0  0  0  0
    1.9647   -0.9410   -1.6449 C   0  0  0  0  0  0  0  0  0  0  0  0
    2.5856   -0.3178   -1.0084 H   0  0  0  0  0  0  0  0  0  0  0  0
    2.3852   -2.2392   -1.9528 C   0  0  0  0  0  0  0  0  0  0  0  0
    3.3259   -2.6119   -1.5582 H   0  0  0  0  0  0  0  0  0  0  0  0
    1.5907   -3.0593   -2.7593 C   0  0  0  0  0  0  0  0  0  0  0  0
    1.9151   -4.0690   -2.9929 H   0  0  0  0  0  0  0  0  0  0  0  0
    0.3752   -2.5802   -3.2567 C   0  0  0  0  0  0  0  0  0  0  0  0
   -0.2445   -3.2187   -3.8788 H   0  0  0  0  0  0  0  0  0  0  0  0
   -0.0440   -1.2818   -2.9478 C   0  0  0  0  0  0  0  0  0  0  0  0
   -0.9923   -0.9236   -3.3347 H   0  0  0  0  0  0  0  0  0  0  0  0
   -0.5863    2.4690    0.0509 C   0  0  0  0  0  0  0  0  0  0  0  0
   -0.6052    2.7461    1.2411 O   0  0  0  0  0  0  0  0  0  0  0  0
   -0.8801    3.4670   -0.8640 N   0  0  0  0  0  0  0  0  0  0  0  0
   -0.8563    3.2255   -1.8495 H   0  0  0  0  0  0  0  0  0  0  0  0
   -1.1363    4.8514   -0.4836 C   0  0  0  0  0  0  0  0  0  0  0  0
   -0.2802    5.2635    0.0612 H   0  0  0  0  0  0  0  0  0  0  0  0
   -1.3055    5.4635   -1.3746 H   0  0  0  0  0  0  0  0  0  0  0  0
   -2.0243    4.9155    0.1542 H   0  0  0  0  0  0  0  0  0  0  0  0
  1  2  1  0  0  0  0
  2  3  1  0  0  0  0
  2  4  1  0  0  0  0
  2  5  1  0  0  0  0
  5  6  2  0  0  0  0
  5  7  1  0  0  0  0
  7  8  1  0  0  0  0
  7  9  1  0  0  0  0
  9 10  1  0  0  0  0
  9 11  1  0  0  0  0
  9 25  1  0  0  0  0
 11 12  1  0  0  0  0
 11 13  1  0  0  0  0
 11 14  1  0  0  0  0
 14 15  1  0  0  0  0
 14 23  2  0  0  0  0
 15 16  1  0  0  0  0
 15 17  2  0  0  0  0
 17 18  1  0  0  0  0
 17 19  1  0  0  0  0
 19 20  1  0  0  0  0
 19 21  2  0  0  0  0
 21 22  1  0  0  0  0
 21 23  1  0  0  0  0
 23 24  1  0  0  0  0
 25 26  2  0  0  0  0
 25 27  1  0  0  0  0
 27 28  1  0  0  0  0
 27 29  1  0  0  0  0
 29 30  1  0  0  0  0
 29 31  1  0  0  0  0
 29 32  1  0  0  0  0
M  END
$$$$

  -OEChem-01062216093D

 32 32  0     1  0  0  0  0  0999 V2000
   -3.2491   -2.3865    1.0469 H   0  0  0  0  0  0  0  0  0  0  0  0
   -3.2329   -1.5222    0.3770 C   0  0  0  0  0  0  0  0  0  0  0  0
   -3.9782   -0.7998    0.7181 H   0  0  0  0  0  0  0  0  0  0  0  0
   -3.4892   -1.8546   -0.6317 H   0  0  0  0  0  0  0  0  0  0  0  0
   -1.8553   -0.8864    0.3788 C   0  0  0  0  0  0  0  0  0  0  0  0
   -0.9664   -1.3848    1.0482 O   0  0  0  0  0  0  0  0  0  0  0  0
   -1.6325    0.2446   -0.3841 N   0  0  0  0  0  0  0  0  0  0  0  0
   -2.4413    0.6445   -0.8476 H   0  0  0  0  0  0  0  0  0  0  0  0
   -0.3698    1.0073   -0.3818 C   0  0  1  0  0  0  0  0  0  0  0  0
    0.3382    0.5732    0.3336 H   0  0  0  0  0  0  0  0  0  0  0  0
    0.2742    0.9592   -1.7800 C   0  0  0  0  0  0  0  0  0  0  0  0
   -0.4349    1.3129   -2.5345 H   0  0  0  0  0  0  0  0  0  0  0  0
    1.1389    1.6312   -1.8042 H   0  0  0  0  0  0  0  0  0  0  0  0
    0.7333   -0.4366   -2.1286 C   0  0  0  0  0  0  0  0  0  0  0  0
    1.9549   -0.9219   -1.6390 C   0  0  0  0  0  0  0  0  0  0  0  0
    2.5730   -0.2976   -1.0006 H   0  0  0  0  0  0  0  0  0  0  0  0
    2.3822   -2.2162   -1.9533 C   0  0  0  0  0  0  0  0  0  0  0  0
    3.3248   -2.5852   -1.5605 H   0  0  0  0  0  0  0  0  0  0  0  0
    1.5928   -3.0363   -2.7645 C   0  0  0  0  0  0  0  0  0  0  0  0
    1.9234   -4.0427   -3.0041 H   0  0  0  0  0  0  0  0  0  0  0  0
    0.3753   -2.5609   -3.2604 C   0  0  0  0  0  0  0  0  0  0  0  0
   -0.2397   -3.1987   -3.8881 H   0  0  0  0  0  0  0  0  0  0  0  0
   -0.0521   -1.2669   -2.9433 C   0  0  0  0  0  0  0  0  0  0  0  0
   -1.0020   -0.9119   -3.3290 H   0  0  0  0  0  0  0  0  0  0  0  0
   -0.6012    2.4639    0.0667 C   0  0  0  0  0  0  0  0  0  0  0  0
   -0.2891    2.8236    1.1921 O   0  0  0  0  0  0  0  0  0  0  0  0
   -1.1925    3.3814   -0.7863 N   0  0  0  0  0  0  0  0  0  0  0  0
   -1.4085    3.0772   -1.7298 H   0  0  0  0  0  0  0  0  0  0  0  0
   -1.4254    4.7744   -0.4227 C   0  0  0  0  0  0  0  0  0  0  0  0
   -0.4832    5.2627   -0.1522 H   0  0  0  0  0  0  0  0  0  0  0  0
   -1.8664    5.3178   -1.2638 H   0  0  0  0  0  0  0  0  0  0  0  0
   -2.1117    4.8385    0.4283 H   0  0  0  0  0  0  0  0  0  0  0  0
  1  2  1  0  0  0  0
  2  3  1  0  0  0  0
  2  4  1  0  0  0  0
  2  5  1  0  0  0  0
  5  6  2  0  0  0  0
  5  7  1  0  0  0  0
  7  8  1  0  0  0  0
  7  9  1  0  0  0  0
  9 10  1  0  0  0  0
  9 11  1  0  0  0  0
  9 25  1  0  0  0  0
 11 12  1  0  0  0  0
 11 13  1  0  0  0  0
 11 14  1  0  0  0  0
 14 15  1  0  0  0  0
 14 23  2  0  0  0  0
 15 16  1  0  0  0  0
 15 17  2  0  0  0  0
 17 18  1  0  0  0  0
 17 19  1  0  0  0  0
 19 20  1  0  0  0  0
 19 21  2  0  0  0  0
 21 22  1  0  0  0  0
 21 23  1  0  0  0  0
 23 24  1  0  0  0  0
 25 26  2  0  0  0  0
 25 27  1  0  0  0  0
 27 28  1  0  0  0  0
 27 29  1  0  0  0  0
 29 30  1  0  0  0  0
 29 31  1  0  0  0  0
 29 32  1  0  0  0  0
M  END
$$$$

  -OEChem-01062216093D

 32 32  0     1  0  0  0  0  0999 V2000
   -3.2142   -2.4761    0.9938 H   0  0  0  0  0  0  0  0  0  0  0  0
   -3.2058   -1.6054    0.3320 C   0  0  0  0  0  0  0  0  0  0  0  0
   -4.0178   -0.9350    0.6233 H   0  0  0  0  0  0  0  0  0  0  0  0
   -3.3682   -1.9432   -0.6942 H   0  0  0  0  0  0  0  0  0  0  0  0
   -1.8742   -0.8853    0.4364 C   0  0  0  0  0  0  0  0  0  0  0  0
   -1.0222   -1.3088    1.1986 O   0  0  0  0  0  0  0  0  0  0  0  0
   -1.6514    0.2406   -0.3340 N   0  0  0  0  0  0  0  0  0  0  0  0
   -2.4095    0.5362   -0.9388 H   0  0  0  0  0  0  0  0  0  0  0  0
   -0.3892    1.0066   -0.3409 C   0  0  1  0  0  0  0  0  0  0  0  0
    0.3248    0.5710    0.3677 H   0  0  0  0  0  0  0  0  0  0  0  0
    0.2430    0.9690   -1.7430 C   0  0  0  0  0  0  0  0  0  0  0  0
   -0.4718    1.3305   -2.4883 H   0  0  0  0  0  0  0  0  0  0  0  0
    1.1066    1.6425   -1.7679 H   0  0  0  0  0  0  0  0  0  0  0  0
    0.7026   -0.4232   -2.1036 C   0  0  0  0  0  0  0  0  0  0  0  0
    1.9293   -0.9060   -1.6255 C   0  0  0  0  0  0  0  0  0  0  0  0
    2.5460   -0.2838   -0.9835 H   0  0  0  0  0  0  0  0  0  0  0  0
    2.3636   -2.1936   -1.9568 C   0  0  0  0  0  0  0  0  0  0  0  0
    3.3115   -2.5602   -1.5739 H   0  0  0  0  0  0  0  0  0  0  0  0
    1.5756   -3.0092   -2.7740 C   0  0  0  0  0  0  0  0  0  0  0  0
    1.9133   -4.0093   -3.0291 H   0  0  0  0  0  0  0  0  0  0  0  0
    0.3525   -2.5363   -3.2582 C   0  0  0  0  0  0  0  0  0  0  0  0
   -0.2591   -3.1701   -3.8930 H   0  0  0  0  0  0  0  0  0  0  0  0
   -0.0818   -1.2488   -2.9242 C   0  0  0  0  0  0  0  0  0  0  0  0
   -1.0333   -0.8935   -3.3058 H   0  0  0  0  0  0  0  0  0  0  0  0
   -0.6044    2.4686    0.0953 C   0  0  0  0  0  0  0  0  0  0  0  0
    0.0220    2.9342    1.0358 O   0  0  0  0  0  0  0  0  0  0  0  0
   -1.4549    3.2967   -0.6183 N   0  0  0  0  0  0  0  0  0  0  0  0
   -1.9152    2.9095   -1.4344 H   0  0  0  0  0  0  0  0  0  0  0  0
   -1.6578    4.7036   -0.2937 C   0  0  0  0  0  0  0  0  0  0  0  0
   -0.7103    5.2504   -0.3472 H   0  0  0  0  0  0  0  0  0  0  0  0
   -2.3594    5.1577   -1.0000 H   0  0  0  0  0  0  0  0  0  0  0  0
   -2.0677    4.8080    0.7166 H   0  0  0  0  0  0  0  0  0  0  0  0
  1  2  1  0  0  0  0
  2  3  1  0  0  0  0
  2  4  1  0  0  0  0
  2  5  1  0  0  0  0
  5  6  2  0  0  0  0
  5  7  1  0  0  0  0
  7  8  1  0  0  0  0
  7  9  1  0  0  0  0
  9 10  1  0  0  0  0
  9 11  1  0  0  0  0
  9 25  1  0  0  0  0
 11 12  1  0  0  0  0
 11 13  1  0  0  0  0
 11 14  1  0  0  0  0
 14 15  1  0  0  0  0
 14 23  2  0  0  0  0
 15 16  1  0  0  0  0
 15 17  2  0  0  0  0
 17 18  1  0  0  0  0
 17 19  1  0  0  0  0
 19 20  1  0  0  0  0
 19 21  2  0  0  0  0
 21 22  1  0  0  0  0
 21 23  1  0  0  0  0
 23 24  1  0  0  0  0
 25 26  2  0  0  0  0
 25 27  1  0  0  0  0
 27 28  1  0  0  0  0
 27 29  1  0  0  0  0
 29 30  1  0  0  0  0
 29 31  1  0  0  0  0
 29 32  1  0  0  0  0
M  END
$$$$

  -OEChem-01062216093D

 32 32  0     1  0  0  0  0  0999 V2000
   -3.0739   -2.5859    0.9022 H   0  0  0  0  0  0  0  0  0  0  0  0
   -3.0702   -1.7381    0.2110 C   0  0  0  0  0  0  0  0  0  0  0  0
   -3.9979   -1.1756    0.3397 H   0  0  0  0  0  0  0  0  0  0  0  0
   -3.0188   -2.1203   -0.8114 H   0  0  0  0  0  0  0  0  0  0  0  0
   -1.8780   -0.8422    0.4902 C   0  0  0  0  0  0  0  0  0  0  0  0
   -1.1262   -1.1120    1.4112 O   0  0  0  0  0  0  0  0  0  0  0  0
   -1.6711    0.2738   -0.2992 N   0  0  0  0  0  0  0  0  0  0  0  0
   -2.2678    0.3438   -1.1160 H   0  0  0  0  0  0  0  0  0  0  0  0
   -0.4027    1.0310   -0.3083 C   0  0  1  0  0  0  0  0  0  0  0  0
    0.3134    0.5917    0.3959 H   0  0  0  0  0  0  0  0  0  0  0  0
    0.2160    0.9895   -1.7155 C   0  0  0  0  0  0  0  0  0  0  0  0
   -0.5008    1.3630   -2.4533 H   0  0  0  0  0  0  0  0  0  0  0  0
    1.0875    1.6533   -1.7468 H   0  0  0  0  0  0  0  0  0  0  0  0
    0.6565   -0.4089   -2.0757 C   0  0  0  0  0  0  0  0  0  0  0  0
    1.8808   -0.9061   -1.6064 C   0  0  0  0  0  0  0  0  0  0  0  0
    2.5121   -0.2895   -0.9727 H   0  0  0  0  0  0  0  0  0  0  0  0
    2.2933   -2.2016   -1.9350 C   0  0  0  0  0  0  0  0  0  0  0  0
    3.2389   -2.5804   -1.5582 H   0  0  0  0  0  0  0  0  0  0  0  0
    1.4878   -3.0086   -2.7439 C   0  0  0  0  0  0  0  0  0  0  0  0
    1.8097   -4.0141   -2.9987 H   0  0  0  0  0  0  0  0  0  0  0  0
    0.2700   -2.5187   -3.2245 C   0  0  0  0  0  0  0  0  0  0  0  0
   -0.3528   -3.1439   -3.8572 H   0  0  0  0  0  0  0  0  0  0  0  0
   -0.1430   -1.2240   -2.8925 C   0  0  0  0  0  0  0  0  0  0  0  0
   -1.0876   -0.8546   -3.2772 H   0  0  0  0  0  0  0  0  0  0  0  0
   -0.5923    2.5000    0.1152 C   0  0  0  0  0  0  0  0  0  0  0  0
    0.2770    3.0671    0.7615 O   0  0  0  0  0  0  0  0  0  0  0  0
   -1.6409    3.2476   -0.3930 N   0  0  0  0  0  0  0  0  0  0  0  0
   -2.3780    2.7422   -0.8715 H   0  0  0  0  0  0  0  0  0  0  0  0
   -1.8459    4.6546   -0.0698 C   0  0  0  0  0  0  0  0  0  0  0  0
   -0.9807    5.2494   -0.3815 H   0  0  0  0  0  0  0  0  0  0  0  0
   -2.7308    5.0372   -0.5872 H   0  0  0  0  0  0  0  0  0  0  0  0
   -1.9910    4.7824    1.0080 H   0  0  0  0  0  0  0  0  0  0  0  0
  1  2  1  0  0  0  0
  2  3  1  0  0  0  0
  2  4  1  0  0  0  0
  2  5  1  0  0  0  0
  5  6  2  0  0  0  0
  5  7  1  0  0  0  0
  7  8  1  0  0  0  0
  7  9  1  0  0  0  0
  9 10  1  0  0  0  0
  9 11  1  0  0  0  0
  9 25  1  0  0  0  0
 11 12  1  0  0  0  0
 11 13  1  0  0  0  0
 11 14  1  0  0  0  0
 14 15  1  0  0  0  0
 14 23  2  0  0  0  0
 15 16  1  0  0  0  0
 15 17  2  0  0  0  0
 17 18  1  0  0  0  0
 17 19  1  0  0  0  0
 19 20  1  0  0  0  0
 19 21  2  0  0  0  0
 21 22  1  0  0  0  0
 21 23  1  0  0  0  0
 23 24  1  0  0  0  0
 25 26  2  0  0  0  0
 25 27  1  0  0  0  0
 27 28  1  0  0  0  0
 27 29  1  0  0  0  0
 29 30  1  0  0  0  0
 29 31  1  0  0  0  0
 29 32  1  0  0  0  0
M  END
$$$$

  -OEChem-01062216093D

 32 32  0     1  0  0  0  0  0999 V2000
   -3.0296   -2.6148    0.8677 H   0  0  0  0  0  0  0  0  0  0  0  0
   -3.0229   -1.7748    0.1672 C   0  0  0  0  0  0  0  0  0  0  0  0
   -3.9764   -1.2468    0.2419 H   0  0  0  0  0  0  0  0  0  0  0  0
   -2.9058   -2.1657   -0.8464 H   0  0  0  0  0  0  0  0  0  0  0  0
   -1.8797   -0.8324    0.4933 C   0  0  0  0  0  0  0  0  0  0  0  0
   -1.1677   -1.0595    1.4565 O   0  0  0  0  0  0  0  0  0  0  0  0
   -1.6734    0.2820   -0.2980 N   0  0  0  0  0  0  0  0  0  0  0  0
   -2.2278    0.3130   -1.1471 H   0  0  0  0  0  0  0  0  0  0  0  0
   -0.4032    1.0374   -0.2976 C   0  0  1  0  0  0  0  0  0  0  0  0
    0.3106    0.5968    0.4078 H   0  0  0  0  0  0  0  0  0  0  0  0
    0.2114    0.9933   -1.7071 C   0  0  0  0  0  0  0  0  0  0  0  0
   -0.5066    1.3718   -2.4415 H   0  0  0  0  0  0  0  0  0  0  0  0
    1.0859    1.6528   -1.7420 H   0  0  0  0  0  0  0  0  0  0  0  0
    0.6459   -0.4068   -2.0700 C   0  0  0  0  0  0  0  0  0  0  0  0
    1.8699   -0.9093   -1.6055 C   0  0  0  0  0  0  0  0  0  0  0  0
    2.5070   -0.2940   -0.9765 H   0  0  0  0  0  0  0  0  0  0  0  0
    2.2755   -2.2068   -1.9353 C   0  0  0  0  0  0  0  0  0  0  0  0
    3.2222   -2.5884   -1.5641 H   0  0  0  0  0  0  0  0  0  0  0  0
    1.4619   -3.0121   -2.7378 C   0  0  0  0  0  0  0  0  0  0  0  0
    1.7779   -4.0198   -2.9918 H   0  0  0  0  0  0  0  0  0  0  0  0
    0.2436   -2.5174   -3.2127 C   0  0  0  0  0  0  0  0  0  0  0  0
   -0.3855   -3.1416   -3.8401 H   0  0  0  0  0  0  0  0  0  0  0  0
   -0.1612   -1.2196   -2.8818 C   0  0  0  0  0  0  0  0  0  0  0  0
   -1.1061   -0.8457   -3.2622 H   0  0  0  0  0  0  0  0  0  0  0  0
   -0.5879    2.5076    0.1239 C   0  0  0  0  0  0  0  0  0  0  0  0
    0.3704    3.1508    0.5289 O   0  0  0  0  0  0  0  0  0  0  0  0
   -1.7769    3.1669   -0.1341 N   0  0  0  0  0  0  0  0  0  0  0  0
   -2.5745    2.5843   -0.3650 H   0  0  0  0  0  0  0  0  0  0  0  0
   -2.0055    4.5610    0.2255 C   0  0  0  0  0  0  0  0  0  0  0  0
   -1.2803    5.2099   -0.2768 H   0  0  0  0  0  0  0  0  0  0  0  0
   -3.0105    4.8704   -0.0765 H   0  0  0  0  0  0  0  0  0  0  0  0
   -1.9102    4.6975    1.3078 H   0  0  0  0  0  0  0  0  0  0  0  0
  1  2  1  0  0  0  0
  2  3  1  0  0  0  0
  2  4  1  0  0  0  0
  2  5  1  0  0  0  0
  5  6  2  0  0  0  0
  5  7  1  0  0  0  0
  7  8  1  0  0  0  0
  7  9  1  0  0  0  0
  9 10  1  0  0  0  0
  9 11  1  0  0  0  0
  9 25  1  0  0  0  0
 11 12  1  0  0  0  0
 11 13  1  0  0  0  0
 11 14  1  0  0  0  0
 14 15  1  0  0  0  0
 14 23  2  0  0  0  0
 15 16  1  0  0  0  0
 15 17  2  0  0  0  0
 17 18  1  0  0  0  0
 17 19  1  0  0  0  0
 19 20  1  0  0  0  0
 19 21  2  0  0  0  0
 21 22  1  0  0  0  0
 21 23  1  0  0  0  0
 23 24  1  0  0  0  0
 25 26  2  0  0  0  0
 25 27  1  0  0  0  0
 27 28  1  0  0  0  0
 27 29  1  0  0  0  0
 29 30  1  0  0  0  0
 29 31  1  0  0  0  0
 29 32  1  0  0  0  0
M  END
$$$$

  -OEChem-01062216093D

 32 32  0     1  0  0  0  0  0999 V2000
   -3.0081   -2.6212    0.8445 H   0  0  0  0  0  0  0  0  0  0  0  0
   -2.9983   -1.7858    0.1385 C   0  0  0  0  0  0  0  0  0  0  0  0
   -3.9596   -1.2695    0.1911 H   0  0  0  0  0  0  0  0  0  0  0  0
   -2.8565   -2.1814   -0.8701 H   0  0  0  0  0  0  0  0  0  0  0  0
   -1.8733   -0.8275    0.4808 C   0  0  0  0  0  0  0  0  0  0  0  0
   -1.1785   -1.0368    1.4605 O   0  0  0  0  0  0  0  0  0  0  0  0
   -1.6683    0.2895   -0.3066 N   0  0  0  0  0  0  0  0  0  0  0  0
   -2.2137    0.3179   -1.1622 H   0  0  0  0  0  0  0  0  0  0  0  0
   -0.3970    1.0443   -0.3008 C   0  0  1  0  0  0  0  0  0  0  0  0
    0.3165    0.6018    0.4033 H   0  0  0  0  0  0  0  0  0  0  0  0
    0.2138    0.9954   -1.7132 C   0  0  0  0  0  0  0  0  0  0  0  0
   -0.5049    1.3751   -2.4462 H   0  0  0  0  0  0  0  0  0  0  0  0
    1.0916    1.6501   -1.7544 H   0  0  0  0  0  0  0  0  0  0  0  0
    0.6426   -0.4077   -2.0723 C   0  0  0  0  0  0  0  0  0  0  0  0
    1.8660   -0.9125   -1.6091 C   0  0  0  0  0  0  0  0  0  0  0  0
    2.5079   -0.2954   -0.9865 H   0  0  0  0  0  0  0  0  0  0  0  0
    2.2649   -2.2138   -1.9317 C   0  0  0  0  0  0  0  0  0  0  0  0
    3.2106   -2.5974   -1.5605 H   0  0  0  0  0  0  0  0  0  0  0  0
    1.4458   -3.0200   -2.7275 C   0  0  0  0  0  0  0  0  0  0  0  0
    1.7565   -4.0306   -2.9759 H   0  0  0  0  0  0  0  0  0  0  0  0
    0.2288   -2.5228   -3.2029 C   0  0  0  0  0  0  0  0  0  0  0  0
   -0.4041   -3.1476   -3.8262 H   0  0  0  0  0  0  0  0  0  0  0  0
   -0.1694   -1.2214   -2.8783 C   0  0  0  0  0  0  0  0  0  0  0  0
   -1.1127   -0.8455   -3.2600 H   0  0  0  0  0  0  0  0  0  0  0  0
   -0.5835    2.5140    0.1274 C   0  0  0  0  0  0  0  0  0  0  0  0
    0.3925    3.2290    0.3094 O   0  0  0  0  0  0  0  0  0  0  0  0
   -1.8454    3.0804    0.1575 N   0  0  0  0  0  0  0  0  0  0  0  0
   -2.6252    2.4311    0.1283 H   0  0  0  0  0  0  0  0  0  0  0  0
   -2.0905    4.4561    0.5727 C   0  0  0  0  0  0  0  0  0  0  0  0
   -1.5502    5.1541   -0.0755 H   0  0  0  0  0  0  0  0  0  0  0  0
   -3.1586    4.6854    0.5102 H   0  0  0  0  0  0  0  0  0  0  0  0
   -1.7620    4.6088    1.6061 H   0  0  0  0  0  0  0  0  0  0  0  0
  1  2  1  0  0  0  0
  2  3  1  0  0  0  0
  2  4  1  0  0  0  0
  2  5  1  0  0  0  0
  5  6  2  0  0  0  0
  5  7  1  0  0  0  0
  7  8  1  0  0  0  0
  7  9  1  0  0  0  0
  9 10  1  0  0  0  0
  9 11  1  0  0  0  0
  9 25  1  0  0  0  0
 11 12  1  0  0  0  0
 11 13  1  0  0  0  0
 11 14  1  0  0  0  0
 14 15  1  0  0  0  0
 14 23  2  0  0  0  0
 15 16  1  0  0  0  0
 15 17  2  0  0  0  0
 17 18  1  0  0  0  0
 17 19  1  0  0  0  0
 19 20  1  0  0  0  0
 19 21  2  0  0  0  0
 21 22  1  0  0  0  0
 21 23  1  0  0  0  0
 23 24  1  0  0  0  0
 25 26  2  0  0  0  0
 25 27  1  0  0  0  0
 27 28  1  0  0  0  0
 27 29  1  0  0  0  0
 29 30  1  0  0  0  0
 29 31  1  0  0  0  0
 29 32  1  0  0  0  0
M  END
$$$$

  -OEChem-01062216093D

 32 32  0     1  0  0  0  0  0999 V2000
   -3.0159   -2.6139    0.8241 H   0  0  0  0  0  0  0  0  0  0  0  0
   -3.0089   -1.7693    0.1290 C   0  0  0  0  0  0  0  0  0  0  0  0
   -3.9631   -1.2425    0.2051 H   0  0  0  0  0  0  0  0  0  0  0  0
   -2.8900   -2.1532   -0.8872 H   0  0  0  0  0  0  0  0  0  0  0  0
   -1.8667   -0.8285    0.4639 C   0  0  0  0  0  0  0  0  0  0  0  0
   -1.1660   -1.0483    1.4372 O   0  0  0  0  0  0  0  0  0  0  0  0
   -1.6591    0.2933   -0.3152 N   0  0  0  0  0  0  0  0  0  0  0  0
   -2.2221    0.3477   -1.1584 H   0  0  0  0  0  0  0  0  0  0  0  0
   -0.3890    1.0502   -0.3085 C   0  0  1  0  0  0  0  0  0  0  0  0
    0.3253    0.6084    0.3950 H   0  0  0  0  0  0  0  0  0  0  0  0
    0.2178    0.9919   -1.7239 C   0  0  0  0  0  0  0  0  0  0  0  0
   -0.5040    1.3670   -2.4563 H   0  0  0  0  0  0  0  0  0  0  0  0
    1.0962    1.6446   -1.7764 H   0  0  0  0  0  0  0  0  0  0  0  0
    0.6460   -0.4135   -2.0763 C   0  0  0  0  0  0  0  0  0  0  0  0
    1.8716   -0.9148   -1.6143 C   0  0  0  0  0  0  0  0  0  0  0  0
    2.5142   -0.2937   -0.9965 H   0  0  0  0  0  0  0  0  0  0  0  0
    2.2723   -2.2162   -1.9342 C   0  0  0  0  0  0  0  0  0  0  0  0
    3.2209   -2.5961   -1.5660 H   0  0  0  0  0  0  0  0  0  0  0  0
    1.4521   -3.0265   -2.7250 C   0  0  0  0  0  0  0  0  0  0  0  0
    1.7648   -4.0364   -2.9736 H   0  0  0  0  0  0  0  0  0  0  0  0
    0.2319   -2.5335   -3.1970 C   0  0  0  0  0  0  0  0  0  0  0  0
   -0.4023   -3.1611   -3.8160 H   0  0  0  0  0  0  0  0  0  0  0  0
   -0.1679   -1.2319   -2.8756 C   0  0  0  0  0  0  0  0  0  0  0  0
   -1.1134   -0.8585   -3.2549 H   0  0  0  0  0  0  0  0  0  0  0  0
   -0.5820    2.5183    0.1289 C   0  0  0  0  0  0  0  0  0  0  0  0
    0.3565    3.3033    0.0994 O   0  0  0  0  0  0  0  0  0  0  0  0
   -1.8391    2.9902    0.4618 N   0  0  0  0  0  0  0  0  0  0  0  0
   -2.5572    2.2850    0.5976 H   0  0  0  0  0  0  0  0  0  0  0  0
   -2.0850    4.3473    0.9342 C   0  0  0  0  0  0  0  0  0  0  0  0
   -1.7560    5.0788    0.1885 H   0  0  0  0  0  0  0  0  0  0  0  0
   -3.1538    4.4971    1.1142 H   0  0  0  0  0  0  0  0  0  0  0  0
   -1.5457    4.5307    1.8694 H   0  0  0  0  0  0  0  0  0  0  0  0
  1  2  1  0  0  0  0
  2  3  1  0  0  0  0
  2  4  1  0  0  0  0
  2  5  1  0  0  0  0
  5  6  2  0  0  0  0
  5  7  1  0  0  0  0
  7  8  1  0  0  0  0
  7  9  1  0  0  0  0
  9 10  1  0  0  0  0
  9 11  1  0  0  0  0
  9 25  1  0  0  0  0
 11 12  1  0  0  0  0
 11 13  1  0  0  0  0
 11 14  1  0  0  0  0
 14 15  1  0  0  0  0
 14 23  2  0  0  0  0
 15 16  1  0  0  0  0
 15 17  2  0  0  0  0
 17 18  1  0  0  0  0
 17 19  1  0  0  0  0
 19 20  1  0  0  0  0
 19 21  2  0  0  0  0
 21 22  1  0  0  0  0
 21 23  1  0  0  0  0
 23 24  1  0  0  0  0
 25 26  2  0  0  0  0
 25 27  1  0  0  0  0
 27 28  1  0  0  0  0
 27 29  1  0  0  0  0
 29 30  1  0  0  0  0
 29 31  1  0  0  0  0
 29 32  1  0  0  0  0
M  END
$$$$

  -OEChem-01062216093D

 32 32  0     1  0  0  0  0  0999 V2000
   -3.0128   -2.6026    0.8080 H   0  0  0  0  0  0  0  0  0  0  0  0
   -3.0039   -1.7568    0.1144 C   0  0  0  0  0  0  0  0  0  0  0  0
   -3.9563   -1.2271    0.1918 H   0  0  0  0  0  0  0  0  0  0  0  0
   -2.8870   -2.1395   -0.9023 H   0  0  0  0  0  0  0  0  0  0  0  0
   -1.8586   -0.8198    0.4483 C   0  0  0  0  0  0  0  0  0  0  0  0
   -1.1596   -1.0402    1.4228 O   0  0  0  0  0  0  0  0  0  0  0  0
   -1.6503    0.3072   -0.3228 N   0  0  0  0  0  0  0  0  0  0  0  0
   -2.2327    0.3887   -1.1506 H   0  0  0  0  0  0  0  0  0  0  0  0
   -0.3783    1.0604   -0.3202 C   0  0  1  0  0  0  0  0  0  0  0  0
    0.3362    0.6165    0.3813 H   0  0  0  0  0  0  0  0  0  0  0  0
    0.2280    0.9960   -1.7373 C   0  0  0  0  0  0  0  0  0  0  0  0
   -0.4921    1.3723   -2.4708 H   0  0  0  0  0  0  0  0  0  0  0  0
    1.1103    1.6430   -1.7927 H   0  0  0  0  0  0  0  0  0  0  0  0
    0.6508   -0.4125   -2.0832 C   0  0  0  0  0  0  0  0  0  0  0  0
    1.8743   -0.9172   -1.6196 C   0  0  0  0  0  0  0  0  0  0  0  0
    2.5214   -0.2955   -1.0073 H   0  0  0  0  0  0  0  0  0  0  0  0
    2.2660   -2.2239   -1.9285 C   0  0  0  0  0  0  0  0  0  0  0  0
    3.2112   -2.6077   -1.5561 H   0  0  0  0  0  0  0  0  0  0  0  0
    1.4404   -3.0353   -2.7122 C   0  0  0  0  0  0  0  0  0  0  0  0
    1.7456   -4.0500   -2.9507 H   0  0  0  0  0  0  0  0  0  0  0  0
    0.2243   -2.5374   -3.1897 C   0  0  0  0  0  0  0  0  0  0  0  0
   -0.4135   -3.1656   -3.8045 H   0  0  0  0  0  0  0  0  0  0  0  0
   -0.1674   -1.2309   -2.8776 C   0  0  0  0  0  0  0  0  0  0  0  0
   -1.1104   -0.8532   -3.2586 H   0  0  0  0  0  0  0  0  0  0  0  0
   -0.5786    2.5249    0.1315 C   0  0  0  0  0  0  0  0  0  0  0  0
    0.2613    3.3815   -0.1118 O   0  0  0  0  0  0  0  0  0  0  0  0
   -1.7507    2.9007    0.7624 N   0  0  0  0  0  0  0  0  0  0  0  0
   -2.3626    2.1429    1.0521 H   0  0  0  0  0  0  0  0  0  0  0  0
   -1.9903    4.2417    1.2809 C   0  0  0  0  0  0  0  0  0  0  0  0
   -1.9151    4.9824    0.4778 H   0  0  0  0  0  0  0  0  0  0  0  0
   -2.9928    4.3055    1.7145 H   0  0  0  0  0  0  0  0  0  0  0  0
   -1.2591    4.4884    2.0578 H   0  0  0  0  0  0  0  0  0  0  0  0
  1  2  1  0  0  0  0
  2  3  1  0  0  0  0
  2  4  1  0  0  0  0
  2  5  1  0  0  0  0
  5  6  2  0  0  0  0
  5  7  1  0  0  0  0
  7  8  1  0  0  0  0
  7  9  1  0  0  0  0
  9 10  1  0  0  0  0
  9 11  1  0  0  0  0
  9 25  1  0  0  0  0
 11 12  1  0  0  0  0
 11 13  1  0  0  0  0
 11 14  1  0  0  0  0
 14 15  1  0  0  0  0
 14 23  2  0  0  0  0
 15 16  1  0  0  0  0
 15 17  2  0  0  0  0
 17 18  1  0  0  0  0
 17 19  1  0  0  0  0
 19 20  1  0  0  0  0
 19 21  2  0  0  0  0
 21 22  1  0  0  0  0
 21 23  1  0  0  0  0
 23 24  1  0  0  0  0
 25 26  2  0  0  0  0
 25 27  1  0  0  0  0
 27 28  1  0  0  0  0
 27 29  1  0  0  0  0
 29 30  1  0  0  0  0
 29 31  1  0  0  0  0
 29 32  1  0  0  0  0
M  END
$$$$

  -OEChem-01062216093D

 32 32  0     1  0  0  0  0  0999 V2000
   -3.0088   -2.5904    0.7858 H   0  0  0  0  0  0  0  0  0  0  0  0
   -3.0090   -1.7303    0.1104 C   0  0  0  0  0  0  0  0  0  0  0  0
   -3.9567   -1.1976    0.2182 H   0  0  0  0  0  0  0  0  0  0  0  0
   -2.9146   -2.0916   -0.9165 H   0  0  0  0  0  0  0  0  0  0  0  0
   -1.8518   -0.8072    0.4421 C   0  0  0  0  0  0  0  0  0  0  0  0
   -1.1502   -1.0346    1.4136 O   0  0  0  0  0  0  0  0  0  0  0  0
   -1.6379    0.3229   -0.3215 N   0  0  0  0  0  0  0  0  0  0  0  0
   -2.2345    0.4261   -1.1368 H   0  0  0  0  0  0  0  0  0  0  0  0
   -0.3626    1.0686   -0.3229 C   0  0  1  0  0  0  0  0  0  0  0  0
    0.3519    0.6217    0.3766 H   0  0  0  0  0  0  0  0  0  0  0  0
    0.2417    0.9967   -1.7408 C   0  0  0  0  0  0  0  0  0  0  0  0
   -0.4779    1.3750   -2.4738 H   0  0  0  0  0  0  0  0  0  0  0  0
    1.1272    1.6389   -1.7995 H   0  0  0  0  0  0  0  0  0  0  0  0
    0.6569   -0.4152   -2.0838 C   0  0  0  0  0  0  0  0  0  0  0  0
    1.8786   -0.9254   -1.6208 C   0  0  0  0  0  0  0  0  0  0  0  0
    2.5294   -0.3064   -1.0100 H   0  0  0  0  0  0  0  0  0  0  0  0
    2.2652   -2.2335   -1.9307 C   0  0  0  0  0  0  0  0  0  0  0  0
    3.2103   -2.6208   -1.5613 H   0  0  0  0  0  0  0  0  0  0  0  0
    1.4354   -3.0415   -2.7132 C   0  0  0  0  0  0  0  0  0  0  0  0
    1.7370   -4.0565   -2.9541 H   0  0  0  0  0  0  0  0  0  0  0  0
    0.2195   -2.5398   -3.1868 C   0  0  0  0  0  0  0  0  0  0  0  0
   -0.4222   -3.1662   -3.7994 H   0  0  0  0  0  0  0  0  0  0  0  0
   -0.1665   -1.2316   -2.8749 C   0  0  0  0  0  0  0  0  0  0  0  0
   -1.1091   -0.8505   -3.2541 H   0  0  0  0  0  0  0  0  0  0  0  0
   -0.5691    2.5285    0.1410 C   0  0  0  0  0  0  0  0  0  0  0  0
    0.1108    3.4456   -0.3017 O   0  0  0  0  0  0  0  0  0  0  0  0
   -1.5798    2.8212    1.0382 N   0  0  0  0  0  0  0  0  0  0  0  0
   -2.0547    2.0247    1.4558 H   0  0  0  0  0  0  0  0  0  0  0  0
   -1.8204    4.1544    1.5757 C   0  0  0  0  0  0  0  0  0  0  0  0
   -2.0204    4.8633    0.7655 H   0  0  0  0  0  0  0  0  0  0  0  0
   -2.6869    4.1423    2.2438 H   0  0  0  0  0  0  0  0  0  0  0  0
   -0.9497    4.5017    2.1415 H   0  0  0  0  0  0  0  0  0  0  0  0
  1  2  1  0  0  0  0
  2  3  1  0  0  0  0
  2  4  1  0  0  0  0
  2  5  1  0  0  0  0
  5  6  2  0  0  0  0
  5  7  1  0  0  0  0
  7  8  1  0  0  0  0
  7  9  1  0  0  0  0
  9 10  1  0  0  0  0
  9 11  1  0  0  0  0
  9 25  1  0  0  0  0
 11 12  1  0  0  0  0
 11 13  1  0  0  0  0
 11 14  1  0  0  0  0
 14 15  1  0  0  0  0
 14 23  2  0  0  0  0
 15 16  1  0  0  0  0
 15 17  2  0  0  0  0
 17 18  1  0  0  0  0
 17 19  1  0  0  0  0
 19 20  1  0  0  0  0
 19 21  2  0  0  0  0
 21 22  1  0  0  0  0
 21 23  1  0  0  0  0
 23 24  1  0  0  0  0
 25 26  2  0  0  0  0
 25 27  1  0  0  0  0
 27 28  1  0  0  0  0
 27 29  1  0  0  0  0
 29 30  1  0  0  0  0
 29 31  1  0  0  0  0
 29 32  1  0  0  0  0
M  END
$$$$

  -OEChem-01062216093D

 32 32  0     1  0  0  0  0  0999 V2000
   -3.0166   -2.5623    0.7998 H   0  0  0  0  0  0  0  0  0  0  0  0
   -3.0129   -1.7016    0.1252 C   0  0  0  0  0  0  0  0  0  0  0  0
   -3.9542   -1.1588    0.2400 H   0  0  0  0  0  0  0  0  0  0  0  0
   -2.9289   -2.0626   -0.9028 H   0  0  0  0  0  0  0  0  0  0  0  0
   -1.8446   -0.7900    0.4488 C   0  0  0  0  0  0  0  0  0  0  0  0
   -1.1413   -1.0191    1.4191 O   0  0  0  0  0  0  0  0  0  0  0  0
   -1.6237    0.3375   -0.3157 N   0  0  0  0  0  0  0  0  0  0  0  0
   -2.2304    0.4567   -1.1213 H   0  0  0  0  0  0  0  0  0  0  0  0
   -0.3439    1.0717   -0.3223 C   0  0  1  0  0  0  0  0  0  0  0  0
    0.3704    0.6226    0.3759 H   0  0  0  0  0  0  0  0  0  0  0  0
    0.2604    0.9969   -1.7396 C   0  0  0  0  0  0  0  0  0  0  0  0
   -0.4565    1.3803   -2.4727 H   0  0  0  0  0  0  0  0  0  0  0  0
    1.1486    1.6355   -1.7952 H   0  0  0  0  0  0  0  0  0  0  0  0
    0.6660   -0.4170   -2.0846 C   0  0  0  0  0  0  0  0  0  0  0  0
    1.8838   -0.9363   -1.6222 C   0  0  0  0  0  0  0  0  0  0  0  0
    2.5379   -0.3238   -1.0085 H   0  0  0  0  0  0  0  0  0  0  0  0
    2.2620   -2.2460   -1.9357 C   0  0  0  0  0  0  0  0  0  0  0  0
    3.2040   -2.6406   -1.5662 H   0  0  0  0  0  0  0  0  0  0  0  0
    1.4279   -3.0460   -2.7222 C   0  0  0  0  0  0  0  0  0  0  0  0
    1.7234   -4.0623   -2.9662 H   0  0  0  0  0  0  0  0  0  0  0  0
    0.2158   -2.5346   -3.1956 C   0  0  0  0  0  0  0  0  0  0  0  0
   -0.4294   -3.1544   -3.8113 H   0  0  0  0  0  0  0  0  0  0  0  0
   -0.1619   -1.2251   -2.8793 C   0  0  0  0  0  0  0  0  0  0  0  0
   -1.1016   -0.8364   -3.2579 H   0  0  0  0  0  0  0  0  0  0  0  0
   -0.5565    2.5283    0.1441 C   0  0  0  0  0  0  0  0  0  0  0  0
   -0.0855    3.4812   -0.4642 O   0  0  0  0  0  0  0  0  0  0  0  0
   -1.3424    2.7647    1.2562 N   0  0  0  0  0  0  0  0  0  0  0  0
   -1.6682    1.9454    1.7646 H   0  0  0  0  0  0  0  0  0  0  0  0
   -1.5865    4.0912    1.8073 C   0  0  0  0  0  0  0  0  0  0  0  0
   -2.0623    4.7348    1.0600 H   0  0  0  0  0  0  0  0  0  0  0  0
   -2.2482    4.0236    2.6761 H   0  0  0  0  0  0  0  0  0  0  0  0
   -0.6450    4.5530    2.1228 H   0  0  0  0  0  0  0  0  0  0  0  0
  1  2  1  0  0  0  0
  2  3  1  0  0  0  0
  2  4  1  0  0  0  0
  2  5  1  0  0  0  0
  5  6  2  0  0  0  0
  5  7  1  0  0  0  0
  7  8  1  0  0  0  0
  7  9  1  0  0  0  0
  9 10  1  0  0  0  0
  9 11  1  0  0  0  0
  9 25  1  0  0  0  0
 11 12  1  0  0  0  0
 11 13  1  0  0  0  0
 11 14  1  0  0  0  0
 14 15  1  0  0  0  0
 14 23  2  0  0  0  0
 15 16  1  0  0  0  0
 15 17  2  0  0  0  0
 17 18  1  0  0  0  0
 17 19  1  0  0  0  0
 19 20  1  0  0  0  0
 19 21  2  0  0  0  0
 21 22  1  0  0  0  0
 21 23  1  0  0  0  0
 23 24  1  0  0  0  0
 25 26  2  0  0  0  0
 25 27  1  0  0  0  0
 27 28  1  0  0  0  0
 27 29  1  0  0  0  0
 29 30  1  0  0  0  0
 29 31  1  0  0  0  0
 29 32  1  0  0  0  0
M  END
$$$$

  -OEChem-01062216093D

 32 32  0     1  0  0  0  0  0999 V2000
   -3.0320   -2.5309    0.8211 H   0  0  0  0  0  0  0  0  0  0  0  0
   -3.0177   -1.6741    0.1415 C   0  0  0  0  0  0  0  0  0  0  0  0
   -3.9492   -1.1151    0.2581 H   0  0  0  0  0  0  0  0  0  0  0  0
   -2.9460   -2.0421   -0.8850 H   0  0  0  0  0  0  0  0  0  0  0  0
   -1.8328   -0.7800    0.4532 C   0  0  0  0  0  0  0  0  0  0  0  0
   -1.1202   -1.0213    1.4146 O   0  0  0  0  0  0  0  0  0  0  0  0
   -1.6047    0.3458   -0.3112 N   0  0  0  0  0  0  0  0  0  0  0  0
   -2.2224    0.4834   -1.1055 H   0  0  0  0  0  0  0  0  0  0  0  0
   -0.3216    1.0710   -0.3193 C   0  0  1  0  0  0  0  0  0  0  0  0
    0.3935    0.6179    0.3752 H   0  0  0  0  0  0  0  0  0  0  0  0
    0.2807    0.9982   -1.7366 C   0  0  0  0  0  0  0  0  0  0  0  0
   -0.4357    1.3866   -2.4680 H   0  0  0  0  0  0  0  0  0  0  0  0
    1.1698    1.6354   -1.7891 H   0  0  0  0  0  0  0  0  0  0  0  0
    0.6784   -0.4165   -2.0875 C   0  0  0  0  0  0  0  0  0  0  0  0
    1.8936   -0.9453   -1.6290 C   0  0  0  0  0  0  0  0  0  0  0  0
    2.5545   -0.3382   -1.0176 H   0  0  0  0  0  0  0  0  0  0  0  0
    2.2615   -2.2571   -1.9459 C   0  0  0  0  0  0  0  0  0  0  0  0
    3.2024   -2.6589   -1.5815 H   0  0  0  0  0  0  0  0  0  0  0  0
    1.4184   -3.0503   -2.7300 C   0  0  0  0  0  0  0  0  0  0  0  0
    1.7057   -4.0680   -2.9768 H   0  0  0  0  0  0  0  0  0  0  0  0
    0.2079   -2.5303   -3.1974 C   0  0  0  0  0  0  0  0  0  0  0  0
   -0.4447   -3.1446   -3.8103 H   0  0  0  0  0  0  0  0  0  0  0  0
   -0.1590   -1.2184   -2.8786 C   0  0  0  0  0  0  0  0  0  0  0  0
   -1.0985   -0.8227   -3.2512 H   0  0  0  0  0  0  0  0  0  0  0  0
   -0.5339    2.5252    0.1479 C   0  0  0  0  0  0  0  0  0  0  0  0
   -0.2980    3.4844   -0.5766 O   0  0  0  0  0  0  0  0  0  0  0  0
   -1.0448    2.7430    1.4131 N   0  0  0  0  0  0  0  0  0  0  0  0
   -1.2384    1.9178    1.9774 H   0  0  0  0  0  0  0  0  0  0  0  0
   -1.3067    4.0655    1.9655 C   0  0  0  0  0  0  0  0  0  0  0  0
   -2.0357    4.6009    1.3484 H   0  0  0  0  0  0  0  0  0  0  0  0
   -1.7096    3.9782    2.9790 H   0  0  0  0  0  0  0  0  0  0  0  0
   -0.3829    4.6518    2.0092 H   0  0  0  0  0  0  0  0  0  0  0  0
  1  2  1  0  0  0  0
  2  3  1  0  0  0  0
  2  4  1  0  0  0  0
  2  5  1  0  0  0  0
  5  6  2  0  0  0  0
  5  7  1  0  0  0  0
  7  8  1  0  0  0  0
  7  9  1  0  0  0  0
  9 10  1  0  0  0  0
  9 11  1  0  0  0  0
  9 25  1  0  0  0  0
 11 12  1  0  0  0  0
 11 13  1  0  0  0  0
 11 14  1  0  0  0  0
 14 15  1  0  0  0  0
 14 23  2  0  0  0  0
 15 16  1  0  0  0  0
 15 17  2  0  0  0  0
 17 18  1  0  0  0  0
 17 19  1  0  0  0  0
 19 20  1  0  0  0  0
 19 21  2  0  0  0  0
 21 22  1  0  0  0  0
 21 23  1  0  0  0  0
 23 24  1  0  0  0  0
 25 26  2  0  0  0  0
 25 27  1  0  0  0  0
 27 28  1  0  0  0  0
 27 29  1  0  0  0  0
 29 30  1  0  0  0  0
 29 31  1  0  0  0  0
 29 32  1  0  0  0  0
M  END
$$$$

  -OEChem-01062216093D

 32 32  0     1  0  0  0  0  0999 V2000
   -3.0587   -2.5001    0.8510 H   0  0  0  0  0  0  0  0  0  0  0  0
   -3.0423   -1.6398    0.1762 C   0  0  0  0  0  0  0  0  0  0  0  0
   -3.9550   -1.0576    0.3235 H   0  0  0  0  0  0  0  0  0  0  0  0
   -3.0097   -2.0024   -0.8540 H   0  0  0  0  0  0  0  0  0  0  0  0
   -1.8266   -0.7783    0.4590 C   0  0  0  0  0  0  0  0  0  0  0  0
   -1.0933   -1.0440    1.3986 O   0  0  0  0  0  0  0  0  0  0  0  0
   -1.5899    0.3439   -0.3078 N   0  0  0  0  0  0  0  0  0  0  0  0
   -2.2288    0.5134   -1.0792 H   0  0  0  0  0  0  0  0  0  0  0  0
   -0.3051    1.0629   -0.3167 C   0  0  1  0  0  0  0  0  0  0  0  0
    0.4101    0.6076    0.3761 H   0  0  0  0  0  0  0  0  0  0  0  0
    0.2984    0.9928   -1.7335 C   0  0  0  0  0  0  0  0  0  0  0  0
   -0.4184    1.3825   -2.4639 H   0  0  0  0  0  0  0  0  0  0  0  0
    1.1860    1.6323   -1.7830 H   0  0  0  0  0  0  0  0  0  0  0  0
    0.6935   -0.4209   -2.0924 C   0  0  0  0  0  0  0  0  0  0  0  0
    1.9075   -0.9558   -1.6366 C   0  0  0  0  0  0  0  0  0  0  0  0
    2.5706   -0.3543   -1.0220 H   0  0  0  0  0  0  0  0  0  0  0  0
    2.2721   -2.2670   -1.9608 C   0  0  0  0  0  0  0  0  0  0  0  0
    3.2119   -2.6733   -1.5988 H   0  0  0  0  0  0  0  0  0  0  0  0
    1.4268   -3.0539   -2.7486 C   0  0  0  0  0  0  0  0  0  0  0  0
    1.7101   -4.0719   -2.9992 H   0  0  0  0  0  0  0  0  0  0  0  0
    0.2182   -2.5276   -3.2142 C   0  0  0  0  0  0  0  0  0  0  0  0
   -0.4365   -3.1368   -3.8303 H   0  0  0  0  0  0  0  0  0  0  0  0
   -0.1451   -1.2165   -2.8884 C   0  0  0  0  0  0  0  0  0  0  0  0
   -1.0834   -0.8167   -3.2591 H   0  0  0  0  0  0  0  0  0  0  0  0
   -0.5162    2.5174    0.1453 C   0  0  0  0  0  0  0  0  0  0  0  0
   -0.5289    3.4533   -0.6451 O   0  0  0  0  0  0  0  0  0  0  0  0
   -0.7244    2.7589    1.4898 N   0  0  0  0  0  0  0  0  0  0  0  0
   -0.7840    1.9445    2.0980 H   0  0  0  0  0  0  0  0  0  0  0  0
   -0.9930    4.0804    2.0419 C   0  0  0  0  0  0  0  0  0  0  0  0
   -1.9144    4.4926    1.6177 H   0  0  0  0  0  0  0  0  0  0  0  0
   -1.1082    4.0188    3.1283 H   0  0  0  0  0  0  0  0  0  0  0  0
   -0.1661    4.7635    1.8210 H   0  0  0  0  0  0  0  0  0  0  0  0
  1  2  1  0  0  0  0
  2  3  1  0  0  0  0
  2  4  1  0  0  0  0
  2  5  1  0  0  0  0
  5  6  2  0  0  0  0
  5  7  1  0  0  0  0
  7  8  1  0  0  0  0
  7  9  1  0  0  0  0
  9 10  1  0  0  0  0
  9 11  1  0  0  0  0
  9 25  1  0  0  0  0
 11 12  1  0  0  0  0
 11 13  1  0  0  0  0
 11 14  1  0  0  0  0
 14 15  1  0  0  0  0
 14 23  2  0  0  0  0
 15 16  1  0  0  0  0
 15 17  2  0  0  0  0
 17 18  1  0  0  0  0
 17 19  1  0  0  0  0
 19 20  1  0  0  0  0
 19 21  2  0  0  0  0
 21 22  1  0  0  0  0
 21 23  1  0  0  0  0
 23 24  1  0  0  0  0
 25 26  2  0  0  0  0
 25 27  1  0  0  0  0
 27 28  1  0  0  0  0
 27 29  1  0  0  0  0
 29 30  1  0  0  0  0
 29 31  1  0  0  0  0
 29 32  1  0  0  0  0
M  END
$$$$

  -OEChem-01062216093D

 32 32  0     1  0  0  0  0  0999 V2000
   -3.1051   -2.4700    0.8907 H   0  0  0  0  0  0  0  0  0  0  0  0
   -3.0798   -1.6107    0.2146 C   0  0  0  0  0  0  0  0  0  0  0  0
   -3.9670   -0.9976    0.3904 H   0  0  0  0  0  0  0  0  0  0  0  0
   -3.0928   -1.9745   -0.8157 H   0  0  0  0  0  0  0  0  0  0  0  0
   -1.8259   -0.7919    0.4576 C   0  0  0  0  0  0  0  0  0  0  0  0
   -1.0639   -1.0979    1.3617 O   0  0  0  0  0  0  0  0  0  0  0  0
   -1.5785    0.3285   -0.3092 N   0  0  0  0  0  0  0  0  0  0  0  0
   -2.2466    0.5462   -1.0430 H   0  0  0  0  0  0  0  0  0  0  0  0
   -0.2940    1.0469   -0.3150 C   0  0  1  0  0  0  0  0  0  0  0  0
    0.4200    0.5879    0.3768 H   0  0  0  0  0  0  0  0  0  0  0  0
    0.3134    0.9869   -1.7300 C   0  0  0  0  0  0  0  0  0  0  0  0
   -0.4017    1.3797   -2.4604 H   0  0  0  0  0  0  0  0  0  0  0  0
    1.2004    1.6281   -1.7723 H   0  0  0  0  0  0  0  0  0  0  0  0
    0.7100   -0.4241   -2.0966 C   0  0  0  0  0  0  0  0  0  0  0  0
    1.9223   -0.9630   -1.6414 C   0  0  0  0  0  0  0  0  0  0  0  0
    2.5836   -0.3670   -1.0198 H   0  0  0  0  0  0  0  0  0  0  0  0
    2.2866   -2.2721   -1.9746 C   0  0  0  0  0  0  0  0  0  0  0  0
    3.2244   -2.6827   -1.6123 H   0  0  0  0  0  0  0  0  0  0  0  0
    1.4428   -3.0524   -2.7709 C   0  0  0  0  0  0  0  0  0  0  0  0
    1.7260   -4.0687   -3.0287 H   0  0  0  0  0  0  0  0  0  0  0  0
    0.2355   -2.5220   -3.2350 C   0  0  0  0  0  0  0  0  0  0  0  0
   -0.4186   -3.1259   -3.8569 H   0  0  0  0  0  0  0  0  0  0  0  0
   -0.1278   -1.2133   -2.8996 C   0  0  0  0  0  0  0  0  0  0  0  0
   -1.0656   -0.8096   -3.2677 H   0  0  0  0  0  0  0  0  0  0  0  0
   -0.5019    2.5035    0.1401 C   0  0  0  0  0  0  0  0  0  0  0  0
   -0.7756    3.3885   -0.6618 O   0  0  0  0  0  0  0  0  0  0  0  0
   -0.4031    2.8084    1.4845 N   0  0  0  0  0  0  0  0  0  0  0  0
   -0.2929    2.0256    2.1254 H   0  0  0  0  0  0  0  0  0  0  0  0
   -0.6649    4.1348    2.0287 C   0  0  0  0  0  0  0  0  0  0  0  0
   -1.7046    4.4261    1.8464 H   0  0  0  0  0  0  0  0  0  0  0  0
   -0.4868    4.1417    3.1085 H   0  0  0  0  0  0  0  0  0  0  0  0
   -0.0049    4.8764    1.5662 H   0  0  0  0  0  0  0  0  0  0  0  0
  1  2  1  0  0  0  0
  2  3  1  0  0  0  0
  2  4  1  0  0  0  0
  2  5  1  0  0  0  0
  5  6  2  0  0  0  0
  5  7  1  0  0  0  0
  7  8  1  0  0  0  0
  7  9  1  0  0  0  0
  9 10  1  0  0  0  0
  9 11  1  0  0  0  0
  9 25  1  0  0  0  0
 11 12  1  0  0  0  0
 11 13  1  0  0  0  0
 11 14  1  0  0  0  0
 14 15  1  0  0  0  0
 14 23  2  0  0  0  0
 15 16  1  0  0  0  0
 15 17  2  0  0  0  0
 17 18  1  0  0  0  0
 17 19  1  0  0  0  0
 19 20  1  0  0  0  0
 19 21  2  0  0  0  0
 21 22  1  0  0  0  0
 21 23  1  0  0  0  0
 23 24  1  0  0  0  0
 25 26  2  0  0  0  0
 25 27  1  0  0  0  0
 27 28  1  0  0  0  0
 27 29  1  0  0  0  0
 29 30  1  0  0  0  0
 29 31  1  0  0  0  0
 29 32  1  0  0  0  0
M  END
$$$$

  -OEChem-01062216093D

 32 32  0     1  0  0  0  0  0999 V2000
   -3.1777   -2.4245    0.9351 H   0  0  0  0  0  0  0  0  0  0  0  0
   -3.1371   -1.5633    0.2623 C   0  0  0  0  0  0  0  0  0  0  0  0
   -3.9806   -0.9042    0.4813 H   0  0  0  0  0  0  0  0  0  0  0  0
   -3.2173   -1.9183   -0.7680 H   0  0  0  0  0  0  0  0  0  0  0  0
   -1.8311   -0.8148    0.4506 C   0  0  0  0  0  0  0  0  0  0  0  0
   -1.0373   -1.1792    1.3042 O   0  0  0  0  0  0  0  0  0  0  0  0
   -1.5682    0.3030   -0.3145 N   0  0  0  0  0  0  0  0  0  0  0  0
   -2.2800    0.5967   -0.9779 H   0  0  0  0  0  0  0  0  0  0  0  0
   -0.2864    1.0250   -0.3154 C   0  0  1  0  0  0  0  0  0  0  0  0
    0.4244    0.5649    0.3788 H   0  0  0  0  0  0  0  0  0  0  0  0
    0.3249    0.9749   -1.7277 C   0  0  0  0  0  0  0  0  0  0  0  0
   -0.3911    1.3678   -2.4573 H   0  0  0  0  0  0  0  0  0  0  0  0
    1.2081    1.6210   -1.7649 H   0  0  0  0  0  0  0  0  0  0  0  0
    0.7297   -0.4311   -2.1042 C   0  0  0  0  0  0  0  0  0  0  0  0
    1.9439   -0.9671   -1.6505 C   0  0  0  0  0  0  0  0  0  0  0  0
    2.6011   -0.3727   -1.0233 H   0  0  0  0  0  0  0  0  0  0  0  0
    2.3166   -2.2712   -1.9941 C   0  0  0  0  0  0  0  0  0  0  0  0
    3.2568   -2.6791   -1.6347 H   0  0  0  0  0  0  0  0  0  0  0  0
    1.4782   -3.0505   -2.7970 C   0  0  0  0  0  0  0  0  0  0  0  0
    1.7673   -4.0632   -3.0626 H   0  0  0  0  0  0  0  0  0  0  0  0
    0.2674   -2.5239   -3.2564 C   0  0  0  0  0  0  0  0  0  0  0  0
   -0.3846   -3.1275   -3.8805 H   0  0  0  0  0  0  0  0  0  0  0  0
   -0.1037   -1.2197   -2.9120 C   0  0  0  0  0  0  0  0  0  0  0  0
   -1.0455   -0.8194   -3.2741 H   0  0  0  0  0  0  0  0  0  0  0  0
   -0.4961    2.4838    0.1293 C   0  0  0  0  0  0  0  0  0  0  0  0
   -1.0242    3.2952   -0.6221 O   0  0  0  0  0  0  0  0  0  0  0  0
   -0.1099    2.8774    1.3969 N   0  0  0  0  0  0  0  0  0  0  0  0
    0.2053    2.1468    2.0306 H   0  0  0  0  0  0  0  0  0  0  0  0
   -0.3535    4.2124    1.9288 C   0  0  0  0  0  0  0  0  0  0  0  0
   -1.4287    4.4102    1.9907 H   0  0  0  0  0  0  0  0  0  0  0  0
    0.0745    4.3031    2.9319 H   0  0  0  0  0  0  0  0  0  0  0  0
    0.1084    4.9709    1.2879 H   0  0  0  0  0  0  0  0  0  0  0  0
  1  2  1  0  0  0  0
  2  3  1  0  0  0  0
  2  4  1  0  0  0  0
  2  5  1  0  0  0  0
  5  6  2  0  0  0  0
  5  7  1  0  0  0  0
  7  8  1  0  0  0  0
  7  9  1  0  0  0  0
  9 10  1  0  0  0  0
  9 11  1  0  0  0  0
  9 25  1  0  0  0  0
 11 12  1  0  0  0  0
 11 13  1  0  0  0  0
 11 14  1  0  0  0  0
 14 15  1  0  0  0  0
 14 23  2  0  0  0  0
 15 16  1  0  0  0  0
 15 17  2  0  0  0  0
 17 18  1  0  0  0  0
 17 19  1  0  0  0  0
 19 20  1  0  0  0  0
 19 21  2  0  0  0  0
 21 22  1  0  0  0  0
 21 23  1  0  0  0  0
 23 24  1  0  0  0  0
 25 26  2  0  0  0  0
 25 27  1  0  0  0  0
 27 28  1  0  0  0  0
 27 29  1  0  0  0  0
 29 30  1  0  0  0  0
 29 31  1  0  0  0  0
 29 32  1  0  0  0  0
M  END
$$$$

  -OEChem-01062216093D

 32 32  0     1  0  0  0  0  0999 V2000
   -3.2268   -2.3994    0.9731 H   0  0  0  0  0  0  0  0  0  0  0  0
   -3.1860   -1.5224    0.3213 C   0  0  0  0  0  0  0  0  0  0  0  0
   -3.9839   -0.8327    0.6068 H   0  0  0  0  0  0  0  0  0  0  0  0
   -3.3424   -1.8440   -0.7112 H   0  0  0  0  0  0  0  0  0  0  0  0
   -1.8385   -0.8379    0.4499 C   0  0  0  0  0  0  0  0  0  0  0  0
   -1.0193   -1.2532    1.2550 O   0  0  0  0  0  0  0  0  0  0  0  0
   -1.5644    0.2744   -0.3188 N   0  0  0  0  0  0  0  0  0  0  0  0
   -2.3141    0.6438   -0.8980 H   0  0  0  0  0  0  0  0  0  0  0  0
   -0.2845    0.9989   -0.3123 C   0  0  1  0  0  0  0  0  0  0  0  0
    0.4201    0.5417    0.3896 H   0  0  0  0  0  0  0  0  0  0  0  0
    0.3346    0.9601   -1.7205 C   0  0  0  0  0  0  0  0  0  0  0  0
   -0.3797    1.3562   -2.4502 H   0  0  0  0  0  0  0  0  0  0  0  0
    1.2156    1.6097   -1.7485 H   0  0  0  0  0  0  0  0  0  0  0  0
    0.7466   -0.4406   -2.1075 C   0  0  0  0  0  0  0  0  0  0  0  0
    1.9603   -0.9768   -1.6525 C   0  0  0  0  0  0  0  0  0  0  0  0
    2.6109   -0.3880   -1.0133 H   0  0  0  0  0  0  0  0  0  0  0  0
    2.3414   -2.2744   -2.0111 C   0  0  0  0  0  0  0  0  0  0  0  0
    3.2806   -2.6828   -1.6503 H   0  0  0  0  0  0  0  0  0  0  0  0
    1.5128   -3.0462   -2.8313 C   0  0  0  0  0  0  0  0  0  0  0  0
    1.8090   -4.0535   -3.1094 H   0  0  0  0  0  0  0  0  0  0  0  0
    0.3027   -2.5191   -3.2920 C   0  0  0  0  0  0  0  0  0  0  0  0
   -0.3414   -3.1166   -3.9301 H   0  0  0  0  0  0  0  0  0  0  0  0
   -0.0775   -1.2221   -2.9316 C   0  0  0  0  0  0  0  0  0  0  0  0
   -1.0189   -0.8219   -3.2946 H   0  0  0  0  0  0  0  0  0  0  0  0
   -0.5004    2.4610    0.1176 C   0  0  0  0  0  0  0  0  0  0  0  0
   -1.2453    3.1872   -0.5306 O   0  0  0  0  0  0  0  0  0  0  0  0
    0.1326    2.9615    1.2402 N   0  0  0  0  0  0  0  0  0  0  0  0
    0.6549    2.3035    1.8128 H   0  0  0  0  0  0  0  0  0  0  0  0
   -0.0792    4.3152    1.7379 C   0  0  0  0  0  0  0  0  0  0  0  0
   -1.1354    4.4742    1.9795 H   0  0  0  0  0  0  0  0  0  0  0  0
    0.5121    4.4822    2.6433 H   0  0  0  0  0  0  0  0  0  0  0  0
    0.2249    5.0513    0.9863 H   0  0  0  0  0  0  0  0  0  0  0  0
  1  2  1  0  0  0  0
  2  3  1  0  0  0  0
  2  4  1  0  0  0  0
  2  5  1  0  0  0  0
  5  6  2  0  0  0  0
  5  7  1  0  0  0  0
  7  8  1  0  0  0  0
  7  9  1  0  0  0  0
  9 10  1  0  0  0  0
  9 11  1  0  0  0  0
  9 25  1  0  0  0  0
 11 12  1  0  0  0  0
 11 13  1  0  0  0  0
 11 14  1  0  0  0  0
 14 15  1  0  0  0  0
 14 23  2  0  0  0  0
 15 16  1  0  0  0  0
 15 17  2  0  0  0  0
 17 18  1  0  0  0  0
 17 19  1  0  0  0  0
 19 20  1  0  0  0  0
 19 21  2  0  0  0  0
 21 22  1  0  0  0  0
 21 23  1  0  0  0  0
 23 24  1  0  0  0  0
 25 26  2  0  0  0  0
 25 27  1  0  0  0  0
 27 28  1  0  0  0  0
 27 29  1  0  0  0  0
 29 30  1  0  0  0  0
 29 31  1  0  0  0  0
 29 32  1  0  0  0  0
M  END
$$$$

  -OEChem-01062216093D

 32 32  0     1  0  0  0  0  0999 V2000
   -3.2622   -2.3691    1.0084 H   0  0  0  0  0  0  0  0  0  0  0  0
   -3.2150   -1.4959    0.3518 C   0  0  0  0  0  0  0  0  0  0  0  0
   -3.9783   -0.7788    0.6632 H   0  0  0  0  0  0  0  0  0  0  0  0
   -3.4193   -1.8151   -0.6731 H   0  0  0  0  0  0  0  0  0  0  0  0
   -1.8414   -0.8567    0.4284 C   0  0  0  0  0  0  0  0  0  0  0  0
   -0.9992   -1.3141    1.1856 O   0  0  0  0  0  0  0  0  0  0  0  0
   -1.5676    0.2566   -0.3392 N   0  0  0  0  0  0  0  0  0  0  0  0
   -2.3464    0.6864   -0.8330 H   0  0  0  0  0  0  0  0  0  0  0  0
   -0.2915    0.9882   -0.3227 C   0  0  1  0  0  0  0  0  0  0  0  0
    0.4080    0.5336    0.3861 H   0  0  0  0  0  0  0  0  0  0  0  0
    0.3355    0.9578   -1.7266 C   0  0  0  0  0  0  0  0  0  0  0  0
   -0.3780    1.3528   -2.4577 H   0  0  0  0  0  0  0  0  0  0  0  0
    1.2132    1.6118   -1.7487 H   0  0  0  0  0  0  0  0  0  0  0  0
    0.7574   -0.4394   -2.1156 C   0  0  0  0  0  0  0  0  0  0  0  0
    1.9712   -0.9714   -1.6559 C   0  0  0  0  0  0  0  0  0  0  0  0
    2.6172   -0.3810   -1.0140 H   0  0  0  0  0  0  0  0  0  0  0  0
    2.3579   -2.2682   -2.0112 C   0  0  0  0  0  0  0  0  0  0  0  0
    3.2963   -2.6740   -1.6455 H   0  0  0  0  0  0  0  0  0  0  0  0
    1.5343   -3.0441   -2.8323 C   0  0  0  0  0  0  0  0  0  0  0  0
    1.8332   -4.0518   -3.1054 H   0  0  0  0  0  0  0  0  0  0  0  0
    0.3245   -2.5215   -3.2983 C   0  0  0  0  0  0  0  0  0  0  0  0
   -0.3168   -3.1228   -3.9356 H   0  0  0  0  0  0  0  0  0  0  0  0
   -0.0610   -1.2252   -2.9411 C   0  0  0  0  0  0  0  0  0  0  0  0
   -1.0040   -0.8299   -3.3047 H   0  0  0  0  0  0  0  0  0  0  0  0
   -0.5120    2.4507    0.1031 C   0  0  0  0  0  0  0  0  0  0  0  0
   -1.4293    3.0988   -0.3885 O   0  0  0  0  0  0  0  0  0  0  0  0
    0.3275    3.0477    1.0254 N   0  0  0  0  0  0  0  0  0  0  0  0
    1.0247    2.4600    1.4743 H   0  0  0  0  0  0  0  0  0  0  0  0
    0.1512    4.4163    1.4953 C   0  0  0  0  0  0  0  0  0  0  0  0
   -0.8337    4.5388    1.9582 H   0  0  0  0  0  0  0  0  0  0  0  0
    0.9156    4.6629    2.2384 H   0  0  0  0  0  0  0  0  0  0  0  0
    0.2392    5.1213    0.6620 H   0  0  0  0  0  0  0  0  0  0  0  0
  1  2  1  0  0  0  0
  2  3  1  0  0  0  0
  2  4  1  0  0  0  0
  2  5  1  0  0  0  0
  5  6  2  0  0  0  0
  5  7  1  0  0  0  0
  7  8  1  0  0  0  0
  7  9  1  0  0  0  0
  9 10  1  0  0  0  0
  9 11  1  0  0  0  0
  9 25  1  0  0  0  0
 11 12  1  0  0  0  0
 11 13  1  0  0  0  0
 11 14  1  0  0  0  0
 14 15  1  0  0  0  0
 14 23  2  0  0  0  0
 15 16  1  0  0  0  0
 15 17  2  0  0  0  0
 17 18  1  0  0  0  0
 17 19  1  0  0  0  0
 19 20  1  0  0  0  0
 19 21  2  0  0  0  0
 21 22  1  0  0  0  0
 21 23  1  0  0  0  0
 23 24  1  0  0  0  0
 25 26  2  0  0  0  0
 25 27  1  0  0  0  0
 27 28  1  0  0  0  0
 27 29  1  0  0  0  0
 29 30  1  0  0  0  0
 29 31  1  0  0  0  0
 29 32  1  0  0  0  0
M  END
$$$$

  -OEChem-01062216093D

 32 32  0     1  0  0  0  0  0999 V2000
   -3.2863   -2.3382    1.0437 H   0  0  0  0  0  0  0  0  0  0  0  0
   -3.2379   -1.4704    0.3801 C   0  0  0  0  0  0  0  0  0  0  0  0
   -3.9707   -0.7309    0.7118 H   0  0  0  0  0  0  0  0  0  0  0  0
   -3.4848   -1.7895   -0.6353 H   0  0  0  0  0  0  0  0  0  0  0  0
   -1.8457   -0.8689    0.4069 C   0  0  0  0  0  0  0  0  0  0  0  0
   -0.9872   -1.3590    1.1242 O   0  0  0  0  0  0  0  0  0  0  0  0
   -1.5739    0.2446   -0.3613 N   0  0  0  0  0  0  0  0  0  0  0  0
   -2.3693    0.7150   -0.7875 H   0  0  0  0  0  0  0  0  0  0  0  0
   -0.3010    0.9823   -0.3328 C   0  0  1  0  0  0  0  0  0  0  0  0
    0.3934    0.5316    0.3833 H   0  0  0  0  0  0  0  0  0  0  0  0
    0.3334    0.9530   -1.7334 C   0  0  0  0  0  0  0  0  0  0  0  0
   -0.3798    1.3441   -2.4668 H   0  0  0  0  0  0  0  0  0  0  0  0
    1.2087    1.6102   -1.7540 H   0  0  0  0  0  0  0  0  0  0  0  0
    0.7627   -0.4427   -2.1198 C   0  0  0  0  0  0  0  0  0  0  0  0
    1.9763   -0.9691   -1.6533 C   0  0  0  0  0  0  0  0  0  0  0  0
    2.6146   -0.3766   -1.0060 H   0  0  0  0  0  0  0  0  0  0  0  0
    2.3723   -2.2631   -2.0086 C   0  0  0  0  0  0  0  0  0  0  0  0
    3.3107   -2.6645   -1.6378 H   0  0  0  0  0  0  0  0  0  0  0  0
    1.5577   -3.0420   -2.8356 C   0  0  0  0  0  0  0  0  0  0  0  0
    1.8642   -4.0472   -3.1094 H   0  0  0  0  0  0  0  0  0  0  0  0
    0.3462   -2.5267   -3.3053 C   0  0  0  0  0  0  0  0  0  0  0  0
   -0.2893   -3.1321   -3.9445 H   0  0  0  0  0  0  0  0  0  0  0  0
   -0.0483   -1.2327   -2.9488 C   0  0  0  0  0  0  0  0  0  0  0  0
   -0.9929   -0.8428   -3.3150 H   0  0  0  0  0  0  0  0  0  0  0  0
   -0.5252    2.4471    0.0885 C   0  0  0  0  0  0  0  0  0  0  0  0
   -1.5655    3.0215   -0.2142 O   0  0  0  0  0  0  0  0  0  0  0  0
    0.4617    3.1404    0.7653 N   0  0  0  0  0  0  0  0  0  0  0  0
    1.2864    2.6217    1.0536 H   0  0  0  0  0  0  0  0  0  0  0  0
    0.3088    4.5217    1.2059 C   0  0  0  0  0  0  0  0  0  0  0  0
   -0.5421    4.6153    1.8891 H   0  0  0  0  0  0  0  0  0  0  0  0
    1.2106    4.8530    1.7297 H   0  0  0  0  0  0  0  0  0  0  0  0
    0.1458    5.1816    0.3472 H   0  0  0  0  0  0  0  0  0  0  0  0
  1  2  1  0  0  0  0
  2  3  1  0  0  0  0
  2  4  1  0  0  0  0
  2  5  1  0  0  0  0
  5  6  2  0  0  0  0
  5  7  1  0  0  0  0
  7  8  1  0  0  0  0
  7  9  1  0  0  0  0
  9 10  1  0  0  0  0
  9 11  1  0  0  0  0
  9 25  1  0  0  0  0
 11 12  1  0  0  0  0
 11 13  1  0  0  0  0
 11 14  1  0  0  0  0
 14 15  1  0  0  0  0
 14 23  2  0  0  0  0
 15 16  1  0  0  0  0
 15 17  2  0  0  0  0
 17 18  1  0  0  0  0
 17 19  1  0  0  0  0
 19 20  1  0  0  0  0
 19 21  2  0  0  0  0
 21 22  1  0  0  0  0
 21 23  1  0  0  0  0
 23 24  1  0  0  0  0
 25 26  2  0  0  0  0
 25 27  1  0  0  0  0
 27 28  1  0  0  0  0
 27 29  1  0  0  0  0
 29 30  1  0  0  0  0
 29 31  1  0  0  0  0
 29 32  1  0  0  0  0
M  END
$$$$

  -OEChem-01062216093D

 32 32  0     1  0  0  0  0  0999 V2000
   -3.3007   -2.3128    1.0726 H   0  0  0  0  0  0  0  0  0  0  0  0
   -3.2539   -1.4467    0.4066 C   0  0  0  0  0  0  0  0  0  0  0  0
   -3.9574   -0.6900    0.7624 H   0  0  0  0  0  0  0  0  0  0  0  0
   -3.5427   -1.7597   -0.5995 H   0  0  0  0  0  0  0  0  0  0  0  0
   -1.8479   -0.8775    0.3854 C   0  0  0  0  0  0  0  0  0  0  0  0
   -0.9749   -1.3930    1.0665 O   0  0  0  0  0  0  0  0  0  0  0  0
   -1.5817    0.2371   -0.3833 N   0  0  0  0  0  0  0  0  0  0  0  0
   -2.3904    0.7399   -0.7430 H   0  0  0  0  0  0  0  0  0  0  0  0
   -0.3109    0.9796   -0.3436 C   0  0  1  0  0  0  0  0  0  0  0  0
    0.3793    0.5335    0.3796 H   0  0  0  0  0  0  0  0  0  0  0  0
    0.3317    0.9473   -1.7417 C   0  0  0  0  0  0  0  0  0  0  0  0
   -0.3785    1.3343   -2.4801 H   0  0  0  0  0  0  0  0  0  0  0  0
    1.2061    1.6054   -1.7615 H   0  0  0  0  0  0  0  0  0  0  0  0
    0.7676   -0.4474   -2.1247 C   0  0  0  0  0  0  0  0  0  0  0  0
    1.9808   -0.9693   -1.6517 C   0  0  0  0  0  0  0  0  0  0  0  0
    2.6131   -0.3751   -0.9999 H   0  0  0  0  0  0  0  0  0  0  0  0
    2.3842   -2.2614   -2.0054 C   0  0  0  0  0  0  0  0  0  0  0  0
    3.3222   -2.6590   -1.6297 H   0  0  0  0  0  0  0  0  0  0  0  0
    1.5773   -3.0430   -2.8374 C   0  0  0  0  0  0  0  0  0  0  0  0
    1.8888   -4.0470   -3.1093 H   0  0  0  0  0  0  0  0  0  0  0  0
    0.3661   -2.5325   -3.3135 C   0  0  0  0  0  0  0  0  0  0  0  0
   -0.2639   -3.1400   -3.9563 H   0  0  0  0  0  0  0  0  0  0  0  0
   -0.0359   -1.2405   -2.9582 C   0  0  0  0  0  0  0  0  0  0  0  0
   -0.9808   -0.8551   -3.3284 H   0  0  0  0  0  0  0  0  0  0  0  0
   -0.5397    2.4456    0.0771 C   0  0  0  0  0  0  0  0  0  0  0  0
   -1.6562    2.9465   -0.0062 O   0  0  0  0  0  0  0  0  0  0  0  0
    0.5247    3.2330    0.4777 N   0  0  0  0  0  0  0  0  0  0  0  0
    1.4295    2.7830    0.5823 H   0  0  0  0  0  0  0  0  0  0  0  0
    0.3793    4.6253    0.8856 C   0  0  0  0  0  0  0  0  0  0  0  0
   -0.2916    4.7032    1.7476 H   0  0  0  0  0  0  0  0  0  0  0  0
    1.3519    5.0417    1.1649 H   0  0  0  0  0  0  0  0  0  0  0  0
   -0.0295    5.2246    0.0653 H   0  0  0  0  0  0  0  0  0  0  0  0
  1  2  1  0  0  0  0
  2  3  1  0  0  0  0
  2  4  1  0  0  0  0
  2  5  1  0  0  0  0
  5  6  2  0  0  0  0
  5  7  1  0  0  0  0
  7  8  1  0  0  0  0
  7  9  1  0  0  0  0
  9 10  1  0  0  0  0
  9 11  1  0  0  0  0
  9 25  1  0  0  0  0
 11 12  1  0  0  0  0
 11 13  1  0  0  0  0
 11 14  1  0  0  0  0
 14 15  1  0  0  0  0
 14 23  2  0  0  0  0
 15 16  1  0  0  0  0
 15 17  2  0  0  0  0
 17 18  1  0  0  0  0
 17 19  1  0  0  0  0
 19 20  1  0  0  0  0
 19 21  2  0  0  0  0
 21 22  1  0  0  0  0
 21 23  1  0  0  0  0
 23 24  1  0  0  0  0
 25 26  2  0  0  0  0
 25 27  1  0  0  0  0
 27 28  1  0  0  0  0
 27 29  1  0  0  0  0
 29 30  1  0  0  0  0
 29 31  1  0  0  0  0
 29 32  1  0  0  0  0
M  END
$$$$

  -OEChem-01062216093D

 32 32  0     1  0  0  0  0  0999 V2000
   -3.2767   -2.2766    1.1257 H   0  0  0  0  0  0  0  0  0  0  0  0
   -3.2516   -1.4092    0.4603 C   0  0  0  0  0  0  0  0  0  0  0  0
   -3.9008   -0.6319    0.8709 H   0  0  0  0  0  0  0  0  0  0  0  0
   -3.6254   -1.7074   -0.5220 H   0  0  0  0  0  0  0  0  0  0  0  0
   -1.8334   -0.8853    0.3362 C   0  0  0  0  0  0  0  0  0  0  0  0
   -0.9261   -1.4497    0.9283 O   0  0  0  0  0  0  0  0  0  0  0  0
   -1.5927    0.2370   -0.4305 N   0  0  0  0  0  0  0  0  0  0  0  0
   -2.4193    0.7735   -0.6808 H   0  0  0  0  0  0  0  0  0  0  0  0
   -0.3220    0.9816   -0.3819 C   0  0  1  0  0  0  0  0  0  0  0  0
    0.4564    0.3975    0.1194 H   0  0  0  0  0  0  0  0  0  0  0  0
    0.1277    1.2671   -1.8273 C   0  0  0  0  0  0  0  0  0  0  0  0
   -0.6713    1.7897   -2.3634 H   0  0  0  0  0  0  0  0  0  0  0  0
    0.9986    1.9294   -1.8242 H   0  0  0  0  0  0  0  0  0  0  0  0
    0.4977   -0.0038   -2.5556 C   0  0  0  0  0  0  0  0  0  0  0  0
    1.7595   -0.5888   -2.3699 C   0  0  0  0  0  0  0  0  0  0  0  0
    2.4783   -0.1339   -1.6957 H   0  0  0  0  0  0  0  0  0  0  0  0
    2.1025   -1.7666   -3.0427 C   0  0  0  0  0  0  0  0  0  0  0  0
    3.0797   -2.2146   -2.8887 H   0  0  0  0  0  0  0  0  0  0  0  0
    1.1859   -2.3701   -3.9085 C   0  0  0  0  0  0  0  0  0  0  0  0
    1.4507   -3.2863   -4.4278 H   0  0  0  0  0  0  0  0  0  0  0  0
   -0.0738   -1.7952   -4.1003 C   0  0  0  0  0  0  0  0  0  0  0  0
   -0.7884   -2.2650   -4.7694 H   0  0  0  0  0  0  0  0  0  0  0  0
   -0.4153   -0.6175   -3.4269 C   0  0  0  0  0  0  0  0  0  0  0  0
   -1.3981   -0.1825   -3.5791 H   0  0  0  0  0  0  0  0  0  0  0  0
   -0.4781    2.3073    0.3971 C   0  0  0  0  0  0  0  0  0  0  0  0
   -1.5831    2.6779    0.7794 O   0  0  0  0  0  0  0  0  0  0  0  0
    0.6008    3.1582    0.5627 N   0  0  0  0  0  0  0  0  0  0  0  0
    1.5144    2.8193    0.2763 H   0  0  0  0  0  0  0  0  0  0  0  0
    0.5129    4.4310    1.2688 C   0  0  0  0  0  0  0  0  0  0  0  0
    0.1893    4.2737    2.3032 H   0  0  0  0  0  0  0  0  0  0  0  0
    1.4894    4.9244    1.2828 H   0  0  0  0  0  0  0  0  0  0  0  0
   -0.2025    5.0959    0.7734 H   0  0  0  0  0  0  0  0  0  0  0  0
  1  2  1  0  0  0  0
  2  3  1  0  0  0  0
  2  4  1  0  0  0  0
  2  5  1  0  0  0  0
  5  6  2  0  0  0  0
  5  7  1  0  0  0  0
  7  8  1  0  0  0  0
  7  9  1  0  0  0  0
  9 10  1  0  0  0  0
  9 11  1  0  0  0  0
  9 25  1  0  0  0  0
 11 12  1  0  0  0  0
 11 13  1  0  0  0  0
 11 14  1  0  0  0  0
 14 15  1  0  0  0  0
 14 23  2  0  0  0  0
 15 16  1  0  0  0  0
 15 17  2  0  0  0  0
 17 18  1  0  0  0  0
 17 19  1  0  0  0  0
 19 20  1  0  0  0  0
 19 21  2  0  0  0  0
 21 22  1  0  0  0  0
 21 23  1  0  0  0  0
 23 24  1  0  0  0  0
 25 26  2  0  0  0  0
 25 27  1  0  0  0  0
 27 28  1  0  0  0  0
 27 29  1  0  0  0  0
 29 30  1  0  0  0  0
 29 31  1  0  0  0  0
 29 32  1  0  0  0  0
M  END
$$$$

  -OEChem-01062216093D

 32 32  0     1  0  0  0  0  0999 V2000
   -3.2596   -2.2695    1.1222 H   0  0  0  0  0  0  0  0  0  0  0  0
   -3.2448   -1.3966    0.4638 C   0  0  0  0  0  0  0  0  0  0  0  0
   -3.8786   -0.6191    0.8970 H   0  0  0  0  0  0  0  0  0  0  0  0
   -3.6442   -1.6839   -0.5116 H   0  0  0  0  0  0  0  0  0  0  0  0
   -1.8262   -0.8812    0.3109 C   0  0  0  0  0  0  0  0  0  0  0  0
   -0.9090   -1.4644    0.8687 O   0  0  0  0  0  0  0  0  0  0  0  0
   -1.5961    0.2476   -0.4505 N   0  0  0  0  0  0  0  0  0  0  0  0
   -2.4277    0.7883   -0.6722 H   0  0  0  0  0  0  0  0  0  0  0  0
   -0.3255    0.9940   -0.3981 C   0  0  1  0  0  0  0  0  0  0  0  0
    0.4536    0.4116    0.1042 H   0  0  0  0  0  0  0  0  0  0  0  0
    0.1250    1.2659   -1.8478 C   0  0  0  0  0  0  0  0  0  0  0  0
   -0.6735    1.7833   -2.3897 H   0  0  0  0  0  0  0  0  0  0  0  0
    0.9984    1.9241   -1.8552 H   0  0  0  0  0  0  0  0  0  0  0  0
    0.4960   -0.0120   -2.5633 C   0  0  0  0  0  0  0  0  0  0  0  0
    1.7580   -0.5945   -2.3715 C   0  0  0  0  0  0  0  0  0  0  0  0
    2.4756   -0.1349   -1.6995 H   0  0  0  0  0  0  0  0  0  0  0  0
    2.1024   -1.7773   -3.0349 C   0  0  0  0  0  0  0  0  0  0  0  0
    3.0796   -2.2235   -2.8765 H   0  0  0  0  0  0  0  0  0  0  0  0
    1.1871   -2.3884   -3.8971 C   0  0  0  0  0  0  0  0  0  0  0  0
    1.4534   -3.3082   -4.4094 H   0  0  0  0  0  0  0  0  0  0  0  0
   -0.0731   -1.8164   -4.0941 C   0  0  0  0  0  0  0  0  0  0  0  0
   -0.7871   -2.2923   -4.7595 H   0  0  0  0  0  0  0  0  0  0  0  0
   -0.4157   -0.6335   -3.4304 C   0  0  0  0  0  0  0  0  0  0  0  0
   -1.3987   -0.2005   -3.5870 H   0  0  0  0  0  0  0  0  0  0  0  0
   -0.4840    2.3152    0.3936 C   0  0  0  0  0  0  0  0  0  0  0  0
   -1.5242    2.5559    0.9967 O   0  0  0  0  0  0  0  0  0  0  0  0
    0.4738    3.3126    0.3188 N   0  0  0  0  0  0  0  0  0  0  0  0
    1.3427    3.0936   -0.1589 H   0  0  0  0  0  0  0  0  0  0  0  0
    0.3603    4.5873    1.0183 C   0  0  0  0  0  0  0  0  0  0  0  0
    0.2861    4.4267    2.0990 H   0  0  0  0  0  0  0  0  0  0  0  0
    1.2403    5.2068    0.8204 H   0  0  0  0  0  0  0  0  0  0  0  0
   -0.5277    5.1322    0.6811 H   0  0  0  0  0  0  0  0  0  0  0  0
  1  2  1  0  0  0  0
  2  3  1  0  0  0  0
  2  4  1  0  0  0  0
  2  5  1  0  0  0  0
  5  6  2  0  0  0  0
  5  7  1  0  0  0  0
  7  8  1  0  0  0  0
  7  9  1  0  0  0  0
  9 10  1  0  0  0  0
  9 11  1  0  0  0  0
  9 25  1  0  0  0  0
 11 12  1  0  0  0  0
 11 13  1  0  0  0  0
 11 14  1  0  0  0  0
 14 15  1  0  0  0  0
 14 23  2  0  0  0  0
 15 16  1  0  0  0  0
 15 17  2  0  0  0  0
 17 18  1  0  0  0  0
 17 19  1  0  0  0  0
 19 20  1  0  0  0  0
 19 21  2  0  0  0  0
 21 22  1  0  0  0  0
 21 23  1  0  0  0  0
 23 24  1  0  0  0  0
 25 26  2  0  0  0  0
 25 27  1  0  0  0  0
 27 28  1  0  0  0  0
 27 29  1  0  0  0  0
 29 30  1  0  0  0  0
 29 31  1  0  0  0  0
 29 32  1  0  0  0  0
M  END
$$$$

  -OEChem-01062216093D

 32 32  0     1  0  0  0  0  0999 V2000
   -3.2506   -2.2510    1.1297 H   0  0  0  0  0  0  0  0  0  0  0  0
   -3.2423   -1.3714    0.4801 C   0  0  0  0  0  0  0  0  0  0  0  0
   -3.8504   -0.5888    0.9405 H   0  0  0  0  0  0  0  0  0  0  0  0
   -3.6759   -1.6418   -0.4855 H   0  0  0  0  0  0  0  0  0  0  0  0
   -1.8213   -0.8753    0.2901 C   0  0  0  0  0  0  0  0  0  0  0  0
   -0.8967   -1.4806    0.8106 O   0  0  0  0  0  0  0  0  0  0  0  0
   -1.5986    0.2578   -0.4677 N   0  0  0  0  0  0  0  0  0  0  0  0
   -2.4330    0.7991   -0.6743 H   0  0  0  0  0  0  0  0  0  0  0  0
   -0.3267    1.0027   -0.4197 C   0  0  1  0  0  0  0  0  0  0  0  0
    0.4526    0.4218    0.0850 H   0  0  0  0  0  0  0  0  0  0  0  0
    0.1280    1.2618   -1.8713 C   0  0  0  0  0  0  0  0  0  0  0  0
   -0.6669    1.7776   -2.4199 H   0  0  0  0  0  0  0  0  0  0  0  0
    1.0063    1.9131   -1.8814 H   0  0  0  0  0  0  0  0  0  0  0  0
    0.4985   -0.0226   -2.5751 C   0  0  0  0  0  0  0  0  0  0  0  0
    1.7595   -0.6044   -2.3741 C   0  0  0  0  0  0  0  0  0  0  0  0
    2.4747   -0.1405   -1.7020 H   0  0  0  0  0  0  0  0  0  0  0  0
    2.1059   -1.7920   -3.0270 C   0  0  0  0  0  0  0  0  0  0  0  0
    3.0815   -2.2385   -2.8597 H   0  0  0  0  0  0  0  0  0  0  0  0
    1.1940   -2.4083   -3.8888 C   0  0  0  0  0  0  0  0  0  0  0  0
    1.4617   -3.3324   -4.3925 H   0  0  0  0  0  0  0  0  0  0  0  0
   -0.0650   -1.8370   -4.0955 C   0  0  0  0  0  0  0  0  0  0  0  0
   -0.7759   -2.3179   -4.7606 H   0  0  0  0  0  0  0  0  0  0  0  0
   -0.4101   -0.6493   -3.4414 C   0  0  0  0  0  0  0  0  0  0  0  0
   -1.3924   -0.2172   -3.6039 H   0  0  0  0  0  0  0  0  0  0  0  0
   -0.4888    2.3188    0.3834 C   0  0  0  0  0  0  0  0  0  0  0  0
   -1.3975    2.4336    1.1977 O   0  0  0  0  0  0  0  0  0  0  0  0
    0.2718    3.4423    0.1031 N   0  0  0  0  0  0  0  0  0  0  0  0
    1.0332    3.3420   -0.5607 H   0  0  0  0  0  0  0  0  0  0  0  0
    0.1212    4.7096    0.8092 C   0  0  0  0  0  0  0  0  0  0  0  0
    0.3072    4.5758    1.8802 H   0  0  0  0  0  0  0  0  0  0  0  0
    0.8339    5.4448    0.4236 H   0  0  0  0  0  0  0  0  0  0  0  0
   -0.8905    5.1065    0.6741 H   0  0  0  0  0  0  0  0  0  0  0  0
  1  2  1  0  0  0  0
  2  3  1  0  0  0  0
  2  4  1  0  0  0  0
  2  5  1  0  0  0  0
  5  6  2  0  0  0  0
  5  7  1  0  0  0  0
  7  8  1  0  0  0  0
  7  9  1  0  0  0  0
  9 10  1  0  0  0  0
  9 11  1  0  0  0  0
  9 25  1  0  0  0  0
 11 12  1  0  0  0  0
 11 13  1  0  0  0  0
 11 14  1  0  0  0  0
 14 15  1  0  0  0  0
 14 23  2  0  0  0  0
 15 16  1  0  0  0  0
 15 17  2  0  0  0  0
 17 18  1  0  0  0  0
 17 19  1  0  0  0  0
 19 20  1  0  0  0  0
 19 21  2  0  0  0  0
 21 22  1  0  0  0  0
 21 23  1  0  0  0  0
 23 24  1  0  0  0  0
 25 26  2  0  0  0  0
 25 27  1  0  0  0  0
 27 28  1  0  0  0  0
 27 29  1  0  0  0  0
 29 30  1  0  0  0  0
 29 31  1  0  0  0  0
 29 32  1  0  0  0  0
M  END
$$$$

  -OEChem-01062216093D

 32 32  0     1  0  0  0  0  0999 V2000
   -3.2444   -2.2513    1.1243 H   0  0  0  0  0  0  0  0  0  0  0  0
   -3.2411   -1.3673    0.4807 C   0  0  0  0  0  0  0  0  0  0  0  0
   -3.8477   -0.5891    0.9503 H   0  0  0  0  0  0  0  0  0  0  0  0
   -3.6792   -1.6319   -0.4845 H   0  0  0  0  0  0  0  0  0  0  0  0
   -1.8218   -0.8685    0.2867 C   0  0  0  0  0  0  0  0  0  0  0  0
   -0.8944   -1.4797    0.7943 O   0  0  0  0  0  0  0  0  0  0  0  0
   -1.6042    0.2669   -0.4698 N   0  0  0  0  0  0  0  0  0  0  0  0
   -2.4405    0.7979   -0.6920 H   0  0  0  0  0  0  0  0  0  0  0  0
   -0.3315    1.0109   -0.4321 C   0  0  1  0  0  0  0  0  0  0  0  0
    0.4476    0.4302    0.0733 H   0  0  0  0  0  0  0  0  0  0  0  0
    0.1285    1.2621   -1.8829 C   0  0  0  0  0  0  0  0  0  0  0  0
   -0.6620    1.7774   -2.4384 H   0  0  0  0  0  0  0  0  0  0  0  0
    1.0103    1.9094   -1.8879 H   0  0  0  0  0  0  0  0  0  0  0  0
    0.5000   -0.0256   -2.5792 C   0  0  0  0  0  0  0  0  0  0  0  0
    1.7597   -0.6069   -2.3706 C   0  0  0  0  0  0  0  0  0  0  0  0
    2.4722   -0.1398   -1.6979 H   0  0  0  0  0  0  0  0  0  0  0  0
    2.1079   -1.7980   -3.0163 C   0  0  0  0  0  0  0  0  0  0  0  0
    3.0827   -2.2439   -2.8429 H   0  0  0  0  0  0  0  0  0  0  0  0
    1.1985   -2.4186   -3.8778 C   0  0  0  0  0  0  0  0  0  0  0  0
    1.4677   -3.3454   -4.3756 H   0  0  0  0  0  0  0  0  0  0  0  0
   -0.0598   -1.8482   -4.0912 C   0  0  0  0  0  0  0  0  0  0  0  0
   -0.7687   -2.3329   -4.7556 H   0  0  0  0  0  0  0  0  0  0  0  0
   -0.4064   -0.6567   -3.4448 C   0  0  0  0  0  0  0  0  0  0  0  0
   -1.3882   -0.2256   -3.6126 H   0  0  0  0  0  0  0  0  0  0  0  0
   -0.4929    2.3226    0.3772 C   0  0  0  0  0  0  0  0  0  0  0  0
   -1.2053    2.3412    1.3729 O   0  0  0  0  0  0  0  0  0  0  0  0
    0.0161    3.5308   -0.0718 N   0  0  0  0  0  0  0  0  0  0  0  0
    0.6009    3.5178   -0.9012 H   0  0  0  0  0  0  0  0  0  0  0  0
   -0.1650    4.7918    0.6382 C   0  0  0  0  0  0  0  0  0  0  0  0
    0.2634    4.7297    1.6442 H   0  0  0  0  0  0  0  0  0  0  0  0
    0.3326    5.6042    0.0999 H   0  0  0  0  0  0  0  0  0  0  0  0
   -1.2294    5.0353    0.7231 H   0  0  0  0  0  0  0  0  0  0  0  0
  1  2  1  0  0  0  0
  2  3  1  0  0  0  0
  2  4  1  0  0  0  0
  2  5  1  0  0  0  0
  5  6  2  0  0  0  0
  5  7  1  0  0  0  0
  7  8  1  0  0  0  0
  7  9  1  0  0  0  0
  9 10  1  0  0  0  0
  9 11  1  0  0  0  0
  9 25  1  0  0  0  0
 11 12  1  0  0  0  0
 11 13  1  0  0  0  0
 11 14  1  0  0  0  0
 14 15  1  0  0  0  0
 14 23  2  0  0  0  0
 15 16  1  0  0  0  0
 15 17  2  0  0  0  0
 17 18  1  0  0  0  0
 17 19  1  0  0  0  0
 19 20  1  0  0  0  0
 19 21  2  0  0  0  0
 21 22  1  0  0  0  0
 21 23  1  0  0  0  0
 23 24  1  0  0  0  0
 25 26  2  0  0  0  0
 25 27  1  0  0  0  0
 27 28  1  0  0  0  0
 27 29  1  0  0  0  0
 29 30  1  0  0  0  0
 29 31  1  0  0  0  0
 29 32  1  0  0  0  0
M  END
$$$$

  -OEChem-01062216093D

 32 32  0     1  0  0  0  0  0999 V2000
   -3.2437   -2.2726    1.1072 H   0  0  0  0  0  0  0  0  0  0  0  0
   -3.2425   -1.3850    0.4683 C   0  0  0  0  0  0  0  0  0  0  0  0
   -3.8686   -0.6186    0.9315 H   0  0  0  0  0  0  0  0  0  0  0  0
   -3.6604   -1.6510   -0.5055 H   0  0  0  0  0  0  0  0  0  0  0  0
   -1.8272   -0.8648    0.3000 C   0  0  0  0  0  0  0  0  0  0  0  0
   -0.8997   -1.4692    0.8148 O   0  0  0  0  0  0  0  0  0  0  0  0
   -1.6116    0.2712   -0.4569 N   0  0  0  0  0  0  0  0  0  0  0  0
   -2.4484    0.7821   -0.7192 H   0  0  0  0  0  0  0  0  0  0  0  0
   -0.3402    1.0176   -0.4303 C   0  0  1  0  0  0  0  0  0  0  0  0
    0.4409    0.4393    0.0752 H   0  0  0  0  0  0  0  0  0  0  0  0
    0.1207    1.2653   -1.8807 C   0  0  0  0  0  0  0  0  0  0  0  0
   -0.6704    1.7747   -2.4403 H   0  0  0  0  0  0  0  0  0  0  0  0
    0.9995    1.9180   -1.8818 H   0  0  0  0  0  0  0  0  0  0  0  0
    0.4957   -0.0234   -2.5732 C   0  0  0  0  0  0  0  0  0  0  0  0
    1.7564   -0.6017   -2.3618 C   0  0  0  0  0  0  0  0  0  0  0  0
    2.4663   -0.1327   -1.6873 H   0  0  0  0  0  0  0  0  0  0  0  0
    2.1085   -1.7924   -3.0062 C   0  0  0  0  0  0  0  0  0  0  0  0
    3.0845   -2.2354   -2.8312 H   0  0  0  0  0  0  0  0  0  0  0  0
    1.2023   -2.4158   -3.8689 C   0  0  0  0  0  0  0  0  0  0  0  0
    1.4746   -3.3424   -4.3656 H   0  0  0  0  0  0  0  0  0  0  0  0
   -0.0566   -1.8480   -4.0855 C   0  0  0  0  0  0  0  0  0  0  0  0
   -0.7628   -2.3336   -4.7523 H   0  0  0  0  0  0  0  0  0  0  0  0
   -0.4076   -0.6575   -3.4401 C   0  0  0  0  0  0  0  0  0  0  0  0
   -1.3901   -0.2295   -3.6113 H   0  0  0  0  0  0  0  0  0  0  0  0
   -0.4957    2.3288    0.3777 C   0  0  0  0  0  0  0  0  0  0  0  0
   -0.9615    2.2962    1.5084 O   0  0  0  0  0  0  0  0  0  0  0  0
   -0.2743    3.5716   -0.1942 N   0  0  0  0  0  0  0  0  0  0  0  0
    0.0947    3.5968   -1.1394 H   0  0  0  0  0  0  0  0  0  0  0  0
   -0.4759    4.8301    0.5149 C   0  0  0  0  0  0  0  0  0  0  0  0
    0.1670    4.8781    1.4002 H   0  0  0  0  0  0  0  0  0  0  0  0
   -0.2313    5.6745   -0.1366 H   0  0  0  0  0  0  0  0  0  0  0  0
   -1.5195    4.9294    0.8318 H   0  0  0  0  0  0  0  0  0  0  0  0
  1  2  1  0  0  0  0
  2  3  1  0  0  0  0
  2  4  1  0  0  0  0
  2  5  1  0  0  0  0
  5  6  2  0  0  0  0
  5  7  1  0  0  0  0
  7  8  1  0  0  0  0
  7  9  1  0  0  0  0
  9 10  1  0  0  0  0
  9 11  1  0  0  0  0
  9 25  1  0  0  0  0
 11 12  1  0  0  0  0
 11 13  1  0  0  0  0
 11 14  1  0  0  0  0
 14 15  1  0  0  0  0
 14 23  2  0  0  0  0
 15 16  1  0  0  0  0
 15 17  2  0  0  0  0
 17 18  1  0  0  0  0
 17 19  1  0  0  0  0
 19 20  1  0  0  0  0
 19 21  2  0  0  0  0
 21 22  1  0  0  0  0
 21 23  1  0  0  0  0
 23 24  1  0  0  0  0
 25 26  2  0  0  0  0
 25 27  1  0  0  0  0
 27 28  1  0  0  0  0
 27 29  1  0  0  0  0
 29 30  1  0  0  0  0
 29 31  1  0  0  0  0
 29 32  1  0  0  0  0
M  END
$$$$

  -OEChem-01062216093D

 32 32  0     1  0  0  0  0  0999 V2000
   -3.2457   -2.2991    1.0887 H   0  0  0  0  0  0  0  0  0  0  0  0
   -3.2440   -1.4149    0.4450 C   0  0  0  0  0  0  0  0  0  0  0  0
   -3.8996   -0.6594    0.8847 H   0  0  0  0  0  0  0  0  0  0  0  0
   -3.6270   -1.6948   -0.5392 H   0  0  0  0  0  0  0  0  0  0  0  0
   -1.8353   -0.8667    0.3156 C   0  0  0  0  0  0  0  0  0  0  0  0
   -0.9115   -1.4534    0.8558 O   0  0  0  0  0  0  0  0  0  0  0  0
   -1.6210    0.2698   -0.4413 N   0  0  0  0  0  0  0  0  0  0  0  0
   -2.4562    0.7544   -0.7528 H   0  0  0  0  0  0  0  0  0  0  0  0
   -0.3531    1.0220   -0.4250 C   0  0  1  0  0  0  0  0  0  0  0  0
    0.4313    0.4448    0.0771 H   0  0  0  0  0  0  0  0  0  0  0  0
    0.1061    1.2734   -1.8745 C   0  0  0  0  0  0  0  0  0  0  0  0
   -0.6882    1.7751   -2.4365 H   0  0  0  0  0  0  0  0  0  0  0  0
    0.9784    1.9354   -1.8717 H   0  0  0  0  0  0  0  0  0  0  0  0
    0.4868   -0.0139   -2.5660 C   0  0  0  0  0  0  0  0  0  0  0  0
    1.7501   -0.5852   -2.3532 C   0  0  0  0  0  0  0  0  0  0  0  0
    2.4569   -0.1109   -1.6791 H   0  0  0  0  0  0  0  0  0  0  0  0
    2.1079   -1.7763   -2.9935 C   0  0  0  0  0  0  0  0  0  0  0  0
    3.0854   -2.2146   -2.8156 H   0  0  0  0  0  0  0  0  0  0  0  0
    1.2052   -2.4058   -3.8556 C   0  0  0  0  0  0  0  0  0  0  0  0
    1.4822   -3.3324   -4.3497 H   0  0  0  0  0  0  0  0  0  0  0  0
   -0.0563   -1.8443   -4.0743 C   0  0  0  0  0  0  0  0  0  0  0  0
   -0.7597   -2.3348   -4.7404 H   0  0  0  0  0  0  0  0  0  0  0  0
   -0.4133   -0.6539   -3.4319 C   0  0  0  0  0  0  0  0  0  0  0  0
   -1.3974   -0.2309   -3.6051 H   0  0  0  0  0  0  0  0  0  0  0  0
   -0.5026    2.3334    0.3791 C   0  0  0  0  0  0  0  0  0  0  0  0
   -0.6722    2.2938    1.5890 O   0  0  0  0  0  0  0  0  0  0  0  0
   -0.5916    3.5636   -0.2526 N   0  0  0  0  0  0  0  0  0  0  0  0
   -0.4561    3.5882   -1.2583 H   0  0  0  0  0  0  0  0  0  0  0  0
   -0.7932    4.8193    0.4612 C   0  0  0  0  0  0  0  0  0  0  0  0
    0.0280    4.9969    1.1636 H   0  0  0  0  0  0  0  0  0  0  0  0
   -0.8309    5.6543   -0.2450 H   0  0  0  0  0  0  0  0  0  0  0  0
   -1.7352    4.7961    1.0191 H   0  0  0  0  0  0  0  0  0  0  0  0
  1  2  1  0  0  0  0
  2  3  1  0  0  0  0
  2  4  1  0  0  0  0
  2  5  1  0  0  0  0
  5  6  2  0  0  0  0
  5  7  1  0  0  0  0
  7  8  1  0  0  0  0
  7  9  1  0  0  0  0
  9 10  1  0  0  0  0
  9 11  1  0  0  0  0
  9 25  1  0  0  0  0
 11 12  1  0  0  0  0
 11 13  1  0  0  0  0
 11 14  1  0  0  0  0
 14 15  1  0  0  0  0
 14 23  2  0  0  0  0
 15 16  1  0  0  0  0
 15 17  2  0  0  0  0
 17 18  1  0  0  0  0
 17 19  1  0  0  0  0
 19 20  1  0  0  0  0
 19 21  2  0  0  0  0
 21 22  1  0  0  0  0
 21 23  1  0  0  0  0
 23 24  1  0  0  0  0
 25 26  2  0  0  0  0
 25 27  1  0  0  0  0
 27 28  1  0  0  0  0
 27 29  1  0  0  0  0
 29 30  1  0  0  0  0
 29 31  1  0  0  0  0
 29 32  1  0  0  0  0
M  END
$$$$

  -OEChem-01062216093D

 32 32  0     1  0  0  0  0  0999 V2000
   -3.2500   -2.3367    1.0628 H   0  0  0  0  0  0  0  0  0  0  0  0
   -3.2426   -1.4667    0.4003 C   0  0  0  0  0  0  0  0  0  0  0  0
   -3.9455   -0.7254    0.7878 H   0  0  0  0  0  0  0  0  0  0  0  0
   -3.5628   -1.7802   -0.5961 H   0  0  0  0  0  0  0  0  0  0  0  0
   -1.8472   -0.8745    0.3330 C   0  0  0  0  0  0  0  0  0  0  0  0
   -0.9334   -1.4240    0.9251 O   0  0  0  0  0  0  0  0  0  0  0  0
   -1.6325    0.2632   -0.4218 N   0  0  0  0  0  0  0  0  0  0  0  0
   -2.4587    0.7047   -0.8108 H   0  0  0  0  0  0  0  0  0  0  0  0
   -0.3699    1.0252   -0.4123 C   0  0  1  0  0  0  0  0  0  0  0  0
    0.4198    0.4498    0.0843 H   0  0  0  0  0  0  0  0  0  0  0  0
    0.0820    1.2849   -1.8619 C   0  0  0  0  0  0  0  0  0  0  0  0
   -0.7172    1.7798   -2.4220 H   0  0  0  0  0  0  0  0  0  0  0  0
    0.9461    1.9577   -1.8586 H   0  0  0  0  0  0  0  0  0  0  0  0
    0.4699    0.0010   -2.5559 C   0  0  0  0  0  0  0  0  0  0  0  0
    1.7390   -0.5588   -2.3460 C   0  0  0  0  0  0  0  0  0  0  0  0
    2.4453   -0.0742   -1.6780 H   0  0  0  0  0  0  0  0  0  0  0  0
    2.1042   -1.7500   -2.9821 C   0  0  0  0  0  0  0  0  0  0  0  0
    3.0868   -2.1781   -2.8071 H   0  0  0  0  0  0  0  0  0  0  0  0
    1.2028   -2.3921   -3.8359 C   0  0  0  0  0  0  0  0  0  0  0  0
    1.4856   -3.3189   -4.3259 H   0  0  0  0  0  0  0  0  0  0  0  0
   -0.0640   -1.8422   -4.0523 C   0  0  0  0  0  0  0  0  0  0  0  0
   -0.7657   -2.3427   -4.7128 H   0  0  0  0  0  0  0  0  0  0  0  0
   -0.4284   -0.6511   -3.4149 C   0  0  0  0  0  0  0  0  0  0  0  0
   -1.4166   -0.2376   -3.5869 H   0  0  0  0  0  0  0  0  0  0  0  0
   -0.5147    2.3379    0.3874 C   0  0  0  0  0  0  0  0  0  0  0  0
   -0.3469    2.3455    1.5978 O   0  0  0  0  0  0  0  0  0  0  0  0
   -0.9153    3.5121   -0.2295 N   0  0  0  0  0  0  0  0  0  0  0  0
   -1.0364    3.4986   -1.2369 H   0  0  0  0  0  0  0  0  0  0  0  0
   -1.0853    4.7724    0.4845 C   0  0  0  0  0  0  0  0  0  0  0  0
   -0.1445    5.0767    0.9554 H   0  0  0  0  0  0  0  0  0  0  0  0
   -1.3963    5.5607   -0.2076 H   0  0  0  0  0  0  0  0  0  0  0  0
   -1.8508    4.6720    1.2611 H   0  0  0  0  0  0  0  0  0  0  0  0
  1  2  1  0  0  0  0
  2  3  1  0  0  0  0
  2  4  1  0  0  0  0
  2  5  1  0  0  0  0
  5  6  2  0  0  0  0
  5  7  1  0  0  0  0
  7  8  1  0  0  0  0
  7  9  1  0  0  0  0
  9 10  1  0  0  0  0
  9 11  1  0  0  0  0
  9 25  1  0  0  0  0
 11 12  1  0  0  0  0
 11 13  1  0  0  0  0
 11 14  1  0  0  0  0
 14 15  1  0  0  0  0
 14 23  2  0  0  0  0
 15 16  1  0  0  0  0
 15 17  2  0  0  0  0
 17 18  1  0  0  0  0
 17 19  1  0  0  0  0
 19 20  1  0  0  0  0
 19 21  2  0  0  0  0
 21 22  1  0  0  0  0
 21 23  1  0  0  0  0
 23 24  1  0  0  0  0
 25 26  2  0  0  0  0
 25 27  1  0  0  0  0
 27 28  1  0  0  0  0
 27 29  1  0  0  0  0
 29 30  1  0  0  0  0
 29 31  1  0  0  0  0
 29 32  1  0  0  0  0
M  END
$$$$

  -OEChem-01062216093D

 32 32  0     1  0  0  0  0  0999 V2000
   -3.2390   -2.4115    1.0055 H   0  0  0  0  0  0  0  0  0  0  0  0
   -3.2275   -1.5412    0.3433 C   0  0  0  0  0  0  0  0  0  0  0  0
   -3.9950   -0.8381    0.6750 H   0  0  0  0  0  0  0  0  0  0  0  0
   -3.4552   -1.8702   -0.6733 H   0  0  0  0  0  0  0  0  0  0  0  0
   -1.8640   -0.8764    0.3800 C   0  0  0  0  0  0  0  0  0  0  0  0
   -0.9816   -1.3549    1.0718 O   0  0  0  0  0  0  0  0  0  0  0  0
   -1.6445    0.2573   -0.3791 N   0  0  0  0  0  0  0  0  0  0  0  0
   -2.4324    0.6092   -0.9114 H   0  0  0  0  0  0  0  0  0  0  0  0
   -0.3840    1.0234   -0.3810 C   0  0  1  0  0  0  0  0  0  0  0  0
    0.4088    0.4464    0.1093 H   0  0  0  0  0  0  0  0  0  0  0  0
    0.0608    1.2932   -1.8299 C   0  0  0  0  0  0  0  0  0  0  0  0
   -0.7405    1.7916   -2.3837 H   0  0  0  0  0  0  0  0  0  0  0  0
    0.9223    1.9696   -1.8243 H   0  0  0  0  0  0  0  0  0  0  0  0
    0.4494    0.0139   -2.5320 C   0  0  0  0  0  0  0  0  0  0  0  0
    1.7206   -0.5434   -2.3295 C   0  0  0  0  0  0  0  0  0  0  0  0
    2.4270   -0.0606   -1.6604 H   0  0  0  0  0  0  0  0  0  0  0  0
    2.0875   -1.7295   -2.9740 C   0  0  0  0  0  0  0  0  0  0  0  0
    3.0719   -2.1564   -2.8047 H   0  0  0  0  0  0  0  0  0  0  0  0
    1.1855   -2.3686   -3.8297 C   0  0  0  0  0  0  0  0  0  0  0  0
    1.4696   -3.2920   -4.3260 H   0  0  0  0  0  0  0  0  0  0  0  0
   -0.0829   -1.8199   -4.0406 C   0  0  0  0  0  0  0  0  0  0  0  0
   -0.7838   -2.3181   -4.7036 H   0  0  0  0  0  0  0  0  0  0  0  0
   -0.4483   -0.6331   -3.3955 C   0  0  0  0  0  0  0  0  0  0  0  0
   -1.4360   -0.2183   -3.5670 H   0  0  0  0  0  0  0  0  0  0  0  0
   -0.5188    2.3419    0.4080 C   0  0  0  0  0  0  0  0  0  0  0  0
    0.0039    2.4659    1.5054 O   0  0  0  0  0  0  0  0  0  0  0  0
   -1.2058    3.4199   -0.1262 N   0  0  0  0  0  0  0  0  0  0  0  0
   -1.6189    3.3085   -1.0458 H   0  0  0  0  0  0  0  0  0  0  0  0
   -1.3478    4.6975    0.5626 C   0  0  0  0  0  0  0  0  0  0  0  0
   -0.3643    5.1248    0.7858 H   0  0  0  0  0  0  0  0  0  0  0  0
   -1.8979    5.4066   -0.0635 H   0  0  0  0  0  0  0  0  0  0  0  0
   -1.8957    4.5667    1.5017 H   0  0  0  0  0  0  0  0  0  0  0  0
  1  2  1  0  0  0  0
  2  3  1  0  0  0  0
  2  4  1  0  0  0  0
  2  5  1  0  0  0  0
  5  6  2  0  0  0  0
  5  7  1  0  0  0  0
  7  8  1  0  0  0  0
  7  9  1  0  0  0  0
  9 10  1  0  0  0  0
  9 11  1  0  0  0  0
  9 25  1  0  0  0  0
 11 12  1  0  0  0  0
 11 13  1  0  0  0  0
 11 14  1  0  0  0  0
 14 15  1  0  0  0  0
 14 23  2  0  0  0  0
 15 16  1  0  0  0  0
 15 17  2  0  0  0  0
 17 18  1  0  0  0  0
 17 19  1  0  0  0  0
 19 20  1  0  0  0  0
 19 21  2  0  0  0  0
 21 22  1  0  0  0  0
 21 23  1  0  0  0  0
 23 24  1  0  0  0  0
 25 26  2  0  0  0  0
 25 27  1  0  0  0  0
 27 28  1  0  0  0  0
 27 29  1  0  0  0  0
 29 30  1  0  0  0  0
 29 31  1  0  0  0  0
 29 32  1  0  0  0  0
M  END
$$$$

  -OEChem-01062216093D

 32 32  0     1  0  0  0  0  0999 V2000
   -3.1336   -2.5591    0.8723 H   0  0  0  0  0  0  0  0  0  0  0  0
   -3.1388   -1.6852    0.2145 C   0  0  0  0  0  0  0  0  0  0  0  0
   -4.0325   -1.0926    0.4237 H   0  0  0  0  0  0  0  0  0  0  0  0
   -3.1682   -2.0272   -0.8228 H   0  0  0  0  0  0  0  0  0  0  0  0
   -1.8954   -0.8482    0.4496 C   0  0  0  0  0  0  0  0  0  0  0  0
   -1.1052   -1.1761    1.3177 O   0  0  0  0  0  0  0  0  0  0  0  0
   -1.6776    0.2753   -0.3247 N   0  0  0  0  0  0  0  0  0  0  0  0
   -2.3159    0.4100   -1.1008 H   0  0  0  0  0  0  0  0  0  0  0  0
   -0.4097    1.0301   -0.3263 C   0  0  1  0  0  0  0  0  0  0  0  0
    0.3781    0.4433    0.1608 H   0  0  0  0  0  0  0  0  0  0  0  0
    0.0312    1.3069   -1.7738 C   0  0  0  0  0  0  0  0  0  0  0  0
   -0.7649    1.8230   -2.3194 H   0  0  0  0  0  0  0  0  0  0  0  0
    0.9015    1.9725   -1.7650 H   0  0  0  0  0  0  0  0  0  0  0  0
    0.4033    0.0282   -2.4847 C   0  0  0  0  0  0  0  0  0  0  0  0
    1.6695   -0.5415   -2.2888 C   0  0  0  0  0  0  0  0  0  0  0  0
    2.3799   -0.0698   -1.6158 H   0  0  0  0  0  0  0  0  0  0  0  0
    2.0254   -1.7243   -2.9449 C   0  0  0  0  0  0  0  0  0  0  0  0
    3.0062   -2.1609   -2.7799 H   0  0  0  0  0  0  0  0  0  0  0  0
    1.1187   -2.3449   -3.8089 C   0  0  0  0  0  0  0  0  0  0  0  0
    1.3965   -3.2634   -4.3178 H   0  0  0  0  0  0  0  0  0  0  0  0
   -0.1440   -1.7816   -4.0158 C   0  0  0  0  0  0  0  0  0  0  0  0
   -0.8460   -2.2630   -4.6901 H   0  0  0  0  0  0  0  0  0  0  0  0
   -0.4997   -0.5994   -3.3570 C   0  0  0  0  0  0  0  0  0  0  0  0
   -1.4807   -0.1699   -3.5315 H   0  0  0  0  0  0  0  0  0  0  0  0
   -0.5185    2.3585    0.4470 C   0  0  0  0  0  0  0  0  0  0  0  0
    0.3051    2.6422    1.3048 O   0  0  0  0  0  0  0  0  0  0  0  0
   -1.4304    3.3236    0.0545 N   0  0  0  0  0  0  0  0  0  0  0  0
   -2.1166    3.0605   -0.6439 H   0  0  0  0  0  0  0  0  0  0  0  0
   -1.5352    4.6300    0.6934 C   0  0  0  0  0  0  0  0  0  0  0  0
   -0.5875    5.1728    0.6125 H   0  0  0  0  0  0  0  0  0  0  0  0
   -2.3157    5.2262    0.2112 H   0  0  0  0  0  0  0  0  0  0  0  0
   -1.7880    4.5187    1.7531 H   0  0  0  0  0  0  0  0  0  0  0  0
  1  2  1  0  0  0  0
  2  3  1  0  0  0  0
  2  4  1  0  0  0  0
  2  5  1  0  0  0  0
  5  6  2  0  0  0  0
  5  7  1  0  0  0  0
  7  8  1  0  0  0  0
  7  9  1  0  0  0  0
  9 10  1  0  0  0  0
  9 11  1  0  0  0  0
  9 25  1  0  0  0  0
 11 12  1  0  0  0  0
 11 13  1  0  0  0  0
 11 14  1  0  0  0  0
 14 15  1  0  0  0  0
 14 23  2  0  0  0  0
 15 16  1  0  0  0  0
 15 17  2  0  0  0  0
 17 18  1  0  0  0  0
 17 19  1  0  0  0  0
 19 20  1  0  0  0  0
 19 21  2  0  0  0  0
 21 22  1  0  0  0  0
 21 23  1  0  0  0  0
 23 24  1  0  0  0  0
 25 26  2  0  0  0  0
 25 27  1  0  0  0  0
 27 28  1  0  0  0  0
 27 29  1  0  0  0  0
 29 30  1  0  0  0  0
 29 31  1  0  0  0  0
 29 32  1  0  0  0  0
M  END
$$$$

  -OEChem-01062216093D

 32 32  0     1  0  0  0  0  0999 V2000
   -3.0730   -2.6076    0.8250 H   0  0  0  0  0  0  0  0  0  0  0  0
   -3.0814   -1.7418    0.1566 C   0  0  0  0  0  0  0  0  0  0  0  0
   -4.0194   -1.1991    0.2952 H   0  0  0  0  0  0  0  0  0  0  0  0
   -3.0188   -2.0959   -0.8753 H   0  0  0  0  0  0  0  0  0  0  0  0
   -1.9062   -0.8334    0.4656 C   0  0  0  0  0  0  0  0  0  0  0  0
   -1.1725   -1.0942    1.4032 O   0  0  0  0  0  0  0  0  0  0  0  0
   -1.6874    0.2851   -0.3154 N   0  0  0  0  0  0  0  0  0  0  0  0
   -2.2512    0.3426   -1.1566 H   0  0  0  0  0  0  0  0  0  0  0  0
   -0.4127    1.0293   -0.3032 C   0  0  1  0  0  0  0  0  0  0  0  0
    0.3690    0.4358    0.1854 H   0  0  0  0  0  0  0  0  0  0  0  0
    0.0308    1.3127   -1.7476 C   0  0  0  0  0  0  0  0  0  0  0  0
   -0.7602    1.8425   -2.2874 H   0  0  0  0  0  0  0  0  0  0  0  0
    0.9077    1.9695   -1.7337 H   0  0  0  0  0  0  0  0  0  0  0  0
    0.3914    0.0346   -2.4661 C   0  0  0  0  0  0  0  0  0  0  0  0
    1.6516   -0.5506   -2.2745 C   0  0  0  0  0  0  0  0  0  0  0  0
    2.3693   -0.0894   -1.6015 H   0  0  0  0  0  0  0  0  0  0  0  0
    1.9926   -1.7348   -2.9362 C   0  0  0  0  0  0  0  0  0  0  0  0
    2.9690   -2.1826   -2.7750 H   0  0  0  0  0  0  0  0  0  0  0  0
    1.0774   -2.3412   -3.8017 C   0  0  0  0  0  0  0  0  0  0  0  0
    1.3436   -3.2606   -4.3152 H   0  0  0  0  0  0  0  0  0  0  0  0
   -0.1776   -1.7604   -4.0070 C   0  0  0  0  0  0  0  0  0  0  0  0
   -0.8854   -2.2279   -4.6851 H   0  0  0  0  0  0  0  0  0  0  0  0
   -0.5182   -0.5766   -3.3436 C   0  0  0  0  0  0  0  0  0  0  0  0
   -1.4921   -0.1323   -3.5206 H   0  0  0  0  0  0  0  0  0  0  0  0
   -0.5123    2.3607    0.4653 C   0  0  0  0  0  0  0  0  0  0  0  0
    0.4543    2.7826    1.0845 O   0  0  0  0  0  0  0  0  0  0  0  0
   -1.5976    3.1966    0.2679 N   0  0  0  0  0  0  0  0  0  0  0  0
   -2.4099    2.7883   -0.1819 H   0  0  0  0  0  0  0  0  0  0  0  0
   -1.7274    4.4991    0.9102 C   0  0  0  0  0  0  0  0  0  0  0  0
   -0.8859    5.1456    0.6396 H   0  0  0  0  0  0  0  0  0  0  0  0
   -2.6526    4.9880    0.5908 H   0  0  0  0  0  0  0  0  0  0  0  0
   -1.7501    4.3885    1.9993 H   0  0  0  0  0  0  0  0  0  0  0  0
  1  2  1  0  0  0  0
  2  3  1  0  0  0  0
  2  4  1  0  0  0  0
  2  5  1  0  0  0  0
  5  6  2  0  0  0  0
  5  7  1  0  0  0  0
  7  8  1  0  0  0  0
  7  9  1  0  0  0  0
  9 10  1  0  0  0  0
  9 11  1  0  0  0  0
  9 25  1  0  0  0  0
 11 12  1  0  0  0  0
 11 13  1  0  0  0  0
 11 14  1  0  0  0  0
 14 15  1  0  0  0  0
 14 23  2  0  0  0  0
 15 16  1  0  0  0  0
 15 17  2  0  0  0  0
 17 18  1  0  0  0  0
 17 19  1  0  0  0  0
 19 20  1  0  0  0  0
 19 21  2  0  0  0  0
 21 22  1  0  0  0  0
 21 23  1  0  0  0  0
 23 24  1  0  0  0  0
 25 26  2  0  0  0  0
 25 27  1  0  0  0  0
 27 28  1  0  0  0  0
 27 29  1  0  0  0  0
 29 30  1  0  0  0  0
 29 31  1  0  0  0  0
 29 32  1  0  0  0  0
M  END
$$$$

  -OEChem-01062216093D

 32 32  0     1  0  0  0  0  0999 V2000
   -3.0570   -2.6136    0.8093 H   0  0  0  0  0  0  0  0  0  0  0  0
   -3.0486   -1.7649    0.1192 C   0  0  0  0  0  0  0  0  0  0  0  0
   -4.0030   -1.2386    0.1967 H   0  0  0  0  0  0  0  0  0  0  0  0
   -2.9270   -2.1424   -0.8991 H   0  0  0  0  0  0  0  0  0  0  0  0
   -1.9075   -0.8256    0.4612 C   0  0  0  0  0  0  0  0  0  0  0  0
   -1.2050   -1.0539    1.4308 O   0  0  0  0  0  0  0  0  0  0  0  0
   -1.6875    0.2918   -0.3204 N   0  0  0  0  0  0  0  0  0  0  0  0
   -2.2227    0.3257   -1.1820 H   0  0  0  0  0  0  0  0  0  0  0  0
   -0.4096    1.0316   -0.2987 C   0  0  1  0  0  0  0  0  0  0  0  0
    0.3691    0.4355    0.1910 H   0  0  0  0  0  0  0  0  0  0  0  0
    0.0332    1.3166   -1.7440 C   0  0  0  0  0  0  0  0  0  0  0  0
   -0.7574    1.8511   -2.2802 H   0  0  0  0  0  0  0  0  0  0  0  0
    0.9129    1.9699   -1.7326 H   0  0  0  0  0  0  0  0  0  0  0  0
    0.3872    0.0371   -2.4639 C   0  0  0  0  0  0  0  0  0  0  0  0
    1.6447   -0.5540   -2.2747 C   0  0  0  0  0  0  0  0  0  0  0  0
    2.3661   -0.0941   -1.6048 H   0  0  0  0  0  0  0  0  0  0  0  0
    1.9763   -1.7431   -2.9328 C   0  0  0  0  0  0  0  0  0  0  0  0
    2.9497   -2.1973   -2.7721 H   0  0  0  0  0  0  0  0  0  0  0  0
    1.0549   -2.3470   -3.7937 C   0  0  0  0  0  0  0  0  0  0  0  0
    1.3130   -3.2708   -4.3034 H   0  0  0  0  0  0  0  0  0  0  0  0
   -0.1965   -1.7583   -3.9990 C   0  0  0  0  0  0  0  0  0  0  0  0
   -0.9087   -2.2234   -4.6742 H   0  0  0  0  0  0  0  0  0  0  0  0
   -0.5277   -0.5702   -3.3384 C   0  0  0  0  0  0  0  0  0  0  0  0
   -1.4990   -0.1195   -3.5140 H   0  0  0  0  0  0  0  0  0  0  0  0
   -0.5052    2.3632    0.4700 C   0  0  0  0  0  0  0  0  0  0  0  0
    0.5127    2.9062    0.8774 O   0  0  0  0  0  0  0  0  0  0  0  0
   -1.7008    3.0577    0.5153 N   0  0  0  0  0  0  0  0  0  0  0  0
   -2.5325    2.5349    0.2604 H   0  0  0  0  0  0  0  0  0  0  0  0
   -1.8538    4.3341    1.2026 C   0  0  0  0  0  0  0  0  0  0  0  0
   -1.1780    5.0825    0.7753 H   0  0  0  0  0  0  0  0  0  0  0  0
   -2.8802    4.6990    1.0993 H   0  0  0  0  0  0  0  0  0  0  0  0
   -1.6292    4.2247    2.2688 H   0  0  0  0  0  0  0  0  0  0  0  0
  1  2  1  0  0  0  0
  2  3  1  0  0  0  0
  2  4  1  0  0  0  0
  2  5  1  0  0  0  0
  5  6  2  0  0  0  0
  5  7  1  0  0  0  0
  7  8  1  0  0  0  0
  7  9  1  0  0  0  0
  9 10  1  0  0  0  0
  9 11  1  0  0  0  0
  9 25  1  0  0  0  0
 11 12  1  0  0  0  0
 11 13  1  0  0  0  0
 11 14  1  0  0  0  0
 14 15  1  0  0  0  0
 14 23  2  0  0  0  0
 15 16  1  0  0  0  0
 15 17  2  0  0  0  0
 17 18  1  0  0  0  0
 17 19  1  0  0  0  0
 19 20  1  0  0  0  0
 19 21  2  0  0  0  0
 21 22  1  0  0  0  0
 21 23  1  0  0  0  0
 23 24  1  0  0  0  0
 25 26  2  0  0  0  0
 25 27  1  0  0  0  0
 27 28  1  0  0  0  0
 27 29  1  0  0  0  0
 29 30  1  0  0  0  0
 29 31  1  0  0  0  0
 29 32  1  0  0  0  0
M  END
$$$$

  -OEChem-01062216093D

 32 32  0     1  0  0  0  0  0999 V2000
   -3.0609   -2.6005    0.8011 H   0  0  0  0  0  0  0  0  0  0  0  0
   -3.0376   -1.7644    0.0963 C   0  0  0  0  0  0  0  0  0  0  0  0
   -3.9940   -1.2382    0.1421 H   0  0  0  0  0  0  0  0  0  0  0  0
   -2.8932   -2.1602   -0.9121 H   0  0  0  0  0  0  0  0  0  0  0  0
   -1.9053   -0.8179    0.4482 C   0  0  0  0  0  0  0  0  0  0  0  0
   -1.2160   -1.0333    1.4304 O   0  0  0  0  0  0  0  0  0  0  0  0
   -1.6840    0.3008   -0.3306 N   0  0  0  0  0  0  0  0  0  0  0  0
   -2.2166    0.3383   -1.1940 H   0  0  0  0  0  0  0  0  0  0  0  0
   -0.4055    1.0406   -0.3052 C   0  0  1  0  0  0  0  0  0  0  0  0
    0.3727    0.4446    0.1849 H   0  0  0  0  0  0  0  0  0  0  0  0
    0.0323    1.3170   -1.7547 C   0  0  0  0  0  0  0  0  0  0  0  0
   -0.7597    1.8491   -2.2913 H   0  0  0  0  0  0  0  0  0  0  0  0
    0.9134    1.9684   -1.7539 H   0  0  0  0  0  0  0  0  0  0  0  0
    0.3834    0.0328   -2.4675 C   0  0  0  0  0  0  0  0  0  0  0  0
    1.6416   -0.5566   -2.2783 C   0  0  0  0  0  0  0  0  0  0  0  0
    2.3646   -0.0917   -1.6137 H   0  0  0  0  0  0  0  0  0  0  0  0
    1.9729   -1.7482   -2.9316 C   0  0  0  0  0  0  0  0  0  0  0  0
    2.9477   -2.1999   -2.7725 H   0  0  0  0  0  0  0  0  0  0  0  0
    1.0502   -2.3569   -3.7874 C   0  0  0  0  0  0  0  0  0  0  0  0
    1.3089   -3.2817   -4.2948 H   0  0  0  0  0  0  0  0  0  0  0  0
   -0.2025   -1.7707   -3.9922 C   0  0  0  0  0  0  0  0  0  0  0  0
   -0.9152   -2.2393   -4.6645 H   0  0  0  0  0  0  0  0  0  0  0  0
   -0.5333   -0.5798   -3.3363 C   0  0  0  0  0  0  0  0  0  0  0  0
   -1.5048   -0.1297   -3.5124 H   0  0  0  0  0  0  0  0  0  0  0  0
   -0.4997    2.3724    0.4664 C   0  0  0  0  0  0  0  0  0  0  0  0
    0.5108    3.0284    0.6817 O   0  0  0  0  0  0  0  0  0  0  0  0
   -1.7331    2.9143    0.7792 N   0  0  0  0  0  0  0  0  0  0  0  0
   -2.5269    2.2875    0.6915 H   0  0  0  0  0  0  0  0  0  0  0  0
   -1.8918    4.1507    1.5346 C   0  0  0  0  0  0  0  0  0  0  0  0
   -1.4108    4.9841    1.0118 H   0  0  0  0  0  0  0  0  0  0  0  0
   -2.9536    4.3865    1.6546 H   0  0  0  0  0  0  0  0  0  0  0  0
   -1.4428    4.0523    2.5285 H   0  0  0  0  0  0  0  0  0  0  0  0
  1  2  1  0  0  0  0
  2  3  1  0  0  0  0
  2  4  1  0  0  0  0
  2  5  1  0  0  0  0
  5  6  2  0  0  0  0
  5  7  1  0  0  0  0
  7  8  1  0  0  0  0
  7  9  1  0  0  0  0
  9 10  1  0  0  0  0
  9 11  1  0  0  0  0
  9 25  1  0  0  0  0
 11 12  1  0  0  0  0
 11 13  1  0  0  0  0
 11 14  1  0  0  0  0
 14 15  1  0  0  0  0
 14 23  2  0  0  0  0
 15 16  1  0  0  0  0
 15 17  2  0  0  0  0
 17 18  1  0  0  0  0
 17 19  1  0  0  0  0
 19 20  1  0  0  0  0
 19 21  2  0  0  0  0
 21 22  1  0  0  0  0
 21 23  1  0  0  0  0
 23 24  1  0  0  0  0
 25 26  2  0  0  0  0
 25 27  1  0  0  0  0
 27 28  1  0  0  0  0
 27 29  1  0  0  0  0
 29 30  1  0  0  0  0
 29 31  1  0  0  0  0
 29 32  1  0  0  0  0
M  END
$$$$

  -OEChem-01062216093D

 32 32  0     1  0  0  0  0  0999 V2000
   -3.0417   -2.6159    0.7528 H   0  0  0  0  0  0  0  0  0  0  0  0
   -3.0462   -1.7486    0.0866 C   0  0  0  0  0  0  0  0  0  0  0  0
   -3.9987   -1.2247    0.1970 H   0  0  0  0  0  0  0  0  0  0  0  0
   -2.9461   -2.0986   -0.9439 H   0  0  0  0  0  0  0  0  0  0  0  0
   -1.8984   -0.8187    0.4324 C   0  0  0  0  0  0  0  0  0  0  0  0
   -1.2074   -1.0409    1.4119 O   0  0  0  0  0  0  0  0  0  0  0  0
   -1.6729    0.3051   -0.3372 N   0  0  0  0  0  0  0  0  0  0  0  0
   -2.2225    0.3697   -1.1884 H   0  0  0  0  0  0  0  0  0  0  0  0
   -0.3950    1.0467   -0.3087 C   0  0  1  0  0  0  0  0  0  0  0  0
    0.3840    0.4508    0.1801 H   0  0  0  0  0  0  0  0  0  0  0  0
    0.0383    1.3174   -1.7624 C   0  0  0  0  0  0  0  0  0  0  0  0
   -0.7560    1.8471   -2.2977 H   0  0  0  0  0  0  0  0  0  0  0  0
    0.9188    1.9692   -1.7704 H   0  0  0  0  0  0  0  0  0  0  0  0
    0.3891    0.0306   -2.4720 C   0  0  0  0  0  0  0  0  0  0  0  0
    1.6485   -0.5576   -2.2860 C   0  0  0  0  0  0  0  0  0  0  0  0
    2.3754   -0.0899   -1.6276 H   0  0  0  0  0  0  0  0  0  0  0  0
    1.9775   -1.7516   -2.9363 C   0  0  0  0  0  0  0  0  0  0  0  0
    2.9540   -2.2009   -2.7806 H   0  0  0  0  0  0  0  0  0  0  0  0
    1.0510   -2.3645   -3.7850 C   0  0  0  0  0  0  0  0  0  0  0  0
    1.3080   -3.2910   -4.2904 H   0  0  0  0  0  0  0  0  0  0  0  0
   -0.2034   -1.7803   -3.9856 C   0  0  0  0  0  0  0  0  0  0  0  0
   -0.9202   -2.2517   -4.6514 H   0  0  0  0  0  0  0  0  0  0  0  0
   -0.5314   -0.5867   -3.3336 C   0  0  0  0  0  0  0  0  0  0  0  0
   -1.5046   -0.1387   -3.5062 H   0  0  0  0  0  0  0  0  0  0  0  0
   -0.4953    2.3751    0.4726 C   0  0  0  0  0  0  0  0  0  0  0  0
    0.4527    3.1491    0.5034 O   0  0  0  0  0  0  0  0  0  0  0  0
   -1.6907    2.7557    1.0548 N   0  0  0  0  0  0  0  0  0  0  0  0
   -2.4027    2.0338    1.1151 H   0  0  0  0  0  0  0  0  0  0  0  0
   -1.8437    3.9667    1.8511 C   0  0  0  0  0  0  0  0  0  0  0  0
   -1.5839    4.8506    1.2589 H   0  0  0  0  0  0  0  0  0  0  0  0
   -2.8801    4.0702    2.1862 H   0  0  0  0  0  0  0  0  0  0  0  0
   -1.1950    3.9295    2.7324 H   0  0  0  0  0  0  0  0  0  0  0  0
  1  2  1  0  0  0  0
  2  3  1  0  0  0  0
  2  4  1  0  0  0  0
  2  5  1  0  0  0  0
  5  6  2  0  0  0  0
  5  7  1  0  0  0  0
  7  8  1  0  0  0  0
  7  9  1  0  0  0  0
  9 10  1  0  0  0  0
  9 11  1  0  0  0  0
  9 25  1  0  0  0  0
 11 12  1  0  0  0  0
 11 13  1  0  0  0  0
 11 14  1  0  0  0  0
 14 15  1  0  0  0  0
 14 23  2  0  0  0  0
 15 16  1  0  0  0  0
 15 17  2  0  0  0  0
 17 18  1  0  0  0  0
 17 19  1  0  0  0  0
 19 20  1  0  0  0  0
 19 21  2  0  0  0  0
 21 22  1  0  0  0  0
 21 23  1  0  0  0  0
 23 24  1  0  0  0  0
 25 26  2  0  0  0  0
 25 27  1  0  0  0  0
 27 28  1  0  0  0  0
 27 29  1  0  0  0  0
 29 30  1  0  0  0  0
 29 31  1  0  0  0  0
 29 32  1  0  0  0  0
M  END
$$$$

  -OEChem-01062216093D

 32 32  0     1  0  0  0  0  0999 V2000
   -3.0178   -2.6125    0.7220 H   0  0  0  0  0  0  0  0  0  0  0  0
   -3.0256   -1.7449    0.0561 C   0  0  0  0  0  0  0  0  0  0  0  0
   -3.9874   -1.2351    0.1509 H   0  0  0  0  0  0  0  0  0  0  0  0
   -2.9039   -2.0925   -0.9727 H   0  0  0  0  0  0  0  0  0  0  0  0
   -1.8970   -0.7990    0.4197 C   0  0  0  0  0  0  0  0  0  0  0  0
   -1.2234   -1.0035    1.4154 O   0  0  0  0  0  0  0  0  0  0  0  0
   -1.6728    0.3281   -0.3437 N   0  0  0  0  0  0  0  0  0  0  0  0
   -2.2242    0.3986   -1.1933 H   0  0  0  0  0  0  0  0  0  0  0  0
   -0.3925    1.0643   -0.3168 C   0  0  1  0  0  0  0  0  0  0  0  0
    0.3839    0.4651    0.1717 H   0  0  0  0  0  0  0  0  0  0  0  0
    0.0411    1.3233   -1.7737 C   0  0  0  0  0  0  0  0  0  0  0  0
   -0.7516    1.8531   -2.3113 H   0  0  0  0  0  0  0  0  0  0  0  0
    0.9261    1.9687   -1.7899 H   0  0  0  0  0  0  0  0  0  0  0  0
    0.3854    0.0293   -2.4735 C   0  0  0  0  0  0  0  0  0  0  0  0
    1.6422   -0.5637   -2.2840 C   0  0  0  0  0  0  0  0  0  0  0  0
    2.3705   -0.0947   -1.6283 H   0  0  0  0  0  0  0  0  0  0  0  0
    1.9658   -1.7630   -2.9274 C   0  0  0  0  0  0  0  0  0  0  0  0
    2.9397   -2.2170   -2.7692 H   0  0  0  0  0  0  0  0  0  0  0  0
    1.0367   -2.3764   -3.7731 C   0  0  0  0  0  0  0  0  0  0  0  0
    1.2896   -3.3065   -4.2741 H   0  0  0  0  0  0  0  0  0  0  0  0
   -0.2152   -1.7882   -3.9761 C   0  0  0  0  0  0  0  0  0  0  0  0
   -0.9335   -2.2611   -4.6393 H   0  0  0  0  0  0  0  0  0  0  0  0
   -0.5382   -0.5895   -3.3308 C   0  0  0  0  0  0  0  0  0  0  0  0
   -1.5095   -0.1382   -3.5053 H   0  0  0  0  0  0  0  0  0  0  0  0
   -0.4942    2.3872    0.4772 C   0  0  0  0  0  0  0  0  0  0  0  0
    0.3383    3.2737    0.3330 O   0  0  0  0  0  0  0  0  0  0  0  0
   -1.5718    2.6136    1.3139 N   0  0  0  0  0  0  0  0  0  0  0  0
   -2.1529    1.8034    1.5133 H   0  0  0  0  0  0  0  0  0  0  0  0
   -1.6978    3.7968    2.1557 C   0  0  0  0  0  0  0  0  0  0  0  0
   -1.6939    4.7046    1.5433 H   0  0  0  0  0  0  0  0  0  0  0  0
   -2.6371    3.7636    2.7157 H   0  0  0  0  0  0  0  0  0  0  0  0
   -0.8692    3.8496    2.8695 H   0  0  0  0  0  0  0  0  0  0  0  0
  1  2  1  0  0  0  0
  2  3  1  0  0  0  0
  2  4  1  0  0  0  0
  2  5  1  0  0  0  0
  5  6  2  0  0  0  0
  5  7  1  0  0  0  0
  7  8  1  0  0  0  0
  7  9  1  0  0  0  0
  9 10  1  0  0  0  0
  9 11  1  0  0  0  0
  9 25  1  0  0  0  0
 11 12  1  0  0  0  0
 11 13  1  0  0  0  0
 11 14  1  0  0  0  0
 14 15  1  0  0  0  0
 14 23  2  0  0  0  0
 15 16  1  0  0  0  0
 15 17  2  0  0  0  0
 17 18  1  0  0  0  0
 17 19  1  0  0  0  0
 19 20  1  0  0  0  0
 19 21  2  0  0  0  0
 21 22  1  0  0  0  0
 21 23  1  0  0  0  0
 23 24  1  0  0  0  0
 25 26  2  0  0  0  0
 25 27  1  0  0  0  0
 27 28  1  0  0  0  0
 27 29  1  0  0  0  0
 29 30  1  0  0  0  0
 29 31  1  0  0  0  0
 29 32  1  0  0  0  0
M  END
$$$$

  -OEChem-01062216093D

 32 32  0     1  0  0  0  0  0999 V2000
   -3.0081   -2.5858    0.7173 H   0  0  0  0  0  0  0  0  0  0  0  0
   -2.9980   -1.7321    0.0338 C   0  0  0  0  0  0  0  0  0  0  0  0
   -3.9648   -1.2258    0.0861 H   0  0  0  0  0  0  0  0  0  0  0  0
   -2.8401   -2.0998   -0.9832 H   0  0  0  0  0  0  0  0  0  0  0  0
   -1.8868   -0.7721    0.4136 C   0  0  0  0  0  0  0  0  0  0  0  0
   -1.2336   -0.9553    1.4277 O   0  0  0  0  0  0  0  0  0  0  0  0
   -1.6621    0.3566   -0.3456 N   0  0  0  0  0  0  0  0  0  0  0  0
   -2.2142    0.4308   -1.1945 H   0  0  0  0  0  0  0  0  0  0  0  0
   -0.3770    1.0824   -0.3237 C   0  0  1  0  0  0  0  0  0  0  0  0
    0.3973    0.4787    0.1623 H   0  0  0  0  0  0  0  0  0  0  0  0
    0.0559    1.3356   -1.7823 C   0  0  0  0  0  0  0  0  0  0  0  0
   -0.7327    1.8718   -2.3198 H   0  0  0  0  0  0  0  0  0  0  0  0
    0.9468    1.9727   -1.8004 H   0  0  0  0  0  0  0  0  0  0  0  0
    0.3877    0.0353   -2.4768 C   0  0  0  0  0  0  0  0  0  0  0  0
    1.6392   -0.5689   -2.2876 C   0  0  0  0  0  0  0  0  0  0  0  0
    2.3761   -0.1023   -1.6399 H   0  0  0  0  0  0  0  0  0  0  0  0
    1.9462   -1.7784   -2.9199 C   0  0  0  0  0  0  0  0  0  0  0  0
    2.9160   -2.2410   -2.7618 H   0  0  0  0  0  0  0  0  0  0  0  0
    1.0063   -2.3908   -3.7542 C   0  0  0  0  0  0  0  0  0  0  0  0
    1.2463   -3.3295   -4.2452 H   0  0  0  0  0  0  0  0  0  0  0  0
   -0.2392   -1.7899   -3.9594 C   0  0  0  0  0  0  0  0  0  0  0  0
   -0.9657   -2.2608   -4.6151 H   0  0  0  0  0  0  0  0  0  0  0  0
   -0.5459   -0.5810   -3.3251 C   0  0  0  0  0  0  0  0  0  0  0  0
   -1.5130   -0.1206   -3.5009 H   0  0  0  0  0  0  0  0  0  0  0  0
   -0.4841    2.3968    0.4831 C   0  0  0  0  0  0  0  0  0  0  0  0
    0.1671    3.3894    0.1817 O   0  0  0  0  0  0  0  0  0  0  0  0
   -1.3759    2.4754    1.5366 N   0  0  0  0  0  0  0  0  0  0  0  0
   -1.7825    1.5915    1.8375 H   0  0  0  0  0  0  0  0  0  0  0  0
   -1.4910    3.6387    2.4066 C   0  0  0  0  0  0  0  0  0  0  0  0
   -1.7510    4.5286    1.8238 H   0  0  0  0  0  0  0  0  0  0  0  0
   -2.2742    3.4758    3.1531 H   0  0  0  0  0  0  0  0  0  0  0  0
   -0.5459    3.8225    2.9283 H   0  0  0  0  0  0  0  0  0  0  0  0
  1  2  1  0  0  0  0
  2  3  1  0  0  0  0
  2  4  1  0  0  0  0
  2  5  1  0  0  0  0
  5  6  2  0  0  0  0
  5  7  1  0  0  0  0
  7  8  1  0  0  0  0
  7  9  1  0  0  0  0
  9 10  1  0  0  0  0
  9 11  1  0  0  0  0
  9 25  1  0  0  0  0
 11 12  1  0  0  0  0
 11 13  1  0  0  0  0
 11 14  1  0  0  0  0
 14 15  1  0  0  0  0
 14 23  2  0  0  0  0
 15 16  1  0  0  0  0
 15 17  2  0  0  0  0
 17 18  1  0  0  0  0
 17 19  1  0  0  0  0
 19 20  1  0  0  0  0
 19 21  2  0  0  0  0
 21 22  1  0  0  0  0
 21 23  1  0  0  0  0
 23 24  1  0  0  0  0
 25 26  2  0  0  0  0
 25 27  1  0  0  0  0
 27 28  1  0  0  0  0
 27 29  1  0  0  0  0
 29 30  1  0  0  0  0
 29 31  1  0  0  0  0
 29 32  1  0  0  0  0
M  END
$$$$

  -OEChem-01062216093D

 32 32  0     1  0  0  0  0  0999 V2000
   -3.0255   -2.5421    0.7643 H   0  0  0  0  0  0  0  0  0  0  0  0
   -3.0157   -1.6898    0.0792 C   0  0  0  0  0  0  0  0  0  0  0  0
   -3.9676   -1.1598    0.1610 H   0  0  0  0  0  0  0  0  0  0  0  0
   -2.8983   -2.0615   -0.9417 H   0  0  0  0  0  0  0  0  0  0  0  0
   -1.8712   -0.7568    0.4246 C   0  0  0  0  0  0  0  0  0  0  0  0
   -1.1998   -0.9469    1.4266 O   0  0  0  0  0  0  0  0  0  0  0  0
   -1.6432    0.3680   -0.3389 N   0  0  0  0  0  0  0  0  0  0  0  0
   -2.2179    0.4636   -1.1705 H   0  0  0  0  0  0  0  0  0  0  0  0
   -0.3539    1.0842   -0.3294 C   0  0  1  0  0  0  0  0  0  0  0  0
    0.4213    0.4800    0.1544 H   0  0  0  0  0  0  0  0  0  0  0  0
    0.0801    1.3352   -1.7875 C   0  0  0  0  0  0  0  0  0  0  0  0
   -0.7058    1.8763   -2.3245 H   0  0  0  0  0  0  0  0  0  0  0  0
    0.9738    1.9686   -1.8024 H   0  0  0  0  0  0  0  0  0  0  0  0
    0.4034    0.0345   -2.4845 C   0  0  0  0  0  0  0  0  0  0  0  0
    1.6513   -0.5777   -2.2970 C   0  0  0  0  0  0  0  0  0  0  0  0
    2.3917   -0.1164   -1.6497 H   0  0  0  0  0  0  0  0  0  0  0  0
    1.9514   -1.7872   -2.9325 C   0  0  0  0  0  0  0  0  0  0  0  0
    2.9187   -2.2560   -2.7767 H   0  0  0  0  0  0  0  0  0  0  0  0
    1.0070   -2.3919   -3.7674 C   0  0  0  0  0  0  0  0  0  0  0  0
    1.2408   -3.3306   -4.2612 H   0  0  0  0  0  0  0  0  0  0  0  0
   -0.2355   -1.7838   -3.9696 C   0  0  0  0  0  0  0  0  0  0  0  0
   -0.9659   -2.2490   -4.6251 H   0  0  0  0  0  0  0  0  0  0  0  0
   -0.5345   -0.5746   -3.3327 C   0  0  0  0  0  0  0  0  0  0  0  0
   -1.4990   -0.1078   -3.5051 H   0  0  0  0  0  0  0  0  0  0  0  0
   -0.4689    2.3945    0.4792 C   0  0  0  0  0  0  0  0  0  0  0  0
   -0.0394    3.4611    0.0567 O   0  0  0  0  0  0  0  0  0  0  0  0
   -1.1139    2.3612    1.7009 N   0  0  0  0  0  0  0  0  0  0  0  0
   -1.3709    1.4368    2.0466 H   0  0  0  0  0  0  0  0  0  0  0  0
   -1.2414    3.5138    2.5823 C   0  0  0  0  0  0  0  0  0  0  0  0
   -1.7676    4.3283    2.0738 H   0  0  0  0  0  0  0  0  0  0  0  0
   -1.8092    3.2431    3.4776 H   0  0  0  0  0  0  0  0  0  0  0  0
   -0.2534    3.8702    2.8914 H   0  0  0  0  0  0  0  0  0  0  0  0
  1  2  1  0  0  0  0
  2  3  1  0  0  0  0
  2  4  1  0  0  0  0
  2  5  1  0  0  0  0
  5  6  2  0  0  0  0
  5  7  1  0  0  0  0
  7  8  1  0  0  0  0
  7  9  1  0  0  0  0
  9 10  1  0  0  0  0
  9 11  1  0  0  0  0
  9 25  1  0  0  0  0
 11 12  1  0  0  0  0
 11 13  1  0  0  0  0
 11 14  1  0  0  0  0
 14 15  1  0  0  0  0
 14 23  2  0  0  0  0
 15 16  1  0  0  0  0
 15 17  2  0  0  0  0
 17 18  1  0  0  0  0
 17 19  1  0  0  0  0
 19 20  1  0  0  0  0
 19 21  2  0  0  0  0
 21 22  1  0  0  0  0
 21 23  1  0  0  0  0
 23 24  1  0  0  0  0
 25 26  2  0  0  0  0
 25 27  1  0  0  0  0
 27 28  1  0  0  0  0
 27 29  1  0  0  0  0
 29 30  1  0  0  0  0
 29 31  1  0  0  0  0
 29 32  1  0  0  0  0
M  END
$$$$

  -OEChem-01062216093D

 32 32  0     1  0  0  0  0  0999 V2000
   -3.0249   -2.5167    0.7870 H   0  0  0  0  0  0  0  0  0  0  0  0
   -3.0131   -1.6622    0.1045 C   0  0  0  0  0  0  0  0  0  0  0  0
   -3.9581   -1.1216    0.1982 H   0  0  0  0  0  0  0  0  0  0  0  0
   -2.9116   -2.0322   -0.9187 H   0  0  0  0  0  0  0  0  0  0  0  0
   -1.8534   -0.7431    0.4382 C   0  0  0  0  0  0  0  0  0  0  0  0
   -1.1646   -0.9499    1.4259 O   0  0  0  0  0  0  0  0  0  0  0  0
   -1.6183    0.3781   -0.3290 N   0  0  0  0  0  0  0  0  0  0  0  0
   -2.2053    0.4908   -1.1497 H   0  0  0  0  0  0  0  0  0  0  0  0
   -0.3242    1.0823   -0.3246 C   0  0  1  0  0  0  0  0  0  0  0  0
    0.4507    0.4745    0.1549 H   0  0  0  0  0  0  0  0  0  0  0  0
    0.1053    1.3325   -1.7836 C   0  0  0  0  0  0  0  0  0  0  0  0
   -0.6793    1.8797   -2.3165 H   0  0  0  0  0  0  0  0  0  0  0  0
    1.0016    1.9624   -1.7981 H   0  0  0  0  0  0  0  0  0  0  0  0
    0.4154    0.0319   -2.4873 C   0  0  0  0  0  0  0  0  0  0  0  0
    1.6595   -0.5906   -2.3083 C   0  0  0  0  0  0  0  0  0  0  0  0
    2.4070   -0.1370   -1.6639 H   0  0  0  0  0  0  0  0  0  0  0  0
    1.9477   -1.7994   -2.9510 C   0  0  0  0  0  0  0  0  0  0  0  0
    2.9130   -2.2747   -2.8037 H   0  0  0  0  0  0  0  0  0  0  0  0
    0.9945   -2.3942   -3.7830 C   0  0  0  0  0  0  0  0  0  0  0  0
    1.2194   -3.3317   -4.2830 H   0  0  0  0  0  0  0  0  0  0  0  0
   -0.2460   -1.7783   -3.9728 C   0  0  0  0  0  0  0  0  0  0  0  0
   -0.9847   -2.2372   -4.6235 H   0  0  0  0  0  0  0  0  0  0  0  0
   -0.5330   -0.5696   -3.3292 C   0  0  0  0  0  0  0  0  0  0  0  0
   -1.4966   -0.0969   -3.4908 H   0  0  0  0  0  0  0  0  0  0  0  0
   -0.4375    2.3913    0.4825 C   0  0  0  0  0  0  0  0  0  0  0  0
   -0.2397    3.4910   -0.0205 O   0  0  0  0  0  0  0  0  0  0  0  0
   -0.7929    2.3052    1.8146 N   0  0  0  0  0  0  0  0  0  0  0  0
   -0.9603    1.3676    2.1813 H   0  0  0  0  0  0  0  0  0  0  0  0
   -0.9547    3.4584    2.6895 C   0  0  0  0  0  0  0  0  0  0  0  0
   -1.7384    4.1214    2.3085 H   0  0  0  0  0  0  0  0  0  0  0  0
   -1.2363    3.1324    3.6954 H   0  0  0  0  0  0  0  0  0  0  0  0
   -0.0179    4.0215    2.7573 H   0  0  0  0  0  0  0  0  0  0  0  0
  1  2  1  0  0  0  0
  2  3  1  0  0  0  0
  2  4  1  0  0  0  0
  2  5  1  0  0  0  0
  5  6  2  0  0  0  0
  5  7  1  0  0  0  0
  7  8  1  0  0  0  0
  7  9  1  0  0  0  0
  9 10  1  0  0  0  0
  9 11  1  0  0  0  0
  9 25  1  0  0  0  0
 11 12  1  0  0  0  0
 11 13  1  0  0  0  0
 11 14  1  0  0  0  0
 14 15  1  0  0  0  0
 14 23  2  0  0  0  0
 15 16  1  0  0  0  0
 15 17  2  0  0  0  0
 17 18  1  0  0  0  0
 17 19  1  0  0  0  0
 19 20  1  0  0  0  0
 19 21  2  0  0  0  0
 21 22  1  0  0  0  0
 21 23  1  0  0  0  0
 23 24  1  0  0  0  0
 25 26  2  0  0  0  0
 25 27  1  0  0  0  0
 27 28  1  0  0  0  0
 27 29  1  0  0  0  0
 29 30  1  0  0  0  0
 29 31  1  0  0  0  0
 29 32  1  0  0  0  0
M  END
$$$$

  -OEChem-01062216093D

 32 32  0     1  0  0  0  0  0999 V2000
   -3.0495   -2.4793    0.8395 H   0  0  0  0  0  0  0  0  0  0  0  0
   -3.0344   -1.6265    0.1553 C   0  0  0  0  0  0  0  0  0  0  0  0
   -3.9577   -1.0563    0.2811 H   0  0  0  0  0  0  0  0  0  0  0  0
   -2.9799   -2.0001   -0.8701 H   0  0  0  0  0  0  0  0  0  0  0  0
   -1.8358   -0.7440    0.4467 C   0  0  0  0  0  0  0  0  0  0  0  0
   -1.1103   -0.9835    1.4007 O   0  0  0  0  0  0  0  0  0  0  0  0
   -1.5969    0.3733   -0.3256 N   0  0  0  0  0  0  0  0  0  0  0  0
   -2.2142    0.5223   -1.1178 H   0  0  0  0  0  0  0  0  0  0  0  0
   -0.3023    1.0732   -0.3276 C   0  0  1  0  0  0  0  0  0  0  0  0
    0.4754    0.4659    0.1480 H   0  0  0  0  0  0  0  0  0  0  0  0
    0.1256    1.3273   -1.7859 C   0  0  0  0  0  0  0  0  0  0  0  0
   -0.6602    1.8754   -2.3165 H   0  0  0  0  0  0  0  0  0  0  0  0
    1.0209    1.9582   -1.7982 H   0  0  0  0  0  0  0  0  0  0  0  0
    0.4316    0.0289   -2.4953 C   0  0  0  0  0  0  0  0  0  0  0  0
    1.6741   -0.5985   -2.3217 C   0  0  0  0  0  0  0  0  0  0  0  0
    2.4243   -0.1517   -1.6761 H   0  0  0  0  0  0  0  0  0  0  0  0
    1.9571   -1.8051   -2.9705 C   0  0  0  0  0  0  0  0  0  0  0  0
    2.9210   -2.2844   -2.8266 H   0  0  0  0  0  0  0  0  0  0  0  0
    1.0004   -2.3931   -3.8032 C   0  0  0  0  0  0  0  0  0  0  0  0
    1.2211   -3.3295   -4.3073 H   0  0  0  0  0  0  0  0  0  0  0  0
   -0.2381   -1.7716   -3.9889 C   0  0  0  0  0  0  0  0  0  0  0  0
   -0.9796   -2.2242   -4.6408 H   0  0  0  0  0  0  0  0  0  0  0  0
   -0.5198   -0.5650   -3.3392 C   0  0  0  0  0  0  0  0  0  0  0  0
   -1.4818   -0.0880   -3.4973 H   0  0  0  0  0  0  0  0  0  0  0  0
   -0.4170    2.3835    0.4735 C   0  0  0  0  0  0  0  0  0  0  0  0
   -0.4692    3.4795   -0.0722 O   0  0  0  0  0  0  0  0  0  0  0  0
   -0.4587    2.3001    1.8515 N   0  0  0  0  0  0  0  0  0  0  0  0
   -0.5220    1.3615    2.2460 H   0  0  0  0  0  0  0  0  0  0  0  0
   -0.6414    3.4525    2.7232 C   0  0  0  0  0  0  0  0  0  0  0  0
   -1.6098    3.9265    2.5324 H   0  0  0  0  0  0  0  0  0  0  0  0
   -0.6063    3.1412    3.7715 H   0  0  0  0  0  0  0  0  0  0  0  0
    0.1515    4.1891    2.5561 H   0  0  0  0  0  0  0  0  0  0  0  0
  1  2  1  0  0  0  0
  2  3  1  0  0  0  0
  2  4  1  0  0  0  0
  2  5  1  0  0  0  0
  5  6  2  0  0  0  0
  5  7  1  0  0  0  0
  7  8  1  0  0  0  0
  7  9  1  0  0  0  0
  9 10  1  0  0  0  0
  9 11  1  0  0  0  0
  9 25  1  0  0  0  0
 11 12  1  0  0  0  0
 11 13  1  0  0  0  0
 11 14  1  0  0  0  0
 14 15  1  0  0  0  0
 14 23  2  0  0  0  0
 15 16  1  0  0  0  0
 15 17  2  0  0  0  0
 17 18  1  0  0  0  0
 17 19  1  0  0  0  0
 19 20  1  0  0  0  0
 19 21  2  0  0  0  0
 21 22  1  0  0  0  0
 21 23  1  0  0  0  0
 23 24  1  0  0  0  0
 25 26  2  0  0  0  0
 25 27  1  0  0  0  0
 27 28  1  0  0  0  0
 27 29  1  0  0  0  0
 29 30  1  0  0  0  0
 29 31  1  0  0  0  0
 29 32  1  0  0  0  0
M  END
$$$$

  -OEChem-01062216093D

 32 32  0     1  0  0  0  0  0999 V2000
   -3.1173   -2.4428    0.8970 H   0  0  0  0  0  0  0  0  0  0  0  0
   -3.0974   -1.5808    0.2242 C   0  0  0  0  0  0  0  0  0  0  0  0
   -3.9733   -0.9583    0.4223 H   0  0  0  0  0  0  0  0  0  0  0  0
   -3.1374   -1.9393   -0.8073 H   0  0  0  0  0  0  0  0  0  0  0  0
   -1.8299   -0.7764    0.4422 C   0  0  0  0  0  0  0  0  0  0  0  0
   -1.0524   -1.0842    1.3334 O   0  0  0  0  0  0  0  0  0  0  0  0
   -1.5831    0.3404   -0.3287 N   0  0  0  0  0  0  0  0  0  0  0  0
   -2.2586    0.5690   -1.0516 H   0  0  0  0  0  0  0  0  0  0  0  0
   -0.2946    1.0493   -0.3334 C   0  0  1  0  0  0  0  0  0  0  0  0
    0.4875    0.4450    0.1384 H   0  0  0  0  0  0  0  0  0  0  0  0
    0.1325    1.3135   -1.7895 C   0  0  0  0  0  0  0  0  0  0  0  0
   -0.6585    1.8553   -2.3186 H   0  0  0  0  0  0  0  0  0  0  0  0
    1.0207    1.9540   -1.7977 H   0  0  0  0  0  0  0  0  0  0  0  0
    0.4499    0.0231   -2.5074 C   0  0  0  0  0  0  0  0  0  0  0  0
    1.6974   -0.5950   -2.3371 C   0  0  0  0  0  0  0  0  0  0  0  0
    2.4426   -0.1472   -1.6867 H   0  0  0  0  0  0  0  0  0  0  0  0
    1.9913   -1.7939   -2.9953 C   0  0  0  0  0  0  0  0  0  0  0  0
    2.9583   -2.2675   -2.8534 H   0  0  0  0  0  0  0  0  0  0  0  0
    1.0406   -2.3826   -3.8346 C   0  0  0  0  0  0  0  0  0  0  0  0
    1.2691   -3.3135   -4.3453 H   0  0  0  0  0  0  0  0  0  0  0  0
   -0.2027   -1.7700   -4.0167 C   0  0  0  0  0  0  0  0  0  0  0  0
   -0.9399   -2.2240   -4.6720 H   0  0  0  0  0  0  0  0  0  0  0  0
   -0.4956   -0.5718   -3.3569 C   0  0  0  0  0  0  0  0  0  0  0  0
   -1.4621   -0.1022   -3.5097 H   0  0  0  0  0  0  0  0  0  0  0  0
   -0.4133    2.3635    0.4598 C   0  0  0  0  0  0  0  0  0  0  0  0
   -0.7360    3.4135   -0.0835 O   0  0  0  0  0  0  0  0  0  0  0  0
   -0.1418    2.3474    1.8142 N   0  0  0  0  0  0  0  0  0  0  0  0
   -0.0272    1.4295    2.2412 H   0  0  0  0  0  0  0  0  0  0  0  0
   -0.3126    3.5089    2.6770 C   0  0  0  0  0  0  0  0  0  0  0  0
   -1.3625    3.8190    2.6982 H   0  0  0  0  0  0  0  0  0  0  0  0
    0.0005    3.2692    3.6976 H   0  0  0  0  0  0  0  0  0  0  0  0
    0.2956    4.3459    2.3182 H   0  0  0  0  0  0  0  0  0  0  0  0
  1  2  1  0  0  0  0
  2  3  1  0  0  0  0
  2  4  1  0  0  0  0
  2  5  1  0  0  0  0
  5  6  2  0  0  0  0
  5  7  1  0  0  0  0
  7  8  1  0  0  0  0
  7  9  1  0  0  0  0
  9 10  1  0  0  0  0
  9 11  1  0  0  0  0
  9 25  1  0  0  0  0
 11 12  1  0  0  0  0
 11 13  1  0  0  0  0
 11 14  1  0  0  0  0
 14 15  1  0  0  0  0
 14 23  2  0  0  0  0
 15 16  1  0  0  0  0
 15 17  2  0  0  0  0
 17 18  1  0  0  0  0
 17 19  1  0  0  0  0
 19 20  1  0  0  0  0
 19 21  2  0  0  0  0
 21 22  1  0  0  0  0
 21 23  1  0  0  0  0
 23 24  1  0  0  0  0
 25 26  2  0  0  0  0
 25 27  1  0  0  0  0
 27 28  1  0  0  0  0
 27 29  1  0  0  0  0
 29 30  1  0  0  0  0
 29 31  1  0  0  0  0
 29 32  1  0  0  0  0
M  END
$$$$

  -OEChem-01062216093D

 32 32  0     1  0  0  0  0  0999 V2000
   -3.1851   -2.4038    0.9604 H   0  0  0  0  0  0  0  0  0  0  0  0
   -3.1610   -1.5307    0.3022 C   0  0  0  0  0  0  0  0  0  0  0  0
   -3.9743   -0.8564    0.5807 H   0  0  0  0  0  0  0  0  0  0  0  0
   -3.3075   -1.8633   -0.7282 H   0  0  0  0  0  0  0  0  0  0  0  0
   -1.8293   -0.8160    0.4300 C   0  0  0  0  0  0  0  0  0  0  0  0
   -1.0039   -1.2020    1.2439 O   0  0  0  0  0  0  0  0  0  0  0  0
   -1.5736    0.3004   -0.3388 N   0  0  0  0  0  0  0  0  0  0  0  0
   -2.3151    0.6372   -0.9461 H   0  0  0  0  0  0  0  0  0  0  0  0
   -0.2912    1.0197   -0.3393 C   0  0  1  0  0  0  0  0  0  0  0  0
    0.4926    0.4195    0.1345 H   0  0  0  0  0  0  0  0  0  0  0  0
    0.1385    1.2939   -1.7919 C   0  0  0  0  0  0  0  0  0  0  0  0
   -0.6558    1.8322   -2.3201 H   0  0  0  0  0  0  0  0  0  0  0  0
    1.0204    1.9428   -1.7926 H   0  0  0  0  0  0  0  0  0  0  0  0
    0.4705    0.0124   -2.5202 C   0  0  0  0  0  0  0  0  0  0  0  0
    1.7232   -0.5968   -2.3530 C   0  0  0  0  0  0  0  0  0  0  0  0
    2.4629   -0.1509   -1.6951 H   0  0  0  0  0  0  0  0  0  0  0  0
    2.0308   -1.7842   -3.0261 C   0  0  0  0  0  0  0  0  0  0  0  0
    3.0022   -2.2503   -2.8888 H   0  0  0  0  0  0  0  0  0  0  0  0
    1.0879   -2.3714   -3.8752 C   0  0  0  0  0  0  0  0  0  0  0  0
    1.3269   -3.2927   -4.3984 H   0  0  0  0  0  0  0  0  0  0  0  0
   -0.1617   -1.7701   -4.0513 C   0  0  0  0  0  0  0  0  0  0  0  0
   -0.8937   -2.2234   -4.7131 H   0  0  0  0  0  0  0  0  0  0  0  0
   -0.4677   -0.5831   -3.3772 C   0  0  0  0  0  0  0  0  0  0  0  0
   -1.4398   -0.1226   -3.5234 H   0  0  0  0  0  0  0  0  0  0  0  0
   -0.4176    2.3386    0.4452 C   0  0  0  0  0  0  0  0  0  0  0  0
   -0.9965    3.3036   -0.0404 O   0  0  0  0  0  0  0  0  0  0  0  0
    0.1330    2.4374    1.7089 N   0  0  0  0  0  0  0  0  0  0  0  0
    0.4629    1.5723    2.1311 H   0  0  0  0  0  0  0  0  0  0  0  0
   -0.0160    3.6166    2.5526 C   0  0  0  0  0  0  0  0  0  0  0  0
   -1.0732    3.8031    2.7683 H   0  0  0  0  0  0  0  0  0  0  0  0
    0.5113    3.4716    3.5003 H   0  0  0  0  0  0  0  0  0  0  0  0
    0.4033    4.4982    2.0565 H   0  0  0  0  0  0  0  0  0  0  0  0
  1  2  1  0  0  0  0
  2  3  1  0  0  0  0
  2  4  1  0  0  0  0
  2  5  1  0  0  0  0
  5  6  2  0  0  0  0
  5  7  1  0  0  0  0
  7  8  1  0  0  0  0
  7  9  1  0  0  0  0
  9 10  1  0  0  0  0
  9 11  1  0  0  0  0
  9 25  1  0  0  0  0
 11 12  1  0  0  0  0
 11 13  1  0  0  0  0
 11 14  1  0  0  0  0
 14 15  1  0  0  0  0
 14 23  2  0  0  0  0
 15 16  1  0  0  0  0
 15 17  2  0  0  0  0
 17 18  1  0  0  0  0
 17 19  1  0  0  0  0
 19 20  1  0  0  0  0
 19 21  2  0  0  0  0
 21 22  1  0  0  0  0
 21 23  1  0  0  0  0
 23 24  1  0  0  0  0
 25 26  2  0  0  0  0
 25 27  1  0  0  0  0
 27 28  1  0  0  0  0
 27 29  1  0  0  0  0
 29 30  1  0  0  0  0
 29 31  1  0  0  0  0
 29 32  1  0  0  0  0
M  END
$$$$

  -OEChem-01062216093D

 32 32  0     1  0  0  0  0  0999 V2000
   -3.2285   -2.3710    1.0087 H   0  0  0  0  0  0  0  0  0  0  0  0
   -3.1969   -1.4972    0.3518 C   0  0  0  0  0  0  0  0  0  0  0  0
   -3.9662   -0.7890    0.6688 H   0  0  0  0  0  0  0  0  0  0  0  0
   -3.4054   -1.8185   -0.6715 H   0  0  0  0  0  0  0  0  0  0  0  0
   -1.8304   -0.8424    0.4180 C   0  0  0  0  0  0  0  0  0  0  0  0
   -0.9780   -1.2836    1.1739 O   0  0  0  0  0  0  0  0  0  0  0  0
   -1.5705    0.2722   -0.3519 N   0  0  0  0  0  0  0  0  0  0  0  0
   -2.3503    0.6880   -0.8538 H   0  0  0  0  0  0  0  0  0  0  0  0
   -0.2915    0.9973   -0.3454 C   0  0  1  0  0  0  0  0  0  0  0  0
    0.4908    0.3994    0.1329 H   0  0  0  0  0  0  0  0  0  0  0  0
    0.1415    1.2823   -1.7938 C   0  0  0  0  0  0  0  0  0  0  0  0
   -0.6544    1.8197   -2.3202 H   0  0  0  0  0  0  0  0  0  0  0  0
    1.0204    1.9353   -1.7890 H   0  0  0  0  0  0  0  0  0  0  0  0
    0.4819    0.0076   -2.5295 C   0  0  0  0  0  0  0  0  0  0  0  0
    1.7370   -0.5962   -2.3616 C   0  0  0  0  0  0  0  0  0  0  0  0
    2.4717   -0.1507   -1.6978 H   0  0  0  0  0  0  0  0  0  0  0  0
    2.0529   -1.7779   -3.0408 C   0  0  0  0  0  0  0  0  0  0  0  0
    3.0258   -2.2399   -2.9017 H   0  0  0  0  0  0  0  0  0  0  0  0
    1.1166   -2.3647   -3.8974 C   0  0  0  0  0  0  0  0  0  0  0  0
    1.3621   -3.2816   -4.4251 H   0  0  0  0  0  0  0  0  0  0  0  0
   -0.1358   -1.7689   -4.0735 C   0  0  0  0  0  0  0  0  0  0  0  0
   -0.8638   -2.2222   -4.7398 H   0  0  0  0  0  0  0  0  0  0  0  0
   -0.4508   -0.5881   -3.3923 C   0  0  0  0  0  0  0  0  0  0  0  0
   -1.4257   -0.1331   -3.5364 H   0  0  0  0  0  0  0  0  0  0  0  0
   -0.4248    2.3198    0.4309 C   0  0  0  0  0  0  0  0  0  0  0  0
   -1.2179    3.1757    0.0554 O   0  0  0  0  0  0  0  0  0  0  0  0
    0.3589    2.5562    1.5449 N   0  0  0  0  0  0  0  0  0  0  0  0
    0.9035    1.7746    1.9006 H   0  0  0  0  0  0  0  0  0  0  0  0
    0.2378    3.7570    2.3624 C   0  0  0  0  0  0  0  0  0  0  0  0
   -0.7742    3.8420    2.7718 H   0  0  0  0  0  0  0  0  0  0  0  0
    0.9466    3.7203    3.1951 H   0  0  0  0  0  0  0  0  0  0  0  0
    0.4529    4.6497    1.7657 H   0  0  0  0  0  0  0  0  0  0  0  0
  1  2  1  0  0  0  0
  2  3  1  0  0  0  0
  2  4  1  0  0  0  0
  2  5  1  0  0  0  0
  5  6  2  0  0  0  0
  5  7  1  0  0  0  0
  7  8  1  0  0  0  0
  7  9  1  0  0  0  0
  9 10  1  0  0  0  0
  9 11  1  0  0  0  0
  9 25  1  0  0  0  0
 11 12  1  0  0  0  0
 11 13  1  0  0  0  0
 11 14  1  0  0  0  0
 14 15  1  0  0  0  0
 14 23  2  0  0  0  0
 15 16  1  0  0  0  0
 15 17  2  0  0  0  0
 17 18  1  0  0  0  0
 17 19  1  0  0  0  0
 19 20  1  0  0  0  0
 19 21  2  0  0  0  0
 21 22  1  0  0  0  0
 21 23  1  0  0  0  0
 23 24  1  0  0  0  0
 25 26  2  0  0  0  0
 25 27  1  0  0  0  0
 27 28  1  0  0  0  0
 27 29  1  0  0  0  0
 29 30  1  0  0  0  0
 29 31  1  0  0  0  0
 29 32  1  0  0  0  0
M  END
$$$$

  -OEChem-01062216093D

 32 32  0     1  0  0  0  0  0999 V2000
   -3.2596   -2.3347    1.0590 H   0  0  0  0  0  0  0  0  0  0  0  0
   -3.2249   -1.4670    0.3942 C   0  0  0  0  0  0  0  0  0  0  0  0
   -3.9548   -0.7298    0.7373 H   0  0  0  0  0  0  0  0  0  0  0  0
   -3.4876   -1.7872   -0.6169 H   0  0  0  0  0  0  0  0  0  0  0  0
   -1.8344   -0.8610    0.3986 C   0  0  0  0  0  0  0  0  0  0  0  0
   -0.9623   -1.3442    1.1047 O   0  0  0  0  0  0  0  0  0  0  0  0
   -1.5752    0.2533   -0.3722 N   0  0  0  0  0  0  0  0  0  0  0  0
   -2.3751    0.7176   -0.7945 H   0  0  0  0  0  0  0  0  0  0  0  0
   -0.2988    0.9848   -0.3553 C   0  0  1  0  0  0  0  0  0  0  0  0
    0.4813    0.3891    0.1297 H   0  0  0  0  0  0  0  0  0  0  0  0
    0.1405    1.2768   -1.7994 C   0  0  0  0  0  0  0  0  0  0  0  0
   -0.6566    1.8118   -2.3267 H   0  0  0  0  0  0  0  0  0  0  0  0
    1.0164    1.9339   -1.7882 H   0  0  0  0  0  0  0  0  0  0  0  0
    0.4912    0.0064   -2.5379 C   0  0  0  0  0  0  0  0  0  0  0  0
    1.7482   -0.5924   -2.3658 C   0  0  0  0  0  0  0  0  0  0  0  0
    2.4777   -0.1463   -1.6972 H   0  0  0  0  0  0  0  0  0  0  0  0
    2.0729   -1.7706   -3.0470 C   0  0  0  0  0  0  0  0  0  0  0  0
    3.0470   -2.2291   -2.9045 H   0  0  0  0  0  0  0  0  0  0  0  0
    1.1425   -2.3604   -3.9080 C   0  0  0  0  0  0  0  0  0  0  0  0
    1.3936   -3.2760   -4.4355 H   0  0  0  0  0  0  0  0  0  0  0  0
   -0.1126   -1.7710   -4.0865 C   0  0  0  0  0  0  0  0  0  0  0  0
   -0.8373   -2.2282   -4.7534 H   0  0  0  0  0  0  0  0  0  0  0  0
   -0.4355   -0.5930   -3.4043 C   0  0  0  0  0  0  0  0  0  0  0  0
   -1.4137   -0.1447   -3.5476 H   0  0  0  0  0  0  0  0  0  0  0  0
   -0.4378    2.3103    0.4155 C   0  0  0  0  0  0  0  0  0  0  0  0
   -1.3871    3.0526    0.1902 O   0  0  0  0  0  0  0  0  0  0  0  0
    0.5258    2.6932    1.3302 N   0  0  0  0  0  0  0  0  0  0  0  0
    1.2400    2.0099    1.5669 H   0  0  0  0  0  0  0  0  0  0  0  0
    0.4311    3.9130    2.1227 C   0  0  0  0  0  0  0  0  0  0  0  0
   -0.4722    3.8988    2.7415 H   0  0  0  0  0  0  0  0  0  0  0  0
    1.3004    4.0049    2.7809 H   0  0  0  0  0  0  0  0  0  0  0  0
    0.3983    4.7923    1.4708 H   0  0  0  0  0  0  0  0  0  0  0  0
  1  2  1  0  0  0  0
  2  3  1  0  0  0  0
  2  4  1  0  0  0  0
  2  5  1  0  0  0  0
  5  6  2  0  0  0  0
  5  7  1  0  0  0  0
  7  8  1  0  0  0  0
  7  9  1  0  0  0  0
  9 10  1  0  0  0  0
  9 11  1  0  0  0  0
  9 25  1  0  0  0  0
 11 12  1  0  0  0  0
 11 13  1  0  0  0  0
 11 14  1  0  0  0  0
 14 15  1  0  0  0  0
 14 23  2  0  0  0  0
 15 16  1  0  0  0  0
 15 17  2  0  0  0  0
 17 18  1  0  0  0  0
 17 19  1  0  0  0  0
 19 20  1  0  0  0  0
 19 21  2  0  0  0  0
 21 22  1  0  0  0  0
 21 23  1  0  0  0  0
 23 24  1  0  0  0  0
 25 26  2  0  0  0  0
 25 27  1  0  0  0  0
 27 28  1  0  0  0  0
 27 29  1  0  0  0  0
 29 30  1  0  0  0  0
 29 31  1  0  0  0  0
 29 32  1  0  0  0  0
M  END
$$$$

  -OEChem-01062216093D

 32 32  0     1  0  0  0  0  0999 V2000
   -3.2801   -2.3069    1.0973 H   0  0  0  0  0  0  0  0  0  0  0  0
   -3.2443   -1.4414    0.4298 C   0  0  0  0  0  0  0  0  0  0  0  0
   -3.9404   -0.6836    0.7972 H   0  0  0  0  0  0  0  0  0  0  0  0
   -3.5517   -1.7551   -0.5706 H   0  0  0  0  0  0  0  0  0  0  0  0
   -1.8379   -0.8743    0.3832 C   0  0  0  0  0  0  0  0  0  0  0  0
   -0.9518   -1.3919    1.0460 O   0  0  0  0  0  0  0  0  0  0  0  0
   -1.5812    0.2393   -0.3899 N   0  0  0  0  0  0  0  0  0  0  0  0
   -2.3941    0.7430   -0.7360 H   0  0  0  0  0  0  0  0  0  0  0  0
   -0.3067    0.9753   -0.3618 C   0  0  1  0  0  0  0  0  0  0  0  0
    0.4716    0.3847    0.1318 H   0  0  0  0  0  0  0  0  0  0  0  0
    0.1385    1.2701   -1.8037 C   0  0  0  0  0  0  0  0  0  0  0  0
   -0.6589    1.8025   -2.3331 H   0  0  0  0  0  0  0  0  0  0  0  0
    1.0118    1.9304   -1.7898 H   0  0  0  0  0  0  0  0  0  0  0  0
    0.4974    0.0025   -2.5436 C   0  0  0  0  0  0  0  0  0  0  0  0
    1.7559   -0.5920   -2.3671 C   0  0  0  0  0  0  0  0  0  0  0  0
    2.4803   -0.1459   -1.6930 H   0  0  0  0  0  0  0  0  0  0  0  0
    2.0884   -1.7667   -3.0505 C   0  0  0  0  0  0  0  0  0  0  0  0
    3.0632   -2.2222   -2.9049 H   0  0  0  0  0  0  0  0  0  0  0  0
    1.1650   -2.3574   -3.9182 C   0  0  0  0  0  0  0  0  0  0  0  0
    1.4230   -3.2697   -4.4483 H   0  0  0  0  0  0  0  0  0  0  0  0
   -0.0920   -1.7733   -4.1000 C   0  0  0  0  0  0  0  0  0  0  0  0
   -0.8116   -2.2326   -4.7712 H   0  0  0  0  0  0  0  0  0  0  0  0
   -0.4231   -0.5987   -3.4157 C   0  0  0  0  0  0  0  0  0  0  0  0
   -1.4027   -0.1546   -3.5618 H   0  0  0  0  0  0  0  0  0  0  0  0
   -0.4534    2.3036    0.4047 C   0  0  0  0  0  0  0  0  0  0  0  0
   -1.5095    2.9251    0.3588 O   0  0  0  0  0  0  0  0  0  0  0  0
    0.6233    2.8429    1.0851 N   0  0  0  0  0  0  0  0  0  0  0  0
    1.4580    2.2696    1.1696 H   0  0  0  0  0  0  0  0  0  0  0  0
    0.5452    4.0859    1.8432 C   0  0  0  0  0  0  0  0  0  0  0  0
   -0.1989    4.0014    2.6421 H   0  0  0  0  0  0  0  0  0  0  0  0
    1.5147    4.3144    2.2959 H   0  0  0  0  0  0  0  0  0  0  0  0
    0.2660    4.9175    1.1877 H   0  0  0  0  0  0  0  0  0  0  0  0
  1  2  1  0  0  0  0
  2  3  1  0  0  0  0
  2  4  1  0  0  0  0
  2  5  1  0  0  0  0
  5  6  2  0  0  0  0
  5  7  1  0  0  0  0
  7  8  1  0  0  0  0
  7  9  1  0  0  0  0
  9 10  1  0  0  0  0
  9 11  1  0  0  0  0
  9 25  1  0  0  0  0
 11 12  1  0  0  0  0
 11 13  1  0  0  0  0
 11 14  1  0  0  0  0
 14 15  1  0  0  0  0
 14 23  2  0  0  0  0
 15 16  1  0  0  0  0
 15 17  2  0  0  0  0
 17 18  1  0  0  0  0
 17 19  1  0  0  0  0
 19 20  1  0  0  0  0
 19 21  2  0  0  0  0
 21 22  1  0  0  0  0
 21 23  1  0  0  0  0
 23 24  1  0  0  0  0
 25 26  2  0  0  0  0
 25 27  1  0  0  0  0
 27 28  1  0  0  0  0
 27 29  1  0  0  0  0
 29 30  1  0  0  0  0
 29 31  1  0  0  0  0
 29 32  1  0  0  0  0
M  END
$$$$

  -OEChem-01062216093D

 32 32  0     1  0  0  0  0  0999 V2000
   -3.2842   -2.2927    1.1102 H   0  0  0  0  0  0  0  0  0  0  0  0
   -3.2497   -1.4290    0.4405 C   0  0  0  0  0  0  0  0  0  0  0  0
   -3.9241   -0.6591    0.8232 H   0  0  0  0  0  0  0  0  0  0  0  0
   -3.5856   -1.7387   -0.5519 H   0  0  0  0  0  0  0  0  0  0  0  0
   -1.8363   -0.8844    0.3593 C   0  0  0  0  0  0  0  0  0  0  0  0
   -0.9396   -1.4273    0.9866 O   0  0  0  0  0  0  0  0  0  0  0  0
   -1.5870    0.2341   -0.4093 N   0  0  0  0  0  0  0  0  0  0  0  0
   -2.4085    0.7599   -0.6975 H   0  0  0  0  0  0  0  0  0  0  0  0
   -0.3159    0.9766   -0.3689 C   0  0  1  0  0  0  0  0  0  0  0  0
    0.4627    0.3893    0.1285 H   0  0  0  0  0  0  0  0  0  0  0  0
    0.1305    1.2697   -1.8117 C   0  0  0  0  0  0  0  0  0  0  0  0
   -0.6700    1.7949   -2.3437 H   0  0  0  0  0  0  0  0  0  0  0  0
    1.0002    1.9345   -1.8022 H   0  0  0  0  0  0  0  0  0  0  0  0
    0.4967    0.0013   -2.5462 C   0  0  0  0  0  0  0  0  0  0  0  0
    1.7576   -0.5872   -2.3660 C   0  0  0  0  0  0  0  0  0  0  0  0
    2.4792   -0.1355   -1.6927 H   0  0  0  0  0  0  0  0  0  0  0  0
    2.0962   -1.7626   -3.0453 C   0  0  0  0  0  0  0  0  0  0  0  0
    3.0731   -2.2133   -2.8969 H   0  0  0  0  0  0  0  0  0  0  0  0
    1.1762   -2.3599   -3.9121 C   0  0  0  0  0  0  0  0  0  0  0  0
    1.4384   -3.2729   -4.4384 H   0  0  0  0  0  0  0  0  0  0  0  0
   -0.0829   -1.7818   -4.0976 C   0  0  0  0  0  0  0  0  0  0  0  0
   -0.7997   -2.2460   -4.7684 H   0  0  0  0  0  0  0  0  0  0  0  0
   -0.4201   -0.6067   -3.4175 C   0  0  0  0  0  0  0  0  0  0  0  0
   -1.4022   -0.1685   -3.5650 H   0  0  0  0  0  0  0  0  0  0  0  0
   -0.4676    2.3036    0.4029 C   0  0  0  0  0  0  0  0  0  0  0  0
   -1.5765    2.8020    0.5647 O   0  0  0  0  0  0  0  0  0  0  0  0
    0.6511    2.9988    0.8265 N   0  0  0  0  0  0  0  0  0  0  0  0
    1.5530    2.5423    0.7261 H   0  0  0  0  0  0  0  0  0  0  0  0
    0.5796    4.2631    1.5499 C   0  0  0  0  0  0  0  0  0  0  0  0
    0.0271    4.1383    2.4873 H   0  0  0  0  0  0  0  0  0  0  0  0
    1.5865    4.6203    1.7867 H   0  0  0  0  0  0  0  0  0  0  0  0
    0.0775    5.0242    0.9433 H   0  0  0  0  0  0  0  0  0  0  0  0
  1  2  1  0  0  0  0
  2  3  1  0  0  0  0
  2  4  1  0  0  0  0
  2  5  1  0  0  0  0
  5  6  2  0  0  0  0
  5  7  1  0  0  0  0
  7  8  1  0  0  0  0
  7  9  1  0  0  0  0
  9 10  1  0  0  0  0
  9 11  1  0  0  0  0
  9 25  1  0  0  0  0
 11 12  1  0  0  0  0
 11 13  1  0  0  0  0
 11 14  1  0  0  0  0
 14 15  1  0  0  0  0
 14 23  2  0  0  0  0
 15 16  1  0  0  0  0
 15 17  2  0  0  0  0
 17 18  1  0  0  0  0
 17 19  1  0  0  0  0
 19 20  1  0  0  0  0
 19 21  2  0  0  0  0
 21 22  1  0  0  0  0
 21 23  1  0  0  0  0
 23 24  1  0  0  0  0
 25 26  2  0  0  0  0
 25 27  1  0  0  0  0
 27 28  1  0  0  0  0
 27 29  1  0  0  0  0
 29 30  1  0  0  0  0
 29 31  1  0  0  0  0
 29 32  1  0  0  0  0
M  END
$$$$

  -OEChem-01062216093D

 32 32  0     1  0  0  0  0  0999 V2000
   -3.2372   -2.2724    1.1738 H   0  0  0  0  0  0  0  0  0  0  0  0
   -3.2380   -1.4054    0.5075 C   0  0  0  0  0  0  0  0  0  0  0  0
   -3.8643   -0.6252    0.9466 H   0  0  0  0  0  0  0  0  0  0  0  0
   -3.6567   -1.7021   -0.4569 H   0  0  0  0  0  0  0  0  0  0  0  0
   -1.8244   -0.8876    0.3212 C   0  0  0  0  0  0  0  0  0  0  0  0
   -0.8915   -1.4640    0.8605 O   0  0  0  0  0  0  0  0  0  0  0  0
   -1.6096    0.2386   -0.4480 N   0  0  0  0  0  0  0  0  0  0  0  0
   -2.4443    0.7762   -0.6626 H   0  0  0  0  0  0  0  0  0  0  0  0
   -0.3391    0.9835   -0.4000 C   0  0  1  0  0  0  0  0  0  0  0  0
    0.4909    0.3115   -0.1579 H   0  0  0  0  0  0  0  0  0  0  0  0
   -0.0844    1.5960   -1.7903 C   0  0  0  0  0  0  0  0  0  0  0  0
   -0.9439    2.2065   -2.0861 H   0  0  0  0  0  0  0  0  0  0  0  0
    0.7835    2.2613   -1.7530 H   0  0  0  0  0  0  0  0  0  0  0  0
    0.1768    0.5278   -2.8261 C   0  0  0  0  0  0  0  0  0  0  0  0
    1.4481   -0.0545   -2.9434 C   0  0  0  0  0  0  0  0  0  0  0  0
    2.2544    0.2573   -2.2869 H   0  0  0  0  0  0  0  0  0  0  0  0
    1.6895   -1.0466   -3.8999 C   0  0  0  0  0  0  0  0  0  0  0  0
    2.6757   -1.4944   -3.9803 H   0  0  0  0  0  0  0  0  0  0  0  0
    0.6607   -1.4653   -4.7489 C   0  0  0  0  0  0  0  0  0  0  0  0
    0.8471   -2.2381   -5.4890 H   0  0  0  0  0  0  0  0  0  0  0  0
   -0.6088   -0.8900   -4.6410 C   0  0  0  0  0  0  0  0  0  0  0  0
   -1.4097   -1.2150   -5.2984 H   0  0  0  0  0  0  0  0  0  0  0  0
   -0.8485    0.1021   -3.6844 C   0  0  0  0  0  0  0  0  0  0  0  0
   -1.8393    0.5384   -3.6068 H   0  0  0  0  0  0  0  0  0  0  0  0
   -0.3682    2.0949    0.6747 C   0  0  0  0  0  0  0  0  0  0  0  0
   -1.4095    2.3676    1.2626 O   0  0  0  0  0  0  0  0  0  0  0  0
    0.7361    2.9048    0.8760 N   0  0  0  0  0  0  0  0  0  0  0  0
    1.6014    2.6393    0.4156 H   0  0  0  0  0  0  0  0  0  0  0  0
    0.7644    3.9896    1.8500 C   0  0  0  0  0  0  0  0  0  0  0  0
    0.5803    3.6044    2.8584 H   0  0  0  0  0  0  0  0  0  0  0  0
    1.7419    4.4812    1.8406 H   0  0  0  0  0  0  0  0  0  0  0  0
    0.0002    4.7373    1.6133 H   0  0  0  0  0  0  0  0  0  0  0  0
  1  2  1  0  0  0  0
  2  3  1  0  0  0  0
  2  4  1  0  0  0  0
  2  5  1  0  0  0  0
  5  6  2  0  0  0  0
  5  7  1  0  0  0  0
  7  8  1  0  0  0  0
  7  9  1  0  0  0  0
  9 10  1  0  0  0  0
  9 11  1  0  0  0  0
  9 25  1  0  0  0  0
 11 12  1  0  0  0  0
 11 13  1  0  0  0  0
 11 14  1  0  0  0  0
 14 15  1  0  0  0  0
 14 23  2  0  0  0  0
 15 16  1  0  0  0  0
 15 17  2  0  0  0  0
 17 18  1  0  0  0  0
 17 19  1  0  0  0  0
 19 20  1  0  0  0  0
 19 21  2  0  0  0  0
 21 22  1  0  0  0  0
 21 23  1  0  0  0  0
 23 24  1  0  0  0  0
 25 26  2  0  0  0  0
 25 27  1  0  0  0  0
 27 28  1  0  0  0  0
 27 29  1  0  0  0  0
 29 30  1  0  0  0  0
 29 31  1  0  0  0  0
 29 32  1  0  0  0  0
M  END
$$$$

  -OEChem-01062216093D

 32 32  0     1  0  0  0  0  0999 V2000
   -3.2240   -2.2604    1.1751 H   0  0  0  0  0  0  0  0  0  0  0  0
   -3.2336   -1.3846    0.5201 C   0  0  0  0  0  0  0  0  0  0  0  0
   -3.8382   -0.6032    0.9871 H   0  0  0  0  0  0  0  0  0  0  0  0
   -3.6823   -1.6635   -0.4362 H   0  0  0  0  0  0  0  0  0  0  0  0
   -1.8196   -0.8805    0.3015 C   0  0  0  0  0  0  0  0  0  0  0  0
   -0.8792   -1.4786    0.8025 O   0  0  0  0  0  0  0  0  0  0  0  0
   -1.6134    0.2512   -0.4629 N   0  0  0  0  0  0  0  0  0  0  0  0
   -2.4515    0.7898   -0.6585 H   0  0  0  0  0  0  0  0  0  0  0  0
   -0.3431    0.9975   -0.4135 C   0  0  1  0  0  0  0  0  0  0  0  0
    0.4886    0.3278   -0.1710 H   0  0  0  0  0  0  0  0  0  0  0  0
   -0.0904    1.5965   -1.8122 C   0  0  0  0  0  0  0  0  0  0  0  0
   -0.9514    2.2025   -2.1136 H   0  0  0  0  0  0  0  0  0  0  0  0
    0.7783    2.2608   -1.7885 H   0  0  0  0  0  0  0  0  0  0  0  0
    0.1730    0.5185   -2.8376 C   0  0  0  0  0  0  0  0  0  0  0  0
    1.4463   -0.0606   -2.9485 C   0  0  0  0  0  0  0  0  0  0  0  0
    2.2503    0.2576   -2.2921 H   0  0  0  0  0  0  0  0  0  0  0  0
    1.6928   -1.0578   -3.8985 C   0  0  0  0  0  0  0  0  0  0  0  0
    2.6803   -1.5034   -3.9742 H   0  0  0  0  0  0  0  0  0  0  0  0
    0.6673   -1.4849   -4.7473 C   0  0  0  0  0  0  0  0  0  0  0  0
    0.8578   -2.2607   -5.4833 H   0  0  0  0  0  0  0  0  0  0  0  0
   -0.6047   -0.9142   -4.6446 C   0  0  0  0  0  0  0  0  0  0  0  0
   -1.4033   -1.2467   -5.3012 H   0  0  0  0  0  0  0  0  0  0  0  0
   -0.8495    0.0832   -3.6945 C   0  0  0  0  0  0  0  0  0  0  0  0
   -1.8422    0.5162   -3.6215 H   0  0  0  0  0  0  0  0  0  0  0  0
   -0.3724    2.1037    0.6718 C   0  0  0  0  0  0  0  0  0  0  0  0
   -1.3232    2.1982    1.4403 O   0  0  0  0  0  0  0  0  0  0  0  0
    0.5787    3.1105    0.6901 N   0  0  0  0  0  0  0  0  0  0  0  0
    1.3811    3.0079    0.0764 H   0  0  0  0  0  0  0  0  0  0  0  0
    0.5788    4.1934    1.6674 C   0  0  0  0  0  0  0  0  0  0  0  0
    0.6503    3.7923    2.6841 H   0  0  0  0  0  0  0  0  0  0  0  0
    1.4318    4.8572    1.4966 H   0  0  0  0  0  0  0  0  0  0  0  0
   -0.3395    4.7843    1.5856 H   0  0  0  0  0  0  0  0  0  0  0  0
  1  2  1  0  0  0  0
  2  3  1  0  0  0  0
  2  4  1  0  0  0  0
  2  5  1  0  0  0  0
  5  6  2  0  0  0  0
  5  7  1  0  0  0  0
  7  8  1  0  0  0  0
  7  9  1  0  0  0  0
  9 10  1  0  0  0  0
  9 11  1  0  0  0  0
  9 25  1  0  0  0  0
 11 12  1  0  0  0  0
 11 13  1  0  0  0  0
 11 14  1  0  0  0  0
 14 15  1  0  0  0  0
 14 23  2  0  0  0  0
 15 16  1  0  0  0  0
 15 17  2  0  0  0  0
 17 18  1  0  0  0  0
 17 19  1  0  0  0  0
 19 20  1  0  0  0  0
 19 21  2  0  0  0  0
 21 22  1  0  0  0  0
 21 23  1  0  0  0  0
 23 24  1  0  0  0  0
 25 26  2  0  0  0  0
 25 27  1  0  0  0  0
 27 28  1  0  0  0  0
 27 29  1  0  0  0  0
 29 30  1  0  0  0  0
 29 31  1  0  0  0  0
 29 32  1  0  0  0  0
M  END
$$$$

  -OEChem-01062216093D

 32 32  0     1  0  0  0  0  0999 V2000
   -3.2112   -2.2489    1.1721 H   0  0  0  0  0  0  0  0  0  0  0  0
   -3.2274   -1.3690    0.5230 C   0  0  0  0  0  0  0  0  0  0  0  0
   -3.8186   -0.5874    1.0064 H   0  0  0  0  0  0  0  0  0  0  0  0
   -3.6951   -1.6389   -0.4266 H   0  0  0  0  0  0  0  0  0  0  0  0
   -1.8144   -0.8720    0.2826 C   0  0  0  0  0  0  0  0  0  0  0  0
   -0.8687   -1.4924    0.7446 O   0  0  0  0  0  0  0  0  0  0  0  0
   -1.6166    0.2669   -0.4744 N   0  0  0  0  0  0  0  0  0  0  0  0
   -2.4580    0.8037   -0.6588 H   0  0  0  0  0  0  0  0  0  0  0  0
   -0.3464    1.0146   -0.4305 C   0  0  1  0  0  0  0  0  0  0  0  0
    0.4861    0.3456   -0.1877 H   0  0  0  0  0  0  0  0  0  0  0  0
   -0.0921    1.6017   -1.8347 C   0  0  0  0  0  0  0  0  0  0  0  0
   -0.9499    2.2083   -2.1436 H   0  0  0  0  0  0  0  0  0  0  0  0
    0.7813    2.2594   -1.8170 H   0  0  0  0  0  0  0  0  0  0  0  0
    0.1723    0.5140   -2.8488 C   0  0  0  0  0  0  0  0  0  0  0  0
    1.4457   -0.0659   -2.9520 C   0  0  0  0  0  0  0  0  0  0  0  0
    2.2486    0.2578   -2.2970 H   0  0  0  0  0  0  0  0  0  0  0  0
    1.6934   -1.0729   -3.8907 C   0  0  0  0  0  0  0  0  0  0  0  0
    2.6806   -1.5203   -3.9585 H   0  0  0  0  0  0  0  0  0  0  0  0
    0.6691   -1.5087   -4.7362 C   0  0  0  0  0  0  0  0  0  0  0  0
    0.8608   -2.2931   -5.4624 H   0  0  0  0  0  0  0  0  0  0  0  0
   -0.6032   -0.9373   -4.6414 C   0  0  0  0  0  0  0  0  0  0  0  0
   -1.4011   -1.2782   -5.2944 H   0  0  0  0  0  0  0  0  0  0  0  0
   -0.8493    0.0698   -3.7019 C   0  0  0  0  0  0  0  0  0  0  0  0
   -1.8423    0.5027   -3.6331 H   0  0  0  0  0  0  0  0  0  0  0  0
   -0.3748    2.1112    0.6670 C   0  0  0  0  0  0  0  0  0  0  0  0
   -1.1660    2.0356    1.5997 O   0  0  0  0  0  0  0  0  0  0  0  0
    0.3539    3.2828    0.5394 N   0  0  0  0  0  0  0  0  0  0  0  0
    1.0230    3.3398   -0.2216 H   0  0  0  0  0  0  0  0  0  0  0  0
    0.3212    4.3583    1.5241 C   0  0  0  0  0  0  0  0  0  0  0  0
    0.6471    3.9911    2.5031 H   0  0  0  0  0  0  0  0  0  0  0  0
    0.9882    5.1708    1.2201 H   0  0  0  0  0  0  0  0  0  0  0  0
   -0.6927    4.7613    1.6187 H   0  0  0  0  0  0  0  0  0  0  0  0
  1  2  1  0  0  0  0
  2  3  1  0  0  0  0
  2  4  1  0  0  0  0
  2  5  1  0  0  0  0
  5  6  2  0  0  0  0
  5  7  1  0  0  0  0
  7  8  1  0  0  0  0
  7  9  1  0  0  0  0
  9 10  1  0  0  0  0
  9 11  1  0  0  0  0
  9 25  1  0  0  0  0
 11 12  1  0  0  0  0
 11 13  1  0  0  0  0
 11 14  1  0  0  0  0
 14 15  1  0  0  0  0
 14 23  2  0  0  0  0
 15 16  1  0  0  0  0
 15 17  2  0  0  0  0
 17 18  1  0  0  0  0
 17 19  1  0  0  0  0
 19 20  1  0  0  0  0
 19 21  2  0  0  0  0
 21 22  1  0  0  0  0
 21 23  1  0  0  0  0
 23 24  1  0  0  0  0
 25 26  2  0  0  0  0
 25 27  1  0  0  0  0
 27 28  1  0  0  0  0
 27 29  1  0  0  0  0
 29 30  1  0  0  0  0
 29 31  1  0  0  0  0
 29 32  1  0  0  0  0
M  END
$$$$

  -OEChem-01062216093D

 32 32  0     1  0  0  0  0  0999 V2000
   -3.2077   -2.2574    1.1627 H   0  0  0  0  0  0  0  0  0  0  0  0
   -3.2294   -1.3636    0.5330 C   0  0  0  0  0  0  0  0  0  0  0  0
   -3.8114   -0.5911    1.0413 H   0  0  0  0  0  0  0  0  0  0  0  0
   -3.7109   -1.6115   -0.4157 H   0  0  0  0  0  0  0  0  0  0  0  0
   -1.8178   -0.8665    0.2831 C   0  0  0  0  0  0  0  0  0  0  0  0
   -0.8689   -1.4992    0.7205 O   0  0  0  0  0  0  0  0  0  0  0  0
   -1.6251    0.2753   -0.4719 N   0  0  0  0  0  0  0  0  0  0  0  0
   -2.4687    0.8045   -0.6655 H   0  0  0  0  0  0  0  0  0  0  0  0
   -0.3554    1.0245   -0.4387 C   0  0  1  0  0  0  0  0  0  0  0  0
    0.4771    0.3562   -0.1934 H   0  0  0  0  0  0  0  0  0  0  0  0
   -0.0939    1.6018   -1.8454 C   0  0  0  0  0  0  0  0  0  0  0  0
   -0.9481    2.2087   -2.1628 H   0  0  0  0  0  0  0  0  0  0  0  0
    0.7832    2.2554   -1.8244 H   0  0  0  0  0  0  0  0  0  0  0  0
    0.1736    0.5081   -2.8523 C   0  0  0  0  0  0  0  0  0  0  0  0
    1.4468   -0.0740   -2.9464 C   0  0  0  0  0  0  0  0  0  0  0  0
    2.2457    0.2491   -2.2861 H   0  0  0  0  0  0  0  0  0  0  0  0
    1.6988   -1.0835   -3.8814 C   0  0  0  0  0  0  0  0  0  0  0  0
    2.6859   -1.5324   -3.9423 H   0  0  0  0  0  0  0  0  0  0  0  0
    0.6792   -1.5188   -4.7331 C   0  0  0  0  0  0  0  0  0  0  0  0
    0.8742   -2.3051   -5.4563 H   0  0  0  0  0  0  0  0  0  0  0  0
   -0.5924   -0.9442   -4.6484 C   0  0  0  0  0  0  0  0  0  0  0  0
   -1.3859   -1.2831   -5.3078 H   0  0  0  0  0  0  0  0  0  0  0  0
   -0.8430    0.0645   -3.7120 C   0  0  0  0  0  0  0  0  0  0  0  0
   -1.8355    0.4994   -3.6522 H   0  0  0  0  0  0  0  0  0  0  0  0
   -0.3795    2.1171    0.6627 C   0  0  0  0  0  0  0  0  0  0  0  0
   -0.9496    1.9097    1.7261 O   0  0  0  0  0  0  0  0  0  0  0  0
    0.0778    3.4037    0.4245 N   0  0  0  0  0  0  0  0  0  0  0  0
    0.5429    3.5829   -0.4594 H   0  0  0  0  0  0  0  0  0  0  0  0
    0.0163    4.4746    1.4131 C   0  0  0  0  0  0  0  0  0  0  0  0
    0.5790    4.1985    2.3112 H   0  0  0  0  0  0  0  0  0  0  0  0
    0.4473    5.3931    1.0031 H   0  0  0  0  0  0  0  0  0  0  0  0
   -1.0221    4.6772    1.6959 H   0  0  0  0  0  0  0  0  0  0  0  0
  1  2  1  0  0  0  0
  2  3  1  0  0  0  0
  2  4  1  0  0  0  0
  2  5  1  0  0  0  0
  5  6  2  0  0  0  0
  5  7  1  0  0  0  0
  7  8  1  0  0  0  0
  7  9  1  0  0  0  0
  9 10  1  0  0  0  0
  9 11  1  0  0  0  0
  9 25  1  0  0  0  0
 11 12  1  0  0  0  0
 11 13  1  0  0  0  0
 11 14  1  0  0  0  0
 14 15  1  0  0  0  0
 14 23  2  0  0  0  0
 15 16  1  0  0  0  0
 15 17  2  0  0  0  0
 17 18  1  0  0  0  0
 17 19  1  0  0  0  0
 19 20  1  0  0  0  0
 19 21  2  0  0  0  0
 21 22  1  0  0  0  0
 21 23  1  0  0  0  0
 23 24  1  0  0  0  0
 25 26  2  0  0  0  0
 25 27  1  0  0  0  0
 27 28  1  0  0  0  0
 27 29  1  0  0  0  0
 29 30  1  0  0  0  0
 29 31  1  0  0  0  0
 29 32  1  0  0  0  0
M  END
$$$$

  -OEChem-01062216093D

 32 32  0     1  0  0  0  0  0999 V2000
   -3.2160   -2.2546    1.1649 H   0  0  0  0  0  0  0  0  0  0  0  0
   -3.2362   -1.3680    0.5251 C   0  0  0  0  0  0  0  0  0  0  0  0
   -3.8281   -0.5935    1.0183 H   0  0  0  0  0  0  0  0  0  0  0  0
   -3.7060   -1.6296   -0.4257 H   0  0  0  0  0  0  0  0  0  0  0  0
   -1.8249   -0.8655    0.2859 C   0  0  0  0  0  0  0  0  0  0  0  0
   -0.8780   -1.4981    0.7258 O   0  0  0  0  0  0  0  0  0  0  0  0
   -1.6321    0.2779   -0.4668 N   0  0  0  0  0  0  0  0  0  0  0  0
   -2.4766    0.7923   -0.6927 H   0  0  0  0  0  0  0  0  0  0  0  0
   -0.3645    1.0304   -0.4412 C   0  0  1  0  0  0  0  0  0  0  0  0
    0.4682    0.3620   -0.1959 H   0  0  0  0  0  0  0  0  0  0  0  0
   -0.0997    1.6065   -1.8468 C   0  0  0  0  0  0  0  0  0  0  0  0
   -0.9546    2.2095   -2.1698 H   0  0  0  0  0  0  0  0  0  0  0  0
    0.7754    2.2633   -1.8163 H   0  0  0  0  0  0  0  0  0  0  0  0
    0.1722    0.5130   -2.8524 C   0  0  0  0  0  0  0  0  0  0  0  0
    1.4472   -0.0658   -2.9411 C   0  0  0  0  0  0  0  0  0  0  0  0
    2.2439    0.2635   -2.2808 H   0  0  0  0  0  0  0  0  0  0  0  0
    1.7047   -1.0781   -3.8716 C   0  0  0  0  0  0  0  0  0  0  0  0
    2.6933   -1.5239   -3.9283 H   0  0  0  0  0  0  0  0  0  0  0  0
    0.6884   -1.5205   -4.7233 C   0  0  0  0  0  0  0  0  0  0  0  0
    0.8879   -2.3087   -5.4431 H   0  0  0  0  0  0  0  0  0  0  0  0
   -0.5856   -0.9511   -4.6421 C   0  0  0  0  0  0  0  0  0  0  0  0
   -1.3769   -1.2983   -5.2997 H   0  0  0  0  0  0  0  0  0  0  0  0
   -0.8418    0.0614   -3.7111 C   0  0  0  0  0  0  0  0  0  0  0  0
   -1.8364    0.4921   -3.6544 H   0  0  0  0  0  0  0  0  0  0  0  0
   -0.3853    2.1212    0.6595 C   0  0  0  0  0  0  0  0  0  0  0  0
   -0.6888    1.8317    1.8085 O   0  0  0  0  0  0  0  0  0  0  0  0
   -0.2301    3.4649    0.3559 N   0  0  0  0  0  0  0  0  0  0  0  0
    0.0089    3.7082   -0.5999 H   0  0  0  0  0  0  0  0  0  0  0  0
   -0.3094    4.5282    1.3512 C   0  0  0  0  0  0  0  0  0  0  0  0
    0.4573    4.3903    2.1209 H   0  0  0  0  0  0  0  0  0  0  0  0
   -0.1528    5.5022    0.8779 H   0  0  0  0  0  0  0  0  0  0  0  0
   -1.2937    4.5323    1.8312 H   0  0  0  0  0  0  0  0  0  0  0  0
  1  2  1  0  0  0  0
  2  3  1  0  0  0  0
  2  4  1  0  0  0  0
  2  5  1  0  0  0  0
  5  6  2  0  0  0  0
  5  7  1  0  0  0  0
  7  8  1  0  0  0  0
  7  9  1  0  0  0  0
  9 10  1  0  0  0  0
  9 11  1  0  0  0  0
  9 25  1  0  0  0  0
 11 12  1  0  0  0  0
 11 13  1  0  0  0  0
 11 14  1  0  0  0  0
 14 15  1  0  0  0  0
 14 23  2  0  0  0  0
 15 16  1  0  0  0  0
 15 17  2  0  0  0  0
 17 18  1  0  0  0  0
 17 19  1  0  0  0  0
 19 20  1  0  0  0  0
 19 21  2  0  0  0  0
 21 22  1  0  0  0  0
 21 23  1  0  0  0  0
 23 24  1  0  0  0  0
 25 26  2  0  0  0  0
 25 27  1  0  0  0  0
 27 28  1  0  0  0  0
 27 29  1  0  0  0  0
 29 30  1  0  0  0  0
 29 31  1  0  0  0  0
 29 32  1  0  0  0  0
M  END
$$$$

  -OEChem-01062216093D

 32 32  0     1  0  0  0  0  0999 V2000
   -3.2291   -2.2916    1.1268 H   0  0  0  0  0  0  0  0  0  0  0  0
   -3.2440   -1.4030    0.4893 C   0  0  0  0  0  0  0  0  0  0  0  0
   -3.8735   -0.6442    0.9601 H   0  0  0  0  0  0  0  0  0  0  0  0
   -3.6686   -1.6717   -0.4807 H   0  0  0  0  0  0  0  0  0  0  0  0
   -1.8363   -0.8670    0.3077 C   0  0  0  0  0  0  0  0  0  0  0  0
   -0.8945   -1.4760    0.7881 O   0  0  0  0  0  0  0  0  0  0  0  0
   -1.6403    0.2754   -0.4456 N   0  0  0  0  0  0  0  0  0  0  0  0
   -2.4830    0.7621   -0.7318 H   0  0  0  0  0  0  0  0  0  0  0  0
   -0.3770    1.0350   -0.4295 C   0  0  1  0  0  0  0  0  0  0  0  0
    0.4578    0.3690   -0.1836 H   0  0  0  0  0  0  0  0  0  0  0  0
   -0.1130    1.6113   -1.8343 C   0  0  0  0  0  0  0  0  0  0  0  0
   -0.9707    2.2076   -2.1612 H   0  0  0  0  0  0  0  0  0  0  0  0
    0.7567    2.2760   -1.7984 H   0  0  0  0  0  0  0  0  0  0  0  0
    0.1646    0.5182   -2.8389 C   0  0  0  0  0  0  0  0  0  0  0  0
    1.4418   -0.0560   -2.9258 C   0  0  0  0  0  0  0  0  0  0  0  0
    2.2356    0.2755   -2.2630 H   0  0  0  0  0  0  0  0  0  0  0  0
    1.7044   -1.0677   -3.8556 C   0  0  0  0  0  0  0  0  0  0  0  0
    2.6949   -1.5100   -3.9101 H   0  0  0  0  0  0  0  0  0  0  0  0
    0.6913   -1.5134   -4.7095 C   0  0  0  0  0  0  0  0  0  0  0  0
    0.8945   -2.3016   -5.4285 H   0  0  0  0  0  0  0  0  0  0  0  0
   -0.5841   -0.9462   -4.6324 C   0  0  0  0  0  0  0  0  0  0  0  0
   -1.3724   -1.2931   -5.2937 H   0  0  0  0  0  0  0  0  0  0  0  0
   -0.8457    0.0647   -3.7011 C   0  0  0  0  0  0  0  0  0  0  0  0
   -1.8414    0.4930   -3.6486 H   0  0  0  0  0  0  0  0  0  0  0  0
   -0.3939    2.1301    0.6637 C   0  0  0  0  0  0  0  0  0  0  0  0
   -0.3759    1.8252    1.8469 O   0  0  0  0  0  0  0  0  0  0  0  0
   -0.5550    3.4685    0.3410 N   0  0  0  0  0  0  0  0  0  0  0  0
   -0.5698    3.7181   -0.6425 H   0  0  0  0  0  0  0  0  0  0  0  0
   -0.6247    4.5314    1.3376 C   0  0  0  0  0  0  0  0  0  0  0  0
    0.2987    4.5665    1.9253 H   0  0  0  0  0  0  0  0  0  0  0  0
   -0.7603    5.5006    0.8484 H   0  0  0  0  0  0  0  0  0  0  0  0
   -1.4681    4.3664    2.0164 H   0  0  0  0  0  0  0  0  0  0  0  0
  1  2  1  0  0  0  0
  2  3  1  0  0  0  0
  2  4  1  0  0  0  0
  2  5  1  0  0  0  0
  5  6  2  0  0  0  0
  5  7  1  0  0  0  0
  7  8  1  0  0  0  0
  7  9  1  0  0  0  0
  9 10  1  0  0  0  0
  9 11  1  0  0  0  0
  9 25  1  0  0  0  0
 11 12  1  0  0  0  0
 11 13  1  0  0  0  0
 11 14  1  0  0  0  0
 14 15  1  0  0  0  0
 14 23  2  0  0  0  0
 15 16  1  0  0  0  0
 15 17  2  0  0  0  0
 17 18  1  0  0  0  0
 17 19  1  0  0  0  0
 19 20  1  0  0  0  0
 19 21  2  0  0  0  0
 21 22  1  0  0  0  0
 21 23  1  0  0  0  0
 23 24  1  0  0  0  0
 25 26  2  0  0  0  0
 25 27  1  0  0  0  0
 27 28  1  0  0  0  0
 27 29  1  0  0  0  0
 29 30  1  0  0  0  0
 29 31  1  0  0  0  0
 29 32  1  0  0  0  0
M  END
$$$$

  -OEChem-01062216093D

 32 32  0     1  0  0  0  0  0999 V2000
   -3.2406   -2.3591    1.0502 H   0  0  0  0  0  0  0  0  0  0  0  0
   -3.2457   -1.4780    0.4022 C   0  0  0  0  0  0  0  0  0  0  0  0
   -3.9548   -0.7509    0.8045 H   0  0  0  0  0  0  0  0  0  0  0  0
   -3.5663   -1.7786   -0.5980 H   0  0  0  0  0  0  0  0  0  0  0  0
   -1.8574   -0.8693    0.3392 C   0  0  0  0  0  0  0  0  0  0  0  0
   -0.9351   -1.4166    0.9189 O   0  0  0  0  0  0  0  0  0  0  0  0
   -1.6529    0.2723   -0.4120 N   0  0  0  0  0  0  0  0  0  0  0  0
   -2.4775    0.6963   -0.8225 H   0  0  0  0  0  0  0  0  0  0  0  0
   -0.3943    1.0397   -0.4041 C   0  0  1  0  0  0  0  0  0  0  0  0
    0.4423    0.3738   -0.1627 H   0  0  0  0  0  0  0  0  0  0  0  0
   -0.1358    1.6209   -1.8068 C   0  0  0  0  0  0  0  0  0  0  0  0
   -0.9961    2.2132   -2.1338 H   0  0  0  0  0  0  0  0  0  0  0  0
    0.7292    2.2917   -1.7671 H   0  0  0  0  0  0  0  0  0  0  0  0
    0.1449    0.5296   -2.8125 C   0  0  0  0  0  0  0  0  0  0  0  0
    1.4250   -0.0378   -2.9006 C   0  0  0  0  0  0  0  0  0  0  0  0
    2.2178    0.2997   -2.2393 H   0  0  0  0  0  0  0  0  0  0  0  0
    1.6919   -1.0486   -3.8300 C   0  0  0  0  0  0  0  0  0  0  0  0
    2.6852   -1.4845   -3.8858 H   0  0  0  0  0  0  0  0  0  0  0  0
    0.6798   -1.5007   -4.6819 C   0  0  0  0  0  0  0  0  0  0  0  0
    0.8872   -2.2871   -5.4017 H   0  0  0  0  0  0  0  0  0  0  0  0
   -0.5989   -0.9411   -4.6029 C   0  0  0  0  0  0  0  0  0  0  0  0
   -1.3857   -1.2930   -5.2634 H   0  0  0  0  0  0  0  0  0  0  0  0
   -0.8643    0.0699   -3.6728 C   0  0  0  0  0  0  0  0  0  0  0  0
   -1.8615    0.4944   -3.6219 H   0  0  0  0  0  0  0  0  0  0  0  0
   -0.4015    2.1408    0.6802 C   0  0  0  0  0  0  0  0  0  0  0  0
   -0.0091    1.9048    1.8128 O   0  0  0  0  0  0  0  0  0  0  0  0
   -0.8681    3.4150    0.3987 N   0  0  0  0  0  0  0  0  0  0  0  0
   -1.1769    3.6062   -0.5484 H   0  0  0  0  0  0  0  0  0  0  0  0
   -0.8927    4.4938    1.3799 C   0  0  0  0  0  0  0  0  0  0  0  0
    0.1200    4.7118    1.7348 H   0  0  0  0  0  0  0  0  0  0  0  0
   -1.3057    5.4031    0.9331 H   0  0  0  0  0  0  0  0  0  0  0  0
   -1.5147    4.2174    2.2378 H   0  0  0  0  0  0  0  0  0  0  0  0
  1  2  1  0  0  0  0
  2  3  1  0  0  0  0
  2  4  1  0  0  0  0
  2  5  1  0  0  0  0
  5  6  2  0  0  0  0
  5  7  1  0  0  0  0
  7  8  1  0  0  0  0
  7  9  1  0  0  0  0
  9 10  1  0  0  0  0
  9 11  1  0  0  0  0
  9 25  1  0  0  0  0
 11 12  1  0  0  0  0
 11 13  1  0  0  0  0
 11 14  1  0  0  0  0
 14 15  1  0  0  0  0
 14 23  2  0  0  0  0
 15 16  1  0  0  0  0
 15 17  2  0  0  0  0
 17 18  1  0  0  0  0
 17 19  1  0  0  0  0
 19 20  1  0  0  0  0
 19 21  2  0  0  0  0
 21 22  1  0  0  0  0
 21 23  1  0  0  0  0
 23 24  1  0  0  0  0
 25 26  2  0  0  0  0
 25 27  1  0  0  0  0
 27 28  1  0  0  0  0
 27 29  1  0  0  0  0
 29 30  1  0  0  0  0
 29 31  1  0  0  0  0
 29 32  1  0  0  0  0
M  END
$$$$

  -OEChem-01062216093D

 32 32  0     1  0  0  0  0  0999 V2000
   -3.1902   -2.4935    0.8958 H   0  0  0  0  0  0  0  0  0  0  0  0
   -3.1914   -1.6151    0.2440 C   0  0  0  0  0  0  0  0  0  0  0  0
   -4.0424   -0.9829    0.5078 H   0  0  0  0  0  0  0  0  0  0  0  0
   -3.2964   -1.9466   -0.7917 H   0  0  0  0  0  0  0  0  0  0  0  0
   -1.8978   -0.8402    0.4116 C   0  0  0  0  0  0  0  0  0  0  0  0
   -1.0587   -1.2352    1.2016 O   0  0  0  0  0  0  0  0  0  0  0  0
   -1.6793    0.2909   -0.3508 N   0  0  0  0  0  0  0  0  0  0  0  0
   -2.3718    0.5017   -1.0608 H   0  0  0  0  0  0  0  0  0  0  0  0
   -0.4137    1.0461   -0.3523 C   0  0  1  0  0  0  0  0  0  0  0  0
    0.4147    0.3682   -0.1138 H   0  0  0  0  0  0  0  0  0  0  0  0
   -0.1540    1.6322   -1.7515 C   0  0  0  0  0  0  0  0  0  0  0  0
   -1.0055    2.2404   -2.0713 H   0  0  0  0  0  0  0  0  0  0  0  0
    0.7193    2.2925   -1.7089 H   0  0  0  0  0  0  0  0  0  0  0  0
    0.1094    0.5407   -2.7615 C   0  0  0  0  0  0  0  0  0  0  0  0
    1.3821   -0.0416   -2.8544 C   0  0  0  0  0  0  0  0  0  0  0  0
    2.1796    0.2840   -2.1924 H   0  0  0  0  0  0  0  0  0  0  0  0
    1.6345   -1.0530   -3.7872 C   0  0  0  0  0  0  0  0  0  0  0  0
    2.6213   -1.5033   -3.8439 H   0  0  0  0  0  0  0  0  0  0  0  0
    0.6174   -1.4859   -4.6426 C   0  0  0  0  0  0  0  0  0  0  0  0
    0.8143   -2.2717   -5.3661 H   0  0  0  0  0  0  0  0  0  0  0  0
   -0.6519   -0.9053   -4.5650 C   0  0  0  0  0  0  0  0  0  0  0  0
   -1.4402   -1.2389   -5.2333 H   0  0  0  0  0  0  0  0  0  0  0  0
   -0.9042    0.1044   -3.6295 C   0  0  0  0  0  0  0  0  0  0  0  0
   -1.8928    0.5494   -3.5862 H   0  0  0  0  0  0  0  0  0  0  0  0
   -0.3981    2.1601    0.7165 C   0  0  0  0  0  0  0  0  0  0  0  0
    0.3600    2.0945    1.6729 O   0  0  0  0  0  0  0  0  0  0  0  0
   -1.1216    3.3262    0.5262 N   0  0  0  0  0  0  0  0  0  0  0  0
   -1.7563    3.3593   -0.2641 H   0  0  0  0  0  0  0  0  0  0  0  0
   -1.1070    4.4393    1.4683 C   0  0  0  0  0  0  0  0  0  0  0  0
   -0.0922    4.8366    1.5762 H   0  0  0  0  0  0  0  0  0  0  0  0
   -1.7567    5.2449    1.1133 H   0  0  0  0  0  0  0  0  0  0  0  0
   -1.4639    4.1137    2.4510 H   0  0  0  0  0  0  0  0  0  0  0  0
  1  2  1  0  0  0  0
  2  3  1  0  0  0  0
  2  4  1  0  0  0  0
  2  5  1  0  0  0  0
  5  6  2  0  0  0  0
  5  7  1  0  0  0  0
  7  8  1  0  0  0  0
  7  9  1  0  0  0  0
  9 10  1  0  0  0  0
  9 11  1  0  0  0  0
  9 25  1  0  0  0  0
 11 12  1  0  0  0  0
 11 13  1  0  0  0  0
 11 14  1  0  0  0  0
 14 15  1  0  0  0  0
 14 23  2  0  0  0  0
 15 16  1  0  0  0  0
 15 17  2  0  0  0  0
 17 18  1  0  0  0  0
 17 19  1  0  0  0  0
 19 20  1  0  0  0  0
 19 21  2  0  0  0  0
 21 22  1  0  0  0  0
 21 23  1  0  0  0  0
 23 24  1  0  0  0  0
 25 26  2  0  0  0  0
 25 27  1  0  0  0  0
 27 28  1  0  0  0  0
 27 29  1  0  0  0  0
 29 30  1  0  0  0  0
 29 31  1  0  0  0  0
 29 32  1  0  0  0  0
M  END
$$$$

  -OEChem-01062216093D

 32 32  0     1  0  0  0  0  0999 V2000
   -3.1227   -2.5736    0.8134 H   0  0  0  0  0  0  0  0  0  0  0  0
   -3.1345   -1.6976    0.1585 C   0  0  0  0  0  0  0  0  0  0  0  0
   -4.0554   -1.1371    0.3364 H   0  0  0  0  0  0  0  0  0  0  0  0
   -3.1150   -2.0362   -0.8803 H   0  0  0  0  0  0  0  0  0  0  0  0
   -1.9297   -0.8201    0.4421 C   0  0  0  0  0  0  0  0  0  0  0  0
   -1.1713   -1.1105    1.3504 O   0  0  0  0  0  0  0  0  0  0  0  0
   -1.7057    0.3010   -0.3324 N   0  0  0  0  0  0  0  0  0  0  0  0
   -2.2778    0.3754   -1.1670 H   0  0  0  0  0  0  0  0  0  0  0  0
   -0.4272    1.0350   -0.3180 C   0  0  1  0  0  0  0  0  0  0  0  0
    0.3893    0.3439   -0.0766 H   0  0  0  0  0  0  0  0  0  0  0  0
   -0.1542    1.6343   -1.7079 C   0  0  0  0  0  0  0  0  0  0  0  0
   -0.9941    2.2632   -2.0197 H   0  0  0  0  0  0  0  0  0  0  0  0
    0.7303    2.2791   -1.6551 H   0  0  0  0  0  0  0  0  0  0  0  0
    0.0933    0.5492   -2.7283 C   0  0  0  0  0  0  0  0  0  0  0  0
    1.3561   -0.0534   -2.8234 C   0  0  0  0  0  0  0  0  0  0  0  0
    2.1569    0.2535   -2.1564 H   0  0  0  0  0  0  0  0  0  0  0  0
    1.5938   -1.0590   -3.7659 C   0  0  0  0  0  0  0  0  0  0  0  0
    2.5736   -1.5238   -3.8267 H   0  0  0  0  0  0  0  0  0  0  0  0
    0.5710   -1.4661   -4.6273 C   0  0  0  0  0  0  0  0  0  0  0  0
    0.7568   -2.2467   -5.3592 H   0  0  0  0  0  0  0  0  0  0  0  0
   -0.6889   -0.8654   -4.5468 C   0  0  0  0  0  0  0  0  0  0  0  0
   -1.4808   -1.1782   -5.2212 H   0  0  0  0  0  0  0  0  0  0  0  0
   -0.9260    0.1396   -3.6026 C   0  0  0  0  0  0  0  0  0  0  0  0
   -1.9057    0.6042   -3.5594 H   0  0  0  0  0  0  0  0  0  0  0  0
   -0.3999    2.1533    0.7424 C   0  0  0  0  0  0  0  0  0  0  0  0
    0.5615    2.2684    1.4895 O   0  0  0  0  0  0  0  0  0  0  0  0
   -1.3259    3.1808    0.6878 N   0  0  0  0  0  0  0  0  0  0  0  0
   -2.1391    3.0342    0.0995 H   0  0  0  0  0  0  0  0  0  0  0  0
   -1.3151    4.3126    1.6064 C   0  0  0  0  0  0  0  0  0  0  0  0
   -0.3698    4.8601    1.5283 H   0  0  0  0  0  0  0  0  0  0  0  0
   -2.1317    5.0009    1.3685 H   0  0  0  0  0  0  0  0  0  0  0  0
   -1.4393    3.9692    2.6389 H   0  0  0  0  0  0  0  0  0  0  0  0
  1  2  1  0  0  0  0
  2  3  1  0  0  0  0
  2  4  1  0  0  0  0
  2  5  1  0  0  0  0
  5  6  2  0  0  0  0
  5  7  1  0  0  0  0
  7  8  1  0  0  0  0
  7  9  1  0  0  0  0
  9 10  1  0  0  0  0
  9 11  1  0  0  0  0
  9 25  1  0  0  0  0
 11 12  1  0  0  0  0
 11 13  1  0  0  0  0
 11 14  1  0  0  0  0
 14 15  1  0  0  0  0
 14 23  2  0  0  0  0
 15 16  1  0  0  0  0
 15 17  2  0  0  0  0
 17 18  1  0  0  0  0
 17 19  1  0  0  0  0
 19 20  1  0  0  0  0
 19 21  2  0  0  0  0
 21 22  1  0  0  0  0
 21 23  1  0  0  0  0
 23 24  1  0  0  0  0
 25 26  2  0  0  0  0
 25 27  1  0  0  0  0
 27 28  1  0  0  0  0
 27 29  1  0  0  0  0
 29 30  1  0  0  0  0
 29 31  1  0  0  0  0
 29 32  1  0  0  0  0
M  END
$$$$

  -OEChem-01062216093D

 32 32  0     1  0  0  0  0  0999 V2000
   -3.0968   -2.6006    0.7867 H   0  0  0  0  0  0  0  0  0  0  0  0
   -3.1117   -1.7247    0.1317 C   0  0  0  0  0  0  0  0  0  0  0  0
   -4.0520   -1.1887    0.2815 H   0  0  0  0  0  0  0  0  0  0  0  0
   -3.0519   -2.0624   -0.9057 H   0  0  0  0  0  0  0  0  0  0  0  0
   -1.9398   -0.8153    0.4501 C   0  0  0  0  0  0  0  0  0  0  0  0
   -1.2148   -1.0685    1.3962 O   0  0  0  0  0  0  0  0  0  0  0  0
   -1.7103    0.3011   -0.3295 N   0  0  0  0  0  0  0  0  0  0  0  0
   -2.2456    0.3431   -1.1909 H   0  0  0  0  0  0  0  0  0  0  0  0
   -0.4253    1.0247   -0.3047 C   0  0  1  0  0  0  0  0  0  0  0  0
    0.3863    0.3288   -0.0610 H   0  0  0  0  0  0  0  0  0  0  0  0
   -0.1495    1.6295   -1.6909 C   0  0  0  0  0  0  0  0  0  0  0  0
   -0.9849    2.2676   -1.9962 H   0  0  0  0  0  0  0  0  0  0  0  0
    0.7402    2.2672   -1.6368 H   0  0  0  0  0  0  0  0  0  0  0  0
    0.0894    0.5480   -2.7172 C   0  0  0  0  0  0  0  0  0  0  0  0
    1.3478   -0.0628   -2.8163 C   0  0  0  0  0  0  0  0  0  0  0  0
    2.1509    0.2351   -2.1477 H   0  0  0  0  0  0  0  0  0  0  0  0
    1.5787   -1.0635   -3.7658 C   0  0  0  0  0  0  0  0  0  0  0  0
    2.5555   -1.5339   -3.8296 H   0  0  0  0  0  0  0  0  0  0  0  0
    0.5538   -1.4572   -4.6309 C   0  0  0  0  0  0  0  0  0  0  0  0
    0.7353   -2.2327   -5.3695 H   0  0  0  0  0  0  0  0  0  0  0  0
   -0.7016   -0.8476   -4.5467 C   0  0  0  0  0  0  0  0  0  0  0  0
   -1.4949   -1.1487   -5.2247 H   0  0  0  0  0  0  0  0  0  0  0  0
   -0.9323    0.1523   -3.5952 C   0  0  0  0  0  0  0  0  0  0  0  0
   -1.9083    0.6252   -3.5503 H   0  0  0  0  0  0  0  0  0  0  0  0
   -0.3916    2.1462    0.7510 C   0  0  0  0  0  0  0  0  0  0  0  0
    0.6613    2.4305    1.3054 O   0  0  0  0  0  0  0  0  0  0  0  0
   -1.4698    3.0035    0.8818 N   0  0  0  0  0  0  0  0  0  0  0  0
   -2.3438    2.6943    0.4694 H   0  0  0  0  0  0  0  0  0  0  0  0
   -1.4879    4.1212    1.8173 C   0  0  0  0  0  0  0  0  0  0  0  0
   -0.6674    4.8139    1.6026 H   0  0  0  0  0  0  0  0  0  0  0  0
   -2.4310    4.6692    1.7331 H   0  0  0  0  0  0  0  0  0  0  0  0
   -1.3848    3.7611    2.8463 H   0  0  0  0  0  0  0  0  0  0  0  0
  1  2  1  0  0  0  0
  2  3  1  0  0  0  0
  2  4  1  0  0  0  0
  2  5  1  0  0  0  0
  5  6  2  0  0  0  0
  5  7  1  0  0  0  0
  7  8  1  0  0  0  0
  7  9  1  0  0  0  0
  9 10  1  0  0  0  0
  9 11  1  0  0  0  0
  9 25  1  0  0  0  0
 11 12  1  0  0  0  0
 11 13  1  0  0  0  0
 11 14  1  0  0  0  0
 14 15  1  0  0  0  0
 14 23  2  0  0  0  0
 15 16  1  0  0  0  0
 15 17  2  0  0  0  0
 17 18  1  0  0  0  0
 17 19  1  0  0  0  0
 19 20  1  0  0  0  0
 19 21  2  0  0  0  0
 21 22  1  0  0  0  0
 21 23  1  0  0  0  0
 23 24  1  0  0  0  0
 25 26  2  0  0  0  0
 25 27  1  0  0  0  0
 27 28  1  0  0  0  0
 27 29  1  0  0  0  0
 29 30  1  0  0  0  0
 29 31  1  0  0  0  0
 29 32  1  0  0  0  0
M  END
$$$$

  -OEChem-01062216093D

 32 32  0     1  0  0  0  0  0999 V2000
   -3.1116   -2.5815    0.7910 H   0  0  0  0  0  0  0  0  0  0  0  0
   -3.0968   -1.7309    0.1036 C   0  0  0  0  0  0  0  0  0  0  0  0
   -4.0424   -1.1907    0.1911 H   0  0  0  0  0  0  0  0  0  0  0  0
   -2.9910   -2.1068   -0.9169 H   0  0  0  0  0  0  0  0  0  0  0  0
   -1.9391   -0.8096    0.4393 C   0  0  0  0  0  0  0  0  0  0  0  0
   -1.2318   -1.0467    1.4032 O   0  0  0  0  0  0  0  0  0  0  0  0
   -1.7054    0.3067   -0.3386 N   0  0  0  0  0  0  0  0  0  0  0  0
   -2.2274    0.3438   -1.2085 H   0  0  0  0  0  0  0  0  0  0  0  0
   -0.4178    1.0265   -0.3057 C   0  0  1  0  0  0  0  0  0  0  0  0
    0.3924    0.3295   -0.0618 H   0  0  0  0  0  0  0  0  0  0  0  0
   -0.1434    1.6338   -1.6918 C   0  0  0  0  0  0  0  0  0  0  0  0
   -0.9785    2.2744   -1.9931 H   0  0  0  0  0  0  0  0  0  0  0  0
    0.7475    2.2697   -1.6403 H   0  0  0  0  0  0  0  0  0  0  0  0
    0.0915    0.5520   -2.7188 C   0  0  0  0  0  0  0  0  0  0  0  0
    1.3478   -0.0626   -2.8219 C   0  0  0  0  0  0  0  0  0  0  0  0
    2.1554    0.2380   -2.1599 H   0  0  0  0  0  0  0  0  0  0  0  0
    1.5691   -1.0710   -3.7657 C   0  0  0  0  0  0  0  0  0  0  0  0
    2.5435   -1.5463   -3.8317 H   0  0  0  0  0  0  0  0  0  0  0  0
    0.5376   -1.4663   -4.6224 C   0  0  0  0  0  0  0  0  0  0  0  0
    0.7110   -2.2484   -5.3558 H   0  0  0  0  0  0  0  0  0  0  0  0
   -0.7141   -0.8496   -4.5371 C   0  0  0  0  0  0  0  0  0  0  0  0
   -1.5122   -1.1508   -5.2094 H   0  0  0  0  0  0  0  0  0  0  0  0
   -0.9352    0.1571   -3.5910 C   0  0  0  0  0  0  0  0  0  0  0  0
   -1.9081    0.6359   -3.5448 H   0  0  0  0  0  0  0  0  0  0  0  0
   -0.3834    2.1473    0.7517 C   0  0  0  0  0  0  0  0  0  0  0  0
    0.6916    2.5925    1.1311 O   0  0  0  0  0  0  0  0  0  0  0  0
   -1.5470    2.8088    1.1010 N   0  0  0  0  0  0  0  0  0  0  0  0
   -2.4142    2.3460    0.8478 H   0  0  0  0  0  0  0  0  0  0  0  0
   -1.5832    3.8858    2.0821 C   0  0  0  0  0  0  0  0  0  0  0  0
   -0.9396    4.7136    1.7659 H   0  0  0  0  0  0  0  0  0  0  0  0
   -2.6036    4.2656    2.1901 H   0  0  0  0  0  0  0  0  0  0  0  0
   -1.2403    3.5255    3.0578 H   0  0  0  0  0  0  0  0  0  0  0  0
  1  2  1  0  0  0  0
  2  3  1  0  0  0  0
  2  4  1  0  0  0  0
  2  5  1  0  0  0  0
  5  6  2  0  0  0  0
  5  7  1  0  0  0  0
  7  8  1  0  0  0  0
  7  9  1  0  0  0  0
  9 10  1  0  0  0  0
  9 11  1  0  0  0  0
  9 25  1  0  0  0  0
 11 12  1  0  0  0  0
 11 13  1  0  0  0  0
 11 14  1  0  0  0  0
 14 15  1  0  0  0  0
 14 23  2  0  0  0  0
 15 16  1  0  0  0  0
 15 17  2  0  0  0  0
 17 18  1  0  0  0  0
 17 19  1  0  0  0  0
 19 20  1  0  0  0  0
 19 21  2  0  0  0  0
 21 22  1  0  0  0  0
 21 23  1  0  0  0  0
 23 24  1  0  0  0  0
 25 26  2  0  0  0  0
 25 27  1  0  0  0  0
 27 28  1  0  0  0  0
 27 29  1  0  0  0  0
 29 30  1  0  0  0  0
 29 31  1  0  0  0  0
 29 32  1  0  0  0  0
M  END
$$$$

  -OEChem-01062216093D

 32 32  0     1  0  0  0  0  0999 V2000
   -3.0839   -2.6058    0.7390 H   0  0  0  0  0  0  0  0  0  0  0  0
   -3.0907   -1.7348    0.0775 C   0  0  0  0  0  0  0  0  0  0  0  0
   -4.0434   -1.2124    0.1917 H   0  0  0  0  0  0  0  0  0  0  0  0
   -2.9914   -2.0788   -0.9550 H   0  0  0  0  0  0  0  0  0  0  0  0
   -1.9435   -0.8059    0.4274 C   0  0  0  0  0  0  0  0  0  0  0  0
   -1.2515   -1.0312    1.4051 O   0  0  0  0  0  0  0  0  0  0  0  0
   -1.7059    0.3124   -0.3457 N   0  0  0  0  0  0  0  0  0  0  0  0
   -2.2250    0.3549   -1.2174 H   0  0  0  0  0  0  0  0  0  0  0  0
   -0.4174    1.0319   -0.3049 C   0  0  1  0  0  0  0  0  0  0  0  0
    0.3918    0.3339   -0.0608 H   0  0  0  0  0  0  0  0  0  0  0  0
   -0.1476    1.6327   -1.6962 C   0  0  0  0  0  0  0  0  0  0  0  0
   -0.9857    2.2696   -1.9968 H   0  0  0  0  0  0  0  0  0  0  0  0
    0.7412    2.2720   -1.6538 H   0  0  0  0  0  0  0  0  0  0  0  0
    0.0875    0.5467   -2.7195 C   0  0  0  0  0  0  0  0  0  0  0  0
    1.3451   -0.0654   -2.8232 C   0  0  0  0  0  0  0  0  0  0  0  0
    2.1529    0.2381   -2.1626 H   0  0  0  0  0  0  0  0  0  0  0  0
    1.5683   -1.0739   -3.7668 C   0  0  0  0  0  0  0  0  0  0  0  0
    2.5444   -1.5456   -3.8349 H   0  0  0  0  0  0  0  0  0  0  0  0
    0.5364   -1.4734   -4.6212 C   0  0  0  0  0  0  0  0  0  0  0  0
    0.7109   -2.2556   -5.3542 H   0  0  0  0  0  0  0  0  0  0  0  0
   -0.7170   -0.8604   -4.5344 C   0  0  0  0  0  0  0  0  0  0  0  0
   -1.5151   -1.1649   -5.2051 H   0  0  0  0  0  0  0  0  0  0  0  0
   -0.9395    0.1470   -3.5894 C   0  0  0  0  0  0  0  0  0  0  0  0
   -1.9139    0.6225   -3.5421 H   0  0  0  0  0  0  0  0  0  0  0  0
   -0.3785    2.1533    0.7550 C   0  0  0  0  0  0  0  0  0  0  0  0
    0.6694    2.7455    0.9781 O   0  0  0  0  0  0  0  0  0  0  0  0
   -1.5472    2.6121    1.3350 N   0  0  0  0  0  0  0  0  0  0  0  0
   -2.3626    2.0190    1.2145 H   0  0  0  0  0  0  0  0  0  0  0  0
   -1.5744    3.6481    2.3600 C   0  0  0  0  0  0  0  0  0  0  0  0
   -1.1272    4.5735    1.9819 H   0  0  0  0  0  0  0  0  0  0  0  0
   -2.6063    3.8608    2.6549 H   0  0  0  0  0  0  0  0  0  0  0  0
   -1.0188    3.3242    3.2464 H   0  0  0  0  0  0  0  0  0  0  0  0
  1  2  1  0  0  0  0
  2  3  1  0  0  0  0
  2  4  1  0  0  0  0
  2  5  1  0  0  0  0
  5  6  2  0  0  0  0
  5  7  1  0  0  0  0
  7  8  1  0  0  0  0
  7  9  1  0  0  0  0
  9 10  1  0  0  0  0
  9 11  1  0  0  0  0
  9 25  1  0  0  0  0
 11 12  1  0  0  0  0
 11 13  1  0  0  0  0
 11 14  1  0  0  0  0
 14 15  1  0  0  0  0
 14 23  2  0  0  0  0
 15 16  1  0  0  0  0
 15 17  2  0  0  0  0
 17 18  1  0  0  0  0
 17 19  1  0  0  0  0
 19 20  1  0  0  0  0
 19 21  2  0  0  0  0
 21 22  1  0  0  0  0
 21 23  1  0  0  0  0
 23 24  1  0  0  0  0
 25 26  2  0  0  0  0
 25 27  1  0  0  0  0
 27 28  1  0  0  0  0
 27 29  1  0  0  0  0
 29 30  1  0  0  0  0
 29 31  1  0  0  0  0
 29 32  1  0  0  0  0
M  END
$$$$

  -OEChem-01062216093D

 32 32  0     1  0  0  0  0  0999 V2000
   -3.0842   -2.5986    0.7145 H   0  0  0  0  0  0  0  0  0  0  0  0
   -3.0888   -1.7267    0.0543 C   0  0  0  0  0  0  0  0  0  0  0  0
   -4.0431   -1.2060    0.1639 H   0  0  0  0  0  0  0  0  0  0  0  0
   -2.9833   -2.0687   -0.9783 H   0  0  0  0  0  0  0  0  0  0  0  0
   -1.9453   -0.7962    0.4118 C   0  0  0  0  0  0  0  0  0  0  0  0
   -1.2694   -1.0081    1.4040 O   0  0  0  0  0  0  0  0  0  0  0  0
   -1.7054    0.3262   -0.3535 N   0  0  0  0  0  0  0  0  0  0  0  0
   -2.2311    0.3826   -1.2204 H   0  0  0  0  0  0  0  0  0  0  0  0
   -0.4172    1.0469   -0.3118 C   0  0  1  0  0  0  0  0  0  0  0  0
    0.3917    0.3487   -0.0685 H   0  0  0  0  0  0  0  0  0  0  0  0
   -0.1512    1.6393   -1.7091 C   0  0  0  0  0  0  0  0  0  0  0  0
   -0.9917    2.2719   -2.0123 H   0  0  0  0  0  0  0  0  0  0  0  0
    0.7366    2.2806   -1.6782 H   0  0  0  0  0  0  0  0  0  0  0  0
    0.0842    0.5459   -2.7244 C   0  0  0  0  0  0  0  0  0  0  0  0
    1.3430   -0.0644   -2.8255 C   0  0  0  0  0  0  0  0  0  0  0  0
    2.1512    0.2456   -2.1686 H   0  0  0  0  0  0  0  0  0  0  0  0
    1.5668   -1.0792   -3.7620 C   0  0  0  0  0  0  0  0  0  0  0  0
    2.5435   -1.5499   -3.8276 H   0  0  0  0  0  0  0  0  0  0  0  0
    0.5349   -1.4860   -4.6129 C   0  0  0  0  0  0  0  0  0  0  0  0
    0.7098   -2.2727   -5.3412 H   0  0  0  0  0  0  0  0  0  0  0  0
   -0.7192   -0.8735   -4.5300 C   0  0  0  0  0  0  0  0  0  0  0  0
   -1.5173   -1.1820   -5.1990 H   0  0  0  0  0  0  0  0  0  0  0  0
   -0.9425    0.1401   -3.5916 C   0  0  0  0  0  0  0  0  0  0  0  0
   -1.9167    0.6162   -3.5479 H   0  0  0  0  0  0  0  0  0  0  0  0
   -0.3777    2.1639    0.7558 C   0  0  0  0  0  0  0  0  0  0  0  0
    0.5906    2.9099    0.8312 O   0  0  0  0  0  0  0  0  0  0  0  0
   -1.4760    2.4085    1.5594 N   0  0  0  0  0  0  0  0  0  0  0  0
   -2.1737    1.6699    1.5785 H   0  0  0  0  0  0  0  0  0  0  0  0
   -1.4732    3.3969    2.6301 C   0  0  0  0  0  0  0  0  0  0  0  0
   -1.2525    4.3928    2.2319 H   0  0  0  0  0  0  0  0  0  0  0  0
   -2.4528    3.4306    3.1161 H   0  0  0  0  0  0  0  0  0  0  0  0
   -0.7195    3.1433    3.3828 H   0  0  0  0  0  0  0  0  0  0  0  0
  1  2  1  0  0  0  0
  2  3  1  0  0  0  0
  2  4  1  0  0  0  0
  2  5  1  0  0  0  0
  5  6  2  0  0  0  0
  5  7  1  0  0  0  0
  7  8  1  0  0  0  0
  7  9  1  0  0  0  0
  9 10  1  0  0  0  0
  9 11  1  0  0  0  0
  9 25  1  0  0  0  0
 11 12  1  0  0  0  0
 11 13  1  0  0  0  0
 11 14  1  0  0  0  0
 14 15  1  0  0  0  0
 14 23  2  0  0  0  0
 15 16  1  0  0  0  0
 15 17  2  0  0  0  0
 17 18  1  0  0  0  0
 17 19  1  0  0  0  0
 19 20  1  0  0  0  0
 19 21  2  0  0  0  0
 21 22  1  0  0  0  0
 21 23  1  0  0  0  0
 23 24  1  0  0  0  0
 25 26  2  0  0  0  0
 25 27  1  0  0  0  0
 27 28  1  0  0  0  0
 27 29  1  0  0  0  0
 29 30  1  0  0  0  0
 29 31  1  0  0  0  0
 29 32  1  0  0  0  0
M  END
$$$$

  -OEChem-01062216093D

 32 32  0     1  0  0  0  0  0999 V2000
   -3.1020   -2.5710    0.7017 H   0  0  0  0  0  0  0  0  0  0  0  0
   -3.0746   -1.7191    0.0165 C   0  0  0  0  0  0  0  0  0  0  0  0
   -4.0325   -1.1956    0.0657 H   0  0  0  0  0  0  0  0  0  0  0  0
   -2.9211   -2.0911   -0.9997 H   0  0  0  0  0  0  0  0  0  0  0  0
   -1.9482   -0.7776    0.3983 C   0  0  0  0  0  0  0  0  0  0  0  0
   -1.2992   -0.9708    1.4127 O   0  0  0  0  0  0  0  0  0  0  0  0
   -1.7036    0.3495   -0.3570 N   0  0  0  0  0  0  0  0  0  0  0  0
   -2.2285    0.4133   -1.2240 H   0  0  0  0  0  0  0  0  0  0  0  0
   -0.4127    1.0653   -0.3147 C   0  0  1  0  0  0  0  0  0  0  0  0
    0.3926    0.3626   -0.0735 H   0  0  0  0  0  0  0  0  0  0  0  0
   -0.1491    1.6511   -1.7166 C   0  0  0  0  0  0  0  0  0  0  0  0
   -0.9875    2.2864   -2.0198 H   0  0  0  0  0  0  0  0  0  0  0  0
    0.7423    2.2871   -1.6939 H   0  0  0  0  0  0  0  0  0  0  0  0
    0.0803    0.5519   -2.7269 C   0  0  0  0  0  0  0  0  0  0  0  0
    1.3375   -0.0614   -2.8282 C   0  0  0  0  0  0  0  0  0  0  0  0
    2.1505    0.2545   -2.1803 H   0  0  0  0  0  0  0  0  0  0  0  0
    1.5552   -1.0857   -3.7553 C   0  0  0  0  0  0  0  0  0  0  0  0
    2.5312   -1.5574   -3.8219 H   0  0  0  0  0  0  0  0  0  0  0  0
    0.5180   -1.5001   -4.5960 C   0  0  0  0  0  0  0  0  0  0  0  0
    0.6890   -2.2942   -5.3171 H   0  0  0  0  0  0  0  0  0  0  0  0
   -0.7352   -0.8860   -4.5122 C   0  0  0  0  0  0  0  0  0  0  0  0
   -1.5374   -1.2015   -5.1728 H   0  0  0  0  0  0  0  0  0  0  0  0
   -0.9521    0.1379   -3.5836 C   0  0  0  0  0  0  0  0  0  0  0  0
   -1.9258    0.6154   -3.5382 H   0  0  0  0  0  0  0  0  0  0  0  0
   -0.3719    2.1729    0.7657 C   0  0  0  0  0  0  0  0  0  0  0  0
    0.4599    3.0706    0.7112 O   0  0  0  0  0  0  0  0  0  0  0  0
   -1.3276    2.2079    1.7640 N   0  0  0  0  0  0  0  0  0  0  0  0
   -1.8472    1.3414    1.8897 H   0  0  0  0  0  0  0  0  0  0  0  0
   -1.2903    3.1627    2.8639 C   0  0  0  0  0  0  0  0  0  0  0  0
   -1.3116    4.1888    2.4814 H   0  0  0  0  0  0  0  0  0  0  0  0
   -2.1571    3.0211    3.5163 H   0  0  0  0  0  0  0  0  0  0  0  0
   -0.3805    3.0265    3.4579 H   0  0  0  0  0  0  0  0  0  0  0  0
  1  2  1  0  0  0  0
  2  3  1  0  0  0  0
  2  4  1  0  0  0  0
  2  5  1  0  0  0  0
  5  6  2  0  0  0  0
  5  7  1  0  0  0  0
  7  8  1  0  0  0  0
  7  9  1  0  0  0  0
  9 10  1  0  0  0  0
  9 11  1  0  0  0  0
  9 25  1  0  0  0  0
 11 12  1  0  0  0  0
 11 13  1  0  0  0  0
 11 14  1  0  0  0  0
 14 15  1  0  0  0  0
 14 23  2  0  0  0  0
 15 16  1  0  0  0  0
 15 17  2  0  0  0  0
 17 18  1  0  0  0  0
 17 19  1  0  0  0  0
 19 20  1  0  0  0  0
 19 21  2  0  0  0  0
 21 22  1  0  0  0  0
 21 23  1  0  0  0  0
 23 24  1  0  0  0  0
 25 26  2  0  0  0  0
 25 27  1  0  0  0  0
 27 28  1  0  0  0  0
 27 29  1  0  0  0  0
 29 30  1  0  0  0  0
 29 31  1  0  0  0  0
 29 32  1  0  0  0  0
M  END
$$$$

  -OEChem-01062216093D

 32 32  0     1  0  0  0  0  0999 V2000
   -3.0956   -2.5505    0.7026 H   0  0  0  0  0  0  0  0  0  0  0  0
   -3.0824   -1.6842    0.0354 C   0  0  0  0  0  0  0  0  0  0  0  0
   -4.0315   -1.1512    0.1298 H   0  0  0  0  0  0  0  0  0  0  0  0
   -2.9693   -2.0354   -0.9932 H   0  0  0  0  0  0  0  0  0  0  0  0
   -1.9321   -0.7644    0.3972 C   0  0  0  0  0  0  0  0  0  0  0  0
   -1.2627   -0.9759    1.3960 O   0  0  0  0  0  0  0  0  0  0  0  0
   -1.6876    0.3659   -0.3533 N   0  0  0  0  0  0  0  0  0  0  0  0
   -2.2392    0.4583   -1.2006 H   0  0  0  0  0  0  0  0  0  0  0  0
   -0.3961    1.0796   -0.3217 C   0  0  1  0  0  0  0  0  0  0  0  0
    0.4102    0.3773   -0.0838 H   0  0  0  0  0  0  0  0  0  0  0  0
   -0.1343    1.6582   -1.7275 C   0  0  0  0  0  0  0  0  0  0  0  0
   -0.9716    2.2945   -2.0319 H   0  0  0  0  0  0  0  0  0  0  0  0
    0.7594    2.2912   -1.7095 H   0  0  0  0  0  0  0  0  0  0  0  0
    0.0898    0.5521   -2.7325 C   0  0  0  0  0  0  0  0  0  0  0  0
    1.3442   -0.0671   -2.8355 C   0  0  0  0  0  0  0  0  0  0  0  0
    2.1606    0.2477   -2.1914 H   0  0  0  0  0  0  0  0  0  0  0  0
    1.5546   -1.0963   -3.7593 C   0  0  0  0  0  0  0  0  0  0  0  0
    2.5286   -1.5722   -3.8274 H   0  0  0  0  0  0  0  0  0  0  0  0
    0.5130   -1.5103   -4.5949 C   0  0  0  0  0  0  0  0  0  0  0  0
    0.6780   -2.3084   -5.3130 H   0  0  0  0  0  0  0  0  0  0  0  0
   -0.7374   -0.8908   -4.5090 C   0  0  0  0  0  0  0  0  0  0  0  0
   -1.5431   -1.2052   -5.1659 H   0  0  0  0  0  0  0  0  0  0  0  0
   -0.9469    0.1375   -3.5836 C   0  0  0  0  0  0  0  0  0  0  0  0
   -1.9190    0.6181   -3.5366 H   0  0  0  0  0  0  0  0  0  0  0  0
   -0.3619    2.1783    0.7691 C   0  0  0  0  0  0  0  0  0  0  0  0
    0.2716    3.2152    0.6120 O   0  0  0  0  0  0  0  0  0  0  0  0
   -1.1079    2.0198    1.9222 N   0  0  0  0  0  0  0  0  0  0  0  0
   -1.4505    1.0724    2.0875 H   0  0  0  0  0  0  0  0  0  0  0  0
   -1.0641    2.9530    3.0402 C   0  0  0  0  0  0  0  0  0  0  0  0
   -1.3552    3.9568    2.7135 H   0  0  0  0  0  0  0  0  0  0  0  0
   -1.7560    2.6328    3.8252 H   0  0  0  0  0  0  0  0  0  0  0  0
   -0.0549    2.9980    3.4627 H   0  0  0  0  0  0  0  0  0  0  0  0
  1  2  1  0  0  0  0
  2  3  1  0  0  0  0
  2  4  1  0  0  0  0
  2  5  1  0  0  0  0
  5  6  2  0  0  0  0
  5  7  1  0  0  0  0
  7  8  1  0  0  0  0
  7  9  1  0  0  0  0
  9 10  1  0  0  0  0
  9 11  1  0  0  0  0
  9 25  1  0  0  0  0
 11 12  1  0  0  0  0
 11 13  1  0  0  0  0
 11 14  1  0  0  0  0
 14 15  1  0  0  0  0
 14 23  2  0  0  0  0
 15 16  1  0  0  0  0
 15 17  2  0  0  0  0
 17 18  1  0  0  0  0
 17 19  1  0  0  0  0
 19 20  1  0  0  0  0
 19 21  2  0  0  0  0
 21 22  1  0  0  0  0
 21 23  1  0  0  0  0
 23 24  1  0  0  0  0
 25 26  2  0  0  0  0
 25 27  1  0  0  0  0
 27 28  1  0  0  0  0
 27 29  1  0  0  0  0
 29 30  1  0  0  0  0
 29 31  1  0  0  0  0
 29 32  1  0  0  0  0
M  END
$$$$

  -OEChem-01062216093D

 32 32  0     1  0  0  0  0  0999 V2000
   -3.1140   -2.5167    0.7470 H   0  0  0  0  0  0  0  0  0  0  0  0
   -3.1003   -1.6477    0.0833 C   0  0  0  0  0  0  0  0  0  0  0  0
   -4.0290   -1.0875    0.2166 H   0  0  0  0  0  0  0  0  0  0  0  0
   -3.0370   -1.9966   -0.9505 H   0  0  0  0  0  0  0  0  0  0  0  0
   -1.9105   -0.7636    0.4050 C   0  0  0  0  0  0  0  0  0  0  0  0
   -1.2000   -1.0118    1.3675 O   0  0  0  0  0  0  0  0  0  0  0  0
   -1.6666    0.3665   -0.3466 N   0  0  0  0  0  0  0  0  0  0  0  0
   -2.2521    0.4924   -1.1665 H   0  0  0  0  0  0  0  0  0  0  0  0
   -0.3758    1.0795   -0.3261 C   0  0  1  0  0  0  0  0  0  0  0  0
    0.4334    0.3796   -0.0910 H   0  0  0  0  0  0  0  0  0  0  0  0
   -0.1178    1.6566   -1.7330 C   0  0  0  0  0  0  0  0  0  0  0  0
   -0.9553    2.2937   -2.0351 H   0  0  0  0  0  0  0  0  0  0  0  0
    0.7762    2.2896   -1.7142 H   0  0  0  0  0  0  0  0  0  0  0  0
    0.1026    0.5518   -2.7400 C   0  0  0  0  0  0  0  0  0  0  0  0
    1.3564   -0.0680   -2.8480 C   0  0  0  0  0  0  0  0  0  0  0  0
    2.1756    0.2454   -2.2070 H   0  0  0  0  0  0  0  0  0  0  0  0
    1.5628   -1.0956   -3.7747 C   0  0  0  0  0  0  0  0  0  0  0  0
    2.5367   -1.5708   -3.8488 H   0  0  0  0  0  0  0  0  0  0  0  0
    0.5174   -1.5089   -4.6057 C   0  0  0  0  0  0  0  0  0  0  0  0
    0.6795   -2.3058   -5.3257 H   0  0  0  0  0  0  0  0  0  0  0  0
   -0.7328   -0.8903   -4.5132 C   0  0  0  0  0  0  0  0  0  0  0  0
   -1.5417   -1.2050   -5.1659 H   0  0  0  0  0  0  0  0  0  0  0  0
   -0.9382    0.1374   -3.5861 C   0  0  0  0  0  0  0  0  0  0  0  0
   -1.9100    0.6177   -3.5333 H   0  0  0  0  0  0  0  0  0  0  0  0
   -0.3485    2.1747    0.7668 C   0  0  0  0  0  0  0  0  0  0  0  0
    0.0614    3.3067    0.5388 O   0  0  0  0  0  0  0  0  0  0  0  0
   -0.8283    1.8776    2.0279 N   0  0  0  0  0  0  0  0  0  0  0  0
   -1.0546    0.8953    2.1981 H   0  0  0  0  0  0  0  0  0  0  0  0
   -0.7862    2.8034    3.1513 C   0  0  0  0  0  0  0  0  0  0  0  0
   -1.3397    3.7181    2.9147 H   0  0  0  0  0  0  0  0  0  0  0  0
   -1.2404    2.3445    4.0349 H   0  0  0  0  0  0  0  0  0  0  0  0
    0.2489    3.0688    3.3903 H   0  0  0  0  0  0  0  0  0  0  0  0
  1  2  1  0  0  0  0
  2  3  1  0  0  0  0
  2  4  1  0  0  0  0
  2  5  1  0  0  0  0
  5  6  2  0  0  0  0
  5  7  1  0  0  0  0
  7  8  1  0  0  0  0
  7  9  1  0  0  0  0
  9 10  1  0  0  0  0
  9 11  1  0  0  0  0
  9 25  1  0  0  0  0
 11 12  1  0  0  0  0
 11 13  1  0  0  0  0
 11 14  1  0  0  0  0
 14 15  1  0  0  0  0
 14 23  2  0  0  0  0
 15 16  1  0  0  0  0
 15 17  2  0  0  0  0
 17 18  1  0  0  0  0
 17 19  1  0  0  0  0
 19 20  1  0  0  0  0
 19 21  2  0  0  0  0
 21 22  1  0  0  0  0
 21 23  1  0  0  0  0
 23 24  1  0  0  0  0
 25 26  2  0  0  0  0
 25 27  1  0  0  0  0
 27 28  1  0  0  0  0
 27 29  1  0  0  0  0
 29 30  1  0  0  0  0
 29 31  1  0  0  0  0
 29 32  1  0  0  0  0
M  END
$$$$

  -OEChem-01062216093D

 32 32  0     1  0  0  0  0  0999 V2000
   -3.0954   -2.4992    0.8010 H   0  0  0  0  0  0  0  0  0  0  0  0
   -3.1053   -1.6119    0.1619 C   0  0  0  0  0  0  0  0  0  0  0  0
   -4.0111   -1.0371    0.3699 H   0  0  0  0  0  0  0  0  0  0  0  0
   -3.1156   -1.9322   -0.8829 H   0  0  0  0  0  0  0  0  0  0  0  0
   -1.8788   -0.7612    0.4316 C   0  0  0  0  0  0  0  0  0  0  0  0
   -1.1316   -1.0339    1.3599 O   0  0  0  0  0  0  0  0  0  0  0  0
   -1.6355    0.3619   -0.3314 N   0  0  0  0  0  0  0  0  0  0  0  0
   -2.2504    0.5139   -1.1249 H   0  0  0  0  0  0  0  0  0  0  0  0
   -0.3415    1.0659   -0.3273 C   0  0  1  0  0  0  0  0  0  0  0  0
    0.4688    0.3657   -0.0971 H   0  0  0  0  0  0  0  0  0  0  0  0
   -0.0875    1.6418   -1.7344 C   0  0  0  0  0  0  0  0  0  0  0  0
   -0.9240    2.2836   -2.0304 H   0  0  0  0  0  0  0  0  0  0  0  0
    0.8087    2.2717   -1.7162 H   0  0  0  0  0  0  0  0  0  0  0  0
    0.1191    0.5409   -2.7483 C   0  0  0  0  0  0  0  0  0  0  0  0
    1.3678   -0.0867   -2.8665 C   0  0  0  0  0  0  0  0  0  0  0  0
    2.1897    0.2131   -2.2230 H   0  0  0  0  0  0  0  0  0  0  0  0
    1.5658   -1.1032   -3.8070 C   0  0  0  0  0  0  0  0  0  0  0  0
    2.5356   -1.5854   -3.8884 H   0  0  0  0  0  0  0  0  0  0  0  0
    0.5169   -1.4961   -4.6436 C   0  0  0  0  0  0  0  0  0  0  0  0
    0.6719   -2.2833   -5.3757 H   0  0  0  0  0  0  0  0  0  0  0  0
   -0.7285   -0.8694   -4.5409 C   0  0  0  0  0  0  0  0  0  0  0  0
   -1.5402   -1.1680   -5.1977 H   0  0  0  0  0  0  0  0  0  0  0  0
   -0.9254    0.1461   -3.5988 C   0  0  0  0  0  0  0  0  0  0  0  0
   -1.8932    0.6337   -3.5386 H   0  0  0  0  0  0  0  0  0  0  0  0
   -0.3145    2.1635    0.7603 C   0  0  0  0  0  0  0  0  0  0  0  0
   -0.1443    3.3464    0.4886 O   0  0  0  0  0  0  0  0  0  0  0  0
   -0.4931    1.7926    2.0787 N   0  0  0  0  0  0  0  0  0  0  0  0
   -0.6593    0.7981    2.2508 H   0  0  0  0  0  0  0  0  0  0  0  0
   -0.5080    2.7278    3.1950 C   0  0  0  0  0  0  0  0  0  0  0  0
   -1.3110    3.4612    3.0685 H   0  0  0  0  0  0  0  0  0  0  0  0
   -0.6731    2.1916    4.1345 H   0  0  0  0  0  0  0  0  0  0  0  0
    0.4476    3.2580    3.2626 H   0  0  0  0  0  0  0  0  0  0  0  0
  1  2  1  0  0  0  0
  2  3  1  0  0  0  0
  2  4  1  0  0  0  0
  2  5  1  0  0  0  0
  5  6  2  0  0  0  0
  5  7  1  0  0  0  0
  7  8  1  0  0  0  0
  7  9  1  0  0  0  0
  9 10  1  0  0  0  0
  9 11  1  0  0  0  0
  9 25  1  0  0  0  0
 11 12  1  0  0  0  0
 11 13  1  0  0  0  0
 11 14  1  0  0  0  0
 14 15  1  0  0  0  0
 14 23  2  0  0  0  0
 15 16  1  0  0  0  0
 15 17  2  0  0  0  0
 17 18  1  0  0  0  0
 17 19  1  0  0  0  0
 19 20  1  0  0  0  0
 19 21  2  0  0  0  0
 21 22  1  0  0  0  0
 21 23  1  0  0  0  0
 23 24  1  0  0  0  0
 25 26  2  0  0  0  0
 25 27  1  0  0  0  0
 27 28  1  0  0  0  0
 27 29  1  0  0  0  0
 29 30  1  0  0  0  0
 29 31  1  0  0  0  0
 29 32  1  0  0  0  0
M  END
$$$$

  -OEChem-01062216093D

 32 32  0     1  0  0  0  0  0999 V2000
   -3.0987   -2.4433    0.8760 H   0  0  0  0  0  0  0  0  0  0  0  0
   -3.0903   -1.5811    0.2032 C   0  0  0  0  0  0  0  0  0  0  0  0
   -3.9835   -0.9796    0.3891 H   0  0  0  0  0  0  0  0  0  0  0  0
   -3.1091   -1.9408   -0.8284 H   0  0  0  0  0  0  0  0  0  0  0  0
   -1.8456   -0.7468    0.4383 C   0  0  0  0  0  0  0  0  0  0  0  0
   -1.0717   -1.0319    1.3416 O   0  0  0  0  0  0  0  0  0  0  0  0
   -1.6080    0.3717   -0.3332 N   0  0  0  0  0  0  0  0  0  0  0  0
   -2.2450    0.5451   -1.1047 H   0  0  0  0  0  0  0  0  0  0  0  0
   -0.3117    1.0674   -0.3389 C   0  0  1  0  0  0  0  0  0  0  0  0
    0.4992    0.3656   -0.1159 H   0  0  0  0  0  0  0  0  0  0  0  0
   -0.0609    1.6484   -1.7439 C   0  0  0  0  0  0  0  0  0  0  0  0
   -0.8954    2.2949   -2.0351 H   0  0  0  0  0  0  0  0  0  0  0  0
    0.8378    2.2744   -1.7241 H   0  0  0  0  0  0  0  0  0  0  0  0
    0.1330    0.5483   -2.7610 C   0  0  0  0  0  0  0  0  0  0  0  0
    1.3770   -0.0877   -2.8866 C   0  0  0  0  0  0  0  0  0  0  0  0
    2.2073    0.2094   -2.2522 H   0  0  0  0  0  0  0  0  0  0  0  0
    1.5601   -1.1098   -3.8240 C   0  0  0  0  0  0  0  0  0  0  0  0
    2.5267   -1.5971   -3.9124 H   0  0  0  0  0  0  0  0  0  0  0  0
    0.5008   -1.5024   -4.6475 C   0  0  0  0  0  0  0  0  0  0  0  0
    0.6446   -2.2956   -5.3754 H   0  0  0  0  0  0  0  0  0  0  0  0
   -0.7403   -0.8686   -4.5361 C   0  0  0  0  0  0  0  0  0  0  0  0
   -1.5608   -1.1678   -5.1815 H   0  0  0  0  0  0  0  0  0  0  0  0
   -0.9224    0.1542   -3.5988 C   0  0  0  0  0  0  0  0  0  0  0  0
   -1.8877    0.6461   -3.5301 H   0  0  0  0  0  0  0  0  0  0  0  0
   -0.2871    2.1630    0.7468 C   0  0  0  0  0  0  0  0  0  0  0  0
   -0.3624    3.3549    0.4711 O   0  0  0  0  0  0  0  0  0  0  0  0
   -0.1515    1.7728    2.0645 N   0  0  0  0  0  0  0  0  0  0  0  0
   -0.2480    0.7706    2.2427 H   0  0  0  0  0  0  0  0  0  0  0  0
   -0.2076    2.6992    3.1867 C   0  0  0  0  0  0  0  0  0  0  0  0
   -1.1845    3.1916    3.2278 H   0  0  0  0  0  0  0  0  0  0  0  0
   -0.0484    2.1627    4.1270 H   0  0  0  0  0  0  0  0  0  0  0  0
    0.5694    3.4646    3.0906 H   0  0  0  0  0  0  0  0  0  0  0  0
  1  2  1  0  0  0  0
  2  3  1  0  0  0  0
  2  4  1  0  0  0  0
  2  5  1  0  0  0  0
  5  6  2  0  0  0  0
  5  7  1  0  0  0  0
  7  8  1  0  0  0  0
  7  9  1  0  0  0  0
  9 10  1  0  0  0  0
  9 11  1  0  0  0  0
  9 25  1  0  0  0  0
 11 12  1  0  0  0  0
 11 13  1  0  0  0  0
 11 14  1  0  0  0  0
 14 15  1  0  0  0  0
 14 23  2  0  0  0  0
 15 16  1  0  0  0  0
 15 17  2  0  0  0  0
 17 18  1  0  0  0  0
 17 19  1  0  0  0  0
 19 20  1  0  0  0  0
 19 21  2  0  0  0  0
 21 22  1  0  0  0  0
 21 23  1  0  0  0  0
 23 24  1  0  0  0  0
 25 26  2  0  0  0  0
 25 27  1  0  0  0  0
 27 28  1  0  0  0  0
 27 29  1  0  0  0  0
 29 30  1  0  0  0  0
 29 31  1  0  0  0  0
 29 32  1  0  0  0  0
M  END
$$$$

  -OEChem-01062216093D

 32 32  0     1  0  0  0  0  0999 V2000
   -3.1052   -2.4283    0.9329 H   0  0  0  0  0  0  0  0  0  0  0  0
   -3.1153   -1.5518    0.2790 C   0  0  0  0  0  0  0  0  0  0  0  0
   -3.9725   -0.9265    0.5401 H   0  0  0  0  0  0  0  0  0  0  0  0
   -3.2179   -1.8866   -0.7560 H   0  0  0  0  0  0  0  0  0  0  0  0
   -1.8296   -0.7642    0.4439 C   0  0  0  0  0  0  0  0  0  0  0  0
   -1.0148   -1.0848    1.2981 O   0  0  0  0  0  0  0  0  0  0  0  0
   -1.5943    0.3478   -0.3373 N   0  0  0  0  0  0  0  0  0  0  0  0
   -2.2825    0.5851   -1.0450 H   0  0  0  0  0  0  0  0  0  0  0  0
   -0.3026    1.0485   -0.3479 C   0  0  1  0  0  0  0  0  0  0  0  0
    0.5135    0.3529   -0.1242 H   0  0  0  0  0  0  0  0  0  0  0  0
   -0.0513    1.6329   -1.7507 C   0  0  0  0  0  0  0  0  0  0  0  0
   -0.8882    2.2761   -2.0424 H   0  0  0  0  0  0  0  0  0  0  0  0
    0.8434    2.2640   -1.7254 H   0  0  0  0  0  0  0  0  0  0  0  0
    0.1485    0.5396   -2.7747 C   0  0  0  0  0  0  0  0  0  0  0  0
    1.3940   -0.0929   -2.9050 C   0  0  0  0  0  0  0  0  0  0  0  0
    2.2218    0.1984   -2.2652 H   0  0  0  0  0  0  0  0  0  0  0  0
    1.5817   -1.1034   -3.8546 C   0  0  0  0  0  0  0  0  0  0  0  0
    2.5490   -1.5883   -3.9466 H   0  0  0  0  0  0  0  0  0  0  0  0
    0.5256   -1.4876   -4.6861 C   0  0  0  0  0  0  0  0  0  0  0  0
    0.6719   -2.2705   -5.4246 H   0  0  0  0  0  0  0  0  0  0  0  0
   -0.7174   -0.8589   -4.5684 C   0  0  0  0  0  0  0  0  0  0  0  0
   -1.5366   -1.1518   -5.2184 H   0  0  0  0  0  0  0  0  0  0  0  0
   -0.9038    0.1511   -3.6182 C   0  0  0  0  0  0  0  0  0  0  0  0
   -1.8709    0.6381   -3.5432 H   0  0  0  0  0  0  0  0  0  0  0  0
   -0.2935    2.1516    0.7284 C   0  0  0  0  0  0  0  0  0  0  0  0
   -0.6247    3.3034    0.4711 O   0  0  0  0  0  0  0  0  0  0  0  0
    0.1448    1.8297    1.9981 N   0  0  0  0  0  0  0  0  0  0  0  0
    0.2046    0.8314    2.2014 H   0  0  0  0  0  0  0  0  0  0  0  0
    0.1038    2.7674    3.1125 C   0  0  0  0  0  0  0  0  0  0  0  0
   -0.9276    3.0703    3.3210 H   0  0  0  0  0  0  0  0  0  0  0  0
    0.5187    2.3030    4.0123 H   0  0  0  0  0  0  0  0  0  0  0  0
    0.6943    3.6607    2.8832 H   0  0  0  0  0  0  0  0  0  0  0  0
  1  2  1  0  0  0  0
  2  3  1  0  0  0  0
  2  4  1  0  0  0  0
  2  5  1  0  0  0  0
  5  6  2  0  0  0  0
  5  7  1  0  0  0  0
  7  8  1  0  0  0  0
  7  9  1  0  0  0  0
  9 10  1  0  0  0  0
  9 11  1  0  0  0  0
  9 25  1  0  0  0  0
 11 12  1  0  0  0  0
 11 13  1  0  0  0  0
 11 14  1  0  0  0  0
 14 15  1  0  0  0  0
 14 23  2  0  0  0  0
 15 16  1  0  0  0  0
 15 17  2  0  0  0  0
 17 18  1  0  0  0  0
 17 19  1  0  0  0  0
 19 20  1  0  0  0  0
 19 21  2  0  0  0  0
 21 22  1  0  0  0  0
 21 23  1  0  0  0  0
 23 24  1  0  0  0  0
 25 26  2  0  0  0  0
 25 27  1  0  0  0  0
 27 28  1  0  0  0  0
 27 29  1  0  0  0  0
 29 30  1  0  0  0  0
 29 31  1  0  0  0  0
 29 32  1  0  0  0  0
M  END
$$$$

  -OEChem-01062216093D

 32 32  0     1  0  0  0  0  0999 V2000
   -3.1720   -2.3827    1.0096 H   0  0  0  0  0  0  0  0  0  0  0  0
   -3.1680   -1.5097    0.3507 C   0  0  0  0  0  0  0  0  0  0  0  0
   -3.9601   -0.8259    0.6657 H   0  0  0  0  0  0  0  0  0  0  0  0
   -3.3656   -1.8400   -0.6721 H   0  0  0  0  0  0  0  0  0  0  0  0
   -1.8229   -0.8114    0.4178 C   0  0  0  0  0  0  0  0  0  0  0  0
   -0.9582   -1.2134    1.1830 O   0  0  0  0  0  0  0  0  0  0  0  0
   -1.5867    0.3046   -0.3572 N   0  0  0  0  0  0  0  0  0  0  0  0
   -2.3533    0.6701   -0.9139 H   0  0  0  0  0  0  0  0  0  0  0  0
   -0.3047    1.0227   -0.3629 C   0  0  1  0  0  0  0  0  0  0  0  0
    0.5181    0.3344   -0.1428 H   0  0  0  0  0  0  0  0  0  0  0  0
   -0.0570    1.6196   -1.7602 C   0  0  0  0  0  0  0  0  0  0  0  0
   -0.9032    2.2517   -2.0502 H   0  0  0  0  0  0  0  0  0  0  0  0
    0.8280    2.2641   -1.7279 H   0  0  0  0  0  0  0  0  0  0  0  0
    0.1606    0.5370   -2.7915 C   0  0  0  0  0  0  0  0  0  0  0  0
    1.4152   -0.0772   -2.9223 C   0  0  0  0  0  0  0  0  0  0  0  0
    2.2370    0.2212   -2.2781 H   0  0  0  0  0  0  0  0  0  0  0  0
    1.6196   -1.0794   -3.8773 C   0  0  0  0  0  0  0  0  0  0  0  0
    2.5937   -1.5505   -3.9696 H   0  0  0  0  0  0  0  0  0  0  0  0
    0.5705   -1.4741   -4.7128 C   0  0  0  0  0  0  0  0  0  0  0  0
    0.7286   -2.2515   -5.4546 H   0  0  0  0  0  0  0  0  0  0  0  0
   -0.6821   -0.8650   -4.5930 C   0  0  0  0  0  0  0  0  0  0  0  0
   -1.4971   -1.1681   -5.2437 H   0  0  0  0  0  0  0  0  0  0  0  0
   -0.8850    0.1365   -3.6374 C   0  0  0  0  0  0  0  0  0  0  0  0
   -1.8603    0.6058   -3.5568 H   0  0  0  0  0  0  0  0  0  0  0  0
   -0.3037    2.1289    0.7093 C   0  0  0  0  0  0  0  0  0  0  0  0
   -0.8968    3.1851    0.5221 O   0  0  0  0  0  0  0  0  0  0  0  0
    0.4108    1.9413    1.8770 N   0  0  0  0  0  0  0  0  0  0  0  0
    0.7148    0.9878    2.0656 H   0  0  0  0  0  0  0  0  0  0  0  0
    0.3935    2.8965    2.9776 C   0  0  0  0  0  0  0  0  0  0  0  0
   -0.6247    3.0217    3.3606 H   0  0  0  0  0  0  0  0  0  0  0  0
    1.0308    2.5434    3.7941 H   0  0  0  0  0  0  0  0  0  0  0  0
    0.7679    3.8706    2.6458 H   0  0  0  0  0  0  0  0  0  0  0  0
  1  2  1  0  0  0  0
  2  3  1  0  0  0  0
  2  4  1  0  0  0  0
  2  5  1  0  0  0  0
  5  6  2  0  0  0  0
  5  7  1  0  0  0  0
  7  8  1  0  0  0  0
  7  9  1  0  0  0  0
  9 10  1  0  0  0  0
  9 11  1  0  0  0  0
  9 25  1  0  0  0  0
 11 12  1  0  0  0  0
 11 13  1  0  0  0  0
 11 14  1  0  0  0  0
 14 15  1  0  0  0  0
 14 23  2  0  0  0  0
 15 16  1  0  0  0  0
 15 17  2  0  0  0  0
 17 18  1  0  0  0  0
 17 19  1  0  0  0  0
 19 20  1  0  0  0  0
 19 21  2  0  0  0  0
 21 22  1  0  0  0  0
 21 23  1  0  0  0  0
 23 24  1  0  0  0  0
 25 26  2  0  0  0  0
 25 27  1  0  0  0  0
 27 28  1  0  0  0  0
 27 29  1  0  0  0  0
 29 30  1  0  0  0  0
 29 31  1  0  0  0  0
 29 32  1  0  0  0  0
M  END
$$$$

  -OEChem-01062216093D

 32 32  0     1  0  0  0  0  0999 V2000
   -3.2125   -2.3348    1.0856 H   0  0  0  0  0  0  0  0  0  0  0  0
   -3.2019   -1.4680    0.4187 C   0  0  0  0  0  0  0  0  0  0  0  0
   -3.9339   -0.7393    0.7753 H   0  0  0  0  0  0  0  0  0  0  0  0
   -3.4817   -1.7934   -0.5861 H   0  0  0  0  0  0  0  0  0  0  0  0
   -1.8191   -0.8445    0.3940 C   0  0  0  0  0  0  0  0  0  0  0  0
   -0.9259   -1.3071    1.0882 O   0  0  0  0  0  0  0  0  0  0  0  0
   -1.5842    0.2711   -0.3821 N   0  0  0  0  0  0  0  0  0  0  0  0
   -2.3892    0.7207   -0.8083 H   0  0  0  0  0  0  0  0  0  0  0  0
   -0.3065    0.9978   -0.3786 C   0  0  1  0  0  0  0  0  0  0  0  0
    0.5183    0.3132   -0.1551 H   0  0  0  0  0  0  0  0  0  0  0  0
   -0.0553    1.6080   -1.7682 C   0  0  0  0  0  0  0  0  0  0  0  0
   -0.9041    2.2376   -2.0557 H   0  0  0  0  0  0  0  0  0  0  0  0
    0.8256    2.2568   -1.7263 H   0  0  0  0  0  0  0  0  0  0  0  0
    0.1737    0.5362   -2.8075 C   0  0  0  0  0  0  0  0  0  0  0  0
    1.4328   -0.0688   -2.9366 C   0  0  0  0  0  0  0  0  0  0  0  0
    2.2507    0.2325   -2.2891 H   0  0  0  0  0  0  0  0  0  0  0  0
    1.6467   -1.0653   -3.8951 C   0  0  0  0  0  0  0  0  0  0  0  0
    2.6241   -1.5297   -3.9861 H   0  0  0  0  0  0  0  0  0  0  0  0
    0.6024   -1.4641   -4.7349 C   0  0  0  0  0  0  0  0  0  0  0  0
    0.7680   -2.2383   -5.4786 H   0  0  0  0  0  0  0  0  0  0  0  0
   -0.6551   -0.8645   -4.6160 C   0  0  0  0  0  0  0  0  0  0  0  0
   -1.4667   -1.1718   -5.2687 H   0  0  0  0  0  0  0  0  0  0  0  0
   -0.8673    0.1315   -3.6566 C   0  0  0  0  0  0  0  0  0  0  0  0
   -1.8471    0.5911   -3.5732 H   0  0  0  0  0  0  0  0  0  0  0  0
   -0.3154    2.1082    0.6879 C   0  0  0  0  0  0  0  0  0  0  0  0
   -1.1208    3.0291    0.6116 O   0  0  0  0  0  0  0  0  0  0  0  0
    0.6142    2.0940    1.7106 N   0  0  0  0  0  0  0  0  0  0  0  0
    1.1457    1.2351    1.8297 H   0  0  0  0  0  0  0  0  0  0  0  0
    0.6145    3.0694    2.7935 C   0  0  0  0  0  0  0  0  0  0  0  0
   -0.3195    3.0106    3.3622 H   0  0  0  0  0  0  0  0  0  0  0  0
    1.4490    2.8776    3.4747 H   0  0  0  0  0  0  0  0  0  0  0  0
    0.7219    4.0839    2.3955 H   0  0  0  0  0  0  0  0  0  0  0  0
  1  2  1  0  0  0  0
  2  3  1  0  0  0  0
  2  4  1  0  0  0  0
  2  5  1  0  0  0  0
  5  6  2  0  0  0  0
  5  7  1  0  0  0  0
  7  8  1  0  0  0  0
  7  9  1  0  0  0  0
  9 10  1  0  0  0  0
  9 11  1  0  0  0  0
  9 25  1  0  0  0  0
 11 12  1  0  0  0  0
 11 13  1  0  0  0  0
 11 14  1  0  0  0  0
 14 15  1  0  0  0  0
 14 23  2  0  0  0  0
 15 16  1  0  0  0  0
 15 17  2  0  0  0  0
 17 18  1  0  0  0  0
 17 19  1  0  0  0  0
 19 20  1  0  0  0  0
 19 21  2  0  0  0  0
 21 22  1  0  0  0  0
 21 23  1  0  0  0  0
 23 24  1  0  0  0  0
 25 26  2  0  0  0  0
 25 27  1  0  0  0  0
 27 28  1  0  0  0  0
 27 29  1  0  0  0  0
 29 30  1  0  0  0  0
 29 31  1  0  0  0  0
 29 32  1  0  0  0  0
M  END
$$$$

  -OEChem-01062216093D

 32 32  0     1  0  0  0  0  0999 V2000
   -3.2332   -2.3042    1.1423 H   0  0  0  0  0  0  0  0  0  0  0  0
   -3.2219   -1.4395    0.4731 C   0  0  0  0  0  0  0  0  0  0  0  0
   -3.9122   -0.6859    0.8600 H   0  0  0  0  0  0  0  0  0  0  0  0
   -3.5556   -1.7563   -0.5178 H   0  0  0  0  0  0  0  0  0  0  0  0
   -1.8212   -0.8637    0.3862 C   0  0  0  0  0  0  0  0  0  0  0  0
   -0.9134   -1.3658    1.0320 O   0  0  0  0  0  0  0  0  0  0  0  0
   -1.5875    0.2479   -0.3966 N   0  0  0  0  0  0  0  0  0  0  0  0
   -2.4066    0.7417   -0.7396 H   0  0  0  0  0  0  0  0  0  0  0  0
   -0.3112    0.9788   -0.3846 C   0  0  1  0  0  0  0  0  0  0  0  0
    0.5135    0.2971   -0.1523 H   0  0  0  0  0  0  0  0  0  0  0  0
   -0.0562    1.5921   -1.7715 C   0  0  0  0  0  0  0  0  0  0  0  0
   -0.9068    2.2191   -2.0599 H   0  0  0  0  0  0  0  0  0  0  0  0
    0.8220    2.2447   -1.7248 H   0  0  0  0  0  0  0  0  0  0  0  0
    0.1817    0.5265   -2.8158 C   0  0  0  0  0  0  0  0  0  0  0  0
    1.4432   -0.0741   -2.9445 C   0  0  0  0  0  0  0  0  0  0  0  0
    2.2573    0.2217   -2.2901 H   0  0  0  0  0  0  0  0  0  0  0  0
    1.6655   -1.0591   -3.9132 C   0  0  0  0  0  0  0  0  0  0  0  0
    2.6449   -1.5197   -4.0045 H   0  0  0  0  0  0  0  0  0  0  0  0
    0.6270   -1.4519   -4.7630 C   0  0  0  0  0  0  0  0  0  0  0  0
    0.7993   -2.2161   -5.5153 H   0  0  0  0  0  0  0  0  0  0  0  0
   -0.6334   -0.8591   -4.6428 C   0  0  0  0  0  0  0  0  0  0  0  0
   -1.4413   -1.1627   -5.3022 H   0  0  0  0  0  0  0  0  0  0  0  0
   -0.8541    0.1254   -3.6735 C   0  0  0  0  0  0  0  0  0  0  0  0
   -1.8366    0.5791   -3.5888 H   0  0  0  0  0  0  0  0  0  0  0  0
   -0.3294    2.0979    0.6737 C   0  0  0  0  0  0  0  0  0  0  0  0
   -1.2814    2.8684    0.7321 O   0  0  0  0  0  0  0  0  0  0  0  0
    0.7514    2.2834    1.5159 N   0  0  0  0  0  0  0  0  0  0  0  0
    1.4554    1.5505    1.5293 H   0  0  0  0  0  0  0  0  0  0  0  0
    0.7680    3.2867    2.5734 C   0  0  0  0  0  0  0  0  0  0  0  0
   -0.0318    3.0940    3.2962 H   0  0  0  0  0  0  0  0  0  0  0  0
    1.7262    3.2638    3.1012 H   0  0  0  0  0  0  0  0  0  0  0  0
    0.6303    4.2889    2.1539 H   0  0  0  0  0  0  0  0  0  0  0  0
  1  2  1  0  0  0  0
  2  3  1  0  0  0  0
  2  4  1  0  0  0  0
  2  5  1  0  0  0  0
  5  6  2  0  0  0  0
  5  7  1  0  0  0  0
  7  8  1  0  0  0  0
  7  9  1  0  0  0  0
  9 10  1  0  0  0  0
  9 11  1  0  0  0  0
  9 25  1  0  0  0  0
 11 12  1  0  0  0  0
 11 13  1  0  0  0  0
 11 14  1  0  0  0  0
 14 15  1  0  0  0  0
 14 23  2  0  0  0  0
 15 16  1  0  0  0  0
 15 17  2  0  0  0  0
 17 18  1  0  0  0  0
 17 19  1  0  0  0  0
 19 20  1  0  0  0  0
 19 21  2  0  0  0  0
 21 22  1  0  0  0  0
 21 23  1  0  0  0  0
 23 24  1  0  0  0  0
 25 26  2  0  0  0  0
 25 27  1  0  0  0  0
 27 28  1  0  0  0  0
 27 29  1  0  0  0  0
 29 30  1  0  0  0  0
 29 31  1  0  0  0  0
 29 32  1  0  0  0  0
M  END
$$$$

  -OEChem-01062216093D

 32 32  0     1  0  0  0  0  0999 V2000
   -3.2430   -2.2982    1.1556 H   0  0  0  0  0  0  0  0  0  0  0  0
   -3.2342   -1.4320    0.4880 C   0  0  0  0  0  0  0  0  0  0  0  0
   -3.9016   -0.6677    0.8936 H   0  0  0  0  0  0  0  0  0  0  0  0
   -3.5979   -1.7407   -0.4950 H   0  0  0  0  0  0  0  0  0  0  0  0
   -1.8274   -0.8777    0.3677 C   0  0  0  0  0  0  0  0  0  0  0  0
   -0.9105   -1.4032    0.9812 O   0  0  0  0  0  0  0  0  0  0  0  0
   -1.6003    0.2368   -0.4131 N   0  0  0  0  0  0  0  0  0  0  0  0
   -2.4272    0.7522   -0.7015 H   0  0  0  0  0  0  0  0  0  0  0  0
   -0.3276    0.9753   -0.3893 C   0  0  1  0  0  0  0  0  0  0  0  0
    0.4990    0.2974   -0.1519 H   0  0  0  0  0  0  0  0  0  0  0  0
   -0.0694    1.5937   -1.7732 C   0  0  0  0  0  0  0  0  0  0  0  0
   -0.9229    2.2154   -2.0638 H   0  0  0  0  0  0  0  0  0  0  0  0
    0.8045    2.2513   -1.7230 H   0  0  0  0  0  0  0  0  0  0  0  0
    0.1803    0.5311   -2.8171 C   0  0  0  0  0  0  0  0  0  0  0  0
    1.4463   -0.0612   -2.9395 C   0  0  0  0  0  0  0  0  0  0  0  0
    2.2559    0.2408   -2.2824 H   0  0  0  0  0  0  0  0  0  0  0  0
    1.6780   -1.0477   -3.9040 C   0  0  0  0  0  0  0  0  0  0  0  0
    2.6601   -1.5028   -3.9899 H   0  0  0  0  0  0  0  0  0  0  0  0
    0.6452   -1.4501   -4.7561 C   0  0  0  0  0  0  0  0  0  0  0  0
    0.8246   -2.2169   -5.5041 H   0  0  0  0  0  0  0  0  0  0  0  0
   -0.6192   -0.8646   -4.6427 C   0  0  0  0  0  0  0  0  0  0  0  0
   -1.4227   -1.1754   -5.3037 H   0  0  0  0  0  0  0  0  0  0  0  0
   -0.8497    0.1216   -3.6776 C   0  0  0  0  0  0  0  0  0  0  0  0
   -1.8358    0.5680   -3.5961 H   0  0  0  0  0  0  0  0  0  0  0  0
   -0.3495    2.0951    0.6691 C   0  0  0  0  0  0  0  0  0  0  0  0
   -1.3869    2.7089    0.8945 O   0  0  0  0  0  0  0  0  0  0  0  0
    0.8202    2.4833    1.2962 N   0  0  0  0  0  0  0  0  0  0  0  0
    1.6379    1.8964    1.1581 H   0  0  0  0  0  0  0  0  0  0  0  0
    0.8659    3.5182    2.3217 C   0  0  0  0  0  0  0  0  0  0  0  0
    0.2387    3.2399    3.1752 H   0  0  0  0  0  0  0  0  0  0  0  0
    1.8923    3.6543    2.6755 H   0  0  0  0  0  0  0  0  0  0  0  0
    0.5104    4.4728    1.9195 H   0  0  0  0  0  0  0  0  0  0  0  0
  1  2  1  0  0  0  0
  2  3  1  0  0  0  0
  2  4  1  0  0  0  0
  2  5  1  0  0  0  0
  5  6  2  0  0  0  0
  5  7  1  0  0  0  0
  7  8  1  0  0  0  0
  7  9  1  0  0  0  0
  9 10  1  0  0  0  0
  9 11  1  0  0  0  0
  9 25  1  0  0  0  0
 11 12  1  0  0  0  0
 11 13  1  0  0  0  0
 11 14  1  0  0  0  0
 14 15  1  0  0  0  0
 14 23  2  0  0  0  0
 15 16  1  0  0  0  0
 15 17  2  0  0  0  0
 17 18  1  0  0  0  0
 17 19  1  0  0  0  0
 19 20  1  0  0  0  0
 19 21  2  0  0  0  0
 21 22  1  0  0  0  0
 21 23  1  0  0  0  0
 23 24  1  0  0  0  0
 25 26  2  0  0  0  0
 25 27  1  0  0  0  0
 27 28  1  0  0  0  0
 27 29  1  0  0  0  0
 29 30  1  0  0  0  0
 29 31  1  0  0  0  0
 29 32  1  0  0  0  0
M  END
$$$$

  -OEChem-01062216093D

 32 32  0     1  0  0  0  0  0999 V2000
   -3.2481   -2.2848    1.1705 H   0  0  0  0  0  0  0  0  0  0  0  0
   -3.2419   -1.4189    0.5025 C   0  0  0  0  0  0  0  0  0  0  0  0
   -3.8888   -0.6449    0.9232 H   0  0  0  0  0  0  0  0  0  0  0  0
   -3.6319   -1.7220   -0.4721 H   0  0  0  0  0  0  0  0  0  0  0  0
   -1.8297   -0.8861    0.3497 C   0  0  0  0  0  0  0  0  0  0  0  0
   -0.9050   -1.4390    0.9264 O   0  0  0  0  0  0  0  0  0  0  0  0
   -1.6066    0.2321   -0.4276 N   0  0  0  0  0  0  0  0  0  0  0  0
   -2.4375    0.7614   -0.6759 H   0  0  0  0  0  0  0  0  0  0  0  0
   -0.3354    0.9744   -0.3911 C   0  0  1  0  0  0  0  0  0  0  0  0
    0.4927    0.2994   -0.1507 H   0  0  0  0  0  0  0  0  0  0  0  0
   -0.0791    1.5912   -1.7771 C   0  0  0  0  0  0  0  0  0  0  0  0
   -0.9365    2.2068   -2.0692 H   0  0  0  0  0  0  0  0  0  0  0  0
    0.7910    2.2539   -1.7311 H   0  0  0  0  0  0  0  0  0  0  0  0
    0.1776    0.5286   -2.8198 C   0  0  0  0  0  0  0  0  0  0  0  0
    1.4473   -0.0563   -2.9400 C   0  0  0  0  0  0  0  0  0  0  0  0
    2.2534    0.2495   -2.2807 H   0  0  0  0  0  0  0  0  0  0  0  0
    1.6874   -1.0415   -3.9039 C   0  0  0  0  0  0  0  0  0  0  0  0
    2.6725   -1.4912   -3.9868 H   0  0  0  0  0  0  0  0  0  0  0  0
    0.6587   -1.4504   -4.7577 C   0  0  0  0  0  0  0  0  0  0  0  0
    0.8442   -2.2171   -5.5041 H   0  0  0  0  0  0  0  0  0  0  0  0
   -0.6098   -0.8733   -4.6464 C   0  0  0  0  0  0  0  0  0  0  0  0
   -1.4107   -1.1918   -5.3072 H   0  0  0  0  0  0  0  0  0  0  0  0
   -0.8483    0.1117   -3.6818 C   0  0  0  0  0  0  0  0  0  0  0  0
   -1.8383    0.5498   -3.6015 H   0  0  0  0  0  0  0  0  0  0  0  0
   -0.3603    2.0938    0.6712 C   0  0  0  0  0  0  0  0  0  0  0  0
   -1.4283    2.5442    1.0719 O   0  0  0  0  0  0  0  0  0  0  0  0
    0.8171    2.6946    1.0797 N   0  0  0  0  0  0  0  0  0  0  0  0
    1.6881    2.2640    0.7835 H   0  0  0  0  0  0  0  0  0  0  0  0
    0.8638    3.7600    2.0741 C   0  0  0  0  0  0  0  0  0  0  0  0
    0.4443    3.4145    3.0250 H   0  0  0  0  0  0  0  0  0  0  0  0
    1.8982    4.0731    2.2451 H   0  0  0  0  0  0  0  0  0  0  0  0
    0.2928    4.6294    1.7317 H   0  0  0  0  0  0  0  0  0  0  0  0
  1  2  1  0  0  0  0
  2  3  1  0  0  0  0
  2  4  1  0  0  0  0
  2  5  1  0  0  0  0
  5  6  2  0  0  0  0
  5  7  1  0  0  0  0
  7  8  1  0  0  0  0
  7  9  1  0  0  0  0
  9 10  1  0  0  0  0
  9 11  1  0  0  0  0
  9 25  1  0  0  0  0
 11 12  1  0  0  0  0
 11 13  1  0  0  0  0
 11 14  1  0  0  0  0
 14 15  1  0  0  0  0
 14 23  2  0  0  0  0
 15 16  1  0  0  0  0
 15 17  2  0  0  0  0
 17 18  1  0  0  0  0
 17 19  1  0  0  0  0
 19 20  1  0  0  0  0
 19 21  2  0  0  0  0
 21 22  1  0  0  0  0
 21 23  1  0  0  0  0
 23 24  1  0  0  0  0
 25 26  2  0  0  0  0
 25 27  1  0  0  0  0
 27 28  1  0  0  0  0
 27 29  1  0  0  0  0
 29 30  1  0  0  0  0
 29 31  1  0  0  0  0
 29 32  1  0  0  0  0
M  END
$$$$

  -OEChem-01062216093D

 32 32  0     1  0  0  0  0  0999 V2000
   -3.1846   -2.2981    1.2124 H   0  0  0  0  0  0  0  0  0  0  0  0
   -3.2193   -1.4109    0.5741 C   0  0  0  0  0  0  0  0  0  0  0  0
   -3.8077   -0.6392    1.0768 H   0  0  0  0  0  0  0  0  0  0  0  0
   -3.7020   -1.6738   -0.3701 H   0  0  0  0  0  0  0  0  0  0  0  0
   -1.8152   -0.8995    0.3140 C   0  0  0  0  0  0  0  0  0  0  0  0
   -0.8534   -1.4965    0.7753 O   0  0  0  0  0  0  0  0  0  0  0  0
   -1.6319    0.2316   -0.4569 N   0  0  0  0  0  0  0  0  0  0  0  0
   -2.4751    0.7686   -0.6322 H   0  0  0  0  0  0  0  0  0  0  0  0
   -0.3644    0.9810   -0.4111 C   0  0  1  0  0  0  0  0  0  0  0  0
    0.4785    0.2823   -0.4419 H   0  0  0  0  0  0  0  0  0  0  0  0
   -0.2910    1.8957   -1.6487 C   0  0  0  0  0  0  0  0  0  0  0  0
   -1.1787    2.5358   -1.6850 H   0  0  0  0  0  0  0  0  0  0  0  0
    0.5773    2.5577   -1.5748 H   0  0  0  0  0  0  0  0  0  0  0  0
   -0.1723    1.0949   -2.9244 C   0  0  0  0  0  0  0  0  0  0  0  0
    1.0712    0.5873   -3.3305 C   0  0  0  0  0  0  0  0  0  0  0  0
    1.9562    0.7605   -2.7262 H   0  0  0  0  0  0  0  0  0  0  0  0
    1.1845   -0.1537   -4.5118 C   0  0  0  0  0  0  0  0  0  0  0  0
    2.1502   -0.5477   -4.8146 H   0  0  0  0  0  0  0  0  0  0  0  0
    0.0549   -0.3902   -5.3009 C   0  0  0  0  0  0  0  0  0  0  0  0
    0.1429   -0.9665   -6.2173 H   0  0  0  0  0  0  0  0  0  0  0  0
   -1.1878    0.1151   -4.9073 C   0  0  0  0  0  0  0  0  0  0  0  0
   -2.0665   -0.0672   -5.5189 H   0  0  0  0  0  0  0  0  0  0  0  0
   -1.2997    0.8543   -3.7247 C   0  0  0  0  0  0  0  0  0  0  0  0
   -2.2703    1.2394   -3.4287 H   0  0  0  0  0  0  0  0  0  0  0  0
   -0.2256    1.8225    0.8811 C   0  0  0  0  0  0  0  0  0  0  0  0
   -1.1778    1.9644    1.6410 O   0  0  0  0  0  0  0  0  0  0  0  0
    0.9063    2.5900    1.0964 N   0  0  0  0  0  0  0  0  0  0  0  0
    1.7007    2.4331    0.4837 H   0  0  0  0  0  0  0  0  0  0  0  0
    1.0816    3.4426    2.2665 C   0  0  0  0  0  0  0  0  0  0  0  0
    1.0342    2.8472    3.1845 H   0  0  0  0  0  0  0  0  0  0  0  0
    2.0540    3.9430    2.2276 H   0  0  0  0  0  0  0  0  0  0  0  0
    0.3006    4.2094    2.3030 H   0  0  0  0  0  0  0  0  0  0  0  0
  1  2  1  0  0  0  0
  2  3  1  0  0  0  0
  2  4  1  0  0  0  0
  2  5  1  0  0  0  0
  5  6  2  0  0  0  0
  5  7  1  0  0  0  0
  7  8  1  0  0  0  0
  7  9  1  0  0  0  0
  9 10  1  0  0  0  0
  9 11  1  0  0  0  0
  9 25  1  0  0  0  0
 11 12  1  0  0  0  0
 11 13  1  0  0  0  0
 11 14  1  0  0  0  0
 14 15  1  0  0  0  0
 14 23  2  0  0  0  0
 15 16  1  0  0  0  0
 15 17  2  0  0  0  0
 17 18  1  0  0  0  0
 17 19  1  0  0  0  0
 19 20  1  0  0  0  0
 19 21  2  0  0  0  0
 21 22  1  0  0  0  0
 21 23  1  0  0  0  0
 23 24  1  0  0  0  0
 25 26  2  0  0  0  0
 25 27  1  0  0  0  0
 27 28  1  0  0  0  0
 27 29  1  0  0  0  0
 29 30  1  0  0  0  0
 29 31  1  0  0  0  0
 29 32  1  0  0  0  0
M  END
$$$$

  -OEChem-01062216093D

 32 32  0     1  0  0  0  0  0999 V2000
   -3.1751   -2.2882    1.2086 H   0  0  0  0  0  0  0  0  0  0  0  0
   -3.2149   -1.3943    0.5800 C   0  0  0  0  0  0  0  0  0  0  0  0
   -3.7831   -0.6218    1.1038 H   0  0  0  0  0  0  0  0  0  0  0  0
   -3.7218   -1.6421   -0.3555 H   0  0  0  0  0  0  0  0  0  0  0  0
   -1.8116   -0.8952    0.2930 C   0  0  0  0  0  0  0  0  0  0  0  0
   -0.8466   -1.5183    0.7105 O   0  0  0  0  0  0  0  0  0  0  0  0
   -1.6344    0.2449   -0.4673 N   0  0  0  0  0  0  0  0  0  0  0  0
   -2.4799    0.7829   -0.6247 H   0  0  0  0  0  0  0  0  0  0  0  0
   -0.3679    0.9970   -0.4174 C   0  0  1  0  0  0  0  0  0  0  0  0
    0.4771    0.3009   -0.4498 H   0  0  0  0  0  0  0  0  0  0  0  0
   -0.3015    1.9021   -1.6651 C   0  0  0  0  0  0  0  0  0  0  0  0
   -1.1929    2.5368   -1.7055 H   0  0  0  0  0  0  0  0  0  0  0  0
    0.5640    2.5680   -1.6062 H   0  0  0  0  0  0  0  0  0  0  0  0
   -0.1792    1.0899   -2.9330 C   0  0  0  0  0  0  0  0  0  0  0  0
    1.0675    0.5864   -3.3345 C   0  0  0  0  0  0  0  0  0  0  0  0
    1.9507    0.7668   -2.7296 H   0  0  0  0  0  0  0  0  0  0  0  0
    1.1863   -0.1614   -4.5107 C   0  0  0  0  0  0  0  0  0  0  0  0
    2.1541   -0.5533   -4.8093 H   0  0  0  0  0  0  0  0  0  0  0  0
    0.0590   -0.4086   -5.2995 C   0  0  0  0  0  0  0  0  0  0  0  0
    0.1512   -0.9903   -6.2120 H   0  0  0  0  0  0  0  0  0  0  0  0
   -1.1870    0.0915   -4.9100 C   0  0  0  0  0  0  0  0  0  0  0  0
   -2.0637   -0.1010   -5.5212 H   0  0  0  0  0  0  0  0  0  0  0  0
   -1.3047    0.8374   -3.7322 C   0  0  0  0  0  0  0  0  0  0  0  0
   -2.2777    1.2186   -3.4396 H   0  0  0  0  0  0  0  0  0  0  0  0
   -0.2233    1.8294    0.8848 C   0  0  0  0  0  0  0  0  0  0  0  0
   -1.0697    1.7643    1.7696 O   0  0  0  0  0  0  0  0  0  0  0  0
    0.7343    2.8253    0.9848 N   0  0  0  0  0  0  0  0  0  0  0  0
    1.4497    2.8592    0.2652 H   0  0  0  0  0  0  0  0  0  0  0  0
    0.8789    3.6831    2.1554 C   0  0  0  0  0  0  0  0  0  0  0  0
    1.0786    3.0816    3.0484 H   0  0  0  0  0  0  0  0  0  0  0  0
    1.7108    4.3792    2.0133 H   0  0  0  0  0  0  0  0  0  0  0  0
   -0.0338    4.2655    2.3194 H   0  0  0  0  0  0  0  0  0  0  0  0
  1  2  1  0  0  0  0
  2  3  1  0  0  0  0
  2  4  1  0  0  0  0
  2  5  1  0  0  0  0
  5  6  2  0  0  0  0
  5  7  1  0  0  0  0
  7  8  1  0  0  0  0
  7  9  1  0  0  0  0
  9 10  1  0  0  0  0
  9 11  1  0  0  0  0
  9 25  1  0  0  0  0
 11 12  1  0  0  0  0
 11 13  1  0  0  0  0
 11 14  1  0  0  0  0
 14 15  1  0  0  0  0
 14 23  2  0  0  0  0
 15 16  1  0  0  0  0
 15 17  2  0  0  0  0
 17 18  1  0  0  0  0
 17 19  1  0  0  0  0
 19 20  1  0  0  0  0
 19 21  2  0  0  0  0
 21 22  1  0  0  0  0
 21 23  1  0  0  0  0
 23 24  1  0  0  0  0
 25 26  2  0  0  0  0
 25 27  1  0  0  0  0
 27 28  1  0  0  0  0
 27 29  1  0  0  0  0
 29 30  1  0  0  0  0
 29 31  1  0  0  0  0
 29 32  1  0  0  0  0
M  END
$$$$

  -OEChem-01062216093D

 32 32  0     1  0  0  0  0  0999 V2000
   -3.1644   -2.2766    1.2139 H   0  0  0  0  0  0  0  0  0  0  0  0
   -3.2117   -1.3733    0.5993 C   0  0  0  0  0  0  0  0  0  0  0  0
   -3.7525   -0.6011    1.1520 H   0  0  0  0  0  0  0  0  0  0  0  0
   -3.7507   -1.6012   -0.3232 H   0  0  0  0  0  0  0  0  0  0  0  0
   -1.8109   -0.8888    0.2766 C   0  0  0  0  0  0  0  0  0  0  0  0
   -0.8434   -1.5386    0.6440 O   0  0  0  0  0  0  0  0  0  0  0  0
   -1.6412    0.2591   -0.4748 N   0  0  0  0  0  0  0  0  0  0  0  0
   -2.4897    0.7950   -0.6216 H   0  0  0  0  0  0  0  0  0  0  0  0
   -0.3760    1.0153   -0.4284 C   0  0  1  0  0  0  0  0  0  0  0  0
    0.4698    0.3198   -0.4614 H   0  0  0  0  0  0  0  0  0  0  0  0
   -0.3100    1.9075   -1.6865 C   0  0  0  0  0  0  0  0  0  0  0  0
   -1.2011    2.5417   -1.7356 H   0  0  0  0  0  0  0  0  0  0  0  0
    0.5574    2.5713   -1.6368 H   0  0  0  0  0  0  0  0  0  0  0  0
   -0.1826    1.0841   -2.9467 C   0  0  0  0  0  0  0  0  0  0  0  0
    1.0671    0.5817   -3.3403 C   0  0  0  0  0  0  0  0  0  0  0  0
    1.9473    0.7695   -2.7332 H   0  0  0  0  0  0  0  0  0  0  0  0
    1.1927   -0.1732   -4.5112 C   0  0  0  0  0  0  0  0  0  0  0  0
    2.1633   -0.5628   -4.8042 H   0  0  0  0  0  0  0  0  0  0  0  0
    0.0688   -0.4302   -5.3018 C   0  0  0  0  0  0  0  0  0  0  0  0
    0.1659   -1.0187   -6.2096 H   0  0  0  0  0  0  0  0  0  0  0  0
   -1.1803    0.0683   -4.9198 C   0  0  0  0  0  0  0  0  0  0  0  0
   -2.0544   -0.1326   -5.5320 H   0  0  0  0  0  0  0  0  0  0  0  0
   -1.3046    0.8228   -3.7481 C   0  0  0  0  0  0  0  0  0  0  0  0
   -2.2801    1.2031   -3.4620 H   0  0  0  0  0  0  0  0  0  0  0  0
   -0.2253    1.8390    0.8821 C   0  0  0  0  0  0  0  0  0  0  0  0
   -0.8979    1.5752    1.8717 O   0  0  0  0  0  0  0  0  0  0  0  0
    0.4933    3.0240    0.9069 N   0  0  0  0  0  0  0  0  0  0  0  0
    1.0624    3.2438    0.0959 H   0  0  0  0  0  0  0  0  0  0  0  0
    0.6080    3.8708    2.0892 C   0  0  0  0  0  0  0  0  0  0  0  0
    1.0593    3.3134    2.9169 H   0  0  0  0  0  0  0  0  0  0  0  0
    1.2374    4.7392    1.8725 H   0  0  0  0  0  0  0  0  0  0  0  0
   -0.3781    4.2299    2.4018 H   0  0  0  0  0  0  0  0  0  0  0  0
  1  2  1  0  0  0  0
  2  3  1  0  0  0  0
  2  4  1  0  0  0  0
  2  5  1  0  0  0  0
  5  6  2  0  0  0  0
  5  7  1  0  0  0  0
  7  8  1  0  0  0  0
  7  9  1  0  0  0  0
  9 10  1  0  0  0  0
  9 11  1  0  0  0  0
  9 25  1  0  0  0  0
 11 12  1  0  0  0  0
 11 13  1  0  0  0  0
 11 14  1  0  0  0  0
 14 15  1  0  0  0  0
 14 23  2  0  0  0  0
 15 16  1  0  0  0  0
 15 17  2  0  0  0  0
 17 18  1  0  0  0  0
 17 19  1  0  0  0  0
 19 20  1  0  0  0  0
 19 21  2  0  0  0  0
 21 22  1  0  0  0  0
 21 23  1  0  0  0  0
 23 24  1  0  0  0  0
 25 26  2  0  0  0  0
 25 27  1  0  0  0  0
 27 28  1  0  0  0  0
 27 29  1  0  0  0  0
 29 30  1  0  0  0  0
 29 31  1  0  0  0  0
 29 32  1  0  0  0  0
M  END
$$$$

  -OEChem-01062216093D

 32 32  0     1  0  0  0  0  0999 V2000
   -3.1645   -2.2610    1.2241 H   0  0  0  0  0  0  0  0  0  0  0  0
   -3.2133   -1.3620    0.6033 C   0  0  0  0  0  0  0  0  0  0  0  0
   -3.7491   -0.5849    1.1536 H   0  0  0  0  0  0  0  0  0  0  0  0
   -3.7583   -1.5950   -0.3144 H   0  0  0  0  0  0  0  0  0  0  0  0
   -1.8136   -0.8831    0.2689 C   0  0  0  0  0  0  0  0  0  0  0  0
   -0.8476   -1.5525    0.6015 O   0  0  0  0  0  0  0  0  0  0  0  0
   -1.6477    0.2704   -0.4753 N   0  0  0  0  0  0  0  0  0  0  0  0
   -2.4989    0.7998   -0.6279 H   0  0  0  0  0  0  0  0  0  0  0  0
   -0.3858    1.0329   -0.4373 C   0  0  1  0  0  0  0  0  0  0  0  0
    0.4610    0.3383   -0.4688 H   0  0  0  0  0  0  0  0  0  0  0  0
   -0.3154    1.9165   -1.7010 C   0  0  0  0  0  0  0  0  0  0  0  0
   -1.2050    2.5521   -1.7594 H   0  0  0  0  0  0  0  0  0  0  0  0
    0.5563    2.5757   -1.6491 H   0  0  0  0  0  0  0  0  0  0  0  0
   -0.1819    1.0848   -2.9551 C   0  0  0  0  0  0  0  0  0  0  0  0
    1.0694    0.5808   -3.3409 C   0  0  0  0  0  0  0  0  0  0  0  0
    1.9478    0.7751   -2.7329 H   0  0  0  0  0  0  0  0  0  0  0  0
    1.1991   -0.1841   -4.5050 C   0  0  0  0  0  0  0  0  0  0  0  0
    2.1709   -0.5755   -4.7910 H   0  0  0  0  0  0  0  0  0  0  0  0
    0.0779   -0.4493   -5.2967 C   0  0  0  0  0  0  0  0  0  0  0  0
    0.1785   -1.0455   -6.1992 H   0  0  0  0  0  0  0  0  0  0  0  0
   -1.1731    0.0498   -4.9216 C   0  0  0  0  0  0  0  0  0  0  0  0
   -2.0455   -0.1575   -5.5342 H   0  0  0  0  0  0  0  0  0  0  0  0
   -1.3018    0.8131   -3.7560 C   0  0  0  0  0  0  0  0  0  0  0  0
   -2.2792    1.1915   -3.4739 H   0  0  0  0  0  0  0  0  0  0  0  0
   -0.2300    1.8509    0.8764 C   0  0  0  0  0  0  0  0  0  0  0  0
   -0.6542    1.4198    1.9405 O   0  0  0  0  0  0  0  0  0  0  0  0
    0.2021    3.1684    0.8620 N   0  0  0  0  0  0  0  0  0  0  0  0
    0.5474    3.5411   -0.0163 H   0  0  0  0  0  0  0  0  0  0  0  0
    0.2967    3.9976    2.0586 C   0  0  0  0  0  0  0  0  0  0  0  0
    0.9776    3.5436    2.7862 H   0  0  0  0  0  0  0  0  0  0  0  0
    0.6774    4.9907    1.8017 H   0  0  0  0  0  0  0  0  0  0  0  0
   -0.6880    4.1150    2.5231 H   0  0  0  0  0  0  0  0  0  0  0  0
  1  2  1  0  0  0  0
  2  3  1  0  0  0  0
  2  4  1  0  0  0  0
  2  5  1  0  0  0  0
  5  6  2  0  0  0  0
  5  7  1  0  0  0  0
  7  8  1  0  0  0  0
  7  9  1  0  0  0  0
  9 10  1  0  0  0  0
  9 11  1  0  0  0  0
  9 25  1  0  0  0  0
 11 12  1  0  0  0  0
 11 13  1  0  0  0  0
 11 14  1  0  0  0  0
 14 15  1  0  0  0  0
 14 23  2  0  0  0  0
 15 16  1  0  0  0  0
 15 17  2  0  0  0  0
 17 18  1  0  0  0  0
 17 19  1  0  0  0  0
 19 20  1  0  0  0  0
 19 21  2  0  0  0  0
 21 22  1  0  0  0  0
 21 23  1  0  0  0  0
 23 24  1  0  0  0  0
 25 26  2  0  0  0  0
 25 27  1  0  0  0  0
 27 28  1  0  0  0  0
 27 29  1  0  0  0  0
 29 30  1  0  0  0  0
 29 31  1  0  0  0  0
 29 32  1  0  0  0  0
M  END
$$$$

  -OEChem-01062216093D

 32 32  0     1  0  0  0  0  0999 V2000
   -3.1776   -2.2683    1.2142 H   0  0  0  0  0  0  0  0  0  0  0  0
   -3.2240   -1.3673    0.5961 C   0  0  0  0  0  0  0  0  0  0  0  0
   -3.7693   -0.5953    1.1437 H   0  0  0  0  0  0  0  0  0  0  0  0
   -3.7588   -1.5997   -0.3276 H   0  0  0  0  0  0  0  0  0  0  0  0
   -1.8226   -0.8818    0.2768 C   0  0  0  0  0  0  0  0  0  0  0  0
   -0.8597   -1.5537    0.6101 O   0  0  0  0  0  0  0  0  0  0  0  0
   -1.6544    0.2721   -0.4662 N   0  0  0  0  0  0  0  0  0  0  0  0
   -2.5075    0.7882   -0.6504 H   0  0  0  0  0  0  0  0  0  0  0  0
   -0.3955    1.0396   -0.4363 C   0  0  1  0  0  0  0  0  0  0  0  0
    0.4519    0.3451   -0.4644 H   0  0  0  0  0  0  0  0  0  0  0  0
   -0.3191    1.9203   -1.7004 C   0  0  0  0  0  0  0  0  0  0  0  0
   -1.2088    2.5549   -1.7667 H   0  0  0  0  0  0  0  0  0  0  0  0
    0.5525    2.5799   -1.6385 H   0  0  0  0  0  0  0  0  0  0  0  0
   -0.1806    1.0866   -2.9521 C   0  0  0  0  0  0  0  0  0  0  0  0
    1.0721    0.5810   -3.3317 C   0  0  0  0  0  0  0  0  0  0  0  0
    1.9478    0.7747   -2.7194 H   0  0  0  0  0  0  0  0  0  0  0  0
    1.2063   -0.1860   -4.4938 C   0  0  0  0  0  0  0  0  0  0  0  0
    2.1791   -0.5782   -4.7757 H   0  0  0  0  0  0  0  0  0  0  0  0
    0.0881   -0.4522   -5.2893 C   0  0  0  0  0  0  0  0  0  0  0  0
    0.1922   -1.0498   -6.1902 H   0  0  0  0  0  0  0  0  0  0  0  0
   -1.1641    0.0480   -4.9206 C   0  0  0  0  0  0  0  0  0  0  0  0
   -2.0337   -0.1608   -5.5366 H   0  0  0  0  0  0  0  0  0  0  0  0
   -1.2973    0.8138   -3.7573 C   0  0  0  0  0  0  0  0  0  0  0  0
   -2.2757    1.1933   -3.4809 H   0  0  0  0  0  0  0  0  0  0  0  0
   -0.2381    1.8591    0.8739 C   0  0  0  0  0  0  0  0  0  0  0  0
   -0.3631    1.3285    1.9682 O   0  0  0  0  0  0  0  0  0  0  0  0
   -0.1162    3.2403    0.8500 N   0  0  0  0  0  0  0  0  0  0  0  0
   -0.0290    3.6906   -0.0551 H   0  0  0  0  0  0  0  0  0  0  0  0
   -0.0324    4.0623    2.0523 C   0  0  0  0  0  0  0  0  0  0  0  0
    0.8442    3.7834    2.6465 H   0  0  0  0  0  0  0  0  0  0  0  0
    0.0544    5.1191    1.7828 H   0  0  0  0  0  0  0  0  0  0  0  0
   -0.9295    3.9362    2.6675 H   0  0  0  0  0  0  0  0  0  0  0  0
  1  2  1  0  0  0  0
  2  3  1  0  0  0  0
  2  4  1  0  0  0  0
  2  5  1  0  0  0  0
  5  6  2  0  0  0  0
  5  7  1  0  0  0  0
  7  8  1  0  0  0  0
  7  9  1  0  0  0  0
  9 10  1  0  0  0  0
  9 11  1  0  0  0  0
  9 25  1  0  0  0  0
 11 12  1  0  0  0  0
 11 13  1  0  0  0  0
 11 14  1  0  0  0  0
 14 15  1  0  0  0  0
 14 23  2  0  0  0  0
 15 16  1  0  0  0  0
 15 17  2  0  0  0  0
 17 18  1  0  0  0  0
 17 19  1  0  0  0  0
 19 20  1  0  0  0  0
 19 21  2  0  0  0  0
 21 22  1  0  0  0  0
 21 23  1  0  0  0  0
 23 24  1  0  0  0  0
 25 26  2  0  0  0  0
 25 27  1  0  0  0  0
 27 28  1  0  0  0  0
 27 29  1  0  0  0  0
 29 30  1  0  0  0  0
 29 31  1  0  0  0  0
 29 32  1  0  0  0  0
M  END
$$$$

  -OEChem-01062216093D

 32 32  0     1  0  0  0  0  0999 V2000
   -3.2153   -2.3100    1.1463 H   0  0  0  0  0  0  0  0  0  0  0  0
   -3.2451   -1.4147    0.5188 C   0  0  0  0  0  0  0  0  0  0  0  0
   -3.8593   -0.6595    1.0146 H   0  0  0  0  0  0  0  0  0  0  0  0
   -3.6971   -1.6721   -0.4419 H   0  0  0  0  0  0  0  0  0  0  0  0
   -1.8412   -0.8811    0.3039 C   0  0  0  0  0  0  0  0  0  0  0  0
   -0.8860   -1.5160    0.7174 O   0  0  0  0  0  0  0  0  0  0  0  0
   -1.6608    0.2712   -0.4381 N   0  0  0  0  0  0  0  0  0  0  0  0
   -2.5100    0.7517   -0.7138 H   0  0  0  0  0  0  0  0  0  0  0  0
   -0.4077    1.0477   -0.4173 C   0  0  1  0  0  0  0  0  0  0  0  0
    0.4420    0.3556   -0.4433 H   0  0  0  0  0  0  0  0  0  0  0  0
   -0.3335    1.9270   -1.6814 C   0  0  0  0  0  0  0  0  0  0  0  0
   -1.2267    2.5559   -1.7531 H   0  0  0  0  0  0  0  0  0  0  0  0
    0.5334    2.5928   -1.6117 H   0  0  0  0  0  0  0  0  0  0  0  0
   -0.1906    1.0913   -2.9315 C   0  0  0  0  0  0  0  0  0  0  0  0
    1.0644    0.5900   -3.3084 C   0  0  0  0  0  0  0  0  0  0  0  0
    1.9386    0.7901   -2.6958 H   0  0  0  0  0  0  0  0  0  0  0  0
    1.2029   -0.1808   -4.4676 C   0  0  0  0  0  0  0  0  0  0  0  0
    2.1779   -0.5701   -4.7465 H   0  0  0  0  0  0  0  0  0  0  0  0
    0.0867   -0.4542   -5.2636 C   0  0  0  0  0  0  0  0  0  0  0  0
    0.1942   -1.0544   -6.1623 H   0  0  0  0  0  0  0  0  0  0  0  0
   -1.1677    0.0436   -4.8988 C   0  0  0  0  0  0  0  0  0  0  0  0
   -2.0356   -0.1685   -5.5160 H   0  0  0  0  0  0  0  0  0  0  0  0
   -1.3050    0.8130   -3.7383 C   0  0  0  0  0  0  0  0  0  0  0  0
   -2.2851    1.1914   -3.4665 H   0  0  0  0  0  0  0  0  0  0  0  0
   -0.2479    1.8763    0.8835 C   0  0  0  0  0  0  0  0  0  0  0  0
   -0.0087    1.3351    1.9520 O   0  0  0  0  0  0  0  0  0  0  0  0
   -0.4431    3.2491    0.8872 N   0  0  0  0  0  0  0  0  0  0  0  0
   -0.6328    3.7014   -0.0009 H   0  0  0  0  0  0  0  0  0  0  0  0
   -0.3231    4.0741    2.0845 C   0  0  0  0  0  0  0  0  0  0  0  0
    0.6925    4.0152    2.4898 H   0  0  0  0  0  0  0  0  0  0  0  0
   -0.5409    5.1198    1.8476 H   0  0  0  0  0  0  0  0  0  0  0  0
   -1.0286    3.7408    2.8529 H   0  0  0  0  0  0  0  0  0  0  0  0
  1  2  1  0  0  0  0
  2  3  1  0  0  0  0
  2  4  1  0  0  0  0
  2  5  1  0  0  0  0
  5  6  2  0  0  0  0
  5  7  1  0  0  0  0
  7  8  1  0  0  0  0
  7  9  1  0  0  0  0
  9 10  1  0  0  0  0
  9 11  1  0  0  0  0
  9 25  1  0  0  0  0
 11 12  1  0  0  0  0
 11 13  1  0  0  0  0
 11 14  1  0  0  0  0
 14 15  1  0  0  0  0
 14 23  2  0  0  0  0
 15 16  1  0  0  0  0
 15 17  2  0  0  0  0
 17 18  1  0  0  0  0
 17 19  1  0  0  0  0
 19 20  1  0  0  0  0
 19 21  2  0  0  0  0
 21 22  1  0  0  0  0
 21 23  1  0  0  0  0
 23 24  1  0  0  0  0
 25 26  2  0  0  0  0
 25 27  1  0  0  0  0
 27 28  1  0  0  0  0
 27 29  1  0  0  0  0
 29 30  1  0  0  0  0
 29 31  1  0  0  0  0
 29 32  1  0  0  0  0
M  END
$$$$

  -OEChem-01062216093D

 32 32  0     1  0  0  0  0  0999 V2000
   -3.2519   -2.4125    0.9706 H   0  0  0  0  0  0  0  0  0  0  0  0
   -3.2471   -1.5330    0.3203 C   0  0  0  0  0  0  0  0  0  0  0  0
   -4.0162   -0.8379    0.6653 H   0  0  0  0  0  0  0  0  0  0  0  0
   -3.4774   -1.8484   -0.7000 H   0  0  0  0  0  0  0  0  0  0  0  0
   -1.8865   -0.8628    0.3600 C   0  0  0  0  0  0  0  0  0  0  0  0
   -0.9865   -1.3681    1.0060 O   0  0  0  0  0  0  0  0  0  0  0  0
   -1.6745    0.2852   -0.3782 N   0  0  0  0  0  0  0  0  0  0  0  0
   -2.4487    0.6172   -0.9423 H   0  0  0  0  0  0  0  0  0  0  0  0
   -0.4212    1.0603   -0.3693 C   0  0  1  0  0  0  0  0  0  0  0  0
    0.4236    0.3621   -0.4000 H   0  0  0  0  0  0  0  0  0  0  0  0
   -0.3520    1.9415   -1.6312 C   0  0  0  0  0  0  0  0  0  0  0  0
   -1.2436    2.5722   -1.6993 H   0  0  0  0  0  0  0  0  0  0  0  0
    0.5150    2.6077   -1.5613 H   0  0  0  0  0  0  0  0  0  0  0  0
   -0.2190    1.1030   -2.8805 C   0  0  0  0  0  0  0  0  0  0  0  0
    1.0333    0.5980   -3.2612 C   0  0  0  0  0  0  0  0  0  0  0  0
    1.9114    0.8031   -2.6553 H   0  0  0  0  0  0  0  0  0  0  0  0
    1.1643   -0.1816   -4.4154 C   0  0  0  0  0  0  0  0  0  0  0  0
    2.1376   -0.5730   -4.6973 H   0  0  0  0  0  0  0  0  0  0  0  0
    0.0432   -0.4600   -5.2025 C   0  0  0  0  0  0  0  0  0  0  0  0
    0.1453   -1.0678   -6.0969 H   0  0  0  0  0  0  0  0  0  0  0  0
   -1.2081    0.0443   -4.8358 C   0  0  0  0  0  0  0  0  0  0  0  0
   -2.0785   -0.1703   -5.4487 H   0  0  0  0  0  0  0  0  0  0  0  0
   -1.3380    0.8237   -3.6810 C   0  0  0  0  0  0  0  0  0  0  0  0
   -2.3152    1.2109   -3.4117 H   0  0  0  0  0  0  0  0  0  0  0  0
   -0.2431    1.9000    0.9184 C   0  0  0  0  0  0  0  0  0  0  0  0
    0.4265    1.4840    1.8517 O   0  0  0  0  0  0  0  0  0  0  0  0
   -0.7256    3.1972    0.9900 N   0  0  0  0  0  0  0  0  0  0  0  0
   -1.2816    3.5359    0.2126 H   0  0  0  0  0  0  0  0  0  0  0  0
   -0.5396    4.0584    2.1521 C   0  0  0  0  0  0  0  0  0  0  0  0
    0.5264    4.1829    2.3701 H   0  0  0  0  0  0  0  0  0  0  0  0
   -0.9702    5.0464    1.9641 H   0  0  0  0  0  0  0  0  0  0  0  0
   -1.0309    3.6271    3.0307 H   0  0  0  0  0  0  0  0  0  0  0  0
  1  2  1  0  0  0  0
  2  3  1  0  0  0  0
  2  4  1  0  0  0  0
  2  5  1  0  0  0  0
  5  6  2  0  0  0  0
  5  7  1  0  0  0  0
  7  8  1  0  0  0  0
  7  9  1  0  0  0  0
  9 10  1  0  0  0  0
  9 11  1  0  0  0  0
  9 25  1  0  0  0  0
 11 12  1  0  0  0  0
 11 13  1  0  0  0  0
 11 14  1  0  0  0  0
 14 15  1  0  0  0  0
 14 23  2  0  0  0  0
 15 16  1  0  0  0  0
 15 17  2  0  0  0  0
 17 18  1  0  0  0  0
 17 19  1  0  0  0  0
 19 20  1  0  0  0  0
 19 21  2  0  0  0  0
 21 22  1  0  0  0  0
 21 23  1  0  0  0  0
 23 24  1  0  0  0  0
 25 26  2  0  0  0  0
 25 27  1  0  0  0  0
 27 28  1  0  0  0  0
 27 29  1  0  0  0  0
 29 30  1  0  0  0  0
 29 31  1  0  0  0  0
 29 32  1  0  0  0  0
M  END
$$$$

  -OEChem-01062216093D

 32 32  0     1  0  0  0  0  0999 V2000
   -3.1951   -2.5346    0.8003 H   0  0  0  0  0  0  0  0  0  0  0  0
   -3.1955   -1.6462    0.1621 C   0  0  0  0  0  0  0  0  0  0  0  0
   -4.0876   -1.0548    0.3822 H   0  0  0  0  0  0  0  0  0  0  0  0
   -3.2244   -1.9648   -0.8826 H   0  0  0  0  0  0  0  0  0  0  0  0
   -1.9495   -0.8193    0.4189 C   0  0  0  0  0  0  0  0  0  0  0  0
   -1.1615   -1.1678    1.2791 O   0  0  0  0  0  0  0  0  0  0  0  0
   -1.7169    0.3112   -0.3394 N   0  0  0  0  0  0  0  0  0  0  0  0
   -2.3157    0.4277   -1.1504 H   0  0  0  0  0  0  0  0  0  0  0  0
   -0.4428    1.0513   -0.3236 C   0  0  1  0  0  0  0  0  0  0  0  0
    0.3831    0.3309   -0.3489 H   0  0  0  0  0  0  0  0  0  0  0  0
   -0.3470    1.9403   -1.5760 C   0  0  0  0  0  0  0  0  0  0  0  0
   -1.2176    2.6005   -1.6385 H   0  0  0  0  0  0  0  0  0  0  0  0
    0.5401    2.5788   -1.4986 H   0  0  0  0  0  0  0  0  0  0  0  0
   -0.2372    1.1050   -2.8287 C   0  0  0  0  0  0  0  0  0  0  0  0
    1.0001    0.5659   -3.2100 C   0  0  0  0  0  0  0  0  0  0  0  0
    1.8822    0.7411   -2.6001 H   0  0  0  0  0  0  0  0  0  0  0  0
    1.1102   -0.2084   -4.3696 C   0  0  0  0  0  0  0  0  0  0  0  0
    2.0720   -0.6260   -4.6527 H   0  0  0  0  0  0  0  0  0  0  0  0
   -0.0166   -0.4454   -5.1623 C   0  0  0  0  0  0  0  0  0  0  0  0
    0.0702   -1.0466   -6.0629 H   0  0  0  0  0  0  0  0  0  0  0  0
   -1.2528    0.0950   -4.7955 C   0  0  0  0  0  0  0  0  0  0  0  0
   -2.1263   -0.0844   -5.4154 H   0  0  0  0  0  0  0  0  0  0  0  0
   -1.3623    0.8689   -3.6348 C   0  0  0  0  0  0  0  0  0  0  0  0
   -2.3267    1.2902   -3.3693 H   0  0  0  0  0  0  0  0  0  0  0  0
   -0.2496    1.9017    0.9516 C   0  0  0  0  0  0  0  0  0  0  0  0
    0.6902    1.6811    1.7021 O   0  0  0  0  0  0  0  0  0  0  0  0
   -0.9552    3.0825    1.1142 N   0  0  0  0  0  0  0  0  0  0  0  0
   -1.7531    3.2305    0.5056 H   0  0  0  0  0  0  0  0  0  0  0  0
   -0.7546    3.9814    2.2446 C   0  0  0  0  0  0  0  0  0  0  0  0
    0.2781    4.3456    2.2660 H   0  0  0  0  0  0  0  0  0  0  0  0
   -1.4221    4.8447    2.1650 H   0  0  0  0  0  0  0  0  0  0  0  0
   -0.9653    3.4642    3.1866 H   0  0  0  0  0  0  0  0  0  0  0  0
  1  2  1  0  0  0  0
  2  3  1  0  0  0  0
  2  4  1  0  0  0  0
  2  5  1  0  0  0  0
  5  6  2  0  0  0  0
  5  7  1  0  0  0  0
  7  8  1  0  0  0  0
  7  9  1  0  0  0  0
  9 10  1  0  0  0  0
  9 11  1  0  0  0  0
  9 25  1  0  0  0  0
 11 12  1  0  0  0  0
 11 13  1  0  0  0  0
 11 14  1  0  0  0  0
 14 15  1  0  0  0  0
 14 23  2  0  0  0  0
 15 16  1  0  0  0  0
 15 17  2  0  0  0  0
 17 18  1  0  0  0  0
 17 19  1  0  0  0  0
 19 20  1  0  0  0  0
 19 21  2  0  0  0  0
 21 22  1  0  0  0  0
 21 23  1  0  0  0  0
 23 24  1  0  0  0  0
 25 26  2  0  0  0  0
 25 27  1  0  0  0  0
 27 28  1  0  0  0  0
 27 29  1  0  0  0  0
 29 30  1  0  0  0  0
 29 31  1  0  0  0  0
 29 32  1  0  0  0  0
M  END
$$$$

  -OEChem-01062216093D

 32 32  0     1  0  0  0  0  0999 V2000
   -3.1710   -2.5568    0.7908 H   0  0  0  0  0  0  0  0  0  0  0  0
   -3.1756   -1.6721    0.1476 C   0  0  0  0  0  0  0  0  0  0  0  0
   -4.0890   -1.1035    0.3382 H   0  0  0  0  0  0  0  0  0  0  0  0
   -3.1648   -1.9970   -0.8956 H   0  0  0  0  0  0  0  0  0  0  0  0
   -1.9601   -0.8108    0.4358 C   0  0  0  0  0  0  0  0  0  0  0  0
   -1.2044   -1.1135    1.3416 O   0  0  0  0  0  0  0  0  0  0  0  0
   -1.7214    0.3104   -0.3340 N   0  0  0  0  0  0  0  0  0  0  0  0
   -2.2815    0.3867   -1.1771 H   0  0  0  0  0  0  0  0  0  0  0  0
   -0.4377    1.0342   -0.3151 C   0  0  1  0  0  0  0  0  0  0  0  0
    0.3814    0.3058   -0.3382 H   0  0  0  0  0  0  0  0  0  0  0  0
   -0.3307    1.9310   -1.5595 C   0  0  0  0  0  0  0  0  0  0  0  0
   -1.1914    2.6049   -1.6141 H   0  0  0  0  0  0  0  0  0  0  0  0
    0.5648    2.5569   -1.4775 H   0  0  0  0  0  0  0  0  0  0  0  0
   -0.2333    1.1034   -2.8184 C   0  0  0  0  0  0  0  0  0  0  0  0
    0.9957    0.5498   -3.2051 C   0  0  0  0  0  0  0  0  0  0  0  0
    1.8802    0.7077   -2.5941 H   0  0  0  0  0  0  0  0  0  0  0  0
    1.0941   -0.2156   -4.3716 C   0  0  0  0  0  0  0  0  0  0  0  0
    2.0499   -0.6446   -4.6584 H   0  0  0  0  0  0  0  0  0  0  0  0
   -0.0358   -0.4271   -5.1669 C   0  0  0  0  0  0  0  0  0  0  0  0
    0.0425   -1.0198   -6.0739 H   0  0  0  0  0  0  0  0  0  0  0  0
   -1.2635    0.1294   -4.7956 C   0  0  0  0  0  0  0  0  0  0  0  0
   -2.1389   -0.0281   -5.4187 H   0  0  0  0  0  0  0  0  0  0  0  0
   -1.3613    0.8929   -3.6271 C   0  0  0  0  0  0  0  0  0  0  0  0
   -2.3180    1.3294   -3.3585 H   0  0  0  0  0  0  0  0  0  0  0  0
   -0.2414    1.8890    0.9539 C   0  0  0  0  0  0  0  0  0  0  0  0
    0.8277    1.8630    1.5480 O   0  0  0  0  0  0  0  0  0  0  0  0
   -1.1419    2.8977    1.2502 N   0  0  0  0  0  0  0  0  0  0  0  0
   -2.0418    2.8518    0.7840 H   0  0  0  0  0  0  0  0  0  0  0  0
   -0.9893    3.7854    2.3963 C   0  0  0  0  0  0  0  0  0  0  0  0
   -0.0449    4.3361    2.3324 H   0  0  0  0  0  0  0  0  0  0  0  0
   -1.8085    4.5099    2.4254 H   0  0  0  0  0  0  0  0  0  0  0  0
   -0.9993    3.2108    3.3283 H   0  0  0  0  0  0  0  0  0  0  0  0
  1  2  1  0  0  0  0
  2  3  1  0  0  0  0
  2  4  1  0  0  0  0
  2  5  1  0  0  0  0
  5  6  2  0  0  0  0
  5  7  1  0  0  0  0
  7  8  1  0  0  0  0
  7  9  1  0  0  0  0
  9 10  1  0  0  0  0
  9 11  1  0  0  0  0
  9 25  1  0  0  0  0
 11 12  1  0  0  0  0
 11 13  1  0  0  0  0
 11 14  1  0  0  0  0
 14 15  1  0  0  0  0
 14 23  2  0  0  0  0
 15 16  1  0  0  0  0
 15 17  2  0  0  0  0
 17 18  1  0  0  0  0
 17 19  1  0  0  0  0
 19 20  1  0  0  0  0
 19 21  2  0  0  0  0
 21 22  1  0  0  0  0
 21 23  1  0  0  0  0
 23 24  1  0  0  0  0
 25 26  2  0  0  0  0
 25 27  1  0  0  0  0
 27 28  1  0  0  0  0
 27 29  1  0  0  0  0
 29 30  1  0  0  0  0
 29 31  1  0  0  0  0
 29 32  1  0  0  0  0
M  END
$$$$

  -OEChem-01062216093D

 32 32  0     1  0  0  0  0  0999 V2000
   -3.1574   -2.5727    0.7741 H   0  0  0  0  0  0  0  0  0  0  0  0
   -3.1647   -1.6895    0.1290 C   0  0  0  0  0  0  0  0  0  0  0  0
   -4.0913   -1.1363    0.2999 H   0  0  0  0  0  0  0  0  0  0  0  0
   -3.1288   -2.0167   -0.9131 H   0  0  0  0  0  0  0  0  0  0  0  0
   -1.9699   -0.8072    0.4384 C   0  0  0  0  0  0  0  0  0  0  0  0
   -1.2383   -1.0815    1.3730 O   0  0  0  0  0  0  0  0  0  0  0  0
   -1.7249    0.3089   -0.3366 N   0  0  0  0  0  0  0  0  0  0  0  0
   -2.2603    0.3648   -1.1978 H   0  0  0  0  0  0  0  0  0  0  0  0
   -0.4347    1.0222   -0.3100 C   0  0  1  0  0  0  0  0  0  0  0  0
    0.3805    0.2897   -0.3321 H   0  0  0  0  0  0  0  0  0  0  0  0
   -0.3236    1.9248   -1.5494 C   0  0  0  0  0  0  0  0  0  0  0  0
   -1.1804    2.6047   -1.5970 H   0  0  0  0  0  0  0  0  0  0  0  0
    0.5757    2.5451   -1.4662 H   0  0  0  0  0  0  0  0  0  0  0  0
   -0.2327    1.1033   -2.8126 C   0  0  0  0  0  0  0  0  0  0  0  0
    0.9928    0.5445   -3.2028 C   0  0  0  0  0  0  0  0  0  0  0  0
    1.8789    0.6963   -2.5924 H   0  0  0  0  0  0  0  0  0  0  0  0
    1.0855   -0.2167   -4.3726 C   0  0  0  0  0  0  0  0  0  0  0  0
    2.0388   -0.6492   -4.6629 H   0  0  0  0  0  0  0  0  0  0  0  0
   -0.0469   -0.4187   -5.1672 C   0  0  0  0  0  0  0  0  0  0  0  0
    0.0269   -1.0076   -6.0769 H   0  0  0  0  0  0  0  0  0  0  0  0
   -1.2711    0.1434   -4.7923 C   0  0  0  0  0  0  0  0  0  0  0  0
   -2.1483   -0.0061   -5.4152 H   0  0  0  0  0  0  0  0  0  0  0  0
   -1.3628    0.9033   -3.6209 C   0  0  0  0  0  0  0  0  0  0  0  0
   -2.3161    1.3455   -3.3493 H   0  0  0  0  0  0  0  0  0  0  0  0
   -0.2342    1.8804    0.9547 C   0  0  0  0  0  0  0  0  0  0  0  0
    0.8927    2.0485    1.4012 O   0  0  0  0  0  0  0  0  0  0  0  0
   -1.2651    2.6801    1.4148 N   0  0  0  0  0  0  0  0  0  0  0  0
   -2.1940    2.4493    1.0772 H   0  0  0  0  0  0  0  0  0  0  0  0
   -1.1365    3.5421    2.5831 C   0  0  0  0  0  0  0  0  0  0  0  0
   -0.3290    4.2674    2.4383 H   0  0  0  0  0  0  0  0  0  0  0  0
   -2.0667    4.0928    2.7511 H   0  0  0  0  0  0  0  0  0  0  0  0
   -0.9182    2.9461    3.4752 H   0  0  0  0  0  0  0  0  0  0  0  0
  1  2  1  0  0  0  0
  2  3  1  0  0  0  0
  2  4  1  0  0  0  0
  2  5  1  0  0  0  0
  5  6  2  0  0  0  0
  5  7  1  0  0  0  0
  7  8  1  0  0  0  0
  7  9  1  0  0  0  0
  9 10  1  0  0  0  0
  9 11  1  0  0  0  0
  9 25  1  0  0  0  0
 11 12  1  0  0  0  0
 11 13  1  0  0  0  0
 11 14  1  0  0  0  0
 14 15  1  0  0  0  0
 14 23  2  0  0  0  0
 15 16  1  0  0  0  0
 15 17  2  0  0  0  0
 17 18  1  0  0  0  0
 17 19  1  0  0  0  0
 19 20  1  0  0  0  0
 19 21  2  0  0  0  0
 21 22  1  0  0  0  0
 21 23  1  0  0  0  0
 23 24  1  0  0  0  0
 25 26  2  0  0  0  0
 25 27  1  0  0  0  0
 27 28  1  0  0  0  0
 27 29  1  0  0  0  0
 29 30  1  0  0  0  0
 29 31  1  0  0  0  0
 29 32  1  0  0  0  0
M  END
$$$$

  -OEChem-01062216093D

 32 32  0     1  0  0  0  0  0999 V2000
   -3.1531   -2.5825    0.7448 H   0  0  0  0  0  0  0  0  0  0  0  0
   -3.1607   -1.6975    0.1021 C   0  0  0  0  0  0  0  0  0  0  0  0
   -4.0960   -1.1549    0.2596 H   0  0  0  0  0  0  0  0  0  0  0  0
   -3.1055   -2.0211   -0.9402 H   0  0  0  0  0  0  0  0  0  0  0  0
   -1.9798   -0.8038    0.4314 C   0  0  0  0  0  0  0  0  0  0  0  0
   -1.2680   -1.0612    1.3862 O   0  0  0  0  0  0  0  0  0  0  0  0
   -1.7276    0.3107   -0.3431 N   0  0  0  0  0  0  0  0  0  0  0  0
   -2.2529    0.3640   -1.2109 H   0  0  0  0  0  0  0  0  0  0  0  0
   -0.4344    1.0206   -0.3081 C   0  0  1  0  0  0  0  0  0  0  0  0
    0.3796    0.2870   -0.3285 H   0  0  0  0  0  0  0  0  0  0  0  0
   -0.3261    1.9232   -1.5484 C   0  0  0  0  0  0  0  0  0  0  0  0
   -1.1849    2.6007   -1.5926 H   0  0  0  0  0  0  0  0  0  0  0  0
    0.5718    2.5465   -1.4692 H   0  0  0  0  0  0  0  0  0  0  0  0
   -0.2359    1.1015   -2.8116 C   0  0  0  0  0  0  0  0  0  0  0  0
    0.9902    0.5444   -3.2027 C   0  0  0  0  0  0  0  0  0  0  0  0
    1.8764    0.6986   -2.5929 H   0  0  0  0  0  0  0  0  0  0  0  0
    1.0823   -0.2179   -4.3720 C   0  0  0  0  0  0  0  0  0  0  0  0
    2.0357   -0.6488   -4.6636 H   0  0  0  0  0  0  0  0  0  0  0  0
   -0.0508   -0.4222   -5.1651 C   0  0  0  0  0  0  0  0  0  0  0  0
    0.0224   -1.0121   -6.0742 H   0  0  0  0  0  0  0  0  0  0  0  0
   -1.2748    0.1400   -4.7901 C   0  0  0  0  0  0  0  0  0  0  0  0
   -2.1518   -0.0096   -5.4129 H   0  0  0  0  0  0  0  0  0  0  0  0
   -1.3666    0.9006   -3.6192 C   0  0  0  0  0  0  0  0  0  0  0  0
   -2.3199    1.3434   -3.3479 H   0  0  0  0  0  0  0  0  0  0  0  0
   -0.2279    1.8834    0.9538 C   0  0  0  0  0  0  0  0  0  0  0  0
    0.9015    2.2378    1.2660 O   0  0  0  0  0  0  0  0  0  0  0  0
   -1.3146    2.4492    1.5951 N   0  0  0  0  0  0  0  0  0  0  0  0
   -2.2160    2.0349    1.3804 H   0  0  0  0  0  0  0  0  0  0  0  0
   -1.1861    3.2643    2.7963 C   0  0  0  0  0  0  0  0  0  0  0  0
   -0.5531    4.1367    2.6030 H   0  0  0  0  0  0  0  0  0  0  0  0
   -2.1695    3.6187    3.1195 H   0  0  0  0  0  0  0  0  0  0  0  0
   -0.7418    2.6796    3.6085 H   0  0  0  0  0  0  0  0  0  0  0  0
  1  2  1  0  0  0  0
  2  3  1  0  0  0  0
  2  4  1  0  0  0  0
  2  5  1  0  0  0  0
  5  6  2  0  0  0  0
  5  7  1  0  0  0  0
  7  8  1  0  0  0  0
  7  9  1  0  0  0  0
  9 10  1  0  0  0  0
  9 11  1  0  0  0  0
  9 25  1  0  0  0  0
 11 12  1  0  0  0  0
 11 13  1  0  0  0  0
 11 14  1  0  0  0  0
 14 15  1  0  0  0  0
 14 23  2  0  0  0  0
 15 16  1  0  0  0  0
 15 17  2  0  0  0  0
 17 18  1  0  0  0  0
 17 19  1  0  0  0  0
 19 20  1  0  0  0  0
 19 21  2  0  0  0  0
 21 22  1  0  0  0  0
 21 23  1  0  0  0  0
 23 24  1  0  0  0  0
 25 26  2  0  0  0  0
 25 27  1  0  0  0  0
 27 28  1  0  0  0  0
 27 29  1  0  0  0  0
 29 30  1  0  0  0  0
 29 31  1  0  0  0  0
 29 32  1  0  0  0  0
M  END
$$$$

  -OEChem-01062216093D

 32 32  0     1  0  0  0  0  0999 V2000
   -3.1841   -2.5616    0.7199 H   0  0  0  0  0  0  0  0  0  0  0  0
   -3.1582   -1.6954    0.0526 C   0  0  0  0  0  0  0  0  0  0  0  0
   -4.0967   -1.1451    0.1524 H   0  0  0  0  0  0  0  0  0  0  0  0
   -3.0580   -2.0487   -0.9766 H   0  0  0  0  0  0  0  0  0  0  0  0
   -1.9884   -0.7972    0.4086 C   0  0  0  0  0  0  0  0  0  0  0  0
   -1.2998   -1.0466    1.3827 O   0  0  0  0  0  0  0  0  0  0  0  0
   -1.7258    0.3222   -0.3541 N   0  0  0  0  0  0  0  0  0  0  0  0
   -2.2446    0.3847   -1.2253 H   0  0  0  0  0  0  0  0  0  0  0  0
   -0.4323    1.0322   -0.3069 C   0  0  1  0  0  0  0  0  0  0  0  0
    0.3822    0.2997   -0.3283 H   0  0  0  0  0  0  0  0  0  0  0  0
   -0.3320    1.9321   -1.5519 C   0  0  0  0  0  0  0  0  0  0  0  0
   -1.1943    2.6051   -1.5961 H   0  0  0  0  0  0  0  0  0  0  0  0
    0.5621    2.5615   -1.4812 H   0  0  0  0  0  0  0  0  0  0  0  0
   -0.2393    1.1047   -2.8120 C   0  0  0  0  0  0  0  0  0  0  0  0
    0.9879    0.5519   -3.2063 C   0  0  0  0  0  0  0  0  0  0  0  0
    1.8778    0.7182   -2.6052 H   0  0  0  0  0  0  0  0  0  0  0  0
    1.0775   -0.2207   -4.3690 C   0  0  0  0  0  0  0  0  0  0  0  0
    2.0317   -0.6478   -4.6634 H   0  0  0  0  0  0  0  0  0  0  0  0
   -0.0596   -0.4405   -5.1521 C   0  0  0  0  0  0  0  0  0  0  0  0
    0.0116   -1.0384   -6.0561 H   0  0  0  0  0  0  0  0  0  0  0  0
   -1.2847    0.1177   -4.7749 C   0  0  0  0  0  0  0  0  0  0  0  0
   -2.1655   -0.0435   -5.3898 H   0  0  0  0  0  0  0  0  0  0  0  0
   -1.3732    0.8896   -3.6113 C   0  0  0  0  0  0  0  0  0  0  0  0
   -2.3269    1.3301   -3.3379 H   0  0  0  0  0  0  0  0  0  0  0  0
   -0.2235    1.8914    0.9606 C   0  0  0  0  0  0  0  0  0  0  0  0
    0.8600    2.4276    1.1572 O   0  0  0  0  0  0  0  0  0  0  0  0
   -1.2896    2.2058    1.7833 N   0  0  0  0  0  0  0  0  0  0  0  0
   -2.1046    1.6088    1.6807 H   0  0  0  0  0  0  0  0  0  0  0  0
   -1.1376    2.9679    3.0159 C   0  0  0  0  0  0  0  0  0  0  0  0
   -0.7095    3.9539    2.8070 H   0  0  0  0  0  0  0  0  0  0  0  0
   -2.1112    3.1107    3.4943 H   0  0  0  0  0  0  0  0  0  0  0  0
   -0.4804    2.4386    3.7137 H   0  0  0  0  0  0  0  0  0  0  0  0
  1  2  1  0  0  0  0
  2  3  1  0  0  0  0
  2  4  1  0  0  0  0
  2  5  1  0  0  0  0
  5  6  2  0  0  0  0
  5  7  1  0  0  0  0
  7  8  1  0  0  0  0
  7  9  1  0  0  0  0
  9 10  1  0  0  0  0
  9 11  1  0  0  0  0
  9 25  1  0  0  0  0
 11 12  1  0  0  0  0
 11 13  1  0  0  0  0
 11 14  1  0  0  0  0
 14 15  1  0  0  0  0
 14 23  2  0  0  0  0
 15 16  1  0  0  0  0
 15 17  2  0  0  0  0
 17 18  1  0  0  0  0
 17 19  1  0  0  0  0
 19 20  1  0  0  0  0
 19 21  2  0  0  0  0
 21 22  1  0  0  0  0
 21 23  1  0  0  0  0
 23 24  1  0  0  0  0
 25 26  2  0  0  0  0
 25 27  1  0  0  0  0
 27 28  1  0  0  0  0
 27 29  1  0  0  0  0
 29 30  1  0  0  0  0
 29 31  1  0  0  0  0
 29 32  1  0  0  0  0
M  END
$$$$

  -OEChem-01062216093D

 32 32  0     1  0  0  0  0  0999 V2000
   -3.1974   -2.5665    0.6632 H   0  0  0  0  0  0  0  0  0  0  0  0
   -3.1688   -1.6887    0.0111 C   0  0  0  0  0  0  0  0  0  0  0  0
   -4.1078   -1.1400    0.1163 H   0  0  0  0  0  0  0  0  0  0  0  0
   -3.0640   -2.0244   -1.0236 H   0  0  0  0  0  0  0  0  0  0  0  0
   -2.0015   -0.7961    0.3879 C   0  0  0  0  0  0  0  0  0  0  0  0
   -1.3359   -1.0424    1.3790 O   0  0  0  0  0  0  0  0  0  0  0  0
   -1.7294    0.3317   -0.3578 N   0  0  0  0  0  0  0  0  0  0  0  0
   -2.2520    0.4143   -1.2249 H   0  0  0  0  0  0  0  0  0  0  0  0
   -0.4367    1.0445   -0.3035 C   0  0  1  0  0  0  0  0  0  0  0  0
    0.3776    0.3123   -0.3283 H   0  0  0  0  0  0  0  0  0  0  0  0
   -0.3441    1.9382   -1.5563 C   0  0  0  0  0  0  0  0  0  0  0  0
   -1.2106    2.6059   -1.6025 H   0  0  0  0  0  0  0  0  0  0  0  0
    0.5460    2.5739   -1.4963 H   0  0  0  0  0  0  0  0  0  0  0  0
   -0.2474    1.1034   -2.8117 C   0  0  0  0  0  0  0  0  0  0  0  0
    0.9833    0.5568   -3.2034 C   0  0  0  0  0  0  0  0  0  0  0  0
    1.8714    0.7317   -2.6022 H   0  0  0  0  0  0  0  0  0  0  0  0
    1.0781   -0.2202   -4.3628 C   0  0  0  0  0  0  0  0  0  0  0  0
    2.0353   -0.6422   -4.6553 H   0  0  0  0  0  0  0  0  0  0  0  0
   -0.0573   -0.4507   -5.1453 C   0  0  0  0  0  0  0  0  0  0  0  0
    0.0179   -1.0521   -6.0467 H   0  0  0  0  0  0  0  0  0  0  0  0
   -1.2862    0.1010   -4.7705 C   0  0  0  0  0  0  0  0  0  0  0  0
   -2.1653   -0.0684   -5.3854 H   0  0  0  0  0  0  0  0  0  0  0  0
   -1.3799    0.8774   -3.6102 C   0  0  0  0  0  0  0  0  0  0  0  0
   -2.3366    1.3127   -3.3388 H   0  0  0  0  0  0  0  0  0  0  0  0
   -0.2203    1.8958    0.9726 C   0  0  0  0  0  0  0  0  0  0  0  0
    0.7655    2.6173    1.0649 O   0  0  0  0  0  0  0  0  0  0  0  0
   -1.1858    1.9549    1.9605 N   0  0  0  0  0  0  0  0  0  0  0  0
   -1.8309    1.1680    1.9617 H   0  0  0  0  0  0  0  0  0  0  0  0
   -0.9929    2.6847    3.2071 C   0  0  0  0  0  0  0  0  0  0  0  0
   -0.7998    3.7436    3.0063 H   0  0  0  0  0  0  0  0  0  0  0  0
   -1.8899    2.6115    3.8292 H   0  0  0  0  0  0  0  0  0  0  0  0
   -0.1464    2.2718    3.7656 H   0  0  0  0  0  0  0  0  0  0  0  0
  1  2  1  0  0  0  0
  2  3  1  0  0  0  0
  2  4  1  0  0  0  0
  2  5  1  0  0  0  0
  5  6  2  0  0  0  0
  5  7  1  0  0  0  0
  7  8  1  0  0  0  0
  7  9  1  0  0  0  0
  9 10  1  0  0  0  0
  9 11  1  0  0  0  0
  9 25  1  0  0  0  0
 11 12  1  0  0  0  0
 11 13  1  0  0  0  0
 11 14  1  0  0  0  0
 14 15  1  0  0  0  0
 14 23  2  0  0  0  0
 15 16  1  0  0  0  0
 15 17  2  0  0  0  0
 17 18  1  0  0  0  0
 17 19  1  0  0  0  0
 19 20  1  0  0  0  0
 19 21  2  0  0  0  0
 21 22  1  0  0  0  0
 21 23  1  0  0  0  0
 23 24  1  0  0  0  0
 25 26  2  0  0  0  0
 25 27  1  0  0  0  0
 27 28  1  0  0  0  0
 27 29  1  0  0  0  0
 29 30  1  0  0  0  0
 29 31  1  0  0  0  0
 29 32  1  0  0  0  0
M  END
$$$$

  -OEChem-01062216093D

 32 32  0     1  0  0  0  0  0999 V2000
   -3.2351   -2.5471    0.6497 H   0  0  0  0  0  0  0  0  0  0  0  0
   -3.1982   -1.6589    0.0123 C   0  0  0  0  0  0  0  0  0  0  0  0
   -4.1171   -1.0847    0.1539 H   0  0  0  0  0  0  0  0  0  0  0  0
   -3.1329   -1.9785   -1.0306 H   0  0  0  0  0  0  0  0  0  0  0  0
   -1.9944   -0.8078    0.3696 C   0  0  0  0  0  0  0  0  0  0  0  0
   -1.2982   -1.1025    1.3270 O   0  0  0  0  0  0  0  0  0  0  0  0
   -1.7178    0.3315   -0.3571 N   0  0  0  0  0  0  0  0  0  0  0  0
   -2.2805    0.4663   -1.1918 H   0  0  0  0  0  0  0  0  0  0  0  0
   -0.4302    1.0547   -0.3048 C   0  0  1  0  0  0  0  0  0  0  0  0
    0.3876    0.3271   -0.3364 H   0  0  0  0  0  0  0  0  0  0  0  0
   -0.3496    1.9440   -1.5636 C   0  0  0  0  0  0  0  0  0  0  0  0
   -1.2219    2.6041   -1.6098 H   0  0  0  0  0  0  0  0  0  0  0  0
    0.5356    2.5873   -1.5137 H   0  0  0  0  0  0  0  0  0  0  0  0
   -0.2481    1.1042   -2.8155 C   0  0  0  0  0  0  0  0  0  0  0  0
    0.9870    0.5681   -3.2078 C   0  0  0  0  0  0  0  0  0  0  0  0
    1.8748    0.7549   -2.6100 H   0  0  0  0  0  0  0  0  0  0  0  0
    1.0868   -0.2134   -4.3638 C   0  0  0  0  0  0  0  0  0  0  0  0
    2.0476   -0.6272   -4.6564 H   0  0  0  0  0  0  0  0  0  0  0  0
   -0.0481   -0.4588   -5.1425 C   0  0  0  0  0  0  0  0  0  0  0  0
    0.0307   -1.0640   -6.0409 H   0  0  0  0  0  0  0  0  0  0  0  0
   -1.2812    0.0827   -4.7672 C   0  0  0  0  0  0  0  0  0  0  0  0
   -2.1603   -0.0982   -5.3790 H   0  0  0  0  0  0  0  0  0  0  0  0
   -1.3799    0.8637   -3.6105 C   0  0  0  0  0  0  0  0  0  0  0  0
   -2.3404    1.2909   -3.3395 H   0  0  0  0  0  0  0  0  0  0  0  0
   -0.2128    1.8952    0.9820 C   0  0  0  0  0  0  0  0  0  0  0  0
    0.6176    2.7961    1.0005 O   0  0  0  0  0  0  0  0  0  0  0  0
   -1.0045    1.7057    2.0994 N   0  0  0  0  0  0  0  0  0  0  0  0
   -1.4707    0.7986    2.1333 H   0  0  0  0  0  0  0  0  0  0  0  0
   -0.7859    2.4123    3.3552 C   0  0  0  0  0  0  0  0  0  0  0  0
   -0.8523    3.4948    3.2034 H   0  0  0  0  0  0  0  0  0  0  0  0
   -1.5450    2.1215    4.0875 H   0  0  0  0  0  0  0  0  0  0  0  0
    0.2017    2.1731    3.7632 H   0  0  0  0  0  0  0  0  0  0  0  0
  1  2  1  0  0  0  0
  2  3  1  0  0  0  0
  2  4  1  0  0  0  0
  2  5  1  0  0  0  0
  5  6  2  0  0  0  0
  5  7  1  0  0  0  0
  7  8  1  0  0  0  0
  7  9  1  0  0  0  0
  9 10  1  0  0  0  0
  9 11  1  0  0  0  0
  9 25  1  0  0  0  0
 11 12  1  0  0  0  0
 11 13  1  0  0  0  0
 11 14  1  0  0  0  0
 14 15  1  0  0  0  0
 14 23  2  0  0  0  0
 15 16  1  0  0  0  0
 15 17  2  0  0  0  0
 17 18  1  0  0  0  0
 17 19  1  0  0  0  0
 19 20  1  0  0  0  0
 19 21  2  0  0  0  0
 21 22  1  0  0  0  0
 21 23  1  0  0  0  0
 23 24  1  0  0  0  0
 25 26  2  0  0  0  0
 25 27  1  0  0  0  0
 27 28  1  0  0  0  0
 27 29  1  0  0  0  0
 29 30  1  0  0  0  0
 29 31  1  0  0  0  0
 29 32  1  0  0  0  0
M  END
$$$$

  -OEChem-01062216093D

 32 32  0     1  0  0  0  0  0999 V2000
   -3.2633   -2.5192    0.6767 H   0  0  0  0  0  0  0  0  0  0  0  0
   -3.2279   -1.6202    0.0545 C   0  0  0  0  0  0  0  0  0  0  0  0
   -4.1150   -1.0153    0.2573 H   0  0  0  0  0  0  0  0  0  0  0  0
   -3.2319   -1.9207   -0.9962 H   0  0  0  0  0  0  0  0  0  0  0  0
   -1.9757   -0.8209    0.3604 C   0  0  0  0  0  0  0  0  0  0  0  0
   -1.2250   -1.1796    1.2536 O   0  0  0  0  0  0  0  0  0  0  0  0
   -1.7033    0.3267   -0.3557 N   0  0  0  0  0  0  0  0  0  0  0  0
   -2.3161    0.5162   -1.1430 H   0  0  0  0  0  0  0  0  0  0  0  0
   -0.4229    1.0624   -0.3107 C   0  0  1  0  0  0  0  0  0  0  0  0
    0.4006    0.3414   -0.3456 H   0  0  0  0  0  0  0  0  0  0  0  0
   -0.3498    1.9478   -1.5735 C   0  0  0  0  0  0  0  0  0  0  0  0
   -1.2259    2.6028   -1.6211 H   0  0  0  0  0  0  0  0  0  0  0  0
    0.5322    2.5959   -1.5264 H   0  0  0  0  0  0  0  0  0  0  0  0
   -0.2419    1.1055   -2.8233 C   0  0  0  0  0  0  0  0  0  0  0  0
    0.9971    0.5779   -3.2157 C   0  0  0  0  0  0  0  0  0  0  0  0
    1.8843    0.7737   -2.6201 H   0  0  0  0  0  0  0  0  0  0  0  0
    1.1019   -0.2055   -4.3700 C   0  0  0  0  0  0  0  0  0  0  0  0
    2.0654   -0.6121   -4.6634 H   0  0  0  0  0  0  0  0  0  0  0  0
   -0.0319   -0.4625   -5.1464 C   0  0  0  0  0  0  0  0  0  0  0  0
    0.0507   -1.0690   -6.0438 H   0  0  0  0  0  0  0  0  0  0  0  0
   -1.2692    0.0687   -4.7702 C   0  0  0  0  0  0  0  0  0  0  0  0
   -2.1480   -0.1228   -5.3790 H   0  0  0  0  0  0  0  0  0  0  0  0
   -1.3728    0.8523   -3.6156 C   0  0  0  0  0  0  0  0  0  0  0  0
   -2.3366    1.2709   -3.3431 H   0  0  0  0  0  0  0  0  0  0  0  0
   -0.2115    1.8954    0.9837 C   0  0  0  0  0  0  0  0  0  0  0  0
    0.4156    2.9480    0.9591 O   0  0  0  0  0  0  0  0  0  0  0  0
   -0.7673    1.4955    2.1843 N   0  0  0  0  0  0  0  0  0  0  0  0
   -1.0930    0.5270    2.2071 H   0  0  0  0  0  0  0  0  0  0  0  0
   -0.5211    2.1762    3.4488 C   0  0  0  0  0  0  0  0  0  0  0  0
   -0.8455    3.2205    3.3913 H   0  0  0  0  0  0  0  0  0  0  0  0
   -1.0770    1.6870    4.2543 H   0  0  0  0  0  0  0  0  0  0  0  0
    0.5451    2.1508    3.6965 H   0  0  0  0  0  0  0  0  0  0  0  0
  1  2  1  0  0  0  0
  2  3  1  0  0  0  0
  2  4  1  0  0  0  0
  2  5  1  0  0  0  0
  5  6  2  0  0  0  0
  5  7  1  0  0  0  0
  7  8  1  0  0  0  0
  7  9  1  0  0  0  0
  9 10  1  0  0  0  0
  9 11  1  0  0  0  0
  9 25  1  0  0  0  0
 11 12  1  0  0  0  0
 11 13  1  0  0  0  0
 11 14  1  0  0  0  0
 14 15  1  0  0  0  0
 14 23  2  0  0  0  0
 15 16  1  0  0  0  0
 15 17  2  0  0  0  0
 17 18  1  0  0  0  0
 17 19  1  0  0  0  0
 19 20  1  0  0  0  0
 19 21  2  0  0  0  0
 21 22  1  0  0  0  0
 21 23  1  0  0  0  0
 23 24  1  0  0  0  0
 25 26  2  0  0  0  0
 25 27  1  0  0  0  0
 27 28  1  0  0  0  0
 27 29  1  0  0  0  0
 29 30  1  0  0  0  0
 29 31  1  0  0  0  0
 29 32  1  0  0  0  0
M  END
$$$$

  -OEChem-01062216093D

 32 32  0     1  0  0  0  0  0999 V2000
   -3.2768   -2.4805    0.7550 H   0  0  0  0  0  0  0  0  0  0  0  0
   -3.2429   -1.5790    0.1367 C   0  0  0  0  0  0  0  0  0  0  0  0
   -4.0896   -0.9398    0.3989 H   0  0  0  0  0  0  0  0  0  0  0  0
   -3.3255   -1.8700   -0.9134 H   0  0  0  0  0  0  0  0  0  0  0  0
   -1.9411   -0.8350    0.3661 C   0  0  0  0  0  0  0  0  0  0  0  0
   -1.1373   -1.2476    1.1880 O   0  0  0  0  0  0  0  0  0  0  0  0
   -1.6759    0.3147   -0.3496 N   0  0  0  0  0  0  0  0  0  0  0  0
   -2.3506    0.5721   -1.0630 H   0  0  0  0  0  0  0  0  0  0  0  0
   -0.3999    1.0558   -0.3200 C   0  0  1  0  0  0  0  0  0  0  0  0
    0.4277    0.3399   -0.3613 H   0  0  0  0  0  0  0  0  0  0  0  0
   -0.3334    1.9400   -1.5834 C   0  0  0  0  0  0  0  0  0  0  0  0
   -1.2106    2.5935   -1.6272 H   0  0  0  0  0  0  0  0  0  0  0  0
    0.5474    2.5894   -1.5355 H   0  0  0  0  0  0  0  0  0  0  0  0
   -0.2294    1.1011   -2.8361 C   0  0  0  0  0  0  0  0  0  0  0  0
    1.0098    0.5774   -3.2338 C   0  0  0  0  0  0  0  0  0  0  0  0
    1.8976    0.7707   -2.6387 H   0  0  0  0  0  0  0  0  0  0  0  0
    1.1148   -0.1971   -4.3938 C   0  0  0  0  0  0  0  0  0  0  0  0
    2.0790   -0.5986   -4.6918 H   0  0  0  0  0  0  0  0  0  0  0  0
   -0.0196   -0.4508   -5.1702 C   0  0  0  0  0  0  0  0  0  0  0  0
    0.0631   -1.0500   -6.0723 H   0  0  0  0  0  0  0  0  0  0  0  0
   -1.2578    0.0735   -4.7874 C   0  0  0  0  0  0  0  0  0  0  0  0
   -2.1371   -0.1168   -5.3955 H   0  0  0  0  0  0  0  0  0  0  0  0
   -1.3615    0.8485   -3.6269 C   0  0  0  0  0  0  0  0  0  0  0  0
   -2.3263    1.2608   -3.3489 H   0  0  0  0  0  0  0  0  0  0  0  0
   -0.1945    1.8827    0.9781 C   0  0  0  0  0  0  0  0  0  0  0  0
    0.1916    3.0451    0.9378 O   0  0  0  0  0  0  0  0  0  0  0  0
   -0.4704    1.3286    2.2132 N   0  0  0  0  0  0  0  0  0  0  0  0
   -0.6949    0.3307    2.2156 H   0  0  0  0  0  0  0  0  0  0  0  0
   -0.2448    2.0077    3.4818 C   0  0  0  0  0  0  0  0  0  0  0  0
   -0.8280    2.9331    3.5302 H   0  0  0  0  0  0  0  0  0  0  0  0
   -0.5498    1.3638    4.3123 H   0  0  0  0  0  0  0  0  0  0  0  0
    0.8158    2.2511    3.6019 H   0  0  0  0  0  0  0  0  0  0  0  0
  1  2  1  0  0  0  0
  2  3  1  0  0  0  0
  2  4  1  0  0  0  0
  2  5  1  0  0  0  0
  5  6  2  0  0  0  0
  5  7  1  0  0  0  0
  7  8  1  0  0  0  0
  7  9  1  0  0  0  0
  9 10  1  0  0  0  0
  9 11  1  0  0  0  0
  9 25  1  0  0  0  0
 11 12  1  0  0  0  0
 11 13  1  0  0  0  0
 11 14  1  0  0  0  0
 14 15  1  0  0  0  0
 14 23  2  0  0  0  0
 15 16  1  0  0  0  0
 15 17  2  0  0  0  0
 17 18  1  0  0  0  0
 17 19  1  0  0  0  0
 19 20  1  0  0  0  0
 19 21  2  0  0  0  0
 21 22  1  0  0  0  0
 21 23  1  0  0  0  0
 23 24  1  0  0  0  0
 25 26  2  0  0  0  0
 25 27  1  0  0  0  0
 27 28  1  0  0  0  0
 27 29  1  0  0  0  0
 29 30  1  0  0  0  0
 29 31  1  0  0  0  0
 29 32  1  0  0  0  0
M  END
$$$$

  -OEChem-01062216093D

 32 32  0     1  0  0  0  0  0999 V2000
   -3.2470   -2.4485    0.8442 H   0  0  0  0  0  0  0  0  0  0  0  0
   -3.2237   -1.5507    0.2200 C   0  0  0  0  0  0  0  0  0  0  0  0
   -4.0424   -0.8920    0.5201 H   0  0  0  0  0  0  0  0  0  0  0  0
   -3.3635   -1.8443   -0.8233 H   0  0  0  0  0  0  0  0  0  0  0  0
   -1.8962   -0.8346    0.3830 C   0  0  0  0  0  0  0  0  0  0  0  0
   -1.0591   -1.2681    1.1607 O   0  0  0  0  0  0  0  0  0  0  0  0
   -1.6414    0.3106   -0.3439 N   0  0  0  0  0  0  0  0  0  0  0  0
   -2.3513    0.6028   -1.0082 H   0  0  0  0  0  0  0  0  0  0  0  0
   -0.3629    1.0455   -0.3332 C   0  0  1  0  0  0  0  0  0  0  0  0
    0.4631    0.3279   -0.3812 H   0  0  0  0  0  0  0  0  0  0  0  0
   -0.2975    1.9333   -1.5930 C   0  0  0  0  0  0  0  0  0  0  0  0
   -1.1707    2.5931   -1.6293 H   0  0  0  0  0  0  0  0  0  0  0  0
    0.5883    2.5760   -1.5428 H   0  0  0  0  0  0  0  0  0  0  0  0
   -0.2099    1.1003   -2.8503 C   0  0  0  0  0  0  0  0  0  0  0  0
    1.0211    0.5673   -3.2606 C   0  0  0  0  0  0  0  0  0  0  0  0
    1.9157    0.7489   -2.6720 H   0  0  0  0  0  0  0  0  0  0  0  0
    1.1094   -0.2016   -4.4258 C   0  0  0  0  0  0  0  0  0  0  0  0
    2.0671   -0.6113   -4.7336 H   0  0  0  0  0  0  0  0  0  0  0  0
   -0.0334   -0.4393   -5.1951 C   0  0  0  0  0  0  0  0  0  0  0  0
    0.0365   -1.0341   -6.1011 H   0  0  0  0  0  0  0  0  0  0  0  0
   -1.2634    0.0953   -4.8000 C   0  0  0  0  0  0  0  0  0  0  0  0
   -2.1495   -0.0820   -5.4025 H   0  0  0  0  0  0  0  0  0  0  0  0
   -1.3502    0.8635   -3.6338 C   0  0  0  0  0  0  0  0  0  0  0  0
   -2.3082    1.2837   -3.3449 H   0  0  0  0  0  0  0  0  0  0  0  0
   -0.1566    1.8693    0.9638 C   0  0  0  0  0  0  0  0  0  0  0  0
   -0.0225    3.0872    0.9343 O   0  0  0  0  0  0  0  0  0  0  0  0
   -0.1293    1.2316    2.1884 N   0  0  0  0  0  0  0  0  0  0  0  0
   -0.2989    0.2223    2.1767 H   0  0  0  0  0  0  0  0  0  0  0  0
    0.0211    1.9167    3.4649 C   0  0  0  0  0  0  0  0  0  0  0  0
   -0.7968    2.6287    3.6165 H   0  0  0  0  0  0  0  0  0  0  0  0
    0.0067    1.1922    4.2848 H   0  0  0  0  0  0  0  0  0  0  0  0
    0.9720    2.4586    3.4985 H   0  0  0  0  0  0  0  0  0  0  0  0
  1  2  1  0  0  0  0
  2  3  1  0  0  0  0
  2  4  1  0  0  0  0
  2  5  1  0  0  0  0
  5  6  2  0  0  0  0
  5  7  1  0  0  0  0
  7  8  1  0  0  0  0
  7  9  1  0  0  0  0
  9 10  1  0  0  0  0
  9 11  1  0  0  0  0
  9 25  1  0  0  0  0
 11 12  1  0  0  0  0
 11 13  1  0  0  0  0
 11 14  1  0  0  0  0
 14 15  1  0  0  0  0
 14 23  2  0  0  0  0
 15 16  1  0  0  0  0
 15 17  2  0  0  0  0
 17 18  1  0  0  0  0
 17 19  1  0  0  0  0
 19 20  1  0  0  0  0
 19 21  2  0  0  0  0
 21 22  1  0  0  0  0
 21 23  1  0  0  0  0
 23 24  1  0  0  0  0
 25 26  2  0  0  0  0
 25 27  1  0  0  0  0
 27 28  1  0  0  0  0
 27 29  1  0  0  0  0
 29 30  1  0  0  0  0
 29 31  1  0  0  0  0
 29 32  1  0  0  0  0
M  END
$$$$

  -OEChem-01062216093D

 32 32  0     1  0  0  0  0  0999 V2000
   -3.1983   -2.4184    0.9232 H   0  0  0  0  0  0  0  0  0  0  0  0
   -3.1881   -1.5303    0.2850 C   0  0  0  0  0  0  0  0  0  0  0  0
   -3.9980   -0.8651    0.5940 H   0  0  0  0  0  0  0  0  0  0  0  0
   -3.3538   -1.8393   -0.7499 H   0  0  0  0  0  0  0  0  0  0  0  0
   -1.8552   -0.8157    0.4044 C   0  0  0  0  0  0  0  0  0  0  0  0
   -0.9960   -1.2424    1.1627 O   0  0  0  0  0  0  0  0  0  0  0  0
   -1.6138    0.3191   -0.3429 N   0  0  0  0  0  0  0  0  0  0  0  0
   -2.3441    0.6275   -0.9770 H   0  0  0  0  0  0  0  0  0  0  0  0
   -0.3326    1.0446   -0.3480 C   0  0  1  0  0  0  0  0  0  0  0  0
    0.4923    0.3259   -0.3984 H   0  0  0  0  0  0  0  0  0  0  0  0
   -0.2666    1.9341   -1.6053 C   0  0  0  0  0  0  0  0  0  0  0  0
   -1.1346    2.6010   -1.6366 H   0  0  0  0  0  0  0  0  0  0  0  0
    0.6237    2.5701   -1.5537 H   0  0  0  0  0  0  0  0  0  0  0  0
   -0.1951    1.1032   -2.8652 C   0  0  0  0  0  0  0  0  0  0  0  0
    1.0279    0.5592   -3.2851 C   0  0  0  0  0  0  0  0  0  0  0  0
    1.9287    0.7312   -2.7030 H   0  0  0  0  0  0  0  0  0  0  0  0
    1.1005   -0.2084   -4.4525 C   0  0  0  0  0  0  0  0  0  0  0  0
    2.0520   -0.6263   -4.7683 H   0  0  0  0  0  0  0  0  0  0  0  0
   -0.0501   -0.4355   -5.2135 C   0  0  0  0  0  0  0  0  0  0  0  0
    0.0075   -1.0292   -6.1213 H   0  0  0  0  0  0  0  0  0  0  0  0
   -1.2725    0.1081   -4.8072 C   0  0  0  0  0  0  0  0  0  0  0  0
   -2.1650   -0.0619   -5.4022 H   0  0  0  0  0  0  0  0  0  0  0  0
   -1.3438    0.8761   -3.6395 C   0  0  0  0  0  0  0  0  0  0  0  0
   -2.2967    1.3018   -3.3412 H   0  0  0  0  0  0  0  0  0  0  0  0
   -0.1355    1.8710    0.9448 C   0  0  0  0  0  0  0  0  0  0  0  0
   -0.2430    3.0920    0.9472 O   0  0  0  0  0  0  0  0  0  0  0  0
    0.1918    1.2217    2.1188 N   0  0  0  0  0  0  0  0  0  0  0  0
    0.0852    0.2041    2.1025 H   0  0  0  0  0  0  0  0  0  0  0  0
    0.3003    1.8952    3.4058 C   0  0  0  0  0  0  0  0  0  0  0  0
   -0.6535    2.3592    3.6777 H   0  0  0  0  0  0  0  0  0  0  0  0
    0.5719    1.1766    4.1850 H   0  0  0  0  0  0  0  0  0  0  0  0
    1.0723    2.6709    3.3682 H   0  0  0  0  0  0  0  0  0  0  0  0
  1  2  1  0  0  0  0
  2  3  1  0  0  0  0
  2  4  1  0  0  0  0
  2  5  1  0  0  0  0
  5  6  2  0  0  0  0
  5  7  1  0  0  0  0
  7  8  1  0  0  0  0
  7  9  1  0  0  0  0
  9 10  1  0  0  0  0
  9 11  1  0  0  0  0
  9 25  1  0  0  0  0
 11 12  1  0  0  0  0
 11 13  1  0  0  0  0
 11 14  1  0  0  0  0
 14 15  1  0  0  0  0
 14 23  2  0  0  0  0
 15 16  1  0  0  0  0
 15 17  2  0  0  0  0
 17 18  1  0  0  0  0
 17 19  1  0  0  0  0
 19 20  1  0  0  0  0
 19 21  2  0  0  0  0
 21 22  1  0  0  0  0
 21 23  1  0  0  0  0
 23 24  1  0  0  0  0
 25 26  2  0  0  0  0
 25 27  1  0  0  0  0
 27 28  1  0  0  0  0
 27 29  1  0  0  0  0
 29 30  1  0  0  0  0
 29 31  1  0  0  0  0
 29 32  1  0  0  0  0
M  END
$$$$

  -OEChem-01062216093D

 32 32  0     1  0  0  0  0  0999 V2000
   -3.1607   -2.3942    1.0001 H   0  0  0  0  0  0  0  0  0  0  0  0
   -3.1660   -1.5167    0.3476 C   0  0  0  0  0  0  0  0  0  0  0  0
   -3.9613   -0.8412    0.6719 H   0  0  0  0  0  0  0  0  0  0  0  0
   -3.3668   -1.8414   -0.6762 H   0  0  0  0  0  0  0  0  0  0  0  0
   -1.8264   -0.8083    0.4122 C   0  0  0  0  0  0  0  0  0  0  0  0
   -0.9423   -1.2268    1.1471 O   0  0  0  0  0  0  0  0  0  0  0  0
   -1.6029    0.3168   -0.3547 N   0  0  0  0  0  0  0  0  0  0  0  0
   -2.3603    0.6543   -0.9405 H   0  0  0  0  0  0  0  0  0  0  0  0
   -0.3231    1.0398   -0.3645 C   0  0  1  0  0  0  0  0  0  0  0  0
    0.5046    0.3239   -0.4127 H   0  0  0  0  0  0  0  0  0  0  0  0
   -0.2533    1.9325   -1.6177 C   0  0  0  0  0  0  0  0  0  0  0  0
   -1.1214    2.5995   -1.6481 H   0  0  0  0  0  0  0  0  0  0  0  0
    0.6371    2.5675   -1.5610 H   0  0  0  0  0  0  0  0  0  0  0  0
   -0.1846    1.1057   -2.8802 C   0  0  0  0  0  0  0  0  0  0  0  0
    1.0358    0.5578   -3.3028 C   0  0  0  0  0  0  0  0  0  0  0  0
    1.9375    0.7244   -2.7208 H   0  0  0  0  0  0  0  0  0  0  0  0
    1.1042   -0.2071   -4.4723 C   0  0  0  0  0  0  0  0  0  0  0  0
    2.0533   -0.6288   -4.7899 H   0  0  0  0  0  0  0  0  0  0  0  0
   -0.0483   -0.4271   -5.2323 C   0  0  0  0  0  0  0  0  0  0  0  0
    0.0054   -1.0196   -6.1409 H   0  0  0  0  0  0  0  0  0  0  0  0
   -1.2681    0.1203   -4.8235 C   0  0  0  0  0  0  0  0  0  0  0  0
   -2.1625   -0.0452   -5.4172 H   0  0  0  0  0  0  0  0  0  0  0  0
   -1.3348    0.8851   -3.6536 C   0  0  0  0  0  0  0  0  0  0  0  0
   -2.2856    1.3131   -3.3518 H   0  0  0  0  0  0  0  0  0  0  0  0
   -0.1474    1.8714    0.9248 C   0  0  0  0  0  0  0  0  0  0  0  0
   -0.4862    3.0484    0.9753 O   0  0  0  0  0  0  0  0  0  0  0  0
    0.4628    1.2882    2.0180 N   0  0  0  0  0  0  0  0  0  0  0  0
    0.4850    0.2669    2.0022 H   0  0  0  0  0  0  0  0  0  0  0  0
    0.5893    1.9613    3.3040 C   0  0  0  0  0  0  0  0  0  0  0  0
   -0.3989    2.2026    3.7092 H   0  0  0  0  0  0  0  0  0  0  0  0
    1.1099    1.3152    4.0173 H   0  0  0  0  0  0  0  0  0  0  0  0
    1.1629    2.8879    3.1973 H   0  0  0  0  0  0  0  0  0  0  0  0
  1  2  1  0  0  0  0
  2  3  1  0  0  0  0
  2  4  1  0  0  0  0
  2  5  1  0  0  0  0
  5  6  2  0  0  0  0
  5  7  1  0  0  0  0
  7  8  1  0  0  0  0
  7  9  1  0  0  0  0
  9 10  1  0  0  0  0
  9 11  1  0  0  0  0
  9 25  1  0  0  0  0
 11 12  1  0  0  0  0
 11 13  1  0  0  0  0
 11 14  1  0  0  0  0
 14 15  1  0  0  0  0
 14 23  2  0  0  0  0
 15 16  1  0  0  0  0
 15 17  2  0  0  0  0
 17 18  1  0  0  0  0
 17 19  1  0  0  0  0
 19 20  1  0  0  0  0
 19 21  2  0  0  0  0
 21 22  1  0  0  0  0
 21 23  1  0  0  0  0
 23 24  1  0  0  0  0
 25 26  2  0  0  0  0
 25 27  1  0  0  0  0
 27 28  1  0  0  0  0
 27 29  1  0  0  0  0
 29 30  1  0  0  0  0
 29 31  1  0  0  0  0
 29 32  1  0  0  0  0
M  END
$$$$

  -OEChem-01062216093D

 32 32  0     1  0  0  0  0  0999 V2000
   -3.1615   -2.3568    1.0904 H   0  0  0  0  0  0  0  0  0  0  0  0
   -3.1744   -1.4876    0.4270 C   0  0  0  0  0  0  0  0  0  0  0  0
   -3.9217   -0.7781    0.7904 H   0  0  0  0  0  0  0  0  0  0  0  0
   -3.4503   -1.8160   -0.5781 H   0  0  0  0  0  0  0  0  0  0  0  0
   -1.8076   -0.8303    0.3990 C   0  0  0  0  0  0  0  0  0  0  0  0
   -0.8932   -1.2791    1.0762 O   0  0  0  0  0  0  0  0  0  0  0  0
   -1.5962    0.2899   -0.3780 N   0  0  0  0  0  0  0  0  0  0  0  0
   -2.3977    0.7035   -0.8443 H   0  0  0  0  0  0  0  0  0  0  0  0
   -0.3201    1.0180   -0.3855 C   0  0  1  0  0  0  0  0  0  0  0  0
    0.5109    0.3063   -0.4332 H   0  0  0  0  0  0  0  0  0  0  0  0
   -0.2466    1.9206   -1.6304 C   0  0  0  0  0  0  0  0  0  0  0  0
   -1.1157    2.5863   -1.6598 H   0  0  0  0  0  0  0  0  0  0  0  0
    0.6417    2.5576   -1.5643 H   0  0  0  0  0  0  0  0  0  0  0  0
   -0.1720    1.1051   -2.8996 C   0  0  0  0  0  0  0  0  0  0  0  0
    1.0504    0.5621   -3.3229 C   0  0  0  0  0  0  0  0  0  0  0  0
    1.9506    0.7249   -2.7376 H   0  0  0  0  0  0  0  0  0  0  0  0
    1.1224   -0.1939   -4.4979 C   0  0  0  0  0  0  0  0  0  0  0  0
    2.0727   -0.6116   -4.8167 H   0  0  0  0  0  0  0  0  0  0  0  0
   -0.0279   -0.4106   -5.2623 C   0  0  0  0  0  0  0  0  0  0  0  0
    0.0284   -0.9963   -6.1753 H   0  0  0  0  0  0  0  0  0  0  0  0
   -1.2495    0.1311   -4.8514 C   0  0  0  0  0  0  0  0  0  0  0  0
   -2.1428   -0.0326   -5.4469 H   0  0  0  0  0  0  0  0  0  0  0  0
   -1.3203    0.8865   -3.6760 C   0  0  0  0  0  0  0  0  0  0  0  0
   -2.2733    1.3066   -3.3701 H   0  0  0  0  0  0  0  0  0  0  0  0
   -0.1613    1.8552    0.9002 C   0  0  0  0  0  0  0  0  0  0  0  0
   -0.7461    2.9253    1.0264 O   0  0  0  0  0  0  0  0  0  0  0  0
    0.7007    1.4239    1.8900 N   0  0  0  0  0  0  0  0  0  0  0  0
    0.9534    0.4377    1.8468 H   0  0  0  0  0  0  0  0  0  0  0  0
    0.8352    2.1120    3.1676 C   0  0  0  0  0  0  0  0  0  0  0  0
   -0.1158    2.1015    3.7104 H   0  0  0  0  0  0  0  0  0  0  0  0
    1.5932    1.6187    3.7835 H   0  0  0  0  0  0  0  0  0  0  0  0
    1.1417    3.1519    3.0134 H   0  0  0  0  0  0  0  0  0  0  0  0
  1  2  1  0  0  0  0
  2  3  1  0  0  0  0
  2  4  1  0  0  0  0
  2  5  1  0  0  0  0
  5  6  2  0  0  0  0
  5  7  1  0  0  0  0
  7  8  1  0  0  0  0
  7  9  1  0  0  0  0
  9 10  1  0  0  0  0
  9 11  1  0  0  0  0
  9 25  1  0  0  0  0
 11 12  1  0  0  0  0
 11 13  1  0  0  0  0
 11 14  1  0  0  0  0
 14 15  1  0  0  0  0
 14 23  2  0  0  0  0
 15 16  1  0  0  0  0
 15 17  2  0  0  0  0
 17 18  1  0  0  0  0
 17 19  1  0  0  0  0
 19 20  1  0  0  0  0
 19 21  2  0  0  0  0
 21 22  1  0  0  0  0
 21 23  1  0  0  0  0
 23 24  1  0  0  0  0
 25 26  2  0  0  0  0
 25 27  1  0  0  0  0
 27 28  1  0  0  0  0
 27 29  1  0  0  0  0
 29 30  1  0  0  0  0
 29 31  1  0  0  0  0
 29 32  1  0  0  0  0
M  END
$$$$

  -OEChem-01062216093D

 32 32  0     1  0  0  0  0  0999 V2000
   -3.1702   -2.3241    1.1664 H   0  0  0  0  0  0  0  0  0  0  0  0
   -3.1884   -1.4600    0.4965 C   0  0  0  0  0  0  0  0  0  0  0  0
   -3.8874   -0.7203    0.8943 H   0  0  0  0  0  0  0  0  0  0  0  0
   -3.5326   -1.7843   -0.4883 H   0  0  0  0  0  0  0  0  0  0  0  0
   -1.8015   -0.8556    0.3857 C   0  0  0  0  0  0  0  0  0  0  0  0
   -0.8659   -1.3454    1.0019 O   0  0  0  0  0  0  0  0  0  0  0  0
   -1.5984    0.2610   -0.3986 N   0  0  0  0  0  0  0  0  0  0  0  0
   -2.4248    0.7344   -0.7509 H   0  0  0  0  0  0  0  0  0  0  0  0
   -0.3259    0.9962   -0.3998 C   0  0  1  0  0  0  0  0  0  0  0  0
    0.5081    0.2880   -0.4429 H   0  0  0  0  0  0  0  0  0  0  0  0
   -0.2497    1.9046   -1.6391 C   0  0  0  0  0  0  0  0  0  0  0  0
   -1.1225    2.5656   -1.6678 H   0  0  0  0  0  0  0  0  0  0  0  0
    0.6349    2.5457   -1.5653 H   0  0  0  0  0  0  0  0  0  0  0  0
   -0.1653    1.0984   -2.9142 C   0  0  0  0  0  0  0  0  0  0  0  0
    1.0611    0.5630   -3.3365 C   0  0  0  0  0  0  0  0  0  0  0  0
    1.9575    0.7218   -2.7447 H   0  0  0  0  0  0  0  0  0  0  0  0
    1.1421   -0.1801   -4.5195 C   0  0  0  0  0  0  0  0  0  0  0  0
    2.0952   -0.5917   -4.8381 H   0  0  0  0  0  0  0  0  0  0  0  0
   -0.0032   -0.3919   -5.2928 C   0  0  0  0  0  0  0  0  0  0  0  0
    0.0593   -0.9674   -6.2118 H   0  0  0  0  0  0  0  0  0  0  0  0
   -1.2289    0.1402   -4.8820 C   0  0  0  0  0  0  0  0  0  0  0  0
   -2.1187   -0.0205   -5.4833 H   0  0  0  0  0  0  0  0  0  0  0  0
   -1.3085    0.8824   -3.6987 C   0  0  0  0  0  0  0  0  0  0  0  0
   -2.2650    1.2938   -3.3924 H   0  0  0  0  0  0  0  0  0  0  0  0
   -0.1772    1.8423    0.8803 C   0  0  0  0  0  0  0  0  0  0  0  0
   -0.9620    2.7564    1.1074 O   0  0  0  0  0  0  0  0  0  0  0  0
    0.8822    1.6194    1.7394 N   0  0  0  0  0  0  0  0  0  0  0  0
    1.3748    0.7374    1.6205 H   0  0  0  0  0  0  0  0  0  0  0  0
    1.0309    2.3279    3.0043 C   0  0  0  0  0  0  0  0  0  0  0  0
    0.1815    2.1180    3.6627 H   0  0  0  0  0  0  0  0  0  0  0  0
    1.9486    2.0112    3.5088 H   0  0  0  0  0  0  0  0  0  0  0  0
    1.0874    3.4083    2.8352 H   0  0  0  0  0  0  0  0  0  0  0  0
  1  2  1  0  0  0  0
  2  3  1  0  0  0  0
  2  4  1  0  0  0  0
  2  5  1  0  0  0  0
  5  6  2  0  0  0  0
  5  7  1  0  0  0  0
  7  8  1  0  0  0  0
  7  9  1  0  0  0  0
  9 10  1  0  0  0  0
  9 11  1  0  0  0  0
  9 25  1  0  0  0  0
 11 12  1  0  0  0  0
 11 13  1  0  0  0  0
 11 14  1  0  0  0  0
 14 15  1  0  0  0  0
 14 23  2  0  0  0  0
 15 16  1  0  0  0  0
 15 17  2  0  0  0  0
 17 18  1  0  0  0  0
 17 19  1  0  0  0  0
 19 20  1  0  0  0  0
 19 21  2  0  0  0  0
 21 22  1  0  0  0  0
 21 23  1  0  0  0  0
 23 24  1  0  0  0  0
 25 26  2  0  0  0  0
 25 27  1  0  0  0  0
 27 28  1  0  0  0  0
 27 29  1  0  0  0  0
 29 30  1  0  0  0  0
 29 31  1  0  0  0  0
 29 32  1  0  0  0  0
M  END
$$$$

  -OEChem-01062216093D

 32 32  0     1  0  0  0  0  0999 V2000
   -3.1833   -2.3063    1.1997 H   0  0  0  0  0  0  0  0  0  0  0  0
   -3.2025   -1.4456    0.5253 C   0  0  0  0  0  0  0  0  0  0  0  0
   -3.8709   -0.6877    0.9412 H   0  0  0  0  0  0  0  0  0  0  0  0
   -3.5850   -1.7677   -0.4463 H   0  0  0  0  0  0  0  0  0  0  0  0
   -1.8063   -0.8737    0.3682 C   0  0  0  0  0  0  0  0  0  0  0  0
   -0.8623   -1.3931    0.9456 O   0  0  0  0  0  0  0  0  0  0  0  0
   -1.6061    0.2426   -0.4173 N   0  0  0  0  0  0  0  0  0  0  0  0
   -2.4398    0.7457   -0.7056 H   0  0  0  0  0  0  0  0  0  0  0  0
   -0.3355    0.9824   -0.4058 C   0  0  1  0  0  0  0  0  0  0  0  0
    0.5009    0.2765   -0.4436 H   0  0  0  0  0  0  0  0  0  0  0  0
   -0.2586    1.8971   -1.6392 C   0  0  0  0  0  0  0  0  0  0  0  0
   -1.1349    2.5536   -1.6665 H   0  0  0  0  0  0  0  0  0  0  0  0
    0.6226    2.5424   -1.5593 H   0  0  0  0  0  0  0  0  0  0  0  0
   -0.1647    1.0987   -2.9183 C   0  0  0  0  0  0  0  0  0  0  0  0
    1.0662    0.5722   -3.3380 C   0  0  0  0  0  0  0  0  0  0  0  0
    1.9597    0.7346   -2.7431 H   0  0  0  0  0  0  0  0  0  0  0  0
    1.1564   -0.1660   -4.5231 C   0  0  0  0  0  0  0  0  0  0  0  0
    2.1134   -0.5703   -4.8396 H   0  0  0  0  0  0  0  0  0  0  0  0
    0.0150   -0.3838   -5.3003 C   0  0  0  0  0  0  0  0  0  0  0  0
    0.0851   -0.9562   -6.2206 H   0  0  0  0  0  0  0  0  0  0  0  0
   -1.2159    0.1376   -4.8915 C   0  0  0  0  0  0  0  0  0  0  0  0
   -2.1032   -0.0303   -5.4949 H   0  0  0  0  0  0  0  0  0  0  0  0
   -1.3043    0.8764   -3.7065 C   0  0  0  0  0  0  0  0  0  0  0  0
   -2.2652    1.2781   -3.4002 H   0  0  0  0  0  0  0  0  0  0  0  0
   -0.1948    1.8330    0.8724 C   0  0  0  0  0  0  0  0  0  0  0  0
   -1.1089    2.5735    1.2181 O   0  0  0  0  0  0  0  0  0  0  0  0
    0.9951    1.8433    1.5762 N   0  0  0  0  0  0  0  0  0  0  0  0
    1.6643    1.1125    1.3506 H   0  0  0  0  0  0  0  0  0  0  0  0
    1.1741    2.5912    2.8145 C   0  0  0  0  0  0  0  0  0  0  0  0
    0.4719    2.2415    3.5786 H   0  0  0  0  0  0  0  0  0  0  0  0
    2.1926    2.4583    3.1919 H   0  0  0  0  0  0  0  0  0  0  0  0
    1.0070    3.6600    2.6444 H   0  0  0  0  0  0  0  0  0  0  0  0
  1  2  1  0  0  0  0
  2  3  1  0  0  0  0
  2  4  1  0  0  0  0
  2  5  1  0  0  0  0
  5  6  2  0  0  0  0
  5  7  1  0  0  0  0
  7  8  1  0  0  0  0
  7  9  1  0  0  0  0
  9 10  1  0  0  0  0
  9 11  1  0  0  0  0
  9 25  1  0  0  0  0
 11 12  1  0  0  0  0
 11 13  1  0  0  0  0
 11 14  1  0  0  0  0
 14 15  1  0  0  0  0
 14 23  2  0  0  0  0
 15 16  1  0  0  0  0
 15 17  2  0  0  0  0
 17 18  1  0  0  0  0
 17 19  1  0  0  0  0
 19 20  1  0  0  0  0
 19 21  2  0  0  0  0
 21 22  1  0  0  0  0
 21 23  1  0  0  0  0
 23 24  1  0  0  0  0
 25 26  2  0  0  0  0
 25 27  1  0  0  0  0
 27 28  1  0  0  0  0
 27 29  1  0  0  0  0
 29 30  1  0  0  0  0
 29 31  1  0  0  0  0
 29 32  1  0  0  0  0
M  END
$$$$

  -OEChem-01062216093D

 32 32  0     1  0  0  0  0  0999 V2000
   -3.1940   -2.2858    1.2400 H   0  0  0  0  0  0  0  0  0  0  0  0
   -3.2145   -1.4274    0.5629 C   0  0  0  0  0  0  0  0  0  0  0  0
   -3.8459   -0.6498    0.9998 H   0  0  0  0  0  0  0  0  0  0  0  0
   -3.6412   -1.7412   -0.3926 H   0  0  0  0  0  0  0  0  0  0  0  0
   -1.8103   -0.8935    0.3518 C   0  0  0  0  0  0  0  0  0  0  0  0
   -0.8591   -1.4428    0.8878 O   0  0  0  0  0  0  0  0  0  0  0  0
   -1.6149    0.2238   -0.4340 N   0  0  0  0  0  0  0  0  0  0  0  0
   -2.4533    0.7477   -0.6652 H   0  0  0  0  0  0  0  0  0  0  0  0
   -0.3463    0.9685   -0.4099 C   0  0  1  0  0  0  0  0  0  0  0  0
    0.4923    0.2651   -0.4422 H   0  0  0  0  0  0  0  0  0  0  0  0
   -0.2677    1.8884   -1.6398 C   0  0  0  0  0  0  0  0  0  0  0  0
   -1.1478    2.5397   -1.6686 H   0  0  0  0  0  0  0  0  0  0  0  0
    0.6092    2.5384   -1.5542 H   0  0  0  0  0  0  0  0  0  0  0  0
   -0.1630    1.0975   -2.9225 C   0  0  0  0  0  0  0  0  0  0  0  0
    1.0731    0.5798   -3.3385 C   0  0  0  0  0  0  0  0  0  0  0  0
    1.9631    0.7443   -2.7391 H   0  0  0  0  0  0  0  0  0  0  0  0
    1.1729   -0.1529   -4.5264 C   0  0  0  0  0  0  0  0  0  0  0  0
    2.1338   -0.5500   -4.8402 H   0  0  0  0  0  0  0  0  0  0  0  0
    0.0362   -0.3738   -5.3098 C   0  0  0  0  0  0  0  0  0  0  0  0
    0.1133   -0.9426   -6.2316 H   0  0  0  0  0  0  0  0  0  0  0  0
   -1.1997    0.1388   -4.9045 C   0  0  0  0  0  0  0  0  0  0  0  0
   -2.0838   -0.0314   -5.5120 H   0  0  0  0  0  0  0  0  0  0  0  0
   -1.2978    0.8715   -3.7165 C   0  0  0  0  0  0  0  0  0  0  0  0
   -2.2627    1.2652   -3.4121 H   0  0  0  0  0  0  0  0  0  0  0  0
   -0.2125    1.8217    0.8684 C   0  0  0  0  0  0  0  0  0  0  0  0
   -1.2000    2.3693    1.3470 O   0  0  0  0  0  0  0  0  0  0  0  0
    1.0351    2.0852    1.4042 N   0  0  0  0  0  0  0  0  0  0  0  0
    1.8150    1.5381    1.0513 H   0  0  0  0  0  0  0  0  0  0  0  0
    1.2268    2.8761    2.6137 C   0  0  0  0  0  0  0  0  0  0  0  0
    0.7178    2.4079    3.4627 H   0  0  0  0  0  0  0  0  0  0  0  0
    2.2925    2.9549    2.8487 H   0  0  0  0  0  0  0  0  0  0  0  0
    0.8286    3.8871    2.4779 H   0  0  0  0  0  0  0  0  0  0  0  0
  1  2  1  0  0  0  0
  2  3  1  0  0  0  0
  2  4  1  0  0  0  0
  2  5  1  0  0  0  0
  5  6  2  0  0  0  0
  5  7  1  0  0  0  0
  7  8  1  0  0  0  0
  7  9  1  0  0  0  0
  9 10  1  0  0  0  0
  9 11  1  0  0  0  0
  9 25  1  0  0  0  0
 11 12  1  0  0  0  0
 11 13  1  0  0  0  0
 11 14  1  0  0  0  0
 14 15  1  0  0  0  0
 14 23  2  0  0  0  0
 15 16  1  0  0  0  0
 15 17  2  0  0  0  0
 17 18  1  0  0  0  0
 17 19  1  0  0  0  0
 19 20  1  0  0  0  0
 19 21  2  0  0  0  0
 21 22  1  0  0  0  0
 21 23  1  0  0  0  0
 23 24  1  0  0  0  0
 25 26  2  0  0  0  0
 25 27  1  0  0  0  0
 27 28  1  0  0  0  0
 27 29  1  0  0  0  0
 29 30  1  0  0  0  0
 29 31  1  0  0  0  0
 29 32  1  0  0  0  0
M  END
$$$$

  -OEChem-01062216093D

 32 32  0     1  0  0  0  0  0999 V2000
   -3.1944   -2.2900    1.2319 H   0  0  0  0  0  0  0  0  0  0  0  0
   -3.2204   -1.4236    0.5652 C   0  0  0  0  0  0  0  0  0  0  0  0
   -3.8395   -0.6474    1.0218 H   0  0  0  0  0  0  0  0  0  0  0  0
   -3.6648   -1.7235   -0.3867 H   0  0  0  0  0  0  0  0  0  0  0  0
   -1.8160   -0.8972    0.3372 C   0  0  0  0  0  0  0  0  0  0  0  0
   -0.8606   -1.4645    0.8467 O   0  0  0  0  0  0  0  0  0  0  0  0
   -1.6249    0.2245   -0.4444 N   0  0  0  0  0  0  0  0  0  0  0  0
   -2.4656    0.7533   -0.6547 H   0  0  0  0  0  0  0  0  0  0  0  0
   -0.3571    0.9720   -0.4082 C   0  0  1  0  0  0  0  0  0  0  0  0
    0.4840    0.2711   -0.4379 H   0  0  0  0  0  0  0  0  0  0  0  0
   -0.2803    1.8915   -1.6398 C   0  0  0  0  0  0  0  0  0  0  0  0
   -1.1641    2.5374   -1.6716 H   0  0  0  0  0  0  0  0  0  0  0  0
    0.5926    2.5472   -1.5567 H   0  0  0  0  0  0  0  0  0  0  0  0
   -0.1677    1.0988   -2.9208 C   0  0  0  0  0  0  0  0  0  0  0  0
    1.0727    0.5875   -3.3323 C   0  0  0  0  0  0  0  0  0  0  0  0
    1.9601    0.7568   -2.7302 H   0  0  0  0  0  0  0  0  0  0  0  0
    1.1803   -0.1476   -4.5180 C   0  0  0  0  0  0  0  0  0  0  0  0
    2.1439   -0.5416   -4.8275 H   0  0  0  0  0  0  0  0  0  0  0  0
    0.0472   -0.3779   -5.3037 C   0  0  0  0  0  0  0  0  0  0  0  0
    0.1297   -0.9505   -6.2228 H   0  0  0  0  0  0  0  0  0  0  0  0
   -1.1928    0.1282   -4.9031 C   0  0  0  0  0  0  0  0  0  0  0  0
   -2.0741   -0.0507   -5.5121 H   0  0  0  0  0  0  0  0  0  0  0  0
   -1.2987    0.8636   -3.7174 C   0  0  0  0  0  0  0  0  0  0  0  0
   -2.2673    1.2499   -3.4162 H   0  0  0  0  0  0  0  0  0  0  0  0
   -0.2229    1.8238    0.8736 C   0  0  0  0  0  0  0  0  0  0  0  0
   -1.2216    2.1774    1.4918 O   0  0  0  0  0  0  0  0  0  0  0  0
    1.0077    2.3417    1.2372 N   0  0  0  0  0  0  0  0  0  0  0  0
    1.8249    1.9800    0.7548 H   0  0  0  0  0  0  0  0  0  0  0  0
    1.2039    3.1661    2.4235 C   0  0  0  0  0  0  0  0  0  0  0  0
    0.9114    2.6164    3.3245 H   0  0  0  0  0  0  0  0  0  0  0  0
    2.2565    3.4497    2.5172 H   0  0  0  0  0  0  0  0  0  0  0  0
    0.6053    4.0807    2.3584 H   0  0  0  0  0  0  0  0  0  0  0  0
  1  2  1  0  0  0  0
  2  3  1  0  0  0  0
  2  4  1  0  0  0  0
  2  5  1  0  0  0  0
  5  6  2  0  0  0  0
  5  7  1  0  0  0  0
  7  8  1  0  0  0  0
  7  9  1  0  0  0  0
  9 10  1  0  0  0  0
  9 11  1  0  0  0  0
  9 25  1  0  0  0  0
 11 12  1  0  0  0  0
 11 13  1  0  0  0  0
 11 14  1  0  0  0  0
 14 15  1  0  0  0  0
 14 23  2  0  0  0  0
 15 16  1  0  0  0  0
 15 17  2  0  0  0  0
 17 18  1  0  0  0  0
 17 19  1  0  0  0  0
 19 20  1  0  0  0  0
 19 21  2  0  0  0  0
 21 22  1  0  0  0  0
 21 23  1  0  0  0  0
 23 24  1  0  0  0  0
 25 26  2  0  0  0  0
 25 27  1  0  0  0  0
 27 28  1  0  0  0  0
 27 29  1  0  0  0  0
 29 30  1  0  0  0  0
 29 31  1  0  0  0  0
 29 32  1  0  0  0  0
M  END
$$$$

  -OEChem-01062216093D

 32 32  0     1  0  0  0  0  0999 V2000
   -3.1521   -2.3102    1.2568 H   0  0  0  0  0  0  0  0  0  0  0  0
   -3.2038   -1.4267    0.6144 C   0  0  0  0  0  0  0  0  0  0  0  0
   -3.7599   -0.6450    1.1379 H   0  0  0  0  0  0  0  0  0  0  0  0
   -3.7305   -1.6888   -0.3061 H   0  0  0  0  0  0  0  0  0  0  0  0
   -1.8059   -0.9352    0.2907 C   0  0  0  0  0  0  0  0  0  0  0  0
   -0.8308   -1.5718    0.6626 O   0  0  0  0  0  0  0  0  0  0  0  0
   -1.6365    0.2060   -0.4697 N   0  0  0  0  0  0  0  0  0  0  0  0
   -2.4844    0.7394   -0.6283 H   0  0  0  0  0  0  0  0  0  0  0  0
   -0.3759    0.9672   -0.4127 C   0  0  1  0  0  0  0  0  0  0  0  0
    0.4482    0.3119   -0.7131 H   0  0  0  0  0  0  0  0  0  0  0  0
   -0.4731    2.1420   -1.4054 C   0  0  0  0  0  0  0  0  0  0  0  0
   -1.3593    2.7432   -1.1765 H   0  0  0  0  0  0  0  0  0  0  0  0
    0.3949    2.7992   -1.2950 H   0  0  0  0  0  0  0  0  0  0  0  0
   -0.5223    1.6606   -2.8363 C   0  0  0  0  0  0  0  0  0  0  0  0
    0.6580    1.3046   -3.5066 C   0  0  0  0  0  0  0  0  0  0  0  0
    1.6150    1.3648   -2.9976 H   0  0  0  0  0  0  0  0  0  0  0  0
    0.6160    0.8642   -4.8339 C   0  0  0  0  0  0  0  0  0  0  0  0
    1.5341    0.5874   -5.3437 H   0  0  0  0  0  0  0  0  0  0  0  0
   -0.6077    0.7783   -5.5040 C   0  0  0  0  0  0  0  0  0  0  0  0
   -0.6406    0.4354   -6.5340 H   0  0  0  0  0  0  0  0  0  0  0  0
   -1.7888    1.1333   -4.8461 C   0  0  0  0  0  0  0  0  0  0  0  0
   -2.7400    1.0669   -5.3660 H   0  0  0  0  0  0  0  0  0  0  0  0
   -1.7455    1.5734   -3.5187 C   0  0  0  0  0  0  0  0  0  0  0  0
   -2.6699    1.8471   -3.0200 H   0  0  0  0  0  0  0  0  0  0  0  0
   -0.0468    1.5064    1.0041 C   0  0  0  0  0  0  0  0  0  0  0  0
   -0.8991    1.5145    1.8862 O   0  0  0  0  0  0  0  0  0  0  0  0
    1.1097    2.2379    1.2160 N   0  0  0  0  0  0  0  0  0  0  0  0
    1.8188    2.2090    0.4901 H   0  0  0  0  0  0  0  0  0  0  0  0
    1.4448    2.8467    2.4981 C   0  0  0  0  0  0  0  0  0  0  0  0
    1.4981    2.0834    3.2816 H   0  0  0  0  0  0  0  0  0  0  0  0
    2.4152    3.3487    2.4371 H   0  0  0  0  0  0  0  0  0  0  0  0
    0.6901    3.5887    2.7794 H   0  0  0  0  0  0  0  0  0  0  0  0
  1  2  1  0  0  0  0
  2  3  1  0  0  0  0
  2  4  1  0  0  0  0
  2  5  1  0  0  0  0
  5  6  2  0  0  0  0
  5  7  1  0  0  0  0
  7  8  1  0  0  0  0
  7  9  1  0  0  0  0
  9 10  1  0  0  0  0
  9 11  1  0  0  0  0
  9 25  1  0  0  0  0
 11 12  1  0  0  0  0
 11 13  1  0  0  0  0
 11 14  1  0  0  0  0
 14 15  1  0  0  0  0
 14 23  2  0  0  0  0
 15 16  1  0  0  0  0
 15 17  2  0  0  0  0
 17 18  1  0  0  0  0
 17 19  1  0  0  0  0
 19 20  1  0  0  0  0
 19 21  2  0  0  0  0
 21 22  1  0  0  0  0
 21 23  1  0  0  0  0
 23 24  1  0  0  0  0
 25 26  2  0  0  0  0
 25 27  1  0  0  0  0
 27 28  1  0  0  0  0
 27 29  1  0  0  0  0
 29 30  1  0  0  0  0
 29 31  1  0  0  0  0
 29 32  1  0  0  0  0
M  END
$$$$

  -OEChem-01062216093D

 32 32  0     1  0  0  0  0  0999 V2000
   -3.1475   -2.3284    1.2148 H   0  0  0  0  0  0  0  0  0  0  0  0
   -3.2038   -1.4149    0.6162 C   0  0  0  0  0  0  0  0  0  0  0  0
   -3.7284   -0.6498    1.1937 H   0  0  0  0  0  0  0  0  0  0  0  0
   -3.7644   -1.6242   -0.2977 H   0  0  0  0  0  0  0  0  0  0  0  0
   -1.8081   -0.9320    0.2702 C   0  0  0  0  0  0  0  0  0  0  0  0
   -0.8340   -1.6004    0.5838 O   0  0  0  0  0  0  0  0  0  0  0  0
   -1.6427    0.2230   -0.4712 N   0  0  0  0  0  0  0  0  0  0  0  0
   -2.4927    0.7582   -0.6102 H   0  0  0  0  0  0  0  0  0  0  0  0
   -0.3829    0.9878   -0.4084 C   0  0  1  0  0  0  0  0  0  0  0  0
    0.4411    0.3344   -0.7139 H   0  0  0  0  0  0  0  0  0  0  0  0
   -0.4914    2.1529   -1.4155 C   0  0  0  0  0  0  0  0  0  0  0  0
   -1.3838    2.7475   -1.1936 H   0  0  0  0  0  0  0  0  0  0  0  0
    0.3694    2.8207   -1.3200 H   0  0  0  0  0  0  0  0  0  0  0  0
   -0.5338    1.6559   -2.8419 C   0  0  0  0  0  0  0  0  0  0  0  0
    0.6519    1.3053   -3.5055 C   0  0  0  0  0  0  0  0  0  0  0  0
    1.6063    1.3756   -2.9930 H   0  0  0  0  0  0  0  0  0  0  0  0
    0.6191    0.8552   -4.8297 C   0  0  0  0  0  0  0  0  0  0  0  0
    1.5415    0.5814   -5.3336 H   0  0  0  0  0  0  0  0  0  0  0  0
   -0.6009    0.7555   -5.5046 C   0  0  0  0  0  0  0  0  0  0  0  0
   -0.6266    0.4051   -6.5323 H   0  0  0  0  0  0  0  0  0  0  0  0
   -1.7874    1.1072   -4.8546 C   0  0  0  0  0  0  0  0  0  0  0  0
   -2.7353    1.0322   -5.3794 H   0  0  0  0  0  0  0  0  0  0  0  0
   -1.7533    1.5559   -3.5297 C   0  0  0  0  0  0  0  0  0  0  0  0
   -2.6818    1.8276   -3.0378 H   0  0  0  0  0  0  0  0  0  0  0  0
   -0.0338    1.5148    1.0140 C   0  0  0  0  0  0  0  0  0  0  0  0
   -0.7691    1.2953    1.9701 O   0  0  0  0  0  0  0  0  0  0  0  0
    0.9363    2.4906    1.1816 N   0  0  0  0  0  0  0  0  0  0  0  0
    1.5514    2.6766    0.3959 H   0  0  0  0  0  0  0  0  0  0  0  0
    1.2405    3.1083    2.4679 C   0  0  0  0  0  0  0  0  0  0  0  0
    1.5395    2.3476    3.1969 H   0  0  0  0  0  0  0  0  0  0  0  0
    2.0603    3.8248    2.3591 H   0  0  0  0  0  0  0  0  0  0  0  0
    0.3653    3.6415    2.8539 H   0  0  0  0  0  0  0  0  0  0  0  0
  1  2  1  0  0  0  0
  2  3  1  0  0  0  0
  2  4  1  0  0  0  0
  2  5  1  0  0  0  0
  5  6  2  0  0  0  0
  5  7  1  0  0  0  0
  7  8  1  0  0  0  0
  7  9  1  0  0  0  0
  9 10  1  0  0  0  0
  9 11  1  0  0  0  0
  9 25  1  0  0  0  0
 11 12  1  0  0  0  0
 11 13  1  0  0  0  0
 11 14  1  0  0  0  0
 14 15  1  0  0  0  0
 14 23  2  0  0  0  0
 15 16  1  0  0  0  0
 15 17  2  0  0  0  0
 17 18  1  0  0  0  0
 17 19  1  0  0  0  0
 19 20  1  0  0  0  0
 19 21  2  0  0  0  0
 21 22  1  0  0  0  0
 21 23  1  0  0  0  0
 23 24  1  0  0  0  0
 25 26  2  0  0  0  0
 25 27  1  0  0  0  0
 27 28  1  0  0  0  0
 27 29  1  0  0  0  0
 29 30  1  0  0  0  0
 29 31  1  0  0  0  0
 29 32  1  0  0  0  0
M  END
$$$$

  -OEChem-01062216093D

 32 32  0     1  0  0  0  0  0999 V2000
   -3.1418   -2.3104    1.2201 H   0  0  0  0  0  0  0  0  0  0  0  0
   -3.2030   -1.3973    0.6214 C   0  0  0  0  0  0  0  0  0  0  0  0
   -3.7119   -0.6282    1.2074 H   0  0  0  0  0  0  0  0  0  0  0  0
   -3.7808   -1.6042   -0.2824 H   0  0  0  0  0  0  0  0  0  0  0  0
   -1.8104   -0.9247    0.2497 C   0  0  0  0  0  0  0  0  0  0  0  0
   -0.8407   -1.6252    0.4989 O   0  0  0  0  0  0  0  0  0  0  0  0
   -1.6497    0.2432   -0.4728 N   0  0  0  0  0  0  0  0  0  0  0  0
   -2.5029    0.7763   -0.5973 H   0  0  0  0  0  0  0  0  0  0  0  0
   -0.3937    1.0167   -0.4113 C   0  0  1  0  0  0  0  0  0  0  0  0
    0.4306    0.3651   -0.7205 H   0  0  0  0  0  0  0  0  0  0  0  0
   -0.5084    2.1711   -1.4322 C   0  0  0  0  0  0  0  0  0  0  0  0
   -1.4041    2.7637   -1.2190 H   0  0  0  0  0  0  0  0  0  0  0  0
    0.3506    2.8421   -1.3489 H   0  0  0  0  0  0  0  0  0  0  0  0
   -0.5428    1.6579   -2.8528 C   0  0  0  0  0  0  0  0  0  0  0  0
    0.6482    1.3096   -3.5083 C   0  0  0  0  0  0  0  0  0  0  0  0
    1.6004    1.3938   -2.9936 H   0  0  0  0  0  0  0  0  0  0  0  0
    0.6237    0.8436   -4.8271 C   0  0  0  0  0  0  0  0  0  0  0  0
    1.5503    0.5721   -5.3245 H   0  0  0  0  0  0  0  0  0  0  0  0
   -0.5933    0.7243   -5.5043 C   0  0  0  0  0  0  0  0  0  0  0  0
   -0.6126    0.3604   -6.5274 H   0  0  0  0  0  0  0  0  0  0  0  0
   -1.7849    1.0730   -4.8620 C   0  0  0  0  0  0  0  0  0  0  0  0
   -2.7306    0.9813   -5.3881 H   0  0  0  0  0  0  0  0  0  0  0  0
   -1.7591    1.5391   -3.5430 C   0  0  0  0  0  0  0  0  0  0  0  0
   -2.6918    1.8080   -3.0575 H   0  0  0  0  0  0  0  0  0  0  0  0
   -0.0259    1.5333    1.0143 C   0  0  0  0  0  0  0  0  0  0  0  0
   -0.5636    1.0831    2.0185 O   0  0  0  0  0  0  0  0  0  0  0  0
    0.6954    2.7060    1.1817 N   0  0  0  0  0  0  0  0  0  0  0  0
    1.1472    3.0987    0.3623 H   0  0  0  0  0  0  0  0  0  0  0  0
    0.9762    3.3009    2.4842 C   0  0  0  0  0  0  0  0  0  0  0  0
    1.5222    2.5946    3.1185 H   0  0  0  0  0  0  0  0  0  0  0  0
    1.5858    4.2017    2.3654 H   0  0  0  0  0  0  0  0  0  0  0  0
    0.0442    3.5791    2.9874 H   0  0  0  0  0  0  0  0  0  0  0  0
  1  2  1  0  0  0  0
  2  3  1  0  0  0  0
  2  4  1  0  0  0  0
  2  5  1  0  0  0  0
  5  6  2  0  0  0  0
  5  7  1  0  0  0  0
  7  8  1  0  0  0  0
  7  9  1  0  0  0  0
  9 10  1  0  0  0  0
  9 11  1  0  0  0  0
  9 25  1  0  0  0  0
 11 12  1  0  0  0  0
 11 13  1  0  0  0  0
 11 14  1  0  0  0  0
 14 15  1  0  0  0  0
 14 23  2  0  0  0  0
 15 16  1  0  0  0  0
 15 17  2  0  0  0  0
 17 18  1  0  0  0  0
 17 19  1  0  0  0  0
 19 20  1  0  0  0  0
 19 21  2  0  0  0  0
 21 22  1  0  0  0  0
 21 23  1  0  0  0  0
 23 24  1  0  0  0  0
 25 26  2  0  0  0  0
 25 27  1  0  0  0  0
 27 28  1  0  0  0  0
 27 29  1  0  0  0  0
 29 30  1  0  0  0  0
 29 31  1  0  0  0  0
 29 32  1  0  0  0  0
M  END
$$$$

  -OEChem-01062216093D

 32 32  0     1  0  0  0  0  0999 V2000
   -3.1345   -2.2898    1.2447 H   0  0  0  0  0  0  0  0  0  0  0  0
   -3.2027   -1.3804    0.6412 C   0  0  0  0  0  0  0  0  0  0  0  0
   -3.6952   -0.6049    1.2325 H   0  0  0  0  0  0  0  0  0  0  0  0
   -3.8001   -1.5903   -0.2490 H   0  0  0  0  0  0  0  0  0  0  0  0
   -1.8150   -0.9188    0.2390 C   0  0  0  0  0  0  0  0  0  0  0  0
   -0.8524   -1.6445    0.4335 O   0  0  0  0  0  0  0  0  0  0  0  0
   -1.6607    0.2556   -0.4742 N   0  0  0  0  0  0  0  0  0  0  0  0
   -2.5179    0.7835   -0.5937 H   0  0  0  0  0  0  0  0  0  0  0  0
   -0.4116    1.0409   -0.4176 C   0  0  1  0  0  0  0  0  0  0  0  0
    0.4161    0.3916   -0.7234 H   0  0  0  0  0  0  0  0  0  0  0  0
   -0.5229    2.1859   -1.4484 C   0  0  0  0  0  0  0  0  0  0  0  0
   -1.4198    2.7809   -1.2471 H   0  0  0  0  0  0  0  0  0  0  0  0
    0.3390    2.8541   -1.3644 H   0  0  0  0  0  0  0  0  0  0  0  0
   -0.5456    1.6605   -2.8648 C   0  0  0  0  0  0  0  0  0  0  0  0
    0.6508    1.3104   -3.5093 C   0  0  0  0  0  0  0  0  0  0  0  0
    1.5992    1.4013   -2.9884 H   0  0  0  0  0  0  0  0  0  0  0  0
    0.6363    0.8304   -4.8232 C   0  0  0  0  0  0  0  0  0  0  0  0
    1.5669    0.5547   -5.3105 H   0  0  0  0  0  0  0  0  0  0  0  0
   -0.5756    0.7018   -5.5077 C   0  0  0  0  0  0  0  0  0  0  0  0
   -0.5868    0.3277   -6.5274 H   0  0  0  0  0  0  0  0  0  0  0  0
   -1.7727    1.0528   -4.8767 C   0  0  0  0  0  0  0  0  0  0  0  0
   -2.7146    0.9522   -5.4079 H   0  0  0  0  0  0  0  0  0  0  0  0
   -1.7570    1.5308   -3.5618 C   0  0  0  0  0  0  0  0  0  0  0  0
   -2.6941    1.7995   -3.0850 H   0  0  0  0  0  0  0  0  0  0  0  0
   -0.0391    1.5536    1.0085 C   0  0  0  0  0  0  0  0  0  0  0  0
   -0.2922    0.9068    2.0154 O   0  0  0  0  0  0  0  0  0  0  0  0
    0.3880    2.8578    1.2118 N   0  0  0  0  0  0  0  0  0  0  0  0
    0.5853    3.4215    0.3917 H   0  0  0  0  0  0  0  0  0  0  0  0
    0.6716    3.4195    2.5286 C   0  0  0  0  0  0  0  0  0  0  0  0
    1.4557    2.8422    3.0302 H   0  0  0  0  0  0  0  0  0  0  0  0
    1.0126    4.4547    2.4327 H   0  0  0  0  0  0  0  0  0  0  0  0
   -0.2283    3.4093    3.1528 H   0  0  0  0  0  0  0  0  0  0  0  0
  1  2  1  0  0  0  0
  2  3  1  0  0  0  0
  2  4  1  0  0  0  0
  2  5  1  0  0  0  0
  5  6  2  0  0  0  0
  5  7  1  0  0  0  0
  7  8  1  0  0  0  0
  7  9  1  0  0  0  0
  9 10  1  0  0  0  0
  9 11  1  0  0  0  0
  9 25  1  0  0  0  0
 11 12  1  0  0  0  0
 11 13  1  0  0  0  0
 11 14  1  0  0  0  0
 14 15  1  0  0  0  0
 14 23  2  0  0  0  0
 15 16  1  0  0  0  0
 15 17  2  0  0  0  0
 17 18  1  0  0  0  0
 17 19  1  0  0  0  0
 19 20  1  0  0  0  0
 19 21  2  0  0  0  0
 21 22  1  0  0  0  0
 21 23  1  0  0  0  0
 23 24  1  0  0  0  0
 25 26  2  0  0  0  0
 25 27  1  0  0  0  0
 27 28  1  0  0  0  0
 27 29  1  0  0  0  0
 29 30  1  0  0  0  0
 29 31  1  0  0  0  0
 29 32  1  0  0  0  0
M  END
$$$$

  -OEChem-01062216093D

 32 32  0     1  0  0  0  0  0999 V2000
   -3.1678   -2.2946    1.2230 H   0  0  0  0  0  0  0  0  0  0  0  0
   -3.2245   -1.3862    0.6165 C   0  0  0  0  0  0  0  0  0  0  0  0
   -3.7400   -0.6137    1.1918 H   0  0  0  0  0  0  0  0  0  0  0  0
   -3.7942   -1.6013   -0.2904 H   0  0  0  0  0  0  0  0  0  0  0  0
   -1.8287   -0.9155    0.2532 C   0  0  0  0  0  0  0  0  0  0  0  0
   -0.8716   -1.6394    0.4707 O   0  0  0  0  0  0  0  0  0  0  0  0
   -1.6677    0.2579   -0.4597 N   0  0  0  0  0  0  0  0  0  0  0  0
   -2.5272    0.7692   -0.6250 H   0  0  0  0  0  0  0  0  0  0  0  0
   -0.4253    1.0536   -0.4122 C   0  0  1  0  0  0  0  0  0  0  0  0
    0.4060    0.4058   -0.7121 H   0  0  0  0  0  0  0  0  0  0  0  0
   -0.5319    2.1938   -1.4467 C   0  0  0  0  0  0  0  0  0  0  0  0
   -1.4312    2.7884   -1.2553 H   0  0  0  0  0  0  0  0  0  0  0  0
    0.3308    2.8611   -1.3519 H   0  0  0  0  0  0  0  0  0  0  0  0
   -0.5472    1.6627   -2.8607 C   0  0  0  0  0  0  0  0  0  0  0  0
    0.6531    1.3109   -3.4968 C   0  0  0  0  0  0  0  0  0  0  0  0
    1.5983    1.4063   -2.9708 H   0  0  0  0  0  0  0  0  0  0  0  0
    0.6462    0.8245   -4.8083 C   0  0  0  0  0  0  0  0  0  0  0  0
    1.5801    0.5483   -5.2894 H   0  0  0  0  0  0  0  0  0  0  0  0
   -0.5622    0.6897   -5.4982 C   0  0  0  0  0  0  0  0  0  0  0  0
   -0.5674    0.3104   -6.5159 H   0  0  0  0  0  0  0  0  0  0  0  0
   -1.7631    1.0419   -4.8753 C   0  0  0  0  0  0  0  0  0  0  0  0
   -2.7020    0.9369   -5.4109 H   0  0  0  0  0  0  0  0  0  0  0  0
   -1.7551    1.5270   -3.5629 C   0  0  0  0  0  0  0  0  0  0  0  0
   -2.6952    1.7966   -3.0927 H   0  0  0  0  0  0  0  0  0  0  0  0
   -0.0570    1.5735    1.0088 C   0  0  0  0  0  0  0  0  0  0  0  0
    0.0478    0.8221    1.9661 O   0  0  0  0  0  0  0  0  0  0  0  0
    0.0559    2.9318    1.2671 N   0  0  0  0  0  0  0  0  0  0  0  0
   -0.0375    3.5703    0.4842 H   0  0  0  0  0  0  0  0  0  0  0  0
    0.3658    3.4792    2.5839 C   0  0  0  0  0  0  0  0  0  0  0  0
    1.3484    3.1323    2.9207 H   0  0  0  0  0  0  0  0  0  0  0  0
    0.3791    4.5725    2.5461 H   0  0  0  0  0  0  0  0  0  0  0  0
   -0.3873    3.1691    3.3160 H   0  0  0  0  0  0  0  0  0  0  0  0
  1  2  1  0  0  0  0
  2  3  1  0  0  0  0
  2  4  1  0  0  0  0
  2  5  1  0  0  0  0
  5  6  2  0  0  0  0
  5  7  1  0  0  0  0
  7  8  1  0  0  0  0
  7  9  1  0  0  0  0
  9 10  1  0  0  0  0
  9 11  1  0  0  0  0
  9 25  1  0  0  0  0
 11 12  1  0  0  0  0
 11 13  1  0  0  0  0
 11 14  1  0  0  0  0
 14 15  1  0  0  0  0
 14 23  2  0  0  0  0
 15 16  1  0  0  0  0
 15 17  2  0  0  0  0
 17 18  1  0  0  0  0
 17 19  1  0  0  0  0
 19 20  1  0  0  0  0
 19 21  2  0  0  0  0
 21 22  1  0  0  0  0
 21 23  1  0  0  0  0
 23 24  1  0  0  0  0
 25 26  2  0  0  0  0
 25 27  1  0  0  0  0
 27 28  1  0  0  0  0
 27 29  1  0  0  0  0
 29 30  1  0  0  0  0
 29 31  1  0  0  0  0
 29 32  1  0  0  0  0
M  END
$$$$

  -OEChem-01062216093D

 32 32  0     1  0  0  0  0  0999 V2000
   -3.3040   -2.3936    0.9691 H   0  0  0  0  0  0  0  0  0  0  0  0
   -3.2906   -1.4904    0.3523 C   0  0  0  0  0  0  0  0  0  0  0  0
   -3.9950   -0.7689    0.7726 H   0  0  0  0  0  0  0  0  0  0  0  0
   -3.6042   -1.7517   -0.6613 H   0  0  0  0  0  0  0  0  0  0  0  0
   -1.8938   -0.8977    0.3261 C   0  0  0  0  0  0  0  0  0  0  0  0
   -0.9781   -1.5043    0.8494 O   0  0  0  0  0  0  0  0  0  0  0  0
   -1.6718    0.2685   -0.3807 N   0  0  0  0  0  0  0  0  0  0  0  0
   -2.4783    0.6663   -0.8489 H   0  0  0  0  0  0  0  0  0  0  0  0
   -0.4318    1.0675   -0.3477 C   0  0  1  0  0  0  0  0  0  0  0  0
    0.3985    0.4167   -0.6448 H   0  0  0  0  0  0  0  0  0  0  0  0
   -0.5466    2.2006   -1.3878 C   0  0  0  0  0  0  0  0  0  0  0  0
   -1.4475    2.7930   -1.1985 H   0  0  0  0  0  0  0  0  0  0  0  0
    0.3143    2.8716   -1.2927 H   0  0  0  0  0  0  0  0  0  0  0  0
   -0.5698    1.6591   -2.7978 C   0  0  0  0  0  0  0  0  0  0  0  0
    0.6276    1.3049   -3.4373 C   0  0  0  0  0  0  0  0  0  0  0  0
    1.5757    1.4090   -2.9175 H   0  0  0  0  0  0  0  0  0  0  0  0
    0.6147    0.8068   -4.7444 C   0  0  0  0  0  0  0  0  0  0  0  0
    1.5465    0.5296   -5.2288 H   0  0  0  0  0  0  0  0  0  0  0  0
   -0.5967    0.6637   -5.4269 C   0  0  0  0  0  0  0  0  0  0  0  0
   -0.6057    0.2766   -6.4417 H   0  0  0  0  0  0  0  0  0  0  0  0
   -1.7948    1.0206   -4.8017 C   0  0  0  0  0  0  0  0  0  0  0  0
   -2.7351    0.9133   -5.3346 H   0  0  0  0  0  0  0  0  0  0  0  0
   -1.7812    1.5174   -3.4934 C   0  0  0  0  0  0  0  0  0  0  0  0
   -2.7194    1.7955   -3.0241 H   0  0  0  0  0  0  0  0  0  0  0  0
   -0.0555    1.6127    1.0575 C   0  0  0  0  0  0  0  0  0  0  0  0
    0.5406    0.9234    1.8701 O   0  0  0  0  0  0  0  0  0  0  0  0
   -0.2435    2.9493    1.3773 N   0  0  0  0  0  0  0  0  0  0  0  0
   -0.7079    3.5370    0.6935 H   0  0  0  0  0  0  0  0  0  0  0  0
    0.1743    3.5400    2.6442 C   0  0  0  0  0  0  0  0  0  0  0  0
    1.2598    3.4590    2.7652 H   0  0  0  0  0  0  0  0  0  0  0  0
   -0.0986    4.5991    2.6763 H   0  0  0  0  0  0  0  0  0  0  0  0
   -0.3128    3.0320    3.4835 H   0  0  0  0  0  0  0  0  0  0  0  0
  1  2  1  0  0  0  0
  2  3  1  0  0  0  0
  2  4  1  0  0  0  0
  2  5  1  0  0  0  0
  5  6  2  0  0  0  0
  5  7  1  0  0  0  0
  7  8  1  0  0  0  0
  7  9  1  0  0  0  0
  9 10  1  0  0  0  0
  9 11  1  0  0  0  0
  9 25  1  0  0  0  0
 11 12  1  0  0  0  0
 11 13  1  0  0  0  0
 11 14  1  0  0  0  0
 14 15  1  0  0  0  0
 14 23  2  0  0  0  0
 15 16  1  0  0  0  0
 15 17  2  0  0  0  0
 17 18  1  0  0  0  0
 17 19  1  0  0  0  0
 19 20  1  0  0  0  0
 19 21  2  0  0  0  0
 21 22  1  0  0  0  0
 21 23  1  0  0  0  0
 23 24  1  0  0  0  0
 25 26  2  0  0  0  0
 25 27  1  0  0  0  0
 27 28  1  0  0  0  0
 27 29  1  0  0  0  0
 29 30  1  0  0  0  0
 29 31  1  0  0  0  0
 29 32  1  0  0  0  0
M  END
$$$$

  -OEChem-01062216093D

 32 32  0     1  0  0  0  0  0999 V2000
   -3.2923   -2.5077    0.7404 H   0  0  0  0  0  0  0  0  0  0  0  0
   -3.2606   -1.6039    0.1252 C   0  0  0  0  0  0  0  0  0  0  0  0
   -4.1293   -0.9857    0.3630 H   0  0  0  0  0  0  0  0  0  0  0  0
   -3.3027   -1.8939   -0.9273 H   0  0  0  0  0  0  0  0  0  0  0  0
   -1.9842   -0.8306    0.3990 C   0  0  0  0  0  0  0  0  0  0  0  0
   -1.2036   -1.2437    1.2350 O   0  0  0  0  0  0  0  0  0  0  0  0
   -1.7240    0.3150   -0.3276 N   0  0  0  0  0  0  0  0  0  0  0  0
   -2.3419    0.4821   -1.1153 H   0  0  0  0  0  0  0  0  0  0  0  0
   -0.4577    1.0704   -0.2990 C   0  0  1  0  0  0  0  0  0  0  0  0
    0.3500    0.3905   -0.5931 H   0  0  0  0  0  0  0  0  0  0  0  0
   -0.5361    2.2071   -1.3353 C   0  0  0  0  0  0  0  0  0  0  0  0
   -1.4154    2.8307   -1.1453 H   0  0  0  0  0  0  0  0  0  0  0  0
    0.3467    2.8486   -1.2377 H   0  0  0  0  0  0  0  0  0  0  0  0
   -0.5833    1.6609   -2.7423 C   0  0  0  0  0  0  0  0  0  0  0  0
    0.5979    1.2618   -3.3848 C   0  0  0  0  0  0  0  0  0  0  0  0
    1.5511    1.3373   -2.8688 H   0  0  0  0  0  0  0  0  0  0  0  0
    0.5610    0.7567   -4.6886 C   0  0  0  0  0  0  0  0  0  0  0  0
    1.4810    0.4468   -5.1757 H   0  0  0  0  0  0  0  0  0  0  0  0
   -0.6583    0.6516   -5.3642 C   0  0  0  0  0  0  0  0  0  0  0  0
   -0.6854    0.2619   -6.3778 H   0  0  0  0  0  0  0  0  0  0  0  0
   -1.8404    1.0533   -4.7351 C   0  0  0  0  0  0  0  0  0  0  0  0
   -2.7866    0.9773   -5.2631 H   0  0  0  0  0  0  0  0  0  0  0  0
   -1.8028    1.5577   -3.4305 C   0  0  0  0  0  0  0  0  0  0  0  0
   -2.7274    1.8769   -2.9598 H   0  0  0  0  0  0  0  0  0  0  0  0
   -0.0628    1.6234    1.0936 C   0  0  0  0  0  0  0  0  0  0  0  0
    0.8487    1.1049    1.7227 O   0  0  0  0  0  0  0  0  0  0  0  0
   -0.4839    2.8808    1.4973 N   0  0  0  0  0  0  0  0  0  0  0  0
   -1.2481    3.3017    0.9803 H   0  0  0  0  0  0  0  0  0  0  0  0
   -0.0388    3.5134    2.7335 C   0  0  0  0  0  0  0  0  0  0  0  0
    1.0447    3.6719    2.7141 H   0  0  0  0  0  0  0  0  0  0  0  0
   -0.5268    4.4845    2.8592 H   0  0  0  0  0  0  0  0  0  0  0  0
   -0.2877    2.8856    3.5956 H   0  0  0  0  0  0  0  0  0  0  0  0
  1  2  1  0  0  0  0
  2  3  1  0  0  0  0
  2  4  1  0  0  0  0
  2  5  1  0  0  0  0
  5  6  2  0  0  0  0
  5  7  1  0  0  0  0
  7  8  1  0  0  0  0
  7  9  1  0  0  0  0
  9 10  1  0  0  0  0
  9 11  1  0  0  0  0
  9 25  1  0  0  0  0
 11 12  1  0  0  0  0
 11 13  1  0  0  0  0
 11 14  1  0  0  0  0
 14 15  1  0  0  0  0
 14 23  2  0  0  0  0
 15 16  1  0  0  0  0
 15 17  2  0  0  0  0
 17 18  1  0  0  0  0
 17 19  1  0  0  0  0
 19 20  1  0  0  0  0
 19 21  2  0  0  0  0
 21 22  1  0  0  0  0
 21 23  1  0  0  0  0
 23 24  1  0  0  0  0
 25 26  2  0  0  0  0
 25 27  1  0  0  0  0
 27 28  1  0  0  0  0
 27 29  1  0  0  0  0
 29 30  1  0  0  0  0
 29 31  1  0  0  0  0
 29 32  1  0  0  0  0
M  END
$$$$

  -OEChem-01062216093D

 32 32  0     1  0  0  0  0  0999 V2000
   -3.2596   -2.5285    0.7457 H   0  0  0  0  0  0  0  0  0  0  0  0
   -3.2376   -1.6323    0.1190 C   0  0  0  0  0  0  0  0  0  0  0  0
   -4.1302   -1.0368    0.3246 H   0  0  0  0  0  0  0  0  0  0  0  0
   -3.2432   -1.9380   -0.9298 H   0  0  0  0  0  0  0  0  0  0  0  0
   -1.9918   -0.8185    0.4162 C   0  0  0  0  0  0  0  0  0  0  0  0
   -1.2371   -1.1785    1.3003 O   0  0  0  0  0  0  0  0  0  0  0  0
   -1.7319    0.3165   -0.3270 N   0  0  0  0  0  0  0  0  0  0  0  0
   -2.3164    0.4422   -1.1479 H   0  0  0  0  0  0  0  0  0  0  0  0
   -0.4546    1.0533   -0.3029 C   0  0  1  0  0  0  0  0  0  0  0  0
    0.3443    0.3629   -0.5970 H   0  0  0  0  0  0  0  0  0  0  0  0
   -0.5123    2.1998   -1.3279 C   0  0  0  0  0  0  0  0  0  0  0  0
   -1.3776    2.8402   -1.1297 H   0  0  0  0  0  0  0  0  0  0  0  0
    0.3831    2.8231   -1.2258 H   0  0  0  0  0  0  0  0  0  0  0  0
   -0.5734    1.6634   -2.7378 C   0  0  0  0  0  0  0  0  0  0  0  0
    0.5977    1.2445   -3.3859 C   0  0  0  0  0  0  0  0  0  0  0  0
    1.5535    1.2973   -2.8720 H   0  0  0  0  0  0  0  0  0  0  0  0
    0.5468    0.7479   -4.6926 C   0  0  0  0  0  0  0  0  0  0  0  0
    1.4590    0.4216   -5.1839 H   0  0  0  0  0  0  0  0  0  0  0  0
   -0.6764    0.6716   -5.3652 C   0  0  0  0  0  0  0  0  0  0  0  0
   -0.7144    0.2875   -6.3807 H   0  0  0  0  0  0  0  0  0  0  0  0
   -1.8480    1.0950   -4.7304 C   0  0  0  0  0  0  0  0  0  0  0  0
   -2.7967    1.0425   -5.2565 H   0  0  0  0  0  0  0  0  0  0  0  0
   -1.7964    1.5911   -3.4232 C   0  0  0  0  0  0  0  0  0  0  0  0
   -2.7126    1.9278   -2.9481 H   0  0  0  0  0  0  0  0  0  0  0  0
   -0.0599    1.6070    1.0861 C   0  0  0  0  0  0  0  0  0  0  0  0
    1.0010    1.2708    1.5945 O   0  0  0  0  0  0  0  0  0  0  0  0
   -0.7089    2.7169    1.6014 N   0  0  0  0  0  0  0  0  0  0  0  0
   -1.6100    2.9466    1.1957 H   0  0  0  0  0  0  0  0  0  0  0  0
   -0.3271    3.3440    2.8613 C   0  0  0  0  0  0  0  0  0  0  0  0
    0.7089    3.6961    2.8164 H   0  0  0  0  0  0  0  0  0  0  0  0
   -0.9731    4.2025    3.0677 H   0  0  0  0  0  0  0  0  0  0  0  0
   -0.4210    2.6309    3.6872 H   0  0  0  0  0  0  0  0  0  0  0  0
  1  2  1  0  0  0  0
  2  3  1  0  0  0  0
  2  4  1  0  0  0  0
  2  5  1  0  0  0  0
  5  6  2  0  0  0  0
  5  7  1  0  0  0  0
  7  8  1  0  0  0  0
  7  9  1  0  0  0  0
  9 10  1  0  0  0  0
  9 11  1  0  0  0  0
  9 25  1  0  0  0  0
 11 12  1  0  0  0  0
 11 13  1  0  0  0  0
 11 14  1  0  0  0  0
 14 15  1  0  0  0  0
 14 23  2  0  0  0  0
 15 16  1  0  0  0  0
 15 17  2  0  0  0  0
 17 18  1  0  0  0  0
 17 19  1  0  0  0  0
 19 20  1  0  0  0  0
 19 21  2  0  0  0  0
 21 22  1  0  0  0  0
 21 23  1  0  0  0  0
 23 24  1  0  0  0  0
 25 26  2  0  0  0  0
 25 27  1  0  0  0  0
 27 28  1  0  0  0  0
 27 29  1  0  0  0  0
 29 30  1  0  0  0  0
 29 31  1  0  0  0  0
 29 32  1  0  0  0  0
M  END
$$$$

  -OEChem-01062216093D

 32 32  0     1  0  0  0  0  0999 V2000
   -3.2567   -2.5287    0.7618 H   0  0  0  0  0  0  0  0  0  0  0  0
   -3.2321   -1.6384    0.1267 C   0  0  0  0  0  0  0  0  0  0  0  0
   -4.1269   -1.0423    0.3211 H   0  0  0  0  0  0  0  0  0  0  0  0
   -3.2311   -1.9537   -0.9195 H   0  0  0  0  0  0  0  0  0  0  0  0
   -1.9902   -0.8189    0.4231 C   0  0  0  0  0  0  0  0  0  0  0  0
   -1.2465   -1.1566    1.3257 O   0  0  0  0  0  0  0  0  0  0  0  0
   -1.7245    0.3072   -0.3314 N   0  0  0  0  0  0  0  0  0  0  0  0
   -2.2923    0.4154   -1.1667 H   0  0  0  0  0  0  0  0  0  0  0  0
   -0.4408    1.0328   -0.3070 C   0  0  1  0  0  0  0  0  0  0  0  0
    0.3556    0.3393   -0.5999 H   0  0  0  0  0  0  0  0  0  0  0  0
   -0.4921    2.1880   -1.3212 C   0  0  0  0  0  0  0  0  0  0  0  0
   -1.3497    2.8355   -1.1112 H   0  0  0  0  0  0  0  0  0  0  0  0
    0.4094    2.8023   -1.2175 H   0  0  0  0  0  0  0  0  0  0  0  0
   -0.5642    1.6640   -2.7354 C   0  0  0  0  0  0  0  0  0  0  0  0
    0.6002    1.2397   -3.3918 C   0  0  0  0  0  0  0  0  0  0  0  0
    1.5590    1.2829   -2.8823 H   0  0  0  0  0  0  0  0  0  0  0  0
    0.5388    0.7516   -4.7012 C   0  0  0  0  0  0  0  0  0  0  0  0
    1.4460    0.4213   -5.1990 H   0  0  0  0  0  0  0  0  0  0  0  0
   -0.6882    0.6901   -5.3684 C   0  0  0  0  0  0  0  0  0  0  0  0
   -0.7342    0.3126   -6.3861 H   0  0  0  0  0  0  0  0  0  0  0  0
   -1.8531    1.1205   -4.7259 C   0  0  0  0  0  0  0  0  0  0  0  0
   -2.8046    1.0808   -5.2481 H   0  0  0  0  0  0  0  0  0  0  0  0
   -1.7908    1.6076   -3.4157 C   0  0  0  0  0  0  0  0  0  0  0  0
   -2.7012    1.9506   -2.9340 H   0  0  0  0  0  0  0  0  0  0  0  0
   -0.0512    1.5918    1.0786 C   0  0  0  0  0  0  0  0  0  0  0  0
    1.0981    1.4660    1.4798 O   0  0  0  0  0  0  0  0  0  0  0  0
   -0.8828    2.4982    1.7132 N   0  0  0  0  0  0  0  0  0  0  0  0
   -1.8475    2.5158    1.3995 H   0  0  0  0  0  0  0  0  0  0  0  0
   -0.5544    3.1036    2.9979 C   0  0  0  0  0  0  0  0  0  0  0  0
    0.3850    3.6623    2.9304 H   0  0  0  0  0  0  0  0  0  0  0  0
   -1.3446    3.7962    3.3027 H   0  0  0  0  0  0  0  0  0  0  0  0
   -0.4506    2.3322    3.7684 H   0  0  0  0  0  0  0  0  0  0  0  0
  1  2  1  0  0  0  0
  2  3  1  0  0  0  0
  2  4  1  0  0  0  0
  2  5  1  0  0  0  0
  5  6  2  0  0  0  0
  5  7  1  0  0  0  0
  7  8  1  0  0  0  0
  7  9  1  0  0  0  0
  9 10  1  0  0  0  0
  9 11  1  0  0  0  0
  9 25  1  0  0  0  0
 11 12  1  0  0  0  0
 11 13  1  0  0  0  0
 11 14  1  0  0  0  0
 14 15  1  0  0  0  0
 14 23  2  0  0  0  0
 15 16  1  0  0  0  0
 15 17  2  0  0  0  0
 17 18  1  0  0  0  0
 17 19  1  0  0  0  0
 19 20  1  0  0  0  0
 19 21  2  0  0  0  0
 21 22  1  0  0  0  0
 21 23  1  0  0  0  0
 23 24  1  0  0  0  0
 25 26  2  0  0  0  0
 25 27  1  0  0  0  0
 27 28  1  0  0  0  0
 27 29  1  0  0  0  0
 29 30  1  0  0  0  0
 29 31  1  0  0  0  0
 29 32  1  0  0  0  0
M  END
$$$$

  -OEChem-01062216093D

 32 32  0     1  0  0  0  0  0999 V2000
   -3.2576   -2.5369    0.7445 H   0  0  0  0  0  0  0  0  0  0  0  0
   -3.2303   -1.6494    0.1057 C   0  0  0  0  0  0  0  0  0  0  0  0
   -4.1341   -1.0610    0.2815 H   0  0  0  0  0  0  0  0  0  0  0  0
   -3.2082   -1.9701   -0.9389 H   0  0  0  0  0  0  0  0  0  0  0  0
   -2.0007   -0.8177    0.4201 C   0  0  0  0  0  0  0  0  0  0  0  0
   -1.2720   -1.1396    1.3413 O   0  0  0  0  0  0  0  0  0  0  0  0
   -1.7267    0.3041   -0.3377 N   0  0  0  0  0  0  0  0  0  0  0  0
   -2.2825    0.4065   -1.1822 H   0  0  0  0  0  0  0  0  0  0  0  0
   -0.4375    1.0217   -0.3072 C   0  0  1  0  0  0  0  0  0  0  0  0
    0.3570    0.3262   -0.5999 H   0  0  0  0  0  0  0  0  0  0  0  0
   -0.4863    2.1820   -1.3146 C   0  0  0  0  0  0  0  0  0  0  0  0
   -1.3404    2.8316   -1.0976 H   0  0  0  0  0  0  0  0  0  0  0  0
    0.4176    2.7925   -1.2101 H   0  0  0  0  0  0  0  0  0  0  0  0
   -0.5626    1.6644   -2.7304 C   0  0  0  0  0  0  0  0  0  0  0  0
    0.5994    1.2390   -3.3900 C   0  0  0  0  0  0  0  0  0  0  0  0
    1.5592    1.2797   -2.8819 H   0  0  0  0  0  0  0  0  0  0  0  0
    0.5336    0.7529   -4.6999 C   0  0  0  0  0  0  0  0  0  0  0  0
    1.4389    0.4212   -5.2005 H   0  0  0  0  0  0  0  0  0  0  0  0
   -0.6956    0.6956   -5.3637 C   0  0  0  0  0  0  0  0  0  0  0  0
   -0.7454    0.3204   -6.3818 H   0  0  0  0  0  0  0  0  0  0  0  0
   -1.8580    1.1286   -4.7184 C   0  0  0  0  0  0  0  0  0  0  0  0
   -2.8111    1.0933   -5.2383 H   0  0  0  0  0  0  0  0  0  0  0  0
   -1.7910    1.6134   -3.4077 C   0  0  0  0  0  0  0  0  0  0  0  0
   -2.6984    1.9593   -2.9225 H   0  0  0  0  0  0  0  0  0  0  0  0
   -0.0447    1.5860    1.0745 C   0  0  0  0  0  0  0  0  0  0  0  0
    1.1390    1.6765    1.3733 O   0  0  0  0  0  0  0  0  0  0  0  0
   -0.9861    2.2491    1.8412 N   0  0  0  0  0  0  0  0  0  0  0  0
   -1.9559    2.0530    1.6149 H   0  0  0  0  0  0  0  0  0  0  0  0
   -0.6762    2.8218    3.1449 C   0  0  0  0  0  0  0  0  0  0  0  0
    0.1214    3.5671    3.0577 H   0  0  0  0  0  0  0  0  0  0  0  0
   -1.5605    3.3127    3.5617 H   0  0  0  0  0  0  0  0  0  0  0  0
   -0.3523    2.0388    3.8384 H   0  0  0  0  0  0  0  0  0  0  0  0
  1  2  1  0  0  0  0
  2  3  1  0  0  0  0
  2  4  1  0  0  0  0
  2  5  1  0  0  0  0
  5  6  2  0  0  0  0
  5  7  1  0  0  0  0
  7  8  1  0  0  0  0
  7  9  1  0  0  0  0
  9 10  1  0  0  0  0
  9 11  1  0  0  0  0
  9 25  1  0  0  0  0
 11 12  1  0  0  0  0
 11 13  1  0  0  0  0
 11 14  1  0  0  0  0
 14 15  1  0  0  0  0
 14 23  2  0  0  0  0
 15 16  1  0  0  0  0
 15 17  2  0  0  0  0
 17 18  1  0  0  0  0
 17 19  1  0  0  0  0
 19 20  1  0  0  0  0
 19 21  2  0  0  0  0
 21 22  1  0  0  0  0
 21 23  1  0  0  0  0
 23 24  1  0  0  0  0
 25 26  2  0  0  0  0
 25 27  1  0  0  0  0
 27 28  1  0  0  0  0
 27 29  1  0  0  0  0
 29 30  1  0  0  0  0
 29 31  1  0  0  0  0
 29 32  1  0  0  0  0
M  END
$$$$

  -OEChem-01062216093D

 32 32  0     1  0  0  0  0  0999 V2000
   -3.2811   -2.5316    0.7275 H   0  0  0  0  0  0  0  0  0  0  0  0
   -3.2435   -1.6471    0.0851 C   0  0  0  0  0  0  0  0  0  0  0  0
   -4.1477   -1.0557    0.2479 H   0  0  0  0  0  0  0  0  0  0  0  0
   -3.2111   -1.9729   -0.9575 H   0  0  0  0  0  0  0  0  0  0  0  0
   -2.0146   -0.8179    0.4088 C   0  0  0  0  0  0  0  0  0  0  0  0
   -1.3001   -1.1330    1.3436 O   0  0  0  0  0  0  0  0  0  0  0  0
   -1.7290    0.3027   -0.3458 N   0  0  0  0  0  0  0  0  0  0  0  0
   -2.2790    0.4107   -1.1937 H   0  0  0  0  0  0  0  0  0  0  0  0
   -0.4389    1.0208   -0.3048 C   0  0  1  0  0  0  0  0  0  0  0  0
    0.3581    0.3273   -0.5947 H   0  0  0  0  0  0  0  0  0  0  0  0
   -0.4960    2.1786   -1.3159 C   0  0  0  0  0  0  0  0  0  0  0  0
   -1.3557    2.8209   -1.0992 H   0  0  0  0  0  0  0  0  0  0  0  0
    0.4021    2.7982   -1.2143 H   0  0  0  0  0  0  0  0  0  0  0  0
   -0.5673    1.6595   -2.7320 C   0  0  0  0  0  0  0  0  0  0  0  0
    0.5983    1.2427   -3.3909 C   0  0  0  0  0  0  0  0  0  0  0  0
    1.5572    1.2910   -2.8820 H   0  0  0  0  0  0  0  0  0  0  0  0
    0.5376    0.7595   -4.7023 C   0  0  0  0  0  0  0  0  0  0  0  0
    1.4458    0.4370   -5.2034 H   0  0  0  0  0  0  0  0  0  0  0  0
   -0.6901    0.6947   -5.3681 C   0  0  0  0  0  0  0  0  0  0  0  0
   -0.7361    0.3220   -6.3872 H   0  0  0  0  0  0  0  0  0  0  0  0
   -1.8562    1.1174   -4.7230 C   0  0  0  0  0  0  0  0  0  0  0  0
   -2.8082    1.0769   -5.2442 H   0  0  0  0  0  0  0  0  0  0  0  0
   -1.7944    1.6006   -3.4114 C   0  0  0  0  0  0  0  0  0  0  0  0
   -2.7051    1.9398   -2.9271 H   0  0  0  0  0  0  0  0  0  0  0  0
   -0.0429    1.5944    1.0743 C   0  0  0  0  0  0  0  0  0  0  0  0
    1.1258    1.8939    1.2850 O   0  0  0  0  0  0  0  0  0  0  0  0
   -1.0150    1.9888    1.9757 N   0  0  0  0  0  0  0  0  0  0  0  0
   -1.9300    1.5736    1.8310 H   0  0  0  0  0  0  0  0  0  0  0  0
   -0.6918    2.5022    3.3008 C   0  0  0  0  0  0  0  0  0  0  0  0
   -0.0695    3.4001    3.2246 H   0  0  0  0  0  0  0  0  0  0  0  0
   -1.6084    2.7642    3.8379 H   0  0  0  0  0  0  0  0  0  0  0  0
   -0.1514    1.7471    3.8813 H   0  0  0  0  0  0  0  0  0  0  0  0
  1  2  1  0  0  0  0
  2  3  1  0  0  0  0
  2  4  1  0  0  0  0
  2  5  1  0  0  0  0
  5  6  2  0  0  0  0
  5  7  1  0  0  0  0
  7  8  1  0  0  0  0
  7  9  1  0  0  0  0
  9 10  1  0  0  0  0
  9 11  1  0  0  0  0
  9 25  1  0  0  0  0
 11 12  1  0  0  0  0
 11 13  1  0  0  0  0
 11 14  1  0  0  0  0
 14 15  1  0  0  0  0
 14 23  2  0  0  0  0
 15 16  1  0  0  0  0
 15 17  2  0  0  0  0
 17 18  1  0  0  0  0
 17 19  1  0  0  0  0
 19 20  1  0  0  0  0
 19 21  2  0  0  0  0
 21 22  1  0  0  0  0
 21 23  1  0  0  0  0
 23 24  1  0  0  0  0
 25 26  2  0  0  0  0
 25 27  1  0  0  0  0
 27 28  1  0  0  0  0
 27 29  1  0  0  0  0
 29 30  1  0  0  0  0
 29 31  1  0  0  0  0
 29 32  1  0  0  0  0
M  END
$$$$

  -OEChem-01062216093D

 32 32  0     1  0  0  0  0  0999 V2000
   -3.3163   -2.5442    0.6457 H   0  0  0  0  0  0  0  0  0  0  0  0
   -3.2640   -1.6502    0.0175 C   0  0  0  0  0  0  0  0  0  0  0  0
   -4.1730   -1.0622    0.1648 H   0  0  0  0  0  0  0  0  0  0  0  0
   -3.2033   -1.9603   -1.0286 H   0  0  0  0  0  0  0  0  0  0  0  0
   -2.0461   -0.8236    0.3841 C   0  0  0  0  0  0  0  0  0  0  0  0
   -1.3617   -1.1422    1.3403 O   0  0  0  0  0  0  0  0  0  0  0  0
   -1.7409    0.3041   -0.3507 N   0  0  0  0  0  0  0  0  0  0  0  0
   -2.2848    0.4295   -1.2001 H   0  0  0  0  0  0  0  0  0  0  0  0
   -0.4510    1.0236   -0.2929 C   0  0  1  0  0  0  0  0  0  0  0  0
    0.3472    0.3328   -0.5846 H   0  0  0  0  0  0  0  0  0  0  0  0
   -0.5171    2.1796   -1.3090 C   0  0  0  0  0  0  0  0  0  0  0  0
   -1.3838    2.8138   -1.0952 H   0  0  0  0  0  0  0  0  0  0  0  0
    0.3731    2.8110   -1.2122 H   0  0  0  0  0  0  0  0  0  0  0  0
   -0.5786    1.6555   -2.7245 C   0  0  0  0  0  0  0  0  0  0  0  0
    0.5927    1.2484   -3.3795 C   0  0  0  0  0  0  0  0  0  0  0  0
    1.5496    1.3061   -2.8676 H   0  0  0  0  0  0  0  0  0  0  0  0
    0.5400    0.7608   -4.6897 C   0  0  0  0  0  0  0  0  0  0  0  0
    1.4524    0.4441   -5.1870 H   0  0  0  0  0  0  0  0  0  0  0  0
   -0.6851    0.6836   -5.3591 C   0  0  0  0  0  0  0  0  0  0  0  0
   -0.7246    0.3074   -6.3775 H   0  0  0  0  0  0  0  0  0  0  0  0
   -1.8564    1.1002   -4.7194 C   0  0  0  0  0  0  0  0  0  0  0  0
   -2.8060    1.0522   -5.2444 H   0  0  0  0  0  0  0  0  0  0  0  0
   -1.8026    1.5869   -3.4087 C   0  0  0  0  0  0  0  0  0  0  0  0
   -2.7173    1.9219   -2.9291 H   0  0  0  0  0  0  0  0  0  0  0  0
   -0.0443    1.5960    1.0876 C   0  0  0  0  0  0  0  0  0  0  0  0
    1.0630    2.1032    1.2202 O   0  0  0  0  0  0  0  0  0  0  0  0
   -0.9611    1.7110    2.1164 N   0  0  0  0  0  0  0  0  0  0  0  0
   -1.7401    1.0603    2.0530 H   0  0  0  0  0  0  0  0  0  0  0  0
   -0.5897    2.1985    3.4387 C   0  0  0  0  0  0  0  0  0  0  0  0
   -0.1860    3.2143    3.3744 H   0  0  0  0  0  0  0  0  0  0  0  0
   -1.4661    2.2185    4.0933 H   0  0  0  0  0  0  0  0  0  0  0  0
    0.1664    1.5465    3.8883 H   0  0  0  0  0  0  0  0  0  0  0  0
  1  2  1  0  0  0  0
  2  3  1  0  0  0  0
  2  4  1  0  0  0  0
  2  5  1  0  0  0  0
  5  6  2  0  0  0  0
  5  7  1  0  0  0  0
  7  8  1  0  0  0  0
  7  9  1  0  0  0  0
  9 10  1  0  0  0  0
  9 11  1  0  0  0  0
  9 25  1  0  0  0  0
 11 12  1  0  0  0  0
 11 13  1  0  0  0  0
 11 14  1  0  0  0  0
 14 15  1  0  0  0  0
 14 23  2  0  0  0  0
 15 16  1  0  0  0  0
 15 17  2  0  0  0  0
 17 18  1  0  0  0  0
 17 19  1  0  0  0  0
 19 20  1  0  0  0  0
 19 21  2  0  0  0  0
 21 22  1  0  0  0  0
 21 23  1  0  0  0  0
 23 24  1  0  0  0  0
 25 26  2  0  0  0  0
 25 27  1  0  0  0  0
 27 28  1  0  0  0  0
 27 29  1  0  0  0  0
 29 30  1  0  0  0  0
 29 31  1  0  0  0  0
 29 32  1  0  0  0  0
M  END
$$$$

  -OEChem-01062216093D

 32 32  0     1  0  0  0  0  0999 V2000
   -3.3729   -2.5313    0.6052 H   0  0  0  0  0  0  0  0  0  0  0  0
   -3.3051   -1.6253   -0.0039 C   0  0  0  0  0  0  0  0  0  0  0  0
   -4.1903   -1.0111    0.1786 H   0  0  0  0  0  0  0  0  0  0  0  0
   -3.2799   -1.9130   -1.0578 H   0  0  0  0  0  0  0  0  0  0  0  0
   -2.0519   -0.8481    0.3520 C   0  0  0  0  0  0  0  0  0  0  0  0
   -1.3467   -1.2251    1.2720 O   0  0  0  0  0  0  0  0  0  0  0  0
   -1.7343    0.2933   -0.3561 N   0  0  0  0  0  0  0  0  0  0  0  0
   -2.3095    0.4729   -1.1742 H   0  0  0  0  0  0  0  0  0  0  0  0
   -0.4510    1.0260   -0.2872 C   0  0  1  0  0  0  0  0  0  0  0  0
    0.3528    0.3444   -0.5837 H   0  0  0  0  0  0  0  0  0  0  0  0
   -0.5362    2.1802   -1.3080 C   0  0  0  0  0  0  0  0  0  0  0  0
   -1.4133    2.8002   -1.0954 H   0  0  0  0  0  0  0  0  0  0  0  0
    0.3419    2.8288   -1.2179 H   0  0  0  0  0  0  0  0  0  0  0  0
   -0.5868    1.6525   -2.7227 C   0  0  0  0  0  0  0  0  0  0  0  0
    0.5927    1.2648   -3.3749 C   0  0  0  0  0  0  0  0  0  0  0  0
    1.5472    1.3388   -2.8608 H   0  0  0  0  0  0  0  0  0  0  0  0
    0.5514    0.7746   -4.6845 C   0  0  0  0  0  0  0  0  0  0  0  0
    1.4698    0.4709   -5.1790 H   0  0  0  0  0  0  0  0  0  0  0  0
   -0.6705    0.6781   -5.3570 C   0  0  0  0  0  0  0  0  0  0  0  0
   -0.7015    0.3004   -6.3751 H   0  0  0  0  0  0  0  0  0  0  0  0
   -1.8500    1.0765   -4.7206 C   0  0  0  0  0  0  0  0  0  0  0  0
   -2.7973    1.0131   -5.2483 H   0  0  0  0  0  0  0  0  0  0  0  0
   -1.8077    1.5647   -3.4101 C   0  0  0  0  0  0  0  0  0  0  0  0
   -2.7286    1.8863   -2.9336 H   0  0  0  0  0  0  0  0  0  0  0  0
   -0.0390    1.5917    1.0992 C   0  0  0  0  0  0  0  0  0  0  0  0
    0.9573    2.2998    1.1875 O   0  0  0  0  0  0  0  0  0  0  0  0
   -0.8275    1.4221    2.2220 N   0  0  0  0  0  0  0  0  0  0  0  0
   -1.4347    0.6042    2.1765 H   0  0  0  0  0  0  0  0  0  0  0  0
   -0.4224    1.8893    3.5418 C   0  0  0  0  0  0  0  0  0  0  0  0
   -0.2629    2.9727    3.5343 H   0  0  0  0  0  0  0  0  0  0  0  0
   -1.2005    1.6621    4.2765 H   0  0  0  0  0  0  0  0  0  0  0  0
    0.5052    1.3981    3.8535 H   0  0  0  0  0  0  0  0  0  0  0  0
  1  2  1  0  0  0  0
  2  3  1  0  0  0  0
  2  4  1  0  0  0  0
  2  5  1  0  0  0  0
  5  6  2  0  0  0  0
  5  7  1  0  0  0  0
  7  8  1  0  0  0  0
  7  9  1  0  0  0  0
  9 10  1  0  0  0  0
  9 11  1  0  0  0  0
  9 25  1  0  0  0  0
 11 12  1  0  0  0  0
 11 13  1  0  0  0  0
 11 14  1  0  0  0  0
 14 15  1  0  0  0  0
 14 23  2  0  0  0  0
 15 16  1  0  0  0  0
 15 17  2  0  0  0  0
 17 18  1  0  0  0  0
 17 19  1  0  0  0  0
 19 20  1  0  0  0  0
 19 21  2  0  0  0  0
 21 22  1  0  0  0  0
 21 23  1  0  0  0  0
 23 24  1  0  0  0  0
 25 26  2  0  0  0  0
 25 27  1  0  0  0  0
 27 28  1  0  0  0  0
 27 29  1  0  0  0  0
 29 30  1  0  0  0  0
 29 31  1  0  0  0  0
 29 32  1  0  0  0  0
M  END
$$$$

  -OEChem-01062216093D

 32 32  0     1  0  0  0  0  0999 V2000
   -3.4246   -2.5007    0.6111 H   0  0  0  0  0  0  0  0  0  0  0  0
   -3.3451   -1.5854    0.0179 C   0  0  0  0  0  0  0  0  0  0  0  0
   -4.1898   -0.9354    0.2588 H   0  0  0  0  0  0  0  0  0  0  0  0
   -3.3875   -1.8496   -1.0417 H   0  0  0  0  0  0  0  0  0  0  0  0
   -2.0396   -0.8751    0.3228 C   0  0  0  0  0  0  0  0  0  0  0  0
   -1.2807   -1.3372    1.1582 O   0  0  0  0  0  0  0  0  0  0  0  0
   -1.7211    0.2818   -0.3596 N   0  0  0  0  0  0  0  0  0  0  0  0
   -2.3547    0.5383   -1.1109 H   0  0  0  0  0  0  0  0  0  0  0  0
   -0.4480    1.0324   -0.2860 C   0  0  1  0  0  0  0  0  0  0  0  0
    0.3628    0.3621   -0.5895 H   0  0  0  0  0  0  0  0  0  0  0  0
   -0.5525    2.1818   -1.3135 C   0  0  0  0  0  0  0  0  0  0  0  0
   -1.4389    2.7889   -1.1029 H   0  0  0  0  0  0  0  0  0  0  0  0
    0.3151    2.8449   -1.2300 H   0  0  0  0  0  0  0  0  0  0  0  0
   -0.5920    1.6497   -2.7274 C   0  0  0  0  0  0  0  0  0  0  0  0
    0.5963    1.2821   -3.3754 C   0  0  0  0  0  0  0  0  0  0  0  0
    1.5476    1.3744   -2.8587 H   0  0  0  0  0  0  0  0  0  0  0  0
    0.5689    0.7911   -4.6849 C   0  0  0  0  0  0  0  0  0  0  0  0
    1.4946    0.5050   -5.1759 H   0  0  0  0  0  0  0  0  0  0  0  0
   -0.6485    0.6719   -5.3618 C   0  0  0  0  0  0  0  0  0  0  0  0
   -0.6689    0.2930   -6.3796 H   0  0  0  0  0  0  0  0  0  0  0  0
   -1.8372    1.0493   -4.7299 C   0  0  0  0  0  0  0  0  0  0  0  0
   -2.7813    0.9680   -5.2609 H   0  0  0  0  0  0  0  0  0  0  0  0
   -1.8086    1.5393   -3.4195 C   0  0  0  0  0  0  0  0  0  0  0  0
   -2.7374    1.8441   -2.9474 H   0  0  0  0  0  0  0  0  0  0  0  0
   -0.0350    1.5869    1.1089 C   0  0  0  0  0  0  0  0  0  0  0  0
    0.8020    2.4787    1.1869 O   0  0  0  0  0  0  0  0  0  0  0  0
   -0.6264    1.1556    2.2815 N   0  0  0  0  0  0  0  0  0  0  0  0
   -1.0944    0.2509    2.2095 H   0  0  0  0  0  0  0  0  0  0  0  0
   -0.1904    1.5942    3.6014 C   0  0  0  0  0  0  0  0  0  0  0  0
   -0.2765    2.6821    3.6927 H   0  0  0  0  0  0  0  0  0  0  0  0
   -0.8132    1.1342    4.3745 H   0  0  0  0  0  0  0  0  0  0  0  0
    0.8514    1.3061    3.7762 H   0  0  0  0  0  0  0  0  0  0  0  0
  1  2  1  0  0  0  0
  2  3  1  0  0  0  0
  2  4  1  0  0  0  0
  2  5  1  0  0  0  0
  5  6  2  0  0  0  0
  5  7  1  0  0  0  0
  7  8  1  0  0  0  0
  7  9  1  0  0  0  0
  9 10  1  0  0  0  0
  9 11  1  0  0  0  0
  9 25  1  0  0  0  0
 11 12  1  0  0  0  0
 11 13  1  0  0  0  0
 11 14  1  0  0  0  0
 14 15  1  0  0  0  0
 14 23  2  0  0  0  0
 15 16  1  0  0  0  0
 15 17  2  0  0  0  0
 17 18  1  0  0  0  0
 17 19  1  0  0  0  0
 19 20  1  0  0  0  0
 19 21  2  0  0  0  0
 21 22  1  0  0  0  0
 21 23  1  0  0  0  0
 23 24  1  0  0  0  0
 25 26  2  0  0  0  0
 25 27  1  0  0  0  0
 27 28  1  0  0  0  0
 27 29  1  0  0  0  0
 29 30  1  0  0  0  0
 29 31  1  0  0  0  0
 29 32  1  0  0  0  0
M  END
$$$$

  -OEChem-01062216093D

 32 32  0     1  0  0  0  0  0999 V2000
   -3.4361   -2.4732    0.6666 H   0  0  0  0  0  0  0  0  0  0  0  0
   -3.3646   -1.5506    0.0837 C   0  0  0  0  0  0  0  0  0  0  0  0
   -4.1624   -0.8737    0.3982 H   0  0  0  0  0  0  0  0  0  0  0  0
   -3.4954   -1.7923   -0.9739 H   0  0  0  0  0  0  0  0  0  0  0  0
   -2.0133   -0.8969    0.3018 C   0  0  0  0  0  0  0  0  0  0  0  0
   -1.1954   -1.4314    1.0330 O   0  0  0  0  0  0  0  0  0  0  0  0
   -1.7100    0.2738   -0.3642 N   0  0  0  0  0  0  0  0  0  0  0  0
   -2.4082    0.6035   -1.0236 H   0  0  0  0  0  0  0  0  0  0  0  0
   -0.4458    1.0393   -0.2942 C   0  0  1  0  0  0  0  0  0  0  0  0
    0.3684    0.3755   -0.6025 H   0  0  0  0  0  0  0  0  0  0  0  0
   -0.5547    2.1872   -1.3244 C   0  0  0  0  0  0  0  0  0  0  0  0
   -1.4447    2.7902   -1.1173 H   0  0  0  0  0  0  0  0  0  0  0  0
    0.3097    2.8544   -1.2411 H   0  0  0  0  0  0  0  0  0  0  0  0
   -0.5858    1.6524   -2.7375 C   0  0  0  0  0  0  0  0  0  0  0  0
    0.6064    1.2912   -3.3820 C   0  0  0  0  0  0  0  0  0  0  0  0
    1.5556    1.3892   -2.8629 H   0  0  0  0  0  0  0  0  0  0  0  0
    0.5851    0.7966   -4.6903 C   0  0  0  0  0  0  0  0  0  0  0  0
    1.5135    0.5128   -5.1773 H   0  0  0  0  0  0  0  0  0  0  0  0
   -0.6297    0.6698   -5.3705 C   0  0  0  0  0  0  0  0  0  0  0  0
   -0.6453    0.2874   -6.3871 H   0  0  0  0  0  0  0  0  0  0  0  0
   -1.8220    1.0431   -4.7429 C   0  0  0  0  0  0  0  0  0  0  0  0
   -2.7643    0.9556   -5.2757 H   0  0  0  0  0  0  0  0  0  0  0  0
   -1.7995    1.5349   -3.4331 C   0  0  0  0  0  0  0  0  0  0  0  0
   -2.7307    1.8354   -2.9635 H   0  0  0  0  0  0  0  0  0  0  0  0
   -0.0338    1.5759    1.1102 C   0  0  0  0  0  0  0  0  0  0  0  0
    0.5893    2.6263    1.2125 O   0  0  0  0  0  0  0  0  0  0  0  0
   -0.3756    0.9262    2.2810 N   0  0  0  0  0  0  0  0  0  0  0  0
   -0.7186   -0.0299    2.1667 H   0  0  0  0  0  0  0  0  0  0  0  0
    0.0763    1.3474    3.6009 C   0  0  0  0  0  0  0  0  0  0  0  0
   -0.2589    2.3677    3.8143 H   0  0  0  0  0  0  0  0  0  0  0  0
   -0.3334    0.6838    4.3681 H   0  0  0  0  0  0  0  0  0  0  0  0
    1.1690    1.3149    3.6604 H   0  0  0  0  0  0  0  0  0  0  0  0
  1  2  1  0  0  0  0
  2  3  1  0  0  0  0
  2  4  1  0  0  0  0
  2  5  1  0  0  0  0
  5  6  2  0  0  0  0
  5  7  1  0  0  0  0
  7  8  1  0  0  0  0
  7  9  1  0  0  0  0
  9 10  1  0  0  0  0
  9 11  1  0  0  0  0
  9 25  1  0  0  0  0
 11 12  1  0  0  0  0
 11 13  1  0  0  0  0
 11 14  1  0  0  0  0
 14 15  1  0  0  0  0
 14 23  2  0  0  0  0
 15 16  1  0  0  0  0
 15 17  2  0  0  0  0
 17 18  1  0  0  0  0
 17 19  1  0  0  0  0
 19 20  1  0  0  0  0
 19 21  2  0  0  0  0
 21 22  1  0  0  0  0
 21 23  1  0  0  0  0
 23 24  1  0  0  0  0
 25 26  2  0  0  0  0
 25 27  1  0  0  0  0
 27 28  1  0  0  0  0
 27 29  1  0  0  0  0
 29 30  1  0  0  0  0
 29 31  1  0  0  0  0
 29 32  1  0  0  0  0
M  END
$$$$

  -OEChem-01062216093D

 32 32  0     1  0  0  0  0  0999 V2000
   -3.4150   -2.4325    0.7888 H   0  0  0  0  0  0  0  0  0  0  0  0
   -3.3531   -1.5197    0.1894 C   0  0  0  0  0  0  0  0  0  0  0  0
   -4.1013   -0.8102    0.5512 H   0  0  0  0  0  0  0  0  0  0  0  0
   -3.5688   -1.7684   -0.8526 H   0  0  0  0  0  0  0  0  0  0  0  0
   -1.9665   -0.9142    0.3011 C   0  0  0  0  0  0  0  0  0  0  0  0
   -1.1053   -1.4937    0.9438 O   0  0  0  0  0  0  0  0  0  0  0  0
   -1.6793    0.2586   -0.3687 N   0  0  0  0  0  0  0  0  0  0  0  0
   -2.4282    0.6457   -0.9345 H   0  0  0  0  0  0  0  0  0  0  0  0
   -0.4163    1.0258   -0.3128 C   0  0  1  0  0  0  0  0  0  0  0  0
    0.3970    0.3638   -0.6276 H   0  0  0  0  0  0  0  0  0  0  0  0
   -0.5263    2.1761   -1.3391 C   0  0  0  0  0  0  0  0  0  0  0  0
   -1.4122    2.7825   -1.1245 H   0  0  0  0  0  0  0  0  0  0  0  0
    0.3425    2.8378   -1.2536 H   0  0  0  0  0  0  0  0  0  0  0  0
   -0.5676    1.6510   -2.7554 C   0  0  0  0  0  0  0  0  0  0  0  0
    0.6190    1.2893   -3.4102 C   0  0  0  0  0  0  0  0  0  0  0  0
    1.5719    1.3792   -2.8968 H   0  0  0  0  0  0  0  0  0  0  0  0
    0.5877    0.8088   -4.7236 C   0  0  0  0  0  0  0  0  0  0  0  0
    1.5119    0.5282   -5.2202 H   0  0  0  0  0  0  0  0  0  0  0  0
   -0.6317    0.6930   -5.3972 C   0  0  0  0  0  0  0  0  0  0  0  0
   -0.6553    0.3223   -6.4179 H   0  0  0  0  0  0  0  0  0  0  0  0
   -1.8190    1.0614   -4.7574 C   0  0  0  0  0  0  0  0  0  0  0  0
   -2.7653    0.9805   -5.2841 H   0  0  0  0  0  0  0  0  0  0  0  0
   -1.7864    1.5410   -3.4433 C   0  0  0  0  0  0  0  0  0  0  0  0
   -2.7139    1.8368   -2.9637 H   0  0  0  0  0  0  0  0  0  0  0  0
   -0.0070    1.5507    1.0964 C   0  0  0  0  0  0  0  0  0  0  0  0
    0.3668    2.7079    1.2491 O   0  0  0  0  0  0  0  0  0  0  0  0
   -0.0744    0.7539    2.2228 N   0  0  0  0  0  0  0  0  0  0  0  0
   -0.3279   -0.2252    2.0699 H   0  0  0  0  0  0  0  0  0  0  0  0
    0.3248    1.1817    3.5571 C   0  0  0  0  0  0  0  0  0  0  0  0
   -0.2634    2.0493    3.8735 H   0  0  0  0  0  0  0  0  0  0  0  0
    0.1609    0.3731    4.2755 H   0  0  0  0  0  0  0  0  0  0  0  0
    1.3863    1.4496    3.5723 H   0  0  0  0  0  0  0  0  0  0  0  0
  1  2  1  0  0  0  0
  2  3  1  0  0  0  0
  2  4  1  0  0  0  0
  2  5  1  0  0  0  0
  5  6  2  0  0  0  0
  5  7  1  0  0  0  0
  7  8  1  0  0  0  0
  7  9  1  0  0  0  0
  9 10  1  0  0  0  0
  9 11  1  0  0  0  0
  9 25  1  0  0  0  0
 11 12  1  0  0  0  0
 11 13  1  0  0  0  0
 11 14  1  0  0  0  0
 14 15  1  0  0  0  0
 14 23  2  0  0  0  0
 15 16  1  0  0  0  0
 15 17  2  0  0  0  0
 17 18  1  0  0  0  0
 17 19  1  0  0  0  0
 19 20  1  0  0  0  0
 19 21  2  0  0  0  0
 21 22  1  0  0  0  0
 21 23  1  0  0  0  0
 23 24  1  0  0  0  0
 25 26  2  0  0  0  0
 25 27  1  0  0  0  0
 27 28  1  0  0  0  0
 27 29  1  0  0  0  0
 29 30  1  0  0  0  0
 29 31  1  0  0  0  0
 29 32  1  0  0  0  0
M  END
$$$$

  -OEChem-01062216093D

 32 32  0     1  0  0  0  0  0999 V2000
   -3.3650   -2.4053    0.8734 H   0  0  0  0  0  0  0  0  0  0  0  0
   -3.3130   -1.5008    0.2606 C   0  0  0  0  0  0  0  0  0  0  0  0
   -4.0422   -0.7795    0.6373 H   0  0  0  0  0  0  0  0  0  0  0  0
   -3.5656   -1.7591   -0.7708 H   0  0  0  0  0  0  0  0  0  0  0  0
   -1.9177   -0.9077    0.3194 C   0  0  0  0  0  0  0  0  0  0  0  0
   -1.0360   -1.4917    0.9301 O   0  0  0  0  0  0  0  0  0  0  0  0
   -1.6464    0.2608   -0.3641 N   0  0  0  0  0  0  0  0  0  0  0  0
   -2.4179    0.6672   -0.8840 H   0  0  0  0  0  0  0  0  0  0  0  0
   -0.3817    1.0234   -0.3298 C   0  0  1  0  0  0  0  0  0  0  0  0
    0.4270    0.3603   -0.6533 H   0  0  0  0  0  0  0  0  0  0  0  0
   -0.4920    2.1756   -1.3518 C   0  0  0  0  0  0  0  0  0  0  0  0
   -1.3717    2.7882   -1.1286 H   0  0  0  0  0  0  0  0  0  0  0  0
    0.3829    2.8295   -1.2667 H   0  0  0  0  0  0  0  0  0  0  0  0
   -0.5529    1.6542   -2.7688 C   0  0  0  0  0  0  0  0  0  0  0  0
    0.6237    1.2836   -3.4368 C   0  0  0  0  0  0  0  0  0  0  0  0
    1.5829    1.3643   -2.9337 H   0  0  0  0  0  0  0  0  0  0  0  0
    0.5747    0.8060   -4.7508 C   0  0  0  0  0  0  0  0  0  0  0  0
    1.4912    0.5188   -5.2579 H   0  0  0  0  0  0  0  0  0  0  0  0
   -0.6528    0.7015   -5.4117 C   0  0  0  0  0  0  0  0  0  0  0  0
   -0.6902    0.3330   -6.4327 H   0  0  0  0  0  0  0  0  0  0  0  0
   -1.8302    1.0775   -4.7584 C   0  0  0  0  0  0  0  0  0  0  0  0
   -2.7829    1.0047   -5.2748 H   0  0  0  0  0  0  0  0  0  0  0  0
   -1.7797    1.5537   -3.4435 C   0  0  0  0  0  0  0  0  0  0  0  0
   -2.6998    1.8541   -2.9525 H   0  0  0  0  0  0  0  0  0  0  0  0
    0.0321    1.5437    1.0764 C   0  0  0  0  0  0  0  0  0  0  0  0
    0.1646    2.7436    1.2900 O   0  0  0  0  0  0  0  0  0  0  0  0
    0.2568    0.6732    2.1246 N   0  0  0  0  0  0  0  0  0  0  0  0
    0.0417   -0.3115    1.9466 H   0  0  0  0  0  0  0  0  0  0  0  0
    0.5851    1.0924    3.4808 C   0  0  0  0  0  0  0  0  0  0  0  0
   -0.2138    1.7165    3.8941 H   0  0  0  0  0  0  0  0  0  0  0  0
    0.7095    0.2170    4.1252 H   0  0  0  0  0  0  0  0  0  0  0  0
    1.5193    1.6631    3.4893 H   0  0  0  0  0  0  0  0  0  0  0  0
  1  2  1  0  0  0  0
  2  3  1  0  0  0  0
  2  4  1  0  0  0  0
  2  5  1  0  0  0  0
  5  6  2  0  0  0  0
  5  7  1  0  0  0  0
  7  8  1  0  0  0  0
  7  9  1  0  0  0  0
  9 10  1  0  0  0  0
  9 11  1  0  0  0  0
  9 25  1  0  0  0  0
 11 12  1  0  0  0  0
 11 13  1  0  0  0  0
 11 14  1  0  0  0  0
 14 15  1  0  0  0  0
 14 23  2  0  0  0  0
 15 16  1  0  0  0  0
 15 17  2  0  0  0  0
 17 18  1  0  0  0  0
 17 19  1  0  0  0  0
 19 20  1  0  0  0  0
 19 21  2  0  0  0  0
 21 22  1  0  0  0  0
 21 23  1  0  0  0  0
 23 24  1  0  0  0  0
 25 26  2  0  0  0  0
 25 27  1  0  0  0  0
 27 28  1  0  0  0  0
 27 29  1  0  0  0  0
 29 30  1  0  0  0  0
 29 31  1  0  0  0  0
 29 32  1  0  0  0  0
M  END
$$$$

  -OEChem-01062216093D

 32 32  0     1  0  0  0  0  0999 V2000
   -3.2922   -2.3854    0.9619 H   0  0  0  0  0  0  0  0  0  0  0  0
   -3.2610   -1.4945    0.3282 C   0  0  0  0  0  0  0  0  0  0  0  0
   -3.9899   -0.7715    0.7023 H   0  0  0  0  0  0  0  0  0  0  0  0
   -3.5296   -1.7782   -0.6923 H   0  0  0  0  0  0  0  0  0  0  0  0
   -1.8711   -0.8872    0.3469 C   0  0  0  0  0  0  0  0  0  0  0  0
   -0.9694   -1.4471    0.9523 O   0  0  0  0  0  0  0  0  0  0  0  0
   -1.6229    0.2692   -0.3647 N   0  0  0  0  0  0  0  0  0  0  0  0
   -2.4071    0.6757   -0.8651 H   0  0  0  0  0  0  0  0  0  0  0  0
   -0.3575    1.0262   -0.3480 C   0  0  1  0  0  0  0  0  0  0  0  0
    0.4508    0.3621   -0.6704 H   0  0  0  0  0  0  0  0  0  0  0  0
   -0.4648    2.1796   -1.3667 C   0  0  0  0  0  0  0  0  0  0  0  0
   -1.3399    2.7969   -1.1382 H   0  0  0  0  0  0  0  0  0  0  0  0
    0.4145    2.8271   -1.2800 H   0  0  0  0  0  0  0  0  0  0  0  0
   -0.5410    1.6607   -2.7837 C   0  0  0  0  0  0  0  0  0  0  0  0
    0.6275    1.2804   -3.4604 C   0  0  0  0  0  0  0  0  0  0  0  0
    1.5910    1.3523   -2.9642 H   0  0  0  0  0  0  0  0  0  0  0  0
    0.5646    0.8036   -4.7742 C   0  0  0  0  0  0  0  0  0  0  0  0
    1.4750    0.5085   -5.2878 H   0  0  0  0  0  0  0  0  0  0  0  0
   -0.6686    0.7099   -5.4260 C   0  0  0  0  0  0  0  0  0  0  0  0
   -0.7165    0.3429   -6.4470 H   0  0  0  0  0  0  0  0  0  0  0  0
   -1.8379    1.0950   -4.7634 C   0  0  0  0  0  0  0  0  0  0  0  0
   -2.7951    1.0294   -5.2722 H   0  0  0  0  0  0  0  0  0  0  0  0
   -1.7737    1.5701   -3.4488 C   0  0  0  0  0  0  0  0  0  0  0  0
   -2.6875    1.8766   -2.9499 H   0  0  0  0  0  0  0  0  0  0  0  0
    0.0395    1.5507    1.0569 C   0  0  0  0  0  0  0  0  0  0  0  0
   -0.0546    2.7404    1.3373 O   0  0  0  0  0  0  0  0  0  0  0  0
    0.5432    0.6835    2.0064 N   0  0  0  0  0  0  0  0  0  0  0  0
    0.3841   -0.3091    1.8139 H   0  0  0  0  0  0  0  0  0  0  0  0
    0.8545    1.0838    3.3722 C   0  0  0  0  0  0  0  0  0  0  0  0
   -0.0428    1.4555    3.8774 H   0  0  0  0  0  0  0  0  0  0  0  0
    1.2422    0.2295    3.9353 H   0  0  0  0  0  0  0  0  0  0  0  0
    1.6141    1.8722    3.3759 H   0  0  0  0  0  0  0  0  0  0  0  0
  1  2  1  0  0  0  0
  2  3  1  0  0  0  0
  2  4  1  0  0  0  0
  2  5  1  0  0  0  0
  5  6  2  0  0  0  0
  5  7  1  0  0  0  0
  7  8  1  0  0  0  0
  7  9  1  0  0  0  0
  9 10  1  0  0  0  0
  9 11  1  0  0  0  0
  9 25  1  0  0  0  0
 11 12  1  0  0  0  0
 11 13  1  0  0  0  0
 11 14  1  0  0  0  0
 14 15  1  0  0  0  0
 14 23  2  0  0  0  0
 15 16  1  0  0  0  0
 15 17  2  0  0  0  0
 17 18  1  0  0  0  0
 17 19  1  0  0  0  0
 19 20  1  0  0  0  0
 19 21  2  0  0  0  0
 21 22  1  0  0  0  0
 21 23  1  0  0  0  0
 23 24  1  0  0  0  0
 25 26  2  0  0  0  0
 25 27  1  0  0  0  0
 27 28  1  0  0  0  0
 27 29  1  0  0  0  0
 29 30  1  0  0  0  0
 29 31  1  0  0  0  0
 29 32  1  0  0  0  0
M  END
$$$$

  -OEChem-01062216093D

 32 32  0     1  0  0  0  0  0999 V2000
   -3.2149   -2.3765    1.0516 H   0  0  0  0  0  0  0  0  0  0  0  0
   -3.2164   -1.4955    0.4037 C   0  0  0  0  0  0  0  0  0  0  0  0
   -3.9404   -0.7749    0.7918 H   0  0  0  0  0  0  0  0  0  0  0  0
   -3.5170   -1.7985   -0.6023 H   0  0  0  0  0  0  0  0  0  0  0  0
   -1.8335   -0.8726    0.3650 C   0  0  0  0  0  0  0  0  0  0  0  0
   -0.9053   -1.4036    0.9583 O   0  0  0  0  0  0  0  0  0  0  0  0
   -1.6150    0.2713   -0.3763 N   0  0  0  0  0  0  0  0  0  0  0  0
   -2.4195    0.6927   -0.8301 H   0  0  0  0  0  0  0  0  0  0  0  0
   -0.3499    1.0243   -0.3699 C   0  0  1  0  0  0  0  0  0  0  0  0
    0.4601    0.3598   -0.6879 H   0  0  0  0  0  0  0  0  0  0  0  0
   -0.4463    2.1811   -1.3837 C   0  0  0  0  0  0  0  0  0  0  0  0
   -1.3169    2.8049   -1.1549 H   0  0  0  0  0  0  0  0  0  0  0  0
    0.4383    2.8203   -1.2908 H   0  0  0  0  0  0  0  0  0  0  0  0
   -0.5288    1.6674   -2.8021 C   0  0  0  0  0  0  0  0  0  0  0  0
    0.6346    1.2771   -3.4822 C   0  0  0  0  0  0  0  0  0  0  0  0
    1.5999    1.3377   -2.9881 H   0  0  0  0  0  0  0  0  0  0  0  0
    0.5641    0.8050   -4.7973 C   0  0  0  0  0  0  0  0  0  0  0  0
    1.4701    0.5026   -5.3143 H   0  0  0  0  0  0  0  0  0  0  0  0
   -0.6715    0.7245   -5.4464 C   0  0  0  0  0  0  0  0  0  0  0  0
   -0.7257    0.3600   -6.4681 H   0  0  0  0  0  0  0  0  0  0  0  0
   -1.8355    1.1194   -4.7803 C   0  0  0  0  0  0  0  0  0  0  0  0
   -2.7946    1.0646   -5.2869 H   0  0  0  0  0  0  0  0  0  0  0  0
   -1.7638    1.5906   -3.4647 C   0  0  0  0  0  0  0  0  0  0  0  0
   -2.6734    1.9045   -2.9624 H   0  0  0  0  0  0  0  0  0  0  0  0
    0.0213    1.5535    1.0368 C   0  0  0  0  0  0  0  0  0  0  0  0
   -0.2941    2.6851    1.3877 O   0  0  0  0  0  0  0  0  0  0  0  0
    0.7862    0.7714    1.8800 N   0  0  0  0  0  0  0  0  0  0  0  0
    0.7564   -0.2277    1.6675 H   0  0  0  0  0  0  0  0  0  0  0  0
    1.1091    1.1684    3.2444 C   0  0  0  0  0  0  0  0  0  0  0  0
    0.1964    1.2722    3.8401 H   0  0  0  0  0  0  0  0  0  0  0  0
    1.7480    0.4145    3.7141 H   0  0  0  0  0  0  0  0  0  0  0  0
    1.6444    2.1236    3.2500 H   0  0  0  0  0  0  0  0  0  0  0  0
  1  2  1  0  0  0  0
  2  3  1  0  0  0  0
  2  4  1  0  0  0  0
  2  5  1  0  0  0  0
  5  6  2  0  0  0  0
  5  7  1  0  0  0  0
  7  8  1  0  0  0  0
  7  9  1  0  0  0  0
  9 10  1  0  0  0  0
  9 11  1  0  0  0  0
  9 25  1  0  0  0  0
 11 12  1  0  0  0  0
 11 13  1  0  0  0  0
 11 14  1  0  0  0  0
 14 15  1  0  0  0  0
 14 23  2  0  0  0  0
 15 16  1  0  0  0  0
 15 17  2  0  0  0  0
 17 18  1  0  0  0  0
 17 19  1  0  0  0  0
 19 20  1  0  0  0  0
 19 21  2  0  0  0  0
 21 22  1  0  0  0  0
 21 23  1  0  0  0  0
 23 24  1  0  0  0  0
 25 26  2  0  0  0  0
 25 27  1  0  0  0  0
 27 28  1  0  0  0  0
 27 29  1  0  0  0  0
 29 30  1  0  0  0  0
 29 31  1  0  0  0  0
 29 32  1  0  0  0  0
M  END
$$$$

  -OEChem-01062216093D

 32 32  0     1  0  0  0  0  0999 V2000
   -3.1663   -2.3548    1.1427 H   0  0  0  0  0  0  0  0  0  0  0  0
   -3.1895   -1.4842    0.4812 C   0  0  0  0  0  0  0  0  0  0  0  0
   -3.8858   -0.7490    0.8919 H   0  0  0  0  0  0  0  0  0  0  0  0
   -3.5412   -1.7996   -0.5040 H   0  0  0  0  0  0  0  0  0  0  0  0
   -1.8040   -0.8773    0.3662 C   0  0  0  0  0  0  0  0  0  0  0  0
   -0.8529   -1.4041    0.9263 O   0  0  0  0  0  0  0  0  0  0  0  0
   -1.6096    0.2562   -0.3970 N   0  0  0  0  0  0  0  0  0  0  0  0
   -2.4367    0.7106   -0.7712 H   0  0  0  0  0  0  0  0  0  0  0  0
   -0.3466    1.0096   -0.3936 C   0  0  1  0  0  0  0  0  0  0  0  0
    0.4655    0.3460   -0.7078 H   0  0  0  0  0  0  0  0  0  0  0  0
   -0.4368    2.1720   -1.3997 C   0  0  0  0  0  0  0  0  0  0  0  0
   -1.3059    2.7969   -1.1683 H   0  0  0  0  0  0  0  0  0  0  0  0
    0.4495    2.8078   -1.3003 H   0  0  0  0  0  0  0  0  0  0  0  0
   -0.5206    1.6686   -2.8216 C   0  0  0  0  0  0  0  0  0  0  0  0
    0.6413    1.2775   -3.5039 C   0  0  0  0  0  0  0  0  0  0  0  0
    1.6066    1.3285   -3.0089 H   0  0  0  0  0  0  0  0  0  0  0  0
    0.5693    0.8161   -4.8227 C   0  0  0  0  0  0  0  0  0  0  0  0
    1.4739    0.5122   -5.3413 H   0  0  0  0  0  0  0  0  0  0  0  0
   -0.6660    0.7482   -5.4736 C   0  0  0  0  0  0  0  0  0  0  0  0
   -0.7211    0.3921   -6.4982 H   0  0  0  0  0  0  0  0  0  0  0  0
   -1.8288    1.1430   -4.8050 C   0  0  0  0  0  0  0  0  0  0  0  0
   -2.7880    1.0965   -5.3124 H   0  0  0  0  0  0  0  0  0  0  0  0
   -1.7556    1.6022   -3.4853 C   0  0  0  0  0  0  0  0  0  0  0  0
   -2.6639    1.9140   -2.9794 H   0  0  0  0  0  0  0  0  0  0  0  0
    0.0018    1.5456    1.0138 C   0  0  0  0  0  0  0  0  0  0  0  0
   -0.5413    2.5563    1.4460 O   0  0  0  0  0  0  0  0  0  0  0  0
    0.9957    0.9339    1.7534 N   0  0  0  0  0  0  0  0  0  0  0  0
    1.1893   -0.0310    1.4890 H   0  0  0  0  0  0  0  0  0  0  0  0
    1.3216    1.3434    3.1136 C   0  0  0  0  0  0  0  0  0  0  0  0
    0.4618    1.1944    3.7749 H   0  0  0  0  0  0  0  0  0  0  0  0
    2.1604    0.7526    3.4939 H   0  0  0  0  0  0  0  0  0  0  0  0
    1.6075    2.4002    3.1395 H   0  0  0  0  0  0  0  0  0  0  0  0
  1  2  1  0  0  0  0
  2  3  1  0  0  0  0
  2  4  1  0  0  0  0
  2  5  1  0  0  0  0
  5  6  2  0  0  0  0
  5  7  1  0  0  0  0
  7  8  1  0  0  0  0
  7  9  1  0  0  0  0
  9 10  1  0  0  0  0
  9 11  1  0  0  0  0
  9 25  1  0  0  0  0
 11 12  1  0  0  0  0
 11 13  1  0  0  0  0
 11 14  1  0  0  0  0
 14 15  1  0  0  0  0
 14 23  2  0  0  0  0
 15 16  1  0  0  0  0
 15 17  2  0  0  0  0
 17 18  1  0  0  0  0
 17 19  1  0  0  0  0
 19 20  1  0  0  0  0
 19 21  2  0  0  0  0
 21 22  1  0  0  0  0
 21 23  1  0  0  0  0
 23 24  1  0  0  0  0
 25 26  2  0  0  0  0
 25 27  1  0  0  0  0
 27 28  1  0  0  0  0
 27 29  1  0  0  0  0
 29 30  1  0  0  0  0
 29 31  1  0  0  0  0
 29 32  1  0  0  0  0
M  END
$$$$

  -OEChem-01062216093D

 32 32  0     1  0  0  0  0  0999 V2000
   -3.1504   -2.3340    1.2033 H   0  0  0  0  0  0  0  0  0  0  0  0
   -3.1851   -1.4673    0.5372 C   0  0  0  0  0  0  0  0  0  0  0  0
   -3.8479   -0.7157    0.9729 H   0  0  0  0  0  0  0  0  0  0  0  0
   -3.5859   -1.7813   -0.4296 H   0  0  0  0  0  0  0  0  0  0  0  0
   -1.7938   -0.8895    0.3583 C   0  0  0  0  0  0  0  0  0  0  0  0
   -0.8314   -1.4280    0.8865 O   0  0  0  0  0  0  0  0  0  0  0  0
   -1.6102    0.2374   -0.4175 N   0  0  0  0  0  0  0  0  0  0  0  0
   -2.4494    0.7209   -0.7210 H   0  0  0  0  0  0  0  0  0  0  0  0
   -0.3487    0.9936   -0.4109 C   0  0  1  0  0  0  0  0  0  0  0  0
    0.4652    0.3301   -0.7206 H   0  0  0  0  0  0  0  0  0  0  0  0
   -0.4358    2.1615   -1.4091 C   0  0  0  0  0  0  0  0  0  0  0  0
   -1.3046    2.7859   -1.1748 H   0  0  0  0  0  0  0  0  0  0  0  0
    0.4512    2.7953   -1.3031 H   0  0  0  0  0  0  0  0  0  0  0  0
   -0.5166    1.6695   -2.8350 C   0  0  0  0  0  0  0  0  0  0  0  0
    0.6471    1.2837   -3.5173 C   0  0  0  0  0  0  0  0  0  0  0  0
    1.6113    1.3338   -3.0204 H   0  0  0  0  0  0  0  0  0  0  0  0
    0.5786    0.8323   -4.8398 C   0  0  0  0  0  0  0  0  0  0  0  0
    1.4847    0.5357   -5.3599 H   0  0  0  0  0  0  0  0  0  0  0  0
   -0.6559    0.7642   -5.4924 C   0  0  0  0  0  0  0  0  0  0  0  0
   -0.7098    0.4147   -6.5194 H   0  0  0  0  0  0  0  0  0  0  0  0
   -1.8209    1.1491   -4.8220 C   0  0  0  0  0  0  0  0  0  0  0  0
   -2.7798    1.0999   -5.3295 H   0  0  0  0  0  0  0  0  0  0  0  0
   -1.7506    1.6010   -3.4997 C   0  0  0  0  0  0  0  0  0  0  0  0
   -2.6613    1.9027   -2.9922 H   0  0  0  0  0  0  0  0  0  0  0  0
   -0.0117    1.5400    0.9937 C   0  0  0  0  0  0  0  0  0  0  0  0
   -0.7394    2.3777    1.5156 O   0  0  0  0  0  0  0  0  0  0  0  0
    1.1588    1.1620    1.6241 N   0  0  0  0  0  0  0  0  0  0  0  0
    1.5970    0.3158    1.2686 H   0  0  0  0  0  0  0  0  0  0  0  0
    1.4885    1.5860    2.9789 C   0  0  0  0  0  0  0  0  0  0  0  0
    0.7384    1.2196    3.6876 H   0  0  0  0  0  0  0  0  0  0  0  0
    2.4658    1.1901    3.2709 H   0  0  0  0  0  0  0  0  0  0  0  0
    1.5282    2.6787    3.0403 H   0  0  0  0  0  0  0  0  0  0  0  0
  1  2  1  0  0  0  0
  2  3  1  0  0  0  0
  2  4  1  0  0  0  0
  2  5  1  0  0  0  0
  5  6  2  0  0  0  0
  5  7  1  0  0  0  0
  7  8  1  0  0  0  0
  7  9  1  0  0  0  0
  9 10  1  0  0  0  0
  9 11  1  0  0  0  0
  9 25  1  0  0  0  0
 11 12  1  0  0  0  0
 11 13  1  0  0  0  0
 11 14  1  0  0  0  0
 14 15  1  0  0  0  0
 14 23  2  0  0  0  0
 15 16  1  0  0  0  0
 15 17  2  0  0  0  0
 17 18  1  0  0  0  0
 17 19  1  0  0  0  0
 19 20  1  0  0  0  0
 19 21  2  0  0  0  0
 21 22  1  0  0  0  0
 21 23  1  0  0  0  0
 23 24  1  0  0  0  0
 25 26  2  0  0  0  0
 25 27  1  0  0  0  0
 27 28  1  0  0  0  0
 27 29  1  0  0  0  0
 29 30  1  0  0  0  0
 29 31  1  0  0  0  0
 29 32  1  0  0  0  0
M  END
$$$$

  -OEChem-01062216093D

 32 32  0     1  0  0  0  0  0999 V2000
   -3.1413   -2.3297    1.2250 H   0  0  0  0  0  0  0  0  0  0  0  0
   -3.1856   -1.4570    0.5679 C   0  0  0  0  0  0  0  0  0  0  0  0
   -3.8193   -0.6985    1.0338 H   0  0  0  0  0  0  0  0  0  0  0  0
   -3.6259   -1.7560   -0.3863 H   0  0  0  0  0  0  0  0  0  0  0  0
   -1.7920   -0.9011    0.3441 C   0  0  0  0  0  0  0  0  0  0  0  0
   -0.8215   -1.4604    0.8340 O   0  0  0  0  0  0  0  0  0  0  0  0
   -1.6172    0.2242   -0.4359 N   0  0  0  0  0  0  0  0  0  0  0  0
   -2.4626    0.7294   -0.6814 H   0  0  0  0  0  0  0  0  0  0  0  0
   -0.3574    0.9837   -0.4201 C   0  0  1  0  0  0  0  0  0  0  0  0
    0.4589    0.3210   -0.7253 H   0  0  0  0  0  0  0  0  0  0  0  0
   -0.4414    2.1565   -1.4110 C   0  0  0  0  0  0  0  0  0  0  0  0
   -1.3128    2.7770   -1.1760 H   0  0  0  0  0  0  0  0  0  0  0  0
    0.4431    2.7921   -1.2990 H   0  0  0  0  0  0  0  0  0  0  0  0
   -0.5147    1.6701   -2.8388 C   0  0  0  0  0  0  0  0  0  0  0  0
    0.6519    1.2882   -3.5183 C   0  0  0  0  0  0  0  0  0  0  0  0
    1.6145    1.3376   -3.0188 H   0  0  0  0  0  0  0  0  0  0  0  0
    0.5878    0.8371   -4.8411 C   0  0  0  0  0  0  0  0  0  0  0  0
    1.4956    0.5407   -5.3585 H   0  0  0  0  0  0  0  0  0  0  0  0
   -0.6446    0.7684   -5.4977 C   0  0  0  0  0  0  0  0  0  0  0  0
   -0.6946    0.4179   -6.5244 H   0  0  0  0  0  0  0  0  0  0  0  0
   -1.8118    1.1523   -4.8310 C   0  0  0  0  0  0  0  0  0  0  0  0
   -2.7692    1.1021   -5.3410 H   0  0  0  0  0  0  0  0  0  0  0  0
   -1.7462    1.6027   -3.5080 C   0  0  0  0  0  0  0  0  0  0  0  0
   -2.6587    1.9028   -3.0025 H   0  0  0  0  0  0  0  0  0  0  0  0
   -0.0299    1.5340    0.9846 C   0  0  0  0  0  0  0  0  0  0  0  0
   -0.8762    2.1724    1.6011 O   0  0  0  0  0  0  0  0  0  0  0  0
    1.2487    1.4234    1.4986 N   0  0  0  0  0  0  0  0  0  0  0  0
    1.8635    0.7556    1.0421 H   0  0  0  0  0  0  0  0  0  0  0  0
    1.5981    1.8817    2.8373 C   0  0  0  0  0  0  0  0  0  0  0  0
    1.0111    1.3451    3.5900 H   0  0  0  0  0  0  0  0  0  0  0  0
    2.6599    1.7040    3.0326 H   0  0  0  0  0  0  0  0  0  0  0  0
    1.4048    2.9548    2.9378 H   0  0  0  0  0  0  0  0  0  0  0  0
  1  2  1  0  0  0  0
  2  3  1  0  0  0  0
  2  4  1  0  0  0  0
  2  5  1  0  0  0  0
  5  6  2  0  0  0  0
  5  7  1  0  0  0  0
  7  8  1  0  0  0  0
  7  9  1  0  0  0  0
  9 10  1  0  0  0  0
  9 11  1  0  0  0  0
  9 25  1  0  0  0  0
 11 12  1  0  0  0  0
 11 13  1  0  0  0  0
 11 14  1  0  0  0  0
 14 15  1  0  0  0  0
 14 23  2  0  0  0  0
 15 16  1  0  0  0  0
 15 17  2  0  0  0  0
 17 18  1  0  0  0  0
 17 19  1  0  0  0  0
 19 20  1  0  0  0  0
 19 21  2  0  0  0  0
 21 22  1  0  0  0  0
 21 23  1  0  0  0  0
 23 24  1  0  0  0  0
 25 26  2  0  0  0  0
 25 27  1  0  0  0  0
 27 28  1  0  0  0  0
 27 29  1  0  0  0  0
 29 30  1  0  0  0  0
 29 31  1  0  0  0  0
 29 32  1  0  0  0  0
M  END
$$$$

  -OEChem-01062216093D

 32 32  0     1  0  0  0  0  0999 V2000
   -3.1468   -2.3231    1.2555 H   0  0  0  0  0  0  0  0  0  0  0  0
   -3.1952   -1.4499    0.5989 C   0  0  0  0  0  0  0  0  0  0  0  0
   -3.7997   -0.6792    1.0835 H   0  0  0  0  0  0  0  0  0  0  0  0
   -3.6699   -1.7407   -0.3412 H   0  0  0  0  0  0  0  0  0  0  0  0
   -1.7994   -0.9188    0.3325 C   0  0  0  0  0  0  0  0  0  0  0  0
   -0.8250   -1.4993    0.7888 O   0  0  0  0  0  0  0  0  0  0  0  0
   -1.6279    0.2068   -0.4488 N   0  0  0  0  0  0  0  0  0  0  0  0
   -2.4753    0.7246   -0.6577 H   0  0  0  0  0  0  0  0  0  0  0  0
   -0.3683    0.9685   -0.4197 C   0  0  1  0  0  0  0  0  0  0  0  0
    0.4514    0.3072   -0.7180 H   0  0  0  0  0  0  0  0  0  0  0  0
   -0.4516    2.1434   -1.4083 C   0  0  0  0  0  0  0  0  0  0  0  0
   -1.3275    2.7583   -1.1754 H   0  0  0  0  0  0  0  0  0  0  0  0
    0.4295    2.7830   -1.2911 H   0  0  0  0  0  0  0  0  0  0  0  0
   -0.5146    1.6646   -2.8391 C   0  0  0  0  0  0  0  0  0  0  0  0
    0.6571    1.2915   -3.5147 C   0  0  0  0  0  0  0  0  0  0  0  0
    1.6168    1.3397   -3.0096 H   0  0  0  0  0  0  0  0  0  0  0  0
    0.6026    0.8527   -4.8421 C   0  0  0  0  0  0  0  0  0  0  0  0
    1.5145    0.5647   -5.3569 H   0  0  0  0  0  0  0  0  0  0  0  0
   -0.6256    0.7844   -5.5064 C   0  0  0  0  0  0  0  0  0  0  0  0
   -0.6684    0.4433   -6.5367 H   0  0  0  0  0  0  0  0  0  0  0  0
   -1.7983    1.1568   -4.8427 C   0  0  0  0  0  0  0  0  0  0  0  0
   -2.7528    1.1068   -5.3584 H   0  0  0  0  0  0  0  0  0  0  0  0
   -1.7420    1.5960   -3.5155 C   0  0  0  0  0  0  0  0  0  0  0  0
   -2.6589    1.8858   -3.0119 H   0  0  0  0  0  0  0  0  0  0  0  0
   -0.0467    1.5230    0.9858 C   0  0  0  0  0  0  0  0  0  0  0  0
   -0.9483    1.9603    1.6932 O   0  0  0  0  0  0  0  0  0  0  0  0
    1.2671    1.6966    1.3818 N   0  0  0  0  0  0  0  0  0  0  0  0
    1.9797    1.2329    0.8262 H   0  0  0  0  0  0  0  0  0  0  0  0
    1.6335    2.2111    2.6957 C   0  0  0  0  0  0  0  0  0  0  0  0
    1.2439    1.5585    3.4840 H   0  0  0  0  0  0  0  0  0  0  0  0
    2.7223    2.2608    2.7924 H   0  0  0  0  0  0  0  0  0  0  0  0
    1.2289    3.2185    2.8398 H   0  0  0  0  0  0  0  0  0  0  0  0
  1  2  1  0  0  0  0
  2  3  1  0  0  0  0
  2  4  1  0  0  0  0
  2  5  1  0  0  0  0
  5  6  2  0  0  0  0
  5  7  1  0  0  0  0
  7  8  1  0  0  0  0
  7  9  1  0  0  0  0
  9 10  1  0  0  0  0
  9 11  1  0  0  0  0
  9 25  1  0  0  0  0
 11 12  1  0  0  0  0
 11 13  1  0  0  0  0
 11 14  1  0  0  0  0
 14 15  1  0  0  0  0
 14 23  2  0  0  0  0
 15 16  1  0  0  0  0
 15 17  2  0  0  0  0
 17 18  1  0  0  0  0
 17 19  1  0  0  0  0
 19 20  1  0  0  0  0
 19 21  2  0  0  0  0
 21 22  1  0  0  0  0
 21 23  1  0  0  0  0
 23 24  1  0  0  0  0
 25 26  2  0  0  0  0
 25 27  1  0  0  0  0
 27 28  1  0  0  0  0
 27 29  1  0  0  0  0
 29 30  1  0  0  0  0
 29 31  1  0  0  0  0
 29 32  1  0  0  0  0
M  END
$$$$

  -OEChem-01062216093D

 32 32  0     1  0  0  0  0  0999 V2000
   -3.1542   -2.3195    1.2578 H   0  0  0  0  0  0  0  0  0  0  0  0
   -3.2027   -1.4414    0.6079 C   0  0  0  0  0  0  0  0  0  0  0  0
   -3.7837   -0.6644    1.1108 H   0  0  0  0  0  0  0  0  0  0  0  0
   -3.7022   -1.7181   -0.3235 H   0  0  0  0  0  0  0  0  0  0  0  0
   -1.8046   -0.9310    0.3150 C   0  0  0  0  0  0  0  0  0  0  0  0
   -0.8299   -1.5376    0.7351 O   0  0  0  0  0  0  0  0  0  0  0  0
   -1.6337    0.2000   -0.4591 N   0  0  0  0  0  0  0  0  0  0  0  0
   -2.4815    0.7257   -0.6438 H   0  0  0  0  0  0  0  0  0  0  0  0
   -0.3741    0.9618   -0.4151 C   0  0  1  0  0  0  0  0  0  0  0  0
    0.4488    0.3037   -0.7125 H   0  0  0  0  0  0  0  0  0  0  0  0
   -0.4627    2.1386   -1.4031 C   0  0  0  0  0  0  0  0  0  0  0  0
   -1.3436    2.7470   -1.1718 H   0  0  0  0  0  0  0  0  0  0  0  0
    0.4121    2.7862   -1.2855 H   0  0  0  0  0  0  0  0  0  0  0  0
   -0.5179    1.6615   -2.8350 C   0  0  0  0  0  0  0  0  0  0  0  0
    0.6587    1.2976   -3.5072 C   0  0  0  0  0  0  0  0  0  0  0  0
    1.6164    1.3504   -2.9988 H   0  0  0  0  0  0  0  0  0  0  0  0
    0.6118    0.8608   -4.8355 C   0  0  0  0  0  0  0  0  0  0  0  0
    1.5271    0.5779   -5.3475 H   0  0  0  0  0  0  0  0  0  0  0  0
   -0.6134    0.7876   -5.5047 C   0  0  0  0  0  0  0  0  0  0  0  0
   -0.6505    0.4484   -6.5356 H   0  0  0  0  0  0  0  0  0  0  0  0
   -1.7908    1.1515   -4.8449 C   0  0  0  0  0  0  0  0  0  0  0  0
   -2.7429    1.0964   -5.3645 H   0  0  0  0  0  0  0  0  0  0  0  0
   -1.7424    1.5867   -3.5162 C   0  0  0  0  0  0  0  0  0  0  0  0
   -2.6635    1.8679   -3.0156 H   0  0  0  0  0  0  0  0  0  0  0  0
   -0.0521    1.5125    0.9945 C   0  0  0  0  0  0  0  0  0  0  0  0
   -0.9553    1.7392    1.7929 O   0  0  0  0  0  0  0  0  0  0  0  0
    1.2210    1.9717    1.2839 N   0  0  0  0  0  0  0  0  0  0  0  0
    1.9623    1.7233    0.6362 H   0  0  0  0  0  0  0  0  0  0  0  0
    1.5838    2.5433    2.5751 C   0  0  0  0  0  0  0  0  0  0  0  0
    1.4098    1.8177    3.3768 H   0  0  0  0  0  0  0  0  0  0  0  0
    2.6422    2.8208    2.5824 H   0  0  0  0  0  0  0  0  0  0  0  0
    0.9908    3.4415    2.7772 H   0  0  0  0  0  0  0  0  0  0  0  0
  1  2  1  0  0  0  0
  2  3  1  0  0  0  0
  2  4  1  0  0  0  0
  2  5  1  0  0  0  0
  5  6  2  0  0  0  0
  5  7  1  0  0  0  0
  7  8  1  0  0  0  0
  7  9  1  0  0  0  0
  9 10  1  0  0  0  0
  9 11  1  0  0  0  0
  9 25  1  0  0  0  0
 11 12  1  0  0  0  0
 11 13  1  0  0  0  0
 11 14  1  0  0  0  0
 14 15  1  0  0  0  0
 14 23  2  0  0  0  0
 15 16  1  0  0  0  0
 15 17  2  0  0  0  0
 17 18  1  0  0  0  0
 17 19  1  0  0  0  0
 19 20  1  0  0  0  0
 19 21  2  0  0  0  0
 21 22  1  0  0  0  0
 21 23  1  0  0  0  0
 23 24  1  0  0  0  0
 25 26  2  0  0  0  0
 25 27  1  0  0  0  0
 27 28  1  0  0  0  0
 27 29  1  0  0  0  0
 29 30  1  0  0  0  0
 29 31  1  0  0  0  0
 29 32  1  0  0  0  0
M  END
$$$$

  -OEChem-01062216093D

 32 32  0     1  0  0  0  0  0999 V2000
   -3.1847   -2.3959    1.1249 H   0  0  0  0  0  0  0  0  0  0  0  0
   -3.2235   -1.4481    0.5811 C   0  0  0  0  0  0  0  0  0  0  0  0
   -3.7247   -0.7054    1.2064 H   0  0  0  0  0  0  0  0  0  0  0  0
   -3.7961   -1.5909   -0.3381 H   0  0  0  0  0  0  0  0  0  0  0  0
   -1.8193   -0.9796    0.2509 C   0  0  0  0  0  0  0  0  0  0  0  0
   -0.8580   -1.6817    0.5280 O   0  0  0  0  0  0  0  0  0  0  0  0
   -1.6314    0.1798   -0.4776 N   0  0  0  0  0  0  0  0  0  0  0  0
   -2.4771    0.7140   -0.6430 H   0  0  0  0  0  0  0  0  0  0  0  0
   -0.3761    0.9520   -0.3983 C   0  0  1  0  0  0  0  0  0  0  0  0
    0.3964    0.4078   -0.9508 H   0  0  0  0  0  0  0  0  0  0  0  0
   -0.6201    2.3181   -1.0716 C   0  0  0  0  0  0  0  0  0  0  0  0
   -1.4751    2.8126   -0.5982 H   0  0  0  0  0  0  0  0  0  0  0  0
    0.2457    2.9711   -0.9247 H   0  0  0  0  0  0  0  0  0  0  0  0
   -0.8533    2.1745   -2.5575 C   0  0  0  0  0  0  0  0  0  0  0  0
    0.2329    2.0323   -3.4347 C   0  0  0  0  0  0  0  0  0  0  0  0
    1.2478    2.0166   -3.0496 H   0  0  0  0  0  0  0  0  0  0  0  0
    0.0223    1.9059   -4.8121 C   0  0  0  0  0  0  0  0  0  0  0  0
    0.8686    1.7922   -5.4833 H   0  0  0  0  0  0  0  0  0  0  0  0
   -1.2776    1.9255   -5.3256 C   0  0  0  0  0  0  0  0  0  0  0  0
   -1.4413    1.8284   -6.3949 H   0  0  0  0  0  0  0  0  0  0  0  0
   -2.3661    2.0721   -4.4609 C   0  0  0  0  0  0  0  0  0  0  0  0
   -3.3760    2.0898   -4.8601 H   0  0  0  0  0  0  0  0  0  0  0  0
   -2.1543    2.1983   -3.0836 C   0  0  0  0  0  0  0  0  0  0  0  0
   -3.0086    2.3181   -2.4250 H   0  0  0  0  0  0  0  0  0  0  0  0
    0.1710    1.1802    1.0387 C   0  0  0  0  0  0  0  0  0  0  0  0
   -0.5593    1.0553    2.0162 O   0  0  0  0  0  0  0  0  0  0  0  0
    1.3480    1.8885    1.2191 N   0  0  0  0  0  0  0  0  0  0  0  0
    1.9537    1.9970    0.4119 H   0  0  0  0  0  0  0  0  0  0  0  0
    1.8589    2.2704    2.5308 C   0  0  0  0  0  0  0  0  0  0  0  0
    2.0069    1.3843    3.1569 H   0  0  0  0  0  0  0  0  0  0  0  0
    2.8185    2.7856    2.4274 H   0  0  0  0  0  0  0  0  0  0  0  0
    1.1578    2.9446    3.0339 H   0  0  0  0  0  0  0  0  0  0  0  0
  1  2  1  0  0  0  0
  2  3  1  0  0  0  0
  2  4  1  0  0  0  0
  2  5  1  0  0  0  0
  5  6  2  0  0  0  0
  5  7  1  0  0  0  0
  7  8  1  0  0  0  0
  7  9  1  0  0  0  0
  9 10  1  0  0  0  0
  9 11  1  0  0  0  0
  9 25  1  0  0  0  0
 11 12  1  0  0  0  0
 11 13  1  0  0  0  0
 11 14  1  0  0  0  0
 14 15  1  0  0  0  0
 14 23  2  0  0  0  0
 15 16  1  0  0  0  0
 15 17  2  0  0  0  0
 17 18  1  0  0  0  0
 17 19  1  0  0  0  0
 19 20  1  0  0  0  0
 19 21  2  0  0  0  0
 21 22  1  0  0  0  0
 21 23  1  0  0  0  0
 23 24  1  0  0  0  0
 25 26  2  0  0  0  0
 25 27  1  0  0  0  0
 27 28  1  0  0  0  0
 27 29  1  0  0  0  0
 29 30  1  0  0  0  0
 29 31  1  0  0  0  0
 29 32  1  0  0  0  0
M  END
$$$$

  -OEChem-01062216093D

 32 32  0     1  0  0  0  0  0999 V2000
   -3.1723   -2.3661    1.1685 H   0  0  0  0  0  0  0  0  0  0  0  0
   -3.2189   -1.4323    0.6011 C   0  0  0  0  0  0  0  0  0  0  0  0
   -3.6992   -0.6707    1.2200 H   0  0  0  0  0  0  0  0  0  0  0  0
   -3.8151   -1.5947   -0.2996 H   0  0  0  0  0  0  0  0  0  0  0  0
   -1.8199   -0.9833    0.2244 C   0  0  0  0  0  0  0  0  0  0  0  0
   -0.8664   -1.7213    0.4231 O   0  0  0  0  0  0  0  0  0  0  0  0
   -1.6345    0.1912   -0.4809 N   0  0  0  0  0  0  0  0  0  0  0  0
   -2.4820    0.7295   -0.6211 H   0  0  0  0  0  0  0  0  0  0  0  0
   -0.3807    0.9681   -0.3921 C   0  0  1  0  0  0  0  0  0  0  0  0
    0.3919    0.4291   -0.9500 H   0  0  0  0  0  0  0  0  0  0  0  0
   -0.6417    2.3287   -1.0776 C   0  0  0  0  0  0  0  0  0  0  0  0
   -1.5042    2.8150   -0.6099 H   0  0  0  0  0  0  0  0  0  0  0  0
    0.2120    2.9986   -0.9424 H   0  0  0  0  0  0  0  0  0  0  0  0
   -0.8664    2.1715   -2.5632 C   0  0  0  0  0  0  0  0  0  0  0  0
    0.2268    2.0384   -3.4327 C   0  0  0  0  0  0  0  0  0  0  0  0
    1.2391    2.0313   -3.0406 H   0  0  0  0  0  0  0  0  0  0  0  0
    0.0272    1.9060   -4.8109 C   0  0  0  0  0  0  0  0  0  0  0  0
    0.8798    1.7967   -5.4749 H   0  0  0  0  0  0  0  0  0  0  0  0
   -1.2691    1.9133   -5.3336 C   0  0  0  0  0  0  0  0  0  0  0  0
   -1.4242    1.8112   -6.4037 H   0  0  0  0  0  0  0  0  0  0  0  0
   -2.3648    2.0532   -4.4769 C   0  0  0  0  0  0  0  0  0  0  0  0
   -3.3722    2.0620   -4.8830 H   0  0  0  0  0  0  0  0  0  0  0  0
   -2.1641    2.1835   -3.0983 C   0  0  0  0  0  0  0  0  0  0  0  0
   -3.0246    2.2982   -2.4468 H   0  0  0  0  0  0  0  0  0  0  0  0
    0.1899    1.1861    1.0438 C   0  0  0  0  0  0  0  0  0  0  0  0
   -0.4204    0.8145    2.0395 O   0  0  0  0  0  0  0  0  0  0  0  0
    1.1727    2.1405    1.2590 N   0  0  0  0  0  0  0  0  0  0  0  0
    1.6800    2.4761    0.4466 H   0  0  0  0  0  0  0  0  0  0  0  0
    1.6492    2.5231    2.5840 C   0  0  0  0  0  0  0  0  0  0  0  0
    2.0283    1.6480    3.1223 H   0  0  0  0  0  0  0  0  0  0  0  0
    2.4590    3.2538    2.4980 H   0  0  0  0  0  0  0  0  0  0  0  0
    0.8394    2.9731    3.1682 H   0  0  0  0  0  0  0  0  0  0  0  0
  1  2  1  0  0  0  0
  2  3  1  0  0  0  0
  2  4  1  0  0  0  0
  2  5  1  0  0  0  0
  5  6  2  0  0  0  0
  5  7  1  0  0  0  0
  7  8  1  0  0  0  0
  7  9  1  0  0  0  0
  9 10  1  0  0  0  0
  9 11  1  0  0  0  0
  9 25  1  0  0  0  0
 11 12  1  0  0  0  0
 11 13  1  0  0  0  0
 11 14  1  0  0  0  0
 14 15  1  0  0  0  0
 14 23  2  0  0  0  0
 15 16  1  0  0  0  0
 15 17  2  0  0  0  0
 17 18  1  0  0  0  0
 17 19  1  0  0  0  0
 19 20  1  0  0  0  0
 19 21  2  0  0  0  0
 21 22  1  0  0  0  0
 21 23  1  0  0  0  0
 23 24  1  0  0  0  0
 25 26  2  0  0  0  0
 25 27  1  0  0  0  0
 27 28  1  0  0  0  0
 27 29  1  0  0  0  0
 29 30  1  0  0  0  0
 29 31  1  0  0  0  0
 29 32  1  0  0  0  0
M  END
$$$$

  -OEChem-01062216093D

 32 32  0     1  0  0  0  0  0999 V2000
   -3.1850   -2.3650    1.1216 H   0  0  0  0  0  0  0  0  0  0  0  0
   -3.2204   -1.3994    0.6094 C   0  0  0  0  0  0  0  0  0  0  0  0
   -3.6500   -0.6586    1.2880 H   0  0  0  0  0  0  0  0  0  0  0  0
   -3.8557   -1.4906   -0.2747 H   0  0  0  0  0  0  0  0  0  0  0  0
   -1.8216   -0.9754    0.2034 C   0  0  0  0  0  0  0  0  0  0  0  0
   -0.8884   -1.7541    0.3228 O   0  0  0  0  0  0  0  0  0  0  0  0
   -1.6327    0.2122   -0.4777 N   0  0  0  0  0  0  0  0  0  0  0  0
   -2.4826    0.7505   -0.6000 H   0  0  0  0  0  0  0  0  0  0  0  0
   -0.3856    1.0017   -0.3851 C   0  0  1  0  0  0  0  0  0  0  0  0
    0.3896    0.4684   -0.9449 H   0  0  0  0  0  0  0  0  0  0  0  0
   -0.6643    2.3502   -1.0902 C   0  0  0  0  0  0  0  0  0  0  0  0
   -1.5341    2.8326   -0.6323 H   0  0  0  0  0  0  0  0  0  0  0  0
    0.1818    3.0312   -0.9680 H   0  0  0  0  0  0  0  0  0  0  0  0
   -0.8781    2.1722   -2.5756 C   0  0  0  0  0  0  0  0  0  0  0  0
    0.2216    2.0464   -3.4384 C   0  0  0  0  0  0  0  0  0  0  0  0
    1.2322    2.0600   -3.0417 H   0  0  0  0  0  0  0  0  0  0  0  0
    0.0308    1.8969   -4.8161 C   0  0  0  0  0  0  0  0  0  0  0  0
    0.8881    1.7961   -5.4753 H   0  0  0  0  0  0  0  0  0  0  0  0
   -1.2629    1.8748   -5.3448 C   0  0  0  0  0  0  0  0  0  0  0  0
   -1.4110    1.7577   -6.4144 H   0  0  0  0  0  0  0  0  0  0  0  0
   -2.3651    2.0026   -4.4946 C   0  0  0  0  0  0  0  0  0  0  0  0
   -3.3703    1.9863   -4.9055 H   0  0  0  0  0  0  0  0  0  0  0  0
   -2.1734    2.1525   -3.1167 C   0  0  0  0  0  0  0  0  0  0  0  0
   -3.0390    2.2555   -2.4701 H   0  0  0  0  0  0  0  0  0  0  0  0
    0.2037    1.2159    1.0489 C   0  0  0  0  0  0  0  0  0  0  0  0
   -0.1847    0.5788    2.0189 O   0  0  0  0  0  0  0  0  0  0  0  0
    0.9342    2.3580    1.3455 N   0  0  0  0  0  0  0  0  0  0  0  0
    1.2582    2.9206    0.5659 H   0  0  0  0  0  0  0  0  0  0  0  0
    1.3948    2.7007    2.6875 C   0  0  0  0  0  0  0  0  0  0  0  0
    2.0322    1.9057    3.0889 H   0  0  0  0  0  0  0  0  0  0  0  0
    1.9736    3.6289    2.6629 H   0  0  0  0  0  0  0  0  0  0  0  0
    0.5429    2.8433    3.3606 H   0  0  0  0  0  0  0  0  0  0  0  0
  1  2  1  0  0  0  0
  2  3  1  0  0  0  0
  2  4  1  0  0  0  0
  2  5  1  0  0  0  0
  5  6  2  0  0  0  0
  5  7  1  0  0  0  0
  7  8  1  0  0  0  0
  7  9  1  0  0  0  0
  9 10  1  0  0  0  0
  9 11  1  0  0  0  0
  9 25  1  0  0  0  0
 11 12  1  0  0  0  0
 11 13  1  0  0  0  0
 11 14  1  0  0  0  0
 14 15  1  0  0  0  0
 14 23  2  0  0  0  0
 15 16  1  0  0  0  0
 15 17  2  0  0  0  0
 17 18  1  0  0  0  0
 17 19  1  0  0  0  0
 19 20  1  0  0  0  0
 19 21  2  0  0  0  0
 21 22  1  0  0  0  0
 21 23  1  0  0  0  0
 23 24  1  0  0  0  0
 25 26  2  0  0  0  0
 25 27  1  0  0  0  0
 27 28  1  0  0  0  0
 27 29  1  0  0  0  0
 29 30  1  0  0  0  0
 29 31  1  0  0  0  0
 29 32  1  0  0  0  0
M  END
$$$$

  -OEChem-01062216093D

 32 32  0     1  0  0  0  0  0999 V2000
   -3.1852   -2.3343    1.1606 H   0  0  0  0  0  0  0  0  0  0  0  0
   -3.2249   -1.3840    0.6205 C   0  0  0  0  0  0  0  0  0  0  0  0
   -3.6587   -0.6268    1.2778 H   0  0  0  0  0  0  0  0  0  0  0  0
   -3.8593   -1.5035   -0.2608 H   0  0  0  0  0  0  0  0  0  0  0  0
   -1.8278   -0.9660    0.2020 C   0  0  0  0  0  0  0  0  0  0  0  0
   -0.9102   -1.7662    0.2764 O   0  0  0  0  0  0  0  0  0  0  0  0
   -1.6427    0.2291   -0.4671 N   0  0  0  0  0  0  0  0  0  0  0  0
   -2.4984    0.7558   -0.5990 H   0  0  0  0  0  0  0  0  0  0  0  0
   -0.4076    1.0386   -0.3802 C   0  0  1  0  0  0  0  0  0  0  0  0
    0.3729    0.5074   -0.9353 H   0  0  0  0  0  0  0  0  0  0  0  0
   -0.6866    2.3770   -1.1030 C   0  0  0  0  0  0  0  0  0  0  0  0
   -1.5606    2.8643   -0.6587 H   0  0  0  0  0  0  0  0  0  0  0  0
    0.1621    3.0562   -0.9838 H   0  0  0  0  0  0  0  0  0  0  0  0
   -0.8859    2.1805   -2.5877 C   0  0  0  0  0  0  0  0  0  0  0  0
    0.2221    2.0503   -3.4389 C   0  0  0  0  0  0  0  0  0  0  0  0
    1.2293    2.0748   -3.0336 H   0  0  0  0  0  0  0  0  0  0  0  0
    0.0439    1.8791   -4.8157 C   0  0  0  0  0  0  0  0  0  0  0  0
    0.9076    1.7736   -5.4657 H   0  0  0  0  0  0  0  0  0  0  0  0
   -1.2450    1.8401   -5.3552 C   0  0  0  0  0  0  0  0  0  0  0  0
   -1.3827    1.7038   -6.4241 H   0  0  0  0  0  0  0  0  0  0  0  0
   -2.3554    1.9751   -4.5168 C   0  0  0  0  0  0  0  0  0  0  0  0
   -3.3570    1.9464   -4.9361 H   0  0  0  0  0  0  0  0  0  0  0  0
   -2.1762    2.1464   -3.1398 C   0  0  0  0  0  0  0  0  0  0  0  0
   -3.0481    2.2537   -2.5027 H   0  0  0  0  0  0  0  0  0  0  0  0
    0.1866    1.2549    1.0508 C   0  0  0  0  0  0  0  0  0  0  0  0
    0.1553    0.3970    1.9196 O   0  0  0  0  0  0  0  0  0  0  0  0
    0.6229    2.5071    1.4608 N   0  0  0  0  0  0  0  0  0  0  0  0
    0.6386    3.2506    0.7710 H   0  0  0  0  0  0  0  0  0  0  0  0
    1.1170    2.7935    2.8041 C   0  0  0  0  0  0  0  0  0  0  0  0
    1.9894    2.1719    3.0319 H   0  0  0  0  0  0  0  0  0  0  0  0
    1.4113    3.8444    2.8831 H   0  0  0  0  0  0  0  0  0  0  0  0
    0.3391    2.5959    3.5491 H   0  0  0  0  0  0  0  0  0  0  0  0
  1  2  1  0  0  0  0
  2  3  1  0  0  0  0
  2  4  1  0  0  0  0
  2  5  1  0  0  0  0
  5  6  2  0  0  0  0
  5  7  1  0  0  0  0
  7  8  1  0  0  0  0
  7  9  1  0  0  0  0
  9 10  1  0  0  0  0
  9 11  1  0  0  0  0
  9 25  1  0  0  0  0
 11 12  1  0  0  0  0
 11 13  1  0  0  0  0
 11 14  1  0  0  0  0
 14 15  1  0  0  0  0
 14 23  2  0  0  0  0
 15 16  1  0  0  0  0
 15 17  2  0  0  0  0
 17 18  1  0  0  0  0
 17 19  1  0  0  0  0
 19 20  1  0  0  0  0
 19 21  2  0  0  0  0
 21 22  1  0  0  0  0
 21 23  1  0  0  0  0
 23 24  1  0  0  0  0
 25 26  2  0  0  0  0
 25 27  1  0  0  0  0
 27 28  1  0  0  0  0
 27 29  1  0  0  0  0
 29 30  1  0  0  0  0
 29 31  1  0  0  0  0
 29 32  1  0  0  0  0
M  END
$$$$

  -OEChem-01062216093D

 32 32  0     1  0  0  0  0  0999 V2000
   -3.4326   -2.4083    0.7813 H   0  0  0  0  0  0  0  0  0  0  0  0
   -3.3602   -1.4705    0.2228 C   0  0  0  0  0  0  0  0  0  0  0  0
   -4.0738   -0.7573    0.6422 H   0  0  0  0  0  0  0  0  0  0  0  0
   -3.6153   -1.6630   -0.8220 H   0  0  0  0  0  0  0  0  0  0  0  0
   -1.9517   -0.9129    0.3195 C   0  0  0  0  0  0  0  0  0  0  0  0
   -1.1060   -1.5623    0.9011 O   0  0  0  0  0  0  0  0  0  0  0  0
   -1.6610    0.2671   -0.3403 N   0  0  0  0  0  0  0  0  0  0  0  0
   -2.4118    0.6352   -0.9147 H   0  0  0  0  0  0  0  0  0  0  0  0
   -0.4221    1.0733   -0.2787 C   0  0  1  0  0  0  0  0  0  0  0  0
    0.3546    0.5272   -0.8249 H   0  0  0  0  0  0  0  0  0  0  0  0
   -0.6981    2.3973   -1.0252 C   0  0  0  0  0  0  0  0  0  0  0  0
   -1.5687    2.8981   -0.5890 H   0  0  0  0  0  0  0  0  0  0  0  0
    0.1588    3.0705   -0.9169 H   0  0  0  0  0  0  0  0  0  0  0  0
   -0.9077    2.1668   -2.5033 C   0  0  0  0  0  0  0  0  0  0  0  0
    0.1944    2.0103   -3.3572 C   0  0  0  0  0  0  0  0  0  0  0  0
    1.2041    2.0421   -2.9575 H   0  0  0  0  0  0  0  0  0  0  0  0
    0.0073    1.8027   -4.7278 C   0  0  0  0  0  0  0  0  0  0  0  0
    0.8669    1.6750   -5.3797 H   0  0  0  0  0  0  0  0  0  0  0  0
   -1.2852    1.7589   -5.2585 C   0  0  0  0  0  0  0  0  0  0  0  0
   -1.4297    1.5980   -6.3229 H   0  0  0  0  0  0  0  0  0  0  0  0
   -2.3900    1.9265   -4.4187 C   0  0  0  0  0  0  0  0  0  0  0  0
   -3.3934    1.9005   -4.8342 H   0  0  0  0  0  0  0  0  0  0  0  0
   -2.2019    2.1317   -3.0473 C   0  0  0  0  0  0  0  0  0  0  0  0
   -3.0702    2.2714   -2.4109 H   0  0  0  0  0  0  0  0  0  0  0  0
    0.1820    1.3271    1.1363 C   0  0  0  0  0  0  0  0  0  0  0  0
    0.7772    0.4513    1.7435 O   0  0  0  0  0  0  0  0  0  0  0  0
    0.3334    2.6162    1.6288 N   0  0  0  0  0  0  0  0  0  0  0  0
   -0.1175    3.3690    1.1203 H   0  0  0  0  0  0  0  0  0  0  0  0
    1.0198    2.9292    2.8780 C   0  0  0  0  0  0  0  0  0  0  0  0
    2.0791    2.6598    2.8106 H   0  0  0  0  0  0  0  0  0  0  0  0
    0.9479    3.9999    3.0912 H   0  0  0  0  0  0  0  0  0  0  0  0
    0.5687    2.3806    3.7117 H   0  0  0  0  0  0  0  0  0  0  0  0
  1  2  1  0  0  0  0
  2  3  1  0  0  0  0
  2  4  1  0  0  0  0
  2  5  1  0  0  0  0
  5  6  2  0  0  0  0
  5  7  1  0  0  0  0
  7  8  1  0  0  0  0
  7  9  1  0  0  0  0
  9 10  1  0  0  0  0
  9 11  1  0  0  0  0
  9 25  1  0  0  0  0
 11 12  1  0  0  0  0
 11 13  1  0  0  0  0
 11 14  1  0  0  0  0
 14 15  1  0  0  0  0
 14 23  2  0  0  0  0
 15 16  1  0  0  0  0
 15 17  2  0  0  0  0
 17 18  1  0  0  0  0
 17 19  1  0  0  0  0
 19 20  1  0  0  0  0
 19 21  2  0  0  0  0
 21 22  1  0  0  0  0
 21 23  1  0  0  0  0
 23 24  1  0  0  0  0
 25 26  2  0  0  0  0
 25 27  1  0  0  0  0
 27 28  1  0  0  0  0
 27 29  1  0  0  0  0
 29 30  1  0  0  0  0
 29 31  1  0  0  0  0
 29 32  1  0  0  0  0
M  END
$$$$

  -OEChem-01062216093D

 32 32  0     1  0  0  0  0  0999 V2000
   -3.4006   -2.4884    0.6059 H   0  0  0  0  0  0  0  0  0  0  0  0
   -3.3199   -1.5646    0.0257 C   0  0  0  0  0  0  0  0  0  0  0  0
   -4.1929   -0.9414    0.2334 H   0  0  0  0  0  0  0  0  0  0  0  0
   -3.3045   -1.8192   -1.0368 H   0  0  0  0  0  0  0  0  0  0  0  0
   -2.0514   -0.8204    0.4000 C   0  0  0  0  0  0  0  0  0  0  0  0
   -1.3616   -1.2520    1.3023 O   0  0  0  0  0  0  0  0  0  0  0  0
   -1.7333    0.3333   -0.2918 N   0  0  0  0  0  0  0  0  0  0  0  0
   -2.3260    0.5201   -1.0953 H   0  0  0  0  0  0  0  0  0  0  0  0
   -0.4618    1.0855   -0.2441 C   0  0  1  0  0  0  0  0  0  0  0  0
    0.2895    0.5032   -0.7886 H   0  0  0  0  0  0  0  0  0  0  0  0
   -0.6845    2.4150   -0.9941 C   0  0  0  0  0  0  0  0  0  0  0  0
   -1.5341    2.9525   -0.5604 H   0  0  0  0  0  0  0  0  0  0  0  0
    0.1995    3.0526   -0.8829 H   0  0  0  0  0  0  0  0  0  0  0  0
   -0.9133    2.1783   -2.4684 C   0  0  0  0  0  0  0  0  0  0  0  0
    0.1751    1.9663   -3.3272 C   0  0  0  0  0  0  0  0  0  0  0  0
    1.1881    1.9689   -2.9345 H   0  0  0  0  0  0  0  0  0  0  0  0
   -0.0310    1.7420   -4.6923 C   0  0  0  0  0  0  0  0  0  0  0  0
    0.8184    1.5744   -5.3481 H   0  0  0  0  0  0  0  0  0  0  0  0
   -1.3284    1.7336   -5.2124 C   0  0  0  0  0  0  0  0  0  0  0  0
   -1.4871    1.5593   -6.2727 H   0  0  0  0  0  0  0  0  0  0  0  0
   -2.4193    1.9551   -4.3665 C   0  0  0  0  0  0  0  0  0  0  0  0
   -3.4265    1.9571   -4.7730 H   0  0  0  0  0  0  0  0  0  0  0  0
   -2.2124    2.1797   -3.0009 C   0  0  0  0  0  0  0  0  0  0  0  0
   -3.0687    2.3621   -2.3588 H   0  0  0  0  0  0  0  0  0  0  0  0
    0.1538    1.3342    1.1608 C   0  0  0  0  0  0  0  0  0  0  0  0
    1.0095    0.5704    1.5859 O   0  0  0  0  0  0  0  0  0  0  0  0
    0.0810    2.5820    1.7626 N   0  0  0  0  0  0  0  0  0  0  0  0
   -0.6182    3.2269    1.4104 H   0  0  0  0  0  0  0  0  0  0  0  0
    0.7876    2.9198    2.9933 C   0  0  0  0  0  0  0  0  0  0  0  0
    1.8707    2.8613    2.8419 H   0  0  0  0  0  0  0  0  0  0  0  0
    0.5378    3.9380    3.3062 H   0  0  0  0  0  0  0  0  0  0  0  0
    0.5069    2.2315    3.7976 H   0  0  0  0  0  0  0  0  0  0  0  0
  1  2  1  0  0  0  0
  2  3  1  0  0  0  0
  2  4  1  0  0  0  0
  2  5  1  0  0  0  0
  5  6  2  0  0  0  0
  5  7  1  0  0  0  0
  7  8  1  0  0  0  0
  7  9  1  0  0  0  0
  9 10  1  0  0  0  0
  9 11  1  0  0  0  0
  9 25  1  0  0  0  0
 11 12  1  0  0  0  0
 11 13  1  0  0  0  0
 11 14  1  0  0  0  0
 14 15  1  0  0  0  0
 14 23  2  0  0  0  0
 15 16  1  0  0  0  0
 15 17  2  0  0  0  0
 17 18  1  0  0  0  0
 17 19  1  0  0  0  0
 19 20  1  0  0  0  0
 19 21  2  0  0  0  0
 21 22  1  0  0  0  0
 21 23  1  0  0  0  0
 23 24  1  0  0  0  0
 25 26  2  0  0  0  0
 25 27  1  0  0  0  0
 27 28  1  0  0  0  0
 27 29  1  0  0  0  0
 29 30  1  0  0  0  0
 29 31  1  0  0  0  0
 29 32  1  0  0  0  0
M  END
$$$$

  -OEChem-01062216093D

 32 32  0     1  0  0  0  0  0999 V2000
   -3.3617   -2.4980    0.6586 H   0  0  0  0  0  0  0  0  0  0  0  0
   -3.3014   -1.5831    0.0621 C   0  0  0  0  0  0  0  0  0  0  0  0
   -4.1787   -0.9670    0.2726 H   0  0  0  0  0  0  0  0  0  0  0  0
   -3.2986   -1.8545   -0.9962 H   0  0  0  0  0  0  0  0  0  0  0  0
   -2.0363   -0.8188    0.4063 C   0  0  0  0  0  0  0  0  0  0  0  0
   -1.3271   -1.2239    1.3072 O   0  0  0  0  0  0  0  0  0  0  0  0
   -1.7352    0.3286   -0.3034 N   0  0  0  0  0  0  0  0  0  0  0  0
   -2.3275    0.4998   -1.1108 H   0  0  0  0  0  0  0  0  0  0  0  0
   -0.4600    1.0730   -0.2668 C   0  0  1  0  0  0  0  0  0  0  0  0
    0.2850    0.4845   -0.8135 H   0  0  0  0  0  0  0  0  0  0  0  0
   -0.6607    2.4102   -1.0047 C   0  0  0  0  0  0  0  0  0  0  0  0
   -1.4999    2.9603   -0.5671 H   0  0  0  0  0  0  0  0  0  0  0  0
    0.2346    3.0310   -0.8854 H   0  0  0  0  0  0  0  0  0  0  0  0
   -0.8989    2.1843   -2.4786 C   0  0  0  0  0  0  0  0  0  0  0  0
    0.1822    1.9566   -3.3427 C   0  0  0  0  0  0  0  0  0  0  0  0
    1.1968    1.9394   -2.9540 H   0  0  0  0  0  0  0  0  0  0  0  0
   -0.0340    1.7423   -4.7081 C   0  0  0  0  0  0  0  0  0  0  0  0
    0.8095    1.5621   -5.3684 H   0  0  0  0  0  0  0  0  0  0  0  0
   -1.3339    1.7602   -5.2223 C   0  0  0  0  0  0  0  0  0  0  0  0
   -1.5002    1.5955   -6.2831 H   0  0  0  0  0  0  0  0  0  0  0  0
   -2.4172    1.9954   -4.3705 C   0  0  0  0  0  0  0  0  0  0  0  0
   -3.4263    2.0164   -4.7720 H   0  0  0  0  0  0  0  0  0  0  0  0
   -2.2002    2.2088   -3.0049 C   0  0  0  0  0  0  0  0  0  0  0  0
   -3.0498    2.4010   -2.3568 H   0  0  0  0  0  0  0  0  0  0  0  0
    0.1510    1.3187    1.1367 C   0  0  0  0  0  0  0  0  0  0  0  0
    1.1580    0.7061    1.4659 O   0  0  0  0  0  0  0  0  0  0  0  0
   -0.1758    2.4537    1.8621 N   0  0  0  0  0  0  0  0  0  0  0  0
   -1.0358    2.9268    1.6062 H   0  0  0  0  0  0  0  0  0  0  0  0
    0.4503    2.7866    3.1363 C   0  0  0  0  0  0  0  0  0  0  0  0
    1.5314    2.9098    3.0123 H   0  0  0  0  0  0  0  0  0  0  0  0
    0.0400    3.7226    3.5267 H   0  0  0  0  0  0  0  0  0  0  0  0
    0.2681    1.9941    3.8696 H   0  0  0  0  0  0  0  0  0  0  0  0
  1  2  1  0  0  0  0
  2  3  1  0  0  0  0
  2  4  1  0  0  0  0
  2  5  1  0  0  0  0
  5  6  2  0  0  0  0
  5  7  1  0  0  0  0
  7  8  1  0  0  0  0
  7  9  1  0  0  0  0
  9 10  1  0  0  0  0
  9 11  1  0  0  0  0
  9 25  1  0  0  0  0
 11 12  1  0  0  0  0
 11 13  1  0  0  0  0
 11 14  1  0  0  0  0
 14 15  1  0  0  0  0
 14 23  2  0  0  0  0
 15 16  1  0  0  0  0
 15 17  2  0  0  0  0
 17 18  1  0  0  0  0
 17 19  1  0  0  0  0
 19 20  1  0  0  0  0
 19 21  2  0  0  0  0
 21 22  1  0  0  0  0
 21 23  1  0  0  0  0
 23 24  1  0  0  0  0
 25 26  2  0  0  0  0
 25 27  1  0  0  0  0
 27 28  1  0  0  0  0
 27 29  1  0  0  0  0
 29 30  1  0  0  0  0
 29 31  1  0  0  0  0
 29 32  1  0  0  0  0
M  END
$$$$

  -OEChem-01062216093D

 32 32  0     1  0  0  0  0  0999 V2000
   -3.3481   -2.5091    0.6762 H   0  0  0  0  0  0  0  0  0  0  0  0
   -3.2930   -1.6003    0.0699 C   0  0  0  0  0  0  0  0  0  0  0  0
   -4.1781   -0.9912    0.2674 H   0  0  0  0  0  0  0  0  0  0  0  0
   -3.2809   -1.8840   -0.9852 H   0  0  0  0  0  0  0  0  0  0  0  0
   -2.0380   -0.8188    0.4128 C   0  0  0  0  0  0  0  0  0  0  0  0
   -1.3281   -1.2027    1.3235 O   0  0  0  0  0  0  0  0  0  0  0  0
   -1.7379    0.3205   -0.3102 N   0  0  0  0  0  0  0  0  0  0  0  0
   -2.3218    0.4784   -1.1268 H   0  0  0  0  0  0  0  0  0  0  0  0
   -0.4568    1.0547   -0.2780 C   0  0  1  0  0  0  0  0  0  0  0  0
    0.2831    0.4599   -0.8249 H   0  0  0  0  0  0  0  0  0  0  0  0
   -0.6411    2.3994   -1.0041 C   0  0  0  0  0  0  0  0  0  0  0  0
   -1.4708    2.9576   -0.5588 H   0  0  0  0  0  0  0  0  0  0  0  0
    0.2626    3.0069   -0.8812 H   0  0  0  0  0  0  0  0  0  0  0  0
   -0.8876    2.1864   -2.4784 C   0  0  0  0  0  0  0  0  0  0  0  0
    0.1867    1.9493   -3.3486 C   0  0  0  0  0  0  0  0  0  0  0  0
    1.2026    1.9174   -2.9642 H   0  0  0  0  0  0  0  0  0  0  0  0
   -0.0385    1.7433   -4.7139 C   0  0  0  0  0  0  0  0  0  0  0  0
    0.7992    1.5550   -5.3795 H   0  0  0  0  0  0  0  0  0  0  0  0
   -1.3405    1.7802   -5.2215 C   0  0  0  0  0  0  0  0  0  0  0  0
   -1.5146    1.6208   -6.2818 H   0  0  0  0  0  0  0  0  0  0  0  0
   -2.4163    2.0282   -4.3640 C   0  0  0  0  0  0  0  0  0  0  0  0
   -3.4264    2.0668   -4.7609 H   0  0  0  0  0  0  0  0  0  0  0  0
   -2.1907    2.2326   -2.9984 C   0  0  0  0  0  0  0  0  0  0  0  0
   -3.0341    2.4354   -2.3452 H   0  0  0  0  0  0  0  0  0  0  0  0
    0.1512    1.3041    1.1230 C   0  0  0  0  0  0  0  0  0  0  0  0
    1.2753    0.8870    1.3702 O   0  0  0  0  0  0  0  0  0  0  0  0
   -0.3923    2.2655    1.9587 N   0  0  0  0  0  0  0  0  0  0  0  0
   -1.3540    2.5299    1.7729 H   0  0  0  0  0  0  0  0  0  0  0  0
    0.1784    2.5878    3.2609 C   0  0  0  0  0  0  0  0  0  0  0  0
    1.2091    2.9413    3.1521 H   0  0  0  0  0  0  0  0  0  0  0  0
   -0.4053    3.3762    3.7452 H   0  0  0  0  0  0  0  0  0  0  0  0
    0.1756    1.7042    3.9077 H   0  0  0  0  0  0  0  0  0  0  0  0
  1  2  1  0  0  0  0
  2  3  1  0  0  0  0
  2  4  1  0  0  0  0
  2  5  1  0  0  0  0
  5  6  2  0  0  0  0
  5  7  1  0  0  0  0
  7  8  1  0  0  0  0
  7  9  1  0  0  0  0
  9 10  1  0  0  0  0
  9 11  1  0  0  0  0
  9 25  1  0  0  0  0
 11 12  1  0  0  0  0
 11 13  1  0  0  0  0
 11 14  1  0  0  0  0
 14 15  1  0  0  0  0
 14 23  2  0  0  0  0
 15 16  1  0  0  0  0
 15 17  2  0  0  0  0
 17 18  1  0  0  0  0
 17 19  1  0  0  0  0
 19 20  1  0  0  0  0
 19 21  2  0  0  0  0
 21 22  1  0  0  0  0
 21 23  1  0  0  0  0
 23 24  1  0  0  0  0
 25 26  2  0  0  0  0
 25 27  1  0  0  0  0
 27 28  1  0  0  0  0
 27 29  1  0  0  0  0
 29 30  1  0  0  0  0
 29 31  1  0  0  0  0
 29 32  1  0  0  0  0
M  END
$$$$

  -OEChem-01062216093D

 32 32  0     1  0  0  0  0  0999 V2000
   -3.3509   -2.5061    0.7007 H   0  0  0  0  0  0  0  0  0  0  0  0
   -3.2937   -1.6038    0.0849 C   0  0  0  0  0  0  0  0  0  0  0  0
   -4.1750   -0.9881    0.2792 H   0  0  0  0  0  0  0  0  0  0  0  0
   -3.2863   -1.8980   -0.9674 H   0  0  0  0  0  0  0  0  0  0  0  0
   -2.0335   -0.8252    0.4143 C   0  0  0  0  0  0  0  0  0  0  0  0
   -1.3175   -1.2042    1.3230 O   0  0  0  0  0  0  0  0  0  0  0  0
   -1.7310    0.3072   -0.3184 N   0  0  0  0  0  0  0  0  0  0  0  0
   -2.3177    0.4667   -1.1329 H   0  0  0  0  0  0  0  0  0  0  0  0
   -0.4473    1.0376   -0.2886 C   0  0  1  0  0  0  0  0  0  0  0  0
    0.2926    0.4417   -0.8340 H   0  0  0  0  0  0  0  0  0  0  0  0
   -0.6273    2.3866   -1.0056 C   0  0  0  0  0  0  0  0  0  0  0  0
   -1.4506    2.9471   -0.5515 H   0  0  0  0  0  0  0  0  0  0  0  0
    0.2804    2.9877   -0.8820 H   0  0  0  0  0  0  0  0  0  0  0  0
   -0.8805    2.1851   -2.4805 C   0  0  0  0  0  0  0  0  0  0  0  0
    0.1898    1.9485   -3.3558 C   0  0  0  0  0  0  0  0  0  0  0  0
    1.2064    1.9097   -2.9740 H   0  0  0  0  0  0  0  0  0  0  0  0
   -0.0405    1.7539   -4.7218 C   0  0  0  0  0  0  0  0  0  0  0  0
    0.7947    1.5676   -5.3909 H   0  0  0  0  0  0  0  0  0  0  0  0
   -1.3441    1.8007   -5.2251 C   0  0  0  0  0  0  0  0  0  0  0  0
   -1.5217    1.6510   -6.2862 H   0  0  0  0  0  0  0  0  0  0  0  0
   -2.4162    2.0474   -4.3622 C   0  0  0  0  0  0  0  0  0  0  0  0
   -3.4273    2.0941   -4.7559 H   0  0  0  0  0  0  0  0  0  0  0  0
   -2.1850    2.2412   -2.9959 C   0  0  0  0  0  0  0  0  0  0  0  0
   -3.0251    2.4441   -2.3387 H   0  0  0  0  0  0  0  0  0  0  0  0
    0.1554    1.2957    1.1108 C   0  0  0  0  0  0  0  0  0  0  0  0
    1.3510    1.1041    1.2919 O   0  0  0  0  0  0  0  0  0  0  0  0
   -0.5552    2.0266    2.0470 N   0  0  0  0  0  0  0  0  0  0  0  0
   -1.5603    2.0589    1.9108 H   0  0  0  0  0  0  0  0  0  0  0  0
   -0.0276    2.3177    3.3741 C   0  0  0  0  0  0  0  0  0  0  0  0
    0.9095    2.8795    3.3012 H   0  0  0  0  0  0  0  0  0  0  0  0
   -0.7440    2.9184    3.9424 H   0  0  0  0  0  0  0  0  0  0  0  0
    0.1604    1.3884    3.9220 H   0  0  0  0  0  0  0  0  0  0  0  0
  1  2  1  0  0  0  0
  2  3  1  0  0  0  0
  2  4  1  0  0  0  0
  2  5  1  0  0  0  0
  5  6  2  0  0  0  0
  5  7  1  0  0  0  0
  7  8  1  0  0  0  0
  7  9  1  0  0  0  0
  9 10  1  0  0  0  0
  9 11  1  0  0  0  0
  9 25  1  0  0  0  0
 11 12  1  0  0  0  0
 11 13  1  0  0  0  0
 11 14  1  0  0  0  0
 14 15  1  0  0  0  0
 14 23  2  0  0  0  0
 15 16  1  0  0  0  0
 15 17  2  0  0  0  0
 17 18  1  0  0  0  0
 17 19  1  0  0  0  0
 19 20  1  0  0  0  0
 19 21  2  0  0  0  0
 21 22  1  0  0  0  0
 21 23  1  0  0  0  0
 23 24  1  0  0  0  0
 25 26  2  0  0  0  0
 25 27  1  0  0  0  0
 27 28  1  0  0  0  0
 27 29  1  0  0  0  0
 29 30  1  0  0  0  0
 29 31  1  0  0  0  0
 29 32  1  0  0  0  0
M  END
$$$$

  -OEChem-01062216093D

 32 32  0     1  0  0  0  0  0999 V2000
   -3.3734   -2.5086    0.6799 H   0  0  0  0  0  0  0  0  0  0  0  0
   -3.3090   -1.6072    0.0637 C   0  0  0  0  0  0  0  0  0  0  0  0
   -4.1915   -0.9902    0.2485 H   0  0  0  0  0  0  0  0  0  0  0  0
   -3.2931   -1.9030   -0.9880 H   0  0  0  0  0  0  0  0  0  0  0  0
   -2.0507   -0.8305    0.4035 C   0  0  0  0  0  0  0  0  0  0  0  0
   -1.3439   -1.2062    1.3210 O   0  0  0  0  0  0  0  0  0  0  0  0
   -1.7373    0.2992   -0.3275 N   0  0  0  0  0  0  0  0  0  0  0  0
   -2.3174    0.4620   -1.1464 H   0  0  0  0  0  0  0  0  0  0  0  0
   -0.4509    1.0260   -0.2887 C   0  0  1  0  0  0  0  0  0  0  0  0
    0.2906    0.4316   -0.8332 H   0  0  0  0  0  0  0  0  0  0  0  0
   -0.6330    2.3774   -0.9998 C   0  0  0  0  0  0  0  0  0  0  0  0
   -1.4578    2.9334   -0.5420 H   0  0  0  0  0  0  0  0  0  0  0  0
    0.2728    2.9817   -0.8743 H   0  0  0  0  0  0  0  0  0  0  0  0
   -0.8840    2.1800   -2.4756 C   0  0  0  0  0  0  0  0  0  0  0  0
    0.1890    1.9488   -3.3484 C   0  0  0  0  0  0  0  0  0  0  0  0
    1.2046    1.9107   -2.9635 H   0  0  0  0  0  0  0  0  0  0  0  0
   -0.0368    1.7610   -4.7160 C   0  0  0  0  0  0  0  0  0  0  0  0
    0.8010    1.5796   -5.3832 H   0  0  0  0  0  0  0  0  0  0  0  0
   -1.3389    1.8096   -5.2230 C   0  0  0  0  0  0  0  0  0  0  0  0
   -1.5128    1.6662   -6.2856 H   0  0  0  0  0  0  0  0  0  0  0  0
   -2.4142    2.0496   -4.3621 C   0  0  0  0  0  0  0  0  0  0  0  0
   -3.4246    2.0967   -4.7583 H   0  0  0  0  0  0  0  0  0  0  0  0
   -2.1871    2.2363   -2.9942 C   0  0  0  0  0  0  0  0  0  0  0  0
   -3.0287    2.4346   -2.3377 H   0  0  0  0  0  0  0  0  0  0  0  0
    0.1554    1.2932    1.1072 C   0  0  0  0  0  0  0  0  0  0  0  0
    1.3733    1.3418    1.2262 O   0  0  0  0  0  0  0  0  0  0  0  0
   -0.6426    1.7533    2.1393 N   0  0  0  0  0  0  0  0  0  0  0  0
   -1.6293    1.5321    2.0513 H   0  0  0  0  0  0  0  0  0  0  0  0
   -0.1148    2.0150    3.4723 C   0  0  0  0  0  0  0  0  0  0  0  0
    0.6804    2.7668    3.4304 H   0  0  0  0  0  0  0  0  0  0  0  0
   -0.9079    2.3911    4.1253 H   0  0  0  0  0  0  0  0  0  0  0  0
    0.2905    1.0963    3.9095 H   0  0  0  0  0  0  0  0  0  0  0  0
  1  2  1  0  0  0  0
  2  3  1  0  0  0  0
  2  4  1  0  0  0  0
  2  5  1  0  0  0  0
  5  6  2  0  0  0  0
  5  7  1  0  0  0  0
  7  8  1  0  0  0  0
  7  9  1  0  0  0  0
  9 10  1  0  0  0  0
  9 11  1  0  0  0  0
  9 25  1  0  0  0  0
 11 12  1  0  0  0  0
 11 13  1  0  0  0  0
 11 14  1  0  0  0  0
 14 15  1  0  0  0  0
 14 23  2  0  0  0  0
 15 16  1  0  0  0  0
 15 17  2  0  0  0  0
 17 18  1  0  0  0  0
 17 19  1  0  0  0  0
 19 20  1  0  0  0  0
 19 21  2  0  0  0  0
 21 22  1  0  0  0  0
 21 23  1  0  0  0  0
 23 24  1  0  0  0  0
 25 26  2  0  0  0  0
 25 27  1  0  0  0  0
 27 28  1  0  0  0  0
 27 29  1  0  0  0  0
 29 30  1  0  0  0  0
 29 31  1  0  0  0  0
 29 32  1  0  0  0  0
M  END
$$$$

  -OEChem-01062216093D

 32 32  0     1  0  0  0  0  0999 V2000
   -3.4294   -2.5087    0.6215 H   0  0  0  0  0  0  0  0  0  0  0  0
   -3.3468   -1.6013    0.0162 C   0  0  0  0  0  0  0  0  0  0  0  0
   -4.2224   -0.9741    0.2002 H   0  0  0  0  0  0  0  0  0  0  0  0
   -3.3245   -1.8850   -1.0388 H   0  0  0  0  0  0  0  0  0  0  0  0
   -2.0814   -0.8455    0.3765 C   0  0  0  0  0  0  0  0  0  0  0  0
   -1.3910   -1.2371    1.3000 O   0  0  0  0  0  0  0  0  0  0  0  0
   -1.7442    0.2871   -0.3386 N   0  0  0  0  0  0  0  0  0  0  0  0
   -2.3218    0.4732   -1.1544 H   0  0  0  0  0  0  0  0  0  0  0  0
   -0.4569    1.0143   -0.2806 C   0  0  1  0  0  0  0  0  0  0  0  0
    0.2894    0.4262   -0.8249 H   0  0  0  0  0  0  0  0  0  0  0  0
   -0.6506    2.3671   -0.9893 C   0  0  0  0  0  0  0  0  0  0  0  0
   -1.4830    2.9119   -0.5320 H   0  0  0  0  0  0  0  0  0  0  0  0
    0.2460    2.9839   -0.8599 H   0  0  0  0  0  0  0  0  0  0  0  0
   -0.8916    2.1722   -2.4674 C   0  0  0  0  0  0  0  0  0  0  0  0
    0.1880    1.9559   -3.3359 C   0  0  0  0  0  0  0  0  0  0  0  0
    1.2020    1.9262   -2.9461 H   0  0  0  0  0  0  0  0  0  0  0  0
   -0.0293    1.7703   -4.7051 C   0  0  0  0  0  0  0  0  0  0  0  0
    0.8135    1.5992   -5.3686 H   0  0  0  0  0  0  0  0  0  0  0  0
   -1.3292    1.8084   -5.2189 C   0  0  0  0  0  0  0  0  0  0  0  0
   -1.4960    1.6676   -6.2830 H   0  0  0  0  0  0  0  0  0  0  0  0
   -2.4110    2.0365   -4.3628 C   0  0  0  0  0  0  0  0  0  0  0  0
   -3.4196    2.0776   -4.7640 H   0  0  0  0  0  0  0  0  0  0  0  0
   -2.1923    2.2200   -2.9931 C   0  0  0  0  0  0  0  0  0  0  0  0
   -3.0387    2.4108   -2.3402 H   0  0  0  0  0  0  0  0  0  0  0  0
    0.1554    1.2900    1.1141 C   0  0  0  0  0  0  0  0  0  0  0  0
    1.3441    1.5768    1.1882 O   0  0  0  0  0  0  0  0  0  0  0  0
   -0.6471    1.4565    2.2279 N   0  0  0  0  0  0  0  0  0  0  0  0
   -1.5353    0.9651    2.1744 H   0  0  0  0  0  0  0  0  0  0  0  0
   -0.0914    1.7023    3.5526 C   0  0  0  0  0  0  0  0  0  0  0  0
    0.5116    2.6163    3.5533 H   0  0  0  0  0  0  0  0  0  0  0  0
   -0.8970    1.8225    4.2832 H   0  0  0  0  0  0  0  0  0  0  0  0
    0.5396    0.8632    3.8640 H   0  0  0  0  0  0  0  0  0  0  0  0
  1  2  1  0  0  0  0
  2  3  1  0  0  0  0
  2  4  1  0  0  0  0
  2  5  1  0  0  0  0
  5  6  2  0  0  0  0
  5  7  1  0  0  0  0
  7  8  1  0  0  0  0
  7  9  1  0  0  0  0
  9 10  1  0  0  0  0
  9 11  1  0  0  0  0
  9 25  1  0  0  0  0
 11 12  1  0  0  0  0
 11 13  1  0  0  0  0
 11 14  1  0  0  0  0
 14 15  1  0  0  0  0
 14 23  2  0  0  0  0
 15 16  1  0  0  0  0
 15 17  2  0  0  0  0
 17 18  1  0  0  0  0
 17 19  1  0  0  0  0
 19 20  1  0  0  0  0
 19 21  2  0  0  0  0
 21 22  1  0  0  0  0
 21 23  1  0  0  0  0
 23 24  1  0  0  0  0
 25 26  2  0  0  0  0
 25 27  1  0  0  0  0
 27 28  1  0  0  0  0
 27 29  1  0  0  0  0
 29 30  1  0  0  0  0
 29 31  1  0  0  0  0
 29 32  1  0  0  0  0
M  END
$$$$

  -OEChem-01062216093D

 32 32  0     1  0  0  0  0  0999 V2000
   -3.5109   -2.4916    0.5647 H   0  0  0  0  0  0  0  0  0  0  0  0
   -3.4007   -1.5749   -0.0217 C   0  0  0  0  0  0  0  0  0  0  0  0
   -4.2496   -0.9194    0.1868 H   0  0  0  0  0  0  0  0  0  0  0  0
   -3.4022   -1.8364   -1.0828 H   0  0  0  0  0  0  0  0  0  0  0  0
   -2.1038   -0.8748    0.3388 C   0  0  0  0  0  0  0  0  0  0  0  0
   -1.4081   -1.3239    1.2324 O   0  0  0  0  0  0  0  0  0  0  0  0
   -1.7413    0.2656   -0.3503 N   0  0  0  0  0  0  0  0  0  0  0  0
   -2.3335    0.4978   -1.1434 H   0  0  0  0  0  0  0  0  0  0  0  0
   -0.4584    1.0007   -0.2701 C   0  0  1  0  0  0  0  0  0  0  0  0
    0.2963    0.4236   -0.8141 H   0  0  0  0  0  0  0  0  0  0  0  0
   -0.6756    2.3516   -0.9808 C   0  0  0  0  0  0  0  0  0  0  0  0
   -1.5211    2.8785   -0.5266 H   0  0  0  0  0  0  0  0  0  0  0  0
    0.2055    2.9895   -0.8495 H   0  0  0  0  0  0  0  0  0  0  0  0
   -0.9029    2.1584   -2.4616 C   0  0  0  0  0  0  0  0  0  0  0  0
    0.1867    1.9678   -3.3233 C   0  0  0  0  0  0  0  0  0  0  0  0
    1.1977    1.9531   -2.9254 H   0  0  0  0  0  0  0  0  0  0  0  0
   -0.0168    1.7912   -4.6958 C   0  0  0  0  0  0  0  0  0  0  0  0
    0.8339    1.6417   -5.3545 H   0  0  0  0  0  0  0  0  0  0  0  0
   -1.3131    1.8109   -5.2193 C   0  0  0  0  0  0  0  0  0  0  0  0
   -1.4697    1.6770   -6.2859 H   0  0  0  0  0  0  0  0  0  0  0  0
   -2.4052    2.0119   -4.3695 C   0  0  0  0  0  0  0  0  0  0  0  0
   -3.4112    2.0387   -4.7782 H   0  0  0  0  0  0  0  0  0  0  0  0
   -2.2004    2.1882   -2.9967 C   0  0  0  0  0  0  0  0  0  0  0  0
   -3.0550    2.3607   -2.3495 H   0  0  0  0  0  0  0  0  0  0  0  0
    0.1577    1.2833    1.1264 C   0  0  0  0  0  0  0  0  0  0  0  0
    1.2746    1.7843    1.1837 O   0  0  0  0  0  0  0  0  0  0  0  0
   -0.5689    1.1523    2.2952 N   0  0  0  0  0  0  0  0  0  0  0  0
   -1.3145    0.4602    2.2341 H   0  0  0  0  0  0  0  0  0  0  0  0
    0.0220    1.3830    3.6074 C   0  0  0  0  0  0  0  0  0  0  0  0
    0.4002    2.4079    3.6838 H   0  0  0  0  0  0  0  0  0  0  0  0
   -0.7285    1.2351    4.3897 H   0  0  0  0  0  0  0  0  0  0  0  0
    0.8496    0.6876    3.7819 H   0  0  0  0  0  0  0  0  0  0  0  0
  1  2  1  0  0  0  0
  2  3  1  0  0  0  0
  2  4  1  0  0  0  0
  2  5  1  0  0  0  0
  5  6  2  0  0  0  0
  5  7  1  0  0  0  0
  7  8  1  0  0  0  0
  7  9  1  0  0  0  0
  9 10  1  0  0  0  0
  9 11  1  0  0  0  0
  9 25  1  0  0  0  0
 11 12  1  0  0  0  0
 11 13  1  0  0  0  0
 11 14  1  0  0  0  0
 14 15  1  0  0  0  0
 14 23  2  0  0  0  0
 15 16  1  0  0  0  0
 15 17  2  0  0  0  0
 17 18  1  0  0  0  0
 17 19  1  0  0  0  0
 19 20  1  0  0  0  0
 19 21  2  0  0  0  0
 21 22  1  0  0  0  0
 21 23  1  0  0  0  0
 23 24  1  0  0  0  0
 25 26  2  0  0  0  0
 25 27  1  0  0  0  0
 27 28  1  0  0  0  0
 27 29  1  0  0  0  0
 29 30  1  0  0  0  0
 29 31  1  0  0  0  0
 29 32  1  0  0  0  0
M  END
$$$$

  -OEChem-01062216093D

 32 32  0     1  0  0  0  0  0999 V2000
   -3.5820   -2.4548    0.5527 H   0  0  0  0  0  0  0  0  0  0  0  0
   -3.4487   -1.5343   -0.0232 C   0  0  0  0  0  0  0  0  0  0  0  0
   -4.2530   -0.8400    0.2320 H   0  0  0  0  0  0  0  0  0  0  0  0
   -3.5072   -1.7745   -1.0878 H   0  0  0  0  0  0  0  0  0  0  0  0
   -2.1034   -0.9081    0.2933 C   0  0  0  0  0  0  0  0  0  0  0  0
   -1.3675   -1.4484    1.1004 O   0  0  0  0  0  0  0  0  0  0  0  0
   -1.7299    0.2472   -0.3645 N   0  0  0  0  0  0  0  0  0  0  0  0
   -2.3611    0.5474   -1.1023 H   0  0  0  0  0  0  0  0  0  0  0  0
   -0.4558    0.9972   -0.2645 C   0  0  1  0  0  0  0  0  0  0  0  0
    0.3080    0.4353   -0.8113 H   0  0  0  0  0  0  0  0  0  0  0  0
   -0.7002    2.3461   -0.9771 C   0  0  0  0  0  0  0  0  0  0  0  0
   -1.5596    2.8533   -0.5267 H   0  0  0  0  0  0  0  0  0  0  0  0
    0.1633    3.0069   -0.8452 H   0  0  0  0  0  0  0  0  0  0  0  0
   -0.9132    2.1523   -2.4605 C   0  0  0  0  0  0  0  0  0  0  0  0
    0.1868    1.9894   -3.3149 C   0  0  0  0  0  0  0  0  0  0  0  0
    1.1948    1.9971   -2.9093 H   0  0  0  0  0  0  0  0  0  0  0  0
   -0.0017    1.8117   -4.6895 C   0  0  0  0  0  0  0  0  0  0  0  0
    0.8572    1.6822   -5.3416 H   0  0  0  0  0  0  0  0  0  0  0  0
   -1.2939    1.8046   -5.2231 C   0  0  0  0  0  0  0  0  0  0  0  0
   -1.4393    1.6695   -6.2911 H   0  0  0  0  0  0  0  0  0  0  0  0
   -2.3965    1.9816   -4.3817 C   0  0  0  0  0  0  0  0  0  0  0  0
   -3.3993    1.9891   -4.7988 H   0  0  0  0  0  0  0  0  0  0  0  0
   -2.2068    2.1579   -3.0066 C   0  0  0  0  0  0  0  0  0  0  0  0
   -3.0707    2.3115   -2.3671 H   0  0  0  0  0  0  0  0  0  0  0  0
    0.1609    1.2746    1.1380 C   0  0  0  0  0  0  0  0  0  0  0  0
    1.1701    1.9660    1.2123 O   0  0  0  0  0  0  0  0  0  0  0  0
   -0.4208    0.8551    2.3196 N   0  0  0  0  0  0  0  0  0  0  0  0
   -1.0461    0.0552    2.2148 H   0  0  0  0  0  0  0  0  0  0  0  0
    0.2025    1.0566    3.6220 C   0  0  0  0  0  0  0  0  0  0  0  0
    0.3616    2.1233    3.8117 H   0  0  0  0  0  0  0  0  0  0  0  0
   -0.4420    0.6604    4.4123 H   0  0  0  0  0  0  0  0  0  0  0  0
    1.1678    0.5420    3.6689 H   0  0  0  0  0  0  0  0  0  0  0  0
  1  2  1  0  0  0  0
  2  3  1  0  0  0  0
  2  4  1  0  0  0  0
  2  5  1  0  0  0  0
  5  6  2  0  0  0  0
  5  7  1  0  0  0  0
  7  8  1  0  0  0  0
  7  9  1  0  0  0  0
  9 10  1  0  0  0  0
  9 11  1  0  0  0  0
  9 25  1  0  0  0  0
 11 12  1  0  0  0  0
 11 13  1  0  0  0  0
 11 14  1  0  0  0  0
 14 15  1  0  0  0  0
 14 23  2  0  0  0  0
 15 16  1  0  0  0  0
 15 17  2  0  0  0  0
 17 18  1  0  0  0  0
 17 19  1  0  0  0  0
 19 20  1  0  0  0  0
 19 21  2  0  0  0  0
 21 22  1  0  0  0  0
 21 23  1  0  0  0  0
 23 24  1  0  0  0  0
 25 26  2  0  0  0  0
 25 27  1  0  0  0  0
 27 28  1  0  0  0  0
 27 29  1  0  0  0  0
 29 30  1  0  0  0  0
 29 31  1  0  0  0  0
 29 32  1  0  0  0  0
M  END
$$$$

  -OEChem-01062216093D

 32 32  0     1  0  0  0  0  0999 V2000
   -3.6166   -2.4296    0.5624 H   0  0  0  0  0  0  0  0  0  0  0  0
   -3.4799   -1.4986    0.0048 C   0  0  0  0  0  0  0  0  0  0  0  0
   -4.2409   -0.7829    0.3253 H   0  0  0  0  0  0  0  0  0  0  0  0
   -3.6089   -1.7056   -1.0604 H   0  0  0  0  0  0  0  0  0  0  0  0
   -2.0949   -0.9334    0.2590 C   0  0  0  0  0  0  0  0  0  0  0  0
   -1.3169   -1.5563    0.9608 O   0  0  0  0  0  0  0  0  0  0  0  0
   -1.7228    0.2379   -0.3712 N   0  0  0  0  0  0  0  0  0  0  0  0
   -2.4024    0.6063   -1.0304 H   0  0  0  0  0  0  0  0  0  0  0  0
   -0.4569    1.0018   -0.2610 C   0  0  1  0  0  0  0  0  0  0  0  0
    0.3120    0.4500   -0.8111 H   0  0  0  0  0  0  0  0  0  0  0  0
   -0.7165    2.3481   -0.9789 C   0  0  0  0  0  0  0  0  0  0  0  0
   -1.5848    2.8449   -0.5336 H   0  0  0  0  0  0  0  0  0  0  0  0
    0.1361    3.0232   -0.8496 H   0  0  0  0  0  0  0  0  0  0  0  0
   -0.9175    2.1489   -2.4634 C   0  0  0  0  0  0  0  0  0  0  0  0
    0.1904    2.0004   -3.3103 C   0  0  0  0  0  0  0  0  0  0  0  0
    1.1955    2.0209   -2.8980 H   0  0  0  0  0  0  0  0  0  0  0  0
    0.0135    1.8202   -4.6860 C   0  0  0  0  0  0  0  0  0  0  0  0
    0.8782    1.7009   -5.3326 H   0  0  0  0  0  0  0  0  0  0  0  0
   -1.2747    1.7986   -5.2286 C   0  0  0  0  0  0  0  0  0  0  0  0
   -1.4112    1.6625   -6.2976 H   0  0  0  0  0  0  0  0  0  0  0  0
   -2.3852    1.9622   -4.3951 C   0  0  0  0  0  0  0  0  0  0  0  0
   -3.3852    1.9586   -4.8194 H   0  0  0  0  0  0  0  0  0  0  0  0
   -2.2071    2.1399   -3.0187 C   0  0  0  0  0  0  0  0  0  0  0  0
   -3.0775    2.2833   -2.3860 H   0  0  0  0  0  0  0  0  0  0  0  0
    0.1623    1.2640    1.1475 C   0  0  0  0  0  0  0  0  0  0  0  0
    1.0205    2.1303    1.2716 O   0  0  0  0  0  0  0  0  0  0  0  0
   -0.2173    0.5897    2.2923 N   0  0  0  0  0  0  0  0  0  0  0  0
   -0.7332   -0.2769    2.1318 H   0  0  0  0  0  0  0  0  0  0  0  0
    0.4398    0.7634    3.5819 C   0  0  0  0  0  0  0  0  0  0  0  0
    0.3727    1.8060    3.9094 H   0  0  0  0  0  0  0  0  0  0  0  0
   -0.0415    0.1343    4.3367 H   0  0  0  0  0  0  0  0  0  0  0  0
    1.4957    0.4813    3.5155 H   0  0  0  0  0  0  0  0  0  0  0  0
  1  2  1  0  0  0  0
  2  3  1  0  0  0  0
  2  4  1  0  0  0  0
  2  5  1  0  0  0  0
  5  6  2  0  0  0  0
  5  7  1  0  0  0  0
  7  8  1  0  0  0  0
  7  9  1  0  0  0  0
  9 10  1  0  0  0  0
  9 11  1  0  0  0  0
  9 25  1  0  0  0  0
 11 12  1  0  0  0  0
 11 13  1  0  0  0  0
 11 14  1  0  0  0  0
 14 15  1  0  0  0  0
 14 23  2  0  0  0  0
 15 16  1  0  0  0  0
 15 17  2  0  0  0  0
 17 18  1  0  0  0  0
 17 19  1  0  0  0  0
 19 20  1  0  0  0  0
 19 21  2  0  0  0  0
 21 22  1  0  0  0  0
 21 23  1  0  0  0  0
 23 24  1  0  0  0  0
 25 26  2  0  0  0  0
 25 27  1  0  0  0  0
 27 28  1  0  0  0  0
 27 29  1  0  0  0  0
 29 30  1  0  0  0  0
 29 31  1  0  0  0  0
 29 32  1  0  0  0  0
M  END
$$$$

  -OEChem-01062216093D

 32 32  0     1  0  0  0  0  0999 V2000
   -3.7022   -2.2956    0.6917 H   0  0  0  0  0  0  0  0  0  0  0  0
   -3.5437   -1.3817    0.1119 C   0  0  0  0  0  0  0  0  0  0  0  0
   -4.2269   -0.6117    0.4782 H   0  0  0  0  0  0  0  0  0  0  0  0
   -3.7665   -1.5883   -0.9378 H   0  0  0  0  0  0  0  0  0  0  0  0
   -2.1077   -0.9127    0.2541 C   0  0  0  0  0  0  0  0  0  0  0  0
   -1.3053   -1.6216    0.8377 O   0  0  0  0  0  0  0  0  0  0  0  0
   -1.7193    0.2573   -0.3687 N   0  0  0  0  0  0  0  0  0  0  0  0
   -2.4390    0.7026   -0.9301 H   0  0  0  0  0  0  0  0  0  0  0  0
   -0.4329    0.9894   -0.2782 C   0  0  1  0  0  0  0  0  0  0  0  0
    0.3114    0.4183   -0.8418 H   0  0  0  0  0  0  0  0  0  0  0  0
   -0.6641    2.3403   -0.9988 C   0  0  0  0  0  0  0  0  0  0  0  0
   -1.5103    2.8653   -0.5439 H   0  0  0  0  0  0  0  0  0  0  0  0
    0.2107    2.9893   -0.8861 H   0  0  0  0  0  0  0  0  0  0  0  0
   -0.8883    2.1409   -2.4801 C   0  0  0  0  0  0  0  0  0  0  0  0
    0.2037    1.9584   -3.3414 C   0  0  0  0  0  0  0  0  0  0  0  0
    1.2147    1.9546   -2.9437 H   0  0  0  0  0  0  0  0  0  0  0  0
    0.0031    1.7760   -4.7137 C   0  0  0  0  0  0  0  0  0  0  0  0
    0.8553    1.6310   -5.3713 H   0  0  0  0  0  0  0  0  0  0  0  0
   -1.2927    1.7831   -5.2382 C   0  0  0  0  0  0  0  0  0  0  0  0
   -1.4477    1.6429   -6.3041 H   0  0  0  0  0  0  0  0  0  0  0  0
   -2.3870    1.9789   -4.3903 C   0  0  0  0  0  0  0  0  0  0  0  0
   -3.3926    1.9961   -4.8002 H   0  0  0  0  0  0  0  0  0  0  0  0
   -2.1851    2.1608   -3.0178 C   0  0  0  0  0  0  0  0  0  0  0  0
   -3.0429    2.3284   -2.3741 H   0  0  0  0  0  0  0  0  0  0  0  0
    0.2128    1.2119    1.1276 C   0  0  0  0  0  0  0  0  0  0  0  0
    0.8976    2.2073    1.3334 O   0  0  0  0  0  0  0  0  0  0  0  0
    0.0561    0.3419    2.1891 N   0  0  0  0  0  0  0  0  0  0  0  0
   -0.3872   -0.5529    1.9728 H   0  0  0  0  0  0  0  0  0  0  0  0
    0.7165    0.4966    3.4792 C   0  0  0  0  0  0  0  0  0  0  0  0
    0.4497    1.4561    3.9340 H   0  0  0  0  0  0  0  0  0  0  0  0
    0.4068   -0.3037    4.1578 H   0  0  0  0  0  0  0  0  0  0  0  0
    1.8040    0.4508    3.3618 H   0  0  0  0  0  0  0  0  0  0  0  0
  1  2  1  0  0  0  0
  2  3  1  0  0  0  0
  2  4  1  0  0  0  0
  2  5  1  0  0  0  0
  5  6  2  0  0  0  0
  5  7  1  0  0  0  0
  7  8  1  0  0  0  0
  7  9  1  0  0  0  0
  9 10  1  0  0  0  0
  9 11  1  0  0  0  0
  9 25  1  0  0  0  0
 11 12  1  0  0  0  0
 11 13  1  0  0  0  0
 11 14  1  0  0  0  0
 14 15  1  0  0  0  0
 14 23  2  0  0  0  0
 15 16  1  0  0  0  0
 15 17  2  0  0  0  0
 17 18  1  0  0  0  0
 17 19  1  0  0  0  0
 19 20  1  0  0  0  0
 19 21  2  0  0  0  0
 21 22  1  0  0  0  0
 21 23  1  0  0  0  0
 23 24  1  0  0  0  0
 25 26  2  0  0  0  0
 25 27  1  0  0  0  0
 27 28  1  0  0  0  0
 27 29  1  0  0  0  0
 29 30  1  0  0  0  0
 29 31  1  0  0  0  0
 29 32  1  0  0  0  0
M  END
$$$$

  -OEChem-01062216093D

 32 32  0     1  0  0  0  0  0999 V2000
   -3.5669   -2.3729    0.7473 H   0  0  0  0  0  0  0  0  0  0  0  0
   -3.4505   -1.4528    0.1673 C   0  0  0  0  0  0  0  0  0  0  0  0
   -4.1255   -0.6954    0.5733 H   0  0  0  0  0  0  0  0  0  0  0  0
   -3.7221   -1.6547   -0.8718 H   0  0  0  0  0  0  0  0  0  0  0  0
   -2.0159   -0.9645    0.2414 C   0  0  0  0  0  0  0  0  0  0  0  0
   -1.1711   -1.6741    0.7613 O   0  0  0  0  0  0  0  0  0  0  0  0
   -1.6776    0.2224   -0.3788 N   0  0  0  0  0  0  0  0  0  0  0  0
   -2.4364    0.6759   -0.8785 H   0  0  0  0  0  0  0  0  0  0  0  0
   -0.4153    0.9942   -0.2929 C   0  0  1  0  0  0  0  0  0  0  0  0
    0.3438    0.4469   -0.8608 H   0  0  0  0  0  0  0  0  0  0  0  0
   -0.6747    2.3426   -1.0068 C   0  0  0  0  0  0  0  0  0  0  0  0
   -1.5309    2.8480   -0.5484 H   0  0  0  0  0  0  0  0  0  0  0  0
    0.1889    3.0056   -0.8867 H   0  0  0  0  0  0  0  0  0  0  0  0
   -0.8944    2.1527   -2.4898 C   0  0  0  0  0  0  0  0  0  0  0  0
    0.2019    2.0013   -3.3516 C   0  0  0  0  0  0  0  0  0  0  0  0
    1.2123    2.0123   -2.9529 H   0  0  0  0  0  0  0  0  0  0  0  0
    0.0070    1.8340   -4.7267 C   0  0  0  0  0  0  0  0  0  0  0  0
    0.8629    1.7142   -5.3848 H   0  0  0  0  0  0  0  0  0  0  0  0
   -1.2878    1.8252   -5.2535 C   0  0  0  0  0  0  0  0  0  0  0  0
   -1.4384    1.6982   -6.3216 H   0  0  0  0  0  0  0  0  0  0  0  0
   -2.3867    1.9874   -4.4047 C   0  0  0  0  0  0  0  0  0  0  0  0
   -3.3920    1.9910   -4.8159 H   0  0  0  0  0  0  0  0  0  0  0  0
   -2.1905    2.1541   -3.0292 C   0  0  0  0  0  0  0  0  0  0  0  0
   -3.0521    2.2968   -2.3844 H   0  0  0  0  0  0  0  0  0  0  0  0
    0.2184    1.2150    1.1180 C   0  0  0  0  0  0  0  0  0  0  0  0
    0.6293    2.3224    1.4463 O   0  0  0  0  0  0  0  0  0  0  0  0
    0.3413    0.2087    2.0554 N   0  0  0  0  0  0  0  0  0  0  0  0
   -0.0121   -0.7123    1.7859 H   0  0  0  0  0  0  0  0  0  0  0  0
    0.9193    0.3827    3.3817 C   0  0  0  0  0  0  0  0  0  0  0  0
    0.3488    1.1209    3.9546 H   0  0  0  0  0  0  0  0  0  0  0  0
    0.9030   -0.5661    3.9265 H   0  0  0  0  0  0  0  0  0  0  0  0
    1.9580    0.7204    3.3051 H   0  0  0  0  0  0  0  0  0  0  0  0
  1  2  1  0  0  0  0
  2  3  1  0  0  0  0
  2  4  1  0  0  0  0
  2  5  1  0  0  0  0
  5  6  2  0  0  0  0
  5  7  1  0  0  0  0
  7  8  1  0  0  0  0
  7  9  1  0  0  0  0
  9 10  1  0  0  0  0
  9 11  1  0  0  0  0
  9 25  1  0  0  0  0
 11 12  1  0  0  0  0
 11 13  1  0  0  0  0
 11 14  1  0  0  0  0
 14 15  1  0  0  0  0
 14 23  2  0  0  0  0
 15 16  1  0  0  0  0
 15 17  2  0  0  0  0
 17 18  1  0  0  0  0
 17 19  1  0  0  0  0
 19 20  1  0  0  0  0
 19 21  2  0  0  0  0
 21 22  1  0  0  0  0
 21 23  1  0  0  0  0
 23 24  1  0  0  0  0
 25 26  2  0  0  0  0
 25 27  1  0  0  0  0
 27 28  1  0  0  0  0
 27 29  1  0  0  0  0
 29 30  1  0  0  0  0
 29 31  1  0  0  0  0
 29 32  1  0  0  0  0
M  END
$$$$

  -OEChem-01062216093D

 32 32  0     1  0  0  0  0  0999 V2000
   -3.4888   -2.3652    0.8238 H   0  0  0  0  0  0  0  0  0  0  0  0
   -3.3950   -1.4485    0.2345 C   0  0  0  0  0  0  0  0  0  0  0  0
   -4.0638   -0.6929    0.6539 H   0  0  0  0  0  0  0  0  0  0  0  0
   -3.6936   -1.6594   -0.7953 H   0  0  0  0  0  0  0  0  0  0  0  0
   -1.9624   -0.9496    0.2654 C   0  0  0  0  0  0  0  0  0  0  0  0
   -1.0976   -1.6460    0.7709 O   0  0  0  0  0  0  0  0  0  0  0  0
   -1.6480    0.2330   -0.3751 N   0  0  0  0  0  0  0  0  0  0  0  0
   -2.4230    0.6897   -0.8463 H   0  0  0  0  0  0  0  0  0  0  0  0
   -0.3844    1.0016   -0.3142 C   0  0  1  0  0  0  0  0  0  0  0  0
    0.3670    0.4514   -0.8892 H   0  0  0  0  0  0  0  0  0  0  0  0
   -0.6370    2.3518   -1.0232 C   0  0  0  0  0  0  0  0  0  0  0  0
   -1.4830    2.8659   -0.5553 H   0  0  0  0  0  0  0  0  0  0  0  0
    0.2368    3.0022   -0.9059 H   0  0  0  0  0  0  0  0  0  0  0  0
   -0.8779    2.1631   -2.5032 C   0  0  0  0  0  0  0  0  0  0  0  0
    0.2048    1.9984   -3.3798 C   0  0  0  0  0  0  0  0  0  0  0  0
    1.2208    2.0005   -2.9957 H   0  0  0  0  0  0  0  0  0  0  0  0
   -0.0112    1.8277   -4.7513 C   0  0  0  0  0  0  0  0  0  0  0  0
    0.8338    1.6977   -5.4213 H   0  0  0  0  0  0  0  0  0  0  0  0
   -1.3134    1.8279   -5.2598 C   0  0  0  0  0  0  0  0  0  0  0  0
   -1.4803    1.6978   -6.3252 H   0  0  0  0  0  0  0  0  0  0  0  0
   -2.3986    2.0032   -4.3961 C   0  0  0  0  0  0  0  0  0  0  0  0
   -3.4096    2.0131   -4.7929 H   0  0  0  0  0  0  0  0  0  0  0  0
   -2.1814    2.1732   -3.0243 C   0  0  0  0  0  0  0  0  0  0  0  0
   -3.0325    2.3235   -2.3675 H   0  0  0  0  0  0  0  0  0  0  0  0
    0.2517    1.2156    1.0934 C   0  0  0  0  0  0  0  0  0  0  0  0
    0.4338    2.3467    1.5302 O   0  0  0  0  0  0  0  0  0  0  0  0
    0.6411    0.1579    1.8913 N   0  0  0  0  0  0  0  0  0  0  0  0
    0.3222   -0.7664    1.5896 H   0  0  0  0  0  0  0  0  0  0  0  0
    1.1603    0.3082    3.2445 C   0  0  0  0  0  0  0  0  0  0  0  0
    0.4138    0.7803    3.8916 H   0  0  0  0  0  0  0  0  0  0  0  0
    1.4121   -0.6717    3.6615 H   0  0  0  0  0  0  0  0  0  0  0  0
    2.0655    0.9242    3.2412 H   0  0  0  0  0  0  0  0  0  0  0  0
  1  2  1  0  0  0  0
  2  3  1  0  0  0  0
  2  4  1  0  0  0  0
  2  5  1  0  0  0  0
  5  6  2  0  0  0  0
  5  7  1  0  0  0  0
  7  8  1  0  0  0  0
  7  9  1  0  0  0  0
  9 10  1  0  0  0  0
  9 11  1  0  0  0  0
  9 25  1  0  0  0  0
 11 12  1  0  0  0  0
 11 13  1  0  0  0  0
 11 14  1  0  0  0  0
 14 15  1  0  0  0  0
 14 23  2  0  0  0  0
 15 16  1  0  0  0  0
 15 17  2  0  0  0  0
 17 18  1  0  0  0  0
 17 19  1  0  0  0  0
 19 20  1  0  0  0  0
 19 21  2  0  0  0  0
 21 22  1  0  0  0  0
 21 23  1  0  0  0  0
 23 24  1  0  0  0  0
 25 26  2  0  0  0  0
 25 27  1  0  0  0  0
 27 28  1  0  0  0  0
 27 29  1  0  0  0  0
 29 30  1  0  0  0  0
 29 31  1  0  0  0  0
 29 32  1  0  0  0  0
M  END
$$$$

  -OEChem-01062216093D

 32 32  0     1  0  0  0  0  0999 V2000
   -3.3896   -2.3649    0.9214 H   0  0  0  0  0  0  0  0  0  0  0  0
   -3.3292   -1.4611    0.3085 C   0  0  0  0  0  0  0  0  0  0  0  0
   -4.0049   -0.7097    0.7244 H   0  0  0  0  0  0  0  0  0  0  0  0
   -3.6450   -1.7028   -0.7093 H   0  0  0  0  0  0  0  0  0  0  0  0
   -1.9078   -0.9313    0.2963 C   0  0  0  0  0  0  0  0  0  0  0  0
   -1.0140   -1.5910    0.8023 O   0  0  0  0  0  0  0  0  0  0  0  0
   -1.6286    0.2409   -0.3780 N   0  0  0  0  0  0  0  0  0  0  0  0
   -2.4199    0.6922   -0.8266 H   0  0  0  0  0  0  0  0  0  0  0  0
   -0.3676    1.0100   -0.3359 C   0  0  1  0  0  0  0  0  0  0  0  0
    0.3847    0.4585   -0.9084 H   0  0  0  0  0  0  0  0  0  0  0  0
   -0.6128    2.3612   -1.0414 C   0  0  0  0  0  0  0  0  0  0  0  0
   -1.4537    2.8807   -0.5697 H   0  0  0  0  0  0  0  0  0  0  0  0
    0.2675    3.0023   -0.9211 H   0  0  0  0  0  0  0  0  0  0  0  0
   -0.8665    2.1746   -2.5192 C   0  0  0  0  0  0  0  0  0  0  0  0
    0.2082    2.0001   -3.4037 C   0  0  0  0  0  0  0  0  0  0  0  0
    1.2269    1.9947   -3.0271 H   0  0  0  0  0  0  0  0  0  0  0  0
   -0.0190    1.8302   -4.7735 C   0  0  0  0  0  0  0  0  0  0  0  0
    0.8198    1.6922   -5.4496 H   0  0  0  0  0  0  0  0  0  0  0  0
   -1.3249    1.8413   -5.2722 C   0  0  0  0  0  0  0  0  0  0  0  0
   -1.5011    1.7128   -6.3362 H   0  0  0  0  0  0  0  0  0  0  0  0
   -2.4024    2.0249   -4.4005 C   0  0  0  0  0  0  0  0  0  0  0  0
   -3.4162    2.0429   -4.7897 H   0  0  0  0  0  0  0  0  0  0  0  0
   -2.1738    2.1932   -3.0303 C   0  0  0  0  0  0  0  0  0  0  0  0
   -3.0190    2.3494   -2.3673 H   0  0  0  0  0  0  0  0  0  0  0  0
    0.2468    1.2270    1.0760 C   0  0  0  0  0  0  0  0  0  0  0  0
    0.2159    2.3308    1.6093 O   0  0  0  0  0  0  0  0  0  0  0  0
    0.8914    0.1982    1.7347 N   0  0  0  0  0  0  0  0  0  0  0  0
    0.6425   -0.7370    1.4028 H   0  0  0  0  0  0  0  0  0  0  0  0
    1.4050    0.3246    3.0926 C   0  0  0  0  0  0  0  0  0  0  0  0
    0.5908    0.5401    3.7922 H   0  0  0  0  0  0  0  0  0  0  0  0
    1.8901   -0.6069    3.3994 H   0  0  0  0  0  0  0  0  0  0  0  0
    2.1432    1.1315    3.1501 H   0  0  0  0  0  0  0  0  0  0  0  0
  1  2  1  0  0  0  0
  2  3  1  0  0  0  0
  2  4  1  0  0  0  0
  2  5  1  0  0  0  0
  5  6  2  0  0  0  0
  5  7  1  0  0  0  0
  7  8  1  0  0  0  0
  7  9  1  0  0  0  0
  9 10  1  0  0  0  0
  9 11  1  0  0  0  0
  9 25  1  0  0  0  0
 11 12  1  0  0  0  0
 11 13  1  0  0  0  0
 11 14  1  0  0  0  0
 14 15  1  0  0  0  0
 14 23  2  0  0  0  0
 15 16  1  0  0  0  0
 15 17  2  0  0  0  0
 17 18  1  0  0  0  0
 17 19  1  0  0  0  0
 19 20  1  0  0  0  0
 19 21  2  0  0  0  0
 21 22  1  0  0  0  0
 21 23  1  0  0  0  0
 23 24  1  0  0  0  0
 25 26  2  0  0  0  0
 25 27  1  0  0  0  0
 27 28  1  0  0  0  0
 27 29  1  0  0  0  0
 29 30  1  0  0  0  0
 29 31  1  0  0  0  0
 29 32  1  0  0  0  0
M  END
$$$$

  -OEChem-01062216093D

 32 32  0     1  0  0  0  0  0999 V2000
   -3.2837   -2.3716    1.0204 H   0  0  0  0  0  0  0  0  0  0  0  0
   -3.2658   -1.4763    0.3922 C   0  0  0  0  0  0  0  0  0  0  0  0
   -3.9375   -0.7308    0.8249 H   0  0  0  0  0  0  0  0  0  0  0  0
   -3.6188   -1.7398   -0.6079 H   0  0  0  0  0  0  0  0  0  0  0  0
   -1.8565   -0.9204    0.3134 C   0  0  0  0  0  0  0  0  0  0  0  0
   -0.9283   -1.5449    0.8046 O   0  0  0  0  0  0  0  0  0  0  0  0
   -1.6190    0.2410   -0.3951 N   0  0  0  0  0  0  0  0  0  0  0  0
   -2.4323    0.6978   -0.7960 H   0  0  0  0  0  0  0  0  0  0  0  0
   -0.3622    1.0127   -0.3632 C   0  0  1  0  0  0  0  0  0  0  0  0
    0.3953    0.4616   -0.9296 H   0  0  0  0  0  0  0  0  0  0  0  0
   -0.5964    2.3678   -1.0611 C   0  0  0  0  0  0  0  0  0  0  0  0
   -1.4339    2.8912   -0.5877 H   0  0  0  0  0  0  0  0  0  0  0  0
    0.2886    3.0009   -0.9347 H   0  0  0  0  0  0  0  0  0  0  0  0
   -0.8552    2.1884   -2.5385 C   0  0  0  0  0  0  0  0  0  0  0  0
    0.2149    2.0071   -3.4271 C   0  0  0  0  0  0  0  0  0  0  0  0
    1.2349    1.9914   -3.0544 H   0  0  0  0  0  0  0  0  0  0  0  0
   -0.0194    1.8403   -4.7961 C   0  0  0  0  0  0  0  0  0  0  0  0
    0.8154    1.6965   -5.4756 H   0  0  0  0  0  0  0  0  0  0  0  0
   -1.3274    1.8604   -5.2894 C   0  0  0  0  0  0  0  0  0  0  0  0
   -1.5089    1.7319   -6.3526 H   0  0  0  0  0  0  0  0  0  0  0  0
   -2.4000    2.0523   -4.4133 C   0  0  0  0  0  0  0  0  0  0  0  0
   -3.4155    2.0772   -4.7975 H   0  0  0  0  0  0  0  0  0  0  0  0
   -2.1642    2.2186   -3.0443 C   0  0  0  0  0  0  0  0  0  0  0  0
   -3.0044    2.3794   -2.3763 H   0  0  0  0  0  0  0  0  0  0  0  0
    0.2187    1.2317    1.0582 C   0  0  0  0  0  0  0  0  0  0  0  0
   -0.0260    2.2589    1.6817 O   0  0  0  0  0  0  0  0  0  0  0  0
    1.1023    0.3144    1.5936 N   0  0  0  0  0  0  0  0  0  0  0  0
    0.9992   -0.6273    1.2123 H   0  0  0  0  0  0  0  0  0  0  0  0
    1.6251    0.4361    2.9483 C   0  0  0  0  0  0  0  0  0  0  0  0
    0.8101    0.3950    3.6784 H   0  0  0  0  0  0  0  0  0  0  0  0
    2.3221   -0.3811    3.1573 H   0  0  0  0  0  0  0  0  0  0  0  0
    2.1601    1.3838    3.0697 H   0  0  0  0  0  0  0  0  0  0  0  0
  1  2  1  0  0  0  0
  2  3  1  0  0  0  0
  2  4  1  0  0  0  0
  2  5  1  0  0  0  0
  5  6  2  0  0  0  0
  5  7  1  0  0  0  0
  7  8  1  0  0  0  0
  7  9  1  0  0  0  0
  9 10  1  0  0  0  0
  9 11  1  0  0  0  0
  9 25  1  0  0  0  0
 11 12  1  0  0  0  0
 11 13  1  0  0  0  0
 11 14  1  0  0  0  0
 14 15  1  0  0  0  0
 14 23  2  0  0  0  0
 15 16  1  0  0  0  0
 15 17  2  0  0  0  0
 17 18  1  0  0  0  0
 17 19  1  0  0  0  0
 19 20  1  0  0  0  0
 19 21  2  0  0  0  0
 21 22  1  0  0  0  0
 21 23  1  0  0  0  0
 23 24  1  0  0  0  0
 25 26  2  0  0  0  0
 25 27  1  0  0  0  0
 27 28  1  0  0  0  0
 27 29  1  0  0  0  0
 29 30  1  0  0  0  0
 29 31  1  0  0  0  0
 29 32  1  0  0  0  0
M  END
$$$$

  -OEChem-01062216093D

 32 32  0     1  0  0  0  0  0999 V2000
   -3.2039   -2.3668    1.1145 H   0  0  0  0  0  0  0  0  0  0  0  0
   -3.2208   -1.4754    0.4813 C   0  0  0  0  0  0  0  0  0  0  0  0
   -3.8656   -0.7264    0.9474 H   0  0  0  0  0  0  0  0  0  0  0  0
   -3.6303   -1.7442   -0.4955 H   0  0  0  0  0  0  0  0  0  0  0  0
   -1.8175   -0.9223    0.3200 C   0  0  0  0  0  0  0  0  0  0  0  0
   -0.8641   -1.5306    0.7835 O   0  0  0  0  0  0  0  0  0  0  0  0
   -1.6133    0.2278   -0.4169 N   0  0  0  0  0  0  0  0  0  0  0  0
   -2.4462    0.7020   -0.7510 H   0  0  0  0  0  0  0  0  0  0  0  0
   -0.3608    1.0033   -0.3910 C   0  0  1  0  0  0  0  0  0  0  0  0
    0.4000    0.4526   -0.9526 H   0  0  0  0  0  0  0  0  0  0  0  0
   -0.5897    2.3605   -1.0826 C   0  0  0  0  0  0  0  0  0  0  0  0
   -1.4267    2.8835   -0.6077 H   0  0  0  0  0  0  0  0  0  0  0  0
    0.2969    2.9897   -0.9498 H   0  0  0  0  0  0  0  0  0  0  0  0
   -0.8510    2.1913   -2.5606 C   0  0  0  0  0  0  0  0  0  0  0  0
    0.2185    2.0105   -3.4503 C   0  0  0  0  0  0  0  0  0  0  0  0
    1.2382    1.9870   -3.0775 H   0  0  0  0  0  0  0  0  0  0  0  0
   -0.0156    1.8572   -4.8209 C   0  0  0  0  0  0  0  0  0  0  0  0
    0.8189    1.7149   -5.5014 H   0  0  0  0  0  0  0  0  0  0  0  0
   -1.3230    1.8896   -5.3146 C   0  0  0  0  0  0  0  0  0  0  0  0
   -1.5050    1.7726   -6.3790 H   0  0  0  0  0  0  0  0  0  0  0  0
   -2.3950    2.0794   -4.4373 C   0  0  0  0  0  0  0  0  0  0  0  0
   -3.4101    2.1130   -4.8219 H   0  0  0  0  0  0  0  0  0  0  0  0
   -2.1595    2.2319   -3.0666 C   0  0  0  0  0  0  0  0  0  0  0  0
   -2.9997    2.3904   -2.3979 H   0  0  0  0  0  0  0  0  0  0  0  0
    0.1959    1.2315    1.0356 C   0  0  0  0  0  0  0  0  0  0  0  0
   -0.2690    2.1164    1.7460 O   0  0  0  0  0  0  0  0  0  0  0  0
    1.2906    0.5102    1.4735 N   0  0  0  0  0  0  0  0  0  0  0  0
    1.4310   -0.3774    0.9944 H   0  0  0  0  0  0  0  0  0  0  0  0
    1.8043    0.6304    2.8320 C   0  0  0  0  0  0  0  0  0  0  0  0
    1.0489    0.3077    3.5559 H   0  0  0  0  0  0  0  0  0  0  0  0
    2.6941    0.0060    2.9550 H   0  0  0  0  0  0  0  0  0  0  0  0
    2.0802    1.6678    3.0485 H   0  0  0  0  0  0  0  0  0  0  0  0
  1  2  1  0  0  0  0
  2  3  1  0  0  0  0
  2  4  1  0  0  0  0
  2  5  1  0  0  0  0
  5  6  2  0  0  0  0
  5  7  1  0  0  0  0
  7  8  1  0  0  0  0
  7  9  1  0  0  0  0
  9 10  1  0  0  0  0
  9 11  1  0  0  0  0
  9 25  1  0  0  0  0
 11 12  1  0  0  0  0
 11 13  1  0  0  0  0
 11 14  1  0  0  0  0
 14 15  1  0  0  0  0
 14 23  2  0  0  0  0
 15 16  1  0  0  0  0
 15 17  2  0  0  0  0
 17 18  1  0  0  0  0
 17 19  1  0  0  0  0
 19 20  1  0  0  0  0
 19 21  2  0  0  0  0
 21 22  1  0  0  0  0
 21 23  1  0  0  0  0
 23 24  1  0  0  0  0
 25 26  2  0  0  0  0
 25 27  1  0  0  0  0
 27 28  1  0  0  0  0
 27 29  1  0  0  0  0
 29 30  1  0  0  0  0
 29 31  1  0  0  0  0
 29 32  1  0  0  0  0
M  END
$$$$

  -OEChem-01062216093D

 32 32  0     1  0  0  0  0  0999 V2000
   -3.1707   -2.3555    1.1706 H   0  0  0  0  0  0  0  0  0  0  0  0
   -3.2021   -1.4695    0.5304 C   0  0  0  0  0  0  0  0  0  0  0  0
   -3.8233   -0.7106    1.0122 H   0  0  0  0  0  0  0  0  0  0  0  0
   -3.6483   -1.7426   -0.4287 H   0  0  0  0  0  0  0  0  0  0  0  0
   -1.8004   -0.9308    0.3162 C   0  0  0  0  0  0  0  0  0  0  0  0
   -0.8365   -1.5402    0.7560 O   0  0  0  0  0  0  0  0  0  0  0  0
   -1.6113    0.2114   -0.4368 N   0  0  0  0  0  0  0  0  0  0  0  0
   -2.4536    0.6996   -0.7234 H   0  0  0  0  0  0  0  0  0  0  0  0
   -0.3614    0.9901   -0.4091 C   0  0  1  0  0  0  0  0  0  0  0  0
    0.4025    0.4385   -0.9654 H   0  0  0  0  0  0  0  0  0  0  0  0
   -0.5877    2.3500   -1.0934 C   0  0  0  0  0  0  0  0  0  0  0  0
   -1.4252    2.8698   -0.6158 H   0  0  0  0  0  0  0  0  0  0  0  0
    0.2987    2.9785   -0.9555 H   0  0  0  0  0  0  0  0  0  0  0  0
   -0.8479    2.1902   -2.5726 C   0  0  0  0  0  0  0  0  0  0  0  0
    0.2212    2.0134   -3.4636 C   0  0  0  0  0  0  0  0  0  0  0  0
    1.2408    1.9848   -3.0913 H   0  0  0  0  0  0  0  0  0  0  0  0
   -0.0135    1.8705   -4.8353 C   0  0  0  0  0  0  0  0  0  0  0  0
    0.8201    1.7309   -5.5172 H   0  0  0  0  0  0  0  0  0  0  0  0
   -1.3211    1.9091   -5.3286 C   0  0  0  0  0  0  0  0  0  0  0  0
   -1.5037    1.7994   -6.3936 H   0  0  0  0  0  0  0  0  0  0  0  0
   -2.3926    2.0936   -4.4498 C   0  0  0  0  0  0  0  0  0  0  0  0
   -3.4080    2.1307   -4.8334 H   0  0  0  0  0  0  0  0  0  0  0  0
   -2.1565    2.2355   -3.0781 C   0  0  0  0  0  0  0  0  0  0  0  0
   -2.9966    2.3883   -2.4078 H   0  0  0  0  0  0  0  0  0  0  0  0
    0.1792    1.2291    1.0205 C   0  0  0  0  0  0  0  0  0  0  0  0
   -0.4553    1.9282    1.8032 O   0  0  0  0  0  0  0  0  0  0  0  0
    1.4306    0.7645    1.3806 N   0  0  0  0  0  0  0  0  0  0  0  0
    1.8064    0.0196    0.8000 H   0  0  0  0  0  0  0  0  0  0  0  0
    1.9499    0.9009    2.7355 C   0  0  0  0  0  0  0  0  0  0  0  0
    1.3143    0.3598    3.4442 H   0  0  0  0  0  0  0  0  0  0  0  0
    2.9633    0.4927    2.7943 H   0  0  0  0  0  0  0  0  0  0  0  0
    1.9867    1.9553    3.0286 H   0  0  0  0  0  0  0  0  0  0  0  0
  1  2  1  0  0  0  0
  2  3  1  0  0  0  0
  2  4  1  0  0  0  0
  2  5  1  0  0  0  0
  5  6  2  0  0  0  0
  5  7  1  0  0  0  0
  7  8  1  0  0  0  0
  7  9  1  0  0  0  0
  9 10  1  0  0  0  0
  9 11  1  0  0  0  0
  9 25  1  0  0  0  0
 11 12  1  0  0  0  0
 11 13  1  0  0  0  0
 11 14  1  0  0  0  0
 14 15  1  0  0  0  0
 14 23  2  0  0  0  0
 15 16  1  0  0  0  0
 15 17  2  0  0  0  0
 17 18  1  0  0  0  0
 17 19  1  0  0  0  0
 19 20  1  0  0  0  0
 19 21  2  0  0  0  0
 21 22  1  0  0  0  0
 21 23  1  0  0  0  0
 23 24  1  0  0  0  0
 25 26  2  0  0  0  0
 25 27  1  0  0  0  0
 27 28  1  0  0  0  0
 27 29  1  0  0  0  0
 29 30  1  0  0  0  0
 29 31  1  0  0  0  0
 29 32  1  0  0  0  0
M  END
$$$$

  -OEChem-01062216093D

 32 32  0     1  0  0  0  0  0999 V2000
   -3.1645   -2.3565    1.1856 H   0  0  0  0  0  0  0  0  0  0  0  0
   -3.2024   -1.4700    0.5464 C   0  0  0  0  0  0  0  0  0  0  0  0
   -3.8093   -0.7072    1.0399 H   0  0  0  0  0  0  0  0  0  0  0  0
   -3.6678   -1.7396   -0.4046 H   0  0  0  0  0  0  0  0  0  0  0  0
   -1.8015   -0.9402    0.3067 C   0  0  0  0  0  0  0  0  0  0  0  0
   -0.8336   -1.5607    0.7215 O   0  0  0  0  0  0  0  0  0  0  0  0
   -1.6167    0.1996   -0.4516 N   0  0  0  0  0  0  0  0  0  0  0  0
   -2.4623    0.6990   -0.7070 H   0  0  0  0  0  0  0  0  0  0  0  0
   -0.3666    0.9788   -0.4150 C   0  0  1  0  0  0  0  0  0  0  0  0
    0.4006    0.4270   -0.9669 H   0  0  0  0  0  0  0  0  0  0  0  0
   -0.5900    2.3424   -1.0908 C   0  0  0  0  0  0  0  0  0  0  0  0
   -1.4281    2.8600   -0.6120 H   0  0  0  0  0  0  0  0  0  0  0  0
    0.2966    2.9695   -0.9475 H   0  0  0  0  0  0  0  0  0  0  0  0
   -0.8454    2.1903   -2.5713 C   0  0  0  0  0  0  0  0  0  0  0  0
    0.2251    2.0175   -3.4614 C   0  0  0  0  0  0  0  0  0  0  0  0
    1.2444    1.9884   -3.0887 H   0  0  0  0  0  0  0  0  0  0  0  0
   -0.0083    1.8760   -4.8336 C   0  0  0  0  0  0  0  0  0  0  0  0
    0.8259    1.7368   -5.5149 H   0  0  0  0  0  0  0  0  0  0  0  0
   -1.3152    1.9153   -5.3286 C   0  0  0  0  0  0  0  0  0  0  0  0
   -1.4968    1.8072   -6.3940 H   0  0  0  0  0  0  0  0  0  0  0  0
   -2.3878    2.0978   -4.4507 C   0  0  0  0  0  0  0  0  0  0  0  0
   -3.4028    2.1351   -4.8353 H   0  0  0  0  0  0  0  0  0  0  0  0
   -2.1533    2.2358   -3.0784 C   0  0  0  0  0  0  0  0  0  0  0  0
   -2.9946    2.3842   -2.4086 H   0  0  0  0  0  0  0  0  0  0  0  0
    0.1639    1.2226    1.0171 C   0  0  0  0  0  0  0  0  0  0  0  0
   -0.5713    1.7270    1.8594 O   0  0  0  0  0  0  0  0  0  0  0  0
    1.5048    1.0453    1.3053 N   0  0  0  0  0  0  0  0  0  0  0  0
    2.0385    0.4888    0.6442 H   0  0  0  0  0  0  0  0  0  0  0  0
    2.0469    1.2308    2.6456 C   0  0  0  0  0  0  0  0  0  0  0  0
    1.5706    0.5398    3.3493 H   0  0  0  0  0  0  0  0  0  0  0  0
    3.1245    1.0411    2.6471 H   0  0  0  0  0  0  0  0  0  0  0  0
    1.8780    2.2566    2.9898 H   0  0  0  0  0  0  0  0  0  0  0  0
  1  2  1  0  0  0  0
  2  3  1  0  0  0  0
  2  4  1  0  0  0  0
  2  5  1  0  0  0  0
  5  6  2  0  0  0  0
  5  7  1  0  0  0  0
  7  8  1  0  0  0  0
  7  9  1  0  0  0  0
  9 10  1  0  0  0  0
  9 11  1  0  0  0  0
  9 25  1  0  0  0  0
 11 12  1  0  0  0  0
 11 13  1  0  0  0  0
 11 14  1  0  0  0  0
 14 15  1  0  0  0  0
 14 23  2  0  0  0  0
 15 16  1  0  0  0  0
 15 17  2  0  0  0  0
 17 18  1  0  0  0  0
 17 19  1  0  0  0  0
 19 20  1  0  0  0  0
 19 21  2  0  0  0  0
 21 22  1  0  0  0  0
 21 23  1  0  0  0  0
 23 24  1  0  0  0  0
 25 26  2  0  0  0  0
 25 27  1  0  0  0  0
 27 28  1  0  0  0  0
 27 29  1  0  0  0  0
 29 30  1  0  0  0  0
 29 31  1  0  0  0  0
 29 32  1  0  0  0  0
M  END
$$$$

  -OEChem-01062216093D

 32 32  0     1  0  0  0  0  0999 V2000
   -3.1732   -2.3543    1.2011 H   0  0  0  0  0  0  0  0  0  0  0  0
   -3.2116   -1.4656    0.5652 C   0  0  0  0  0  0  0  0  0  0  0  0
   -3.7910   -0.6930    1.0763 H   0  0  0  0  0  0  0  0  0  0  0  0
   -3.7060   -1.7238   -0.3740 H   0  0  0  0  0  0  0  0  0  0  0  0
   -1.8081   -0.9604    0.2907 C   0  0  0  0  0  0  0  0  0  0  0  0
   -0.8404   -1.6028    0.6715 O   0  0  0  0  0  0  0  0  0  0  0  0
   -1.6234    0.1808   -0.4657 N   0  0  0  0  0  0  0  0  0  0  0  0
   -2.4697    0.6923   -0.6922 H   0  0  0  0  0  0  0  0  0  0  0  0
   -0.3723    0.9583   -0.4140 C   0  0  1  0  0  0  0  0  0  0  0  0
    0.3989    0.4076   -0.9614 H   0  0  0  0  0  0  0  0  0  0  0  0
   -0.5979    2.3253   -1.0832 C   0  0  0  0  0  0  0  0  0  0  0  0
   -1.4407    2.8345   -0.6034 H   0  0  0  0  0  0  0  0  0  0  0  0
    0.2837    2.9572   -0.9336 H   0  0  0  0  0  0  0  0  0  0  0  0
   -0.8454    2.1833   -2.5662 C   0  0  0  0  0  0  0  0  0  0  0  0
    0.2302    2.0214   -3.4523 C   0  0  0  0  0  0  0  0  0  0  0  0
    1.2478    1.9919   -3.0752 H   0  0  0  0  0  0  0  0  0  0  0  0
    0.0045    1.8917   -4.8269 C   0  0  0  0  0  0  0  0  0  0  0  0
    0.8427    1.7614   -5.5052 H   0  0  0  0  0  0  0  0  0  0  0  0
   -1.2999    1.9304   -5.3285 C   0  0  0  0  0  0  0  0  0  0  0  0
   -1.4754    1.8303   -6.3957 H   0  0  0  0  0  0  0  0  0  0  0  0
   -2.3777    2.1009   -4.4545 C   0  0  0  0  0  0  0  0  0  0  0  0
   -3.3910    2.1367   -4.8437 H   0  0  0  0  0  0  0  0  0  0  0  0
   -2.1507    2.2287   -3.0799 C   0  0  0  0  0  0  0  0  0  0  0  0
   -2.9957    2.3681   -2.4129 H   0  0  0  0  0  0  0  0  0  0  0  0
    0.1538    1.2032    1.0204 C   0  0  0  0  0  0  0  0  0  0  0  0
   -0.6297    1.5046    1.9148 O   0  0  0  0  0  0  0  0  0  0  0  0
    1.5125    1.3288    1.2492 N   0  0  0  0  0  0  0  0  0  0  0  0
    2.1346    0.9885    0.5224 H   0  0  0  0  0  0  0  0  0  0  0  0
    2.0674    1.5952    2.5705 C   0  0  0  0  0  0  0  0  0  0  0  0
    1.7865    0.8012    3.2704 H   0  0  0  0  0  0  0  0  0  0  0  0
    3.1593    1.6433    2.5197 H   0  0  0  0  0  0  0  0  0  0  0  0
    1.6984    2.5517    2.9555 H   0  0  0  0  0  0  0  0  0  0  0  0
  1  2  1  0  0  0  0
  2  3  1  0  0  0  0
  2  4  1  0  0  0  0
  2  5  1  0  0  0  0
  5  6  2  0  0  0  0
  5  7  1  0  0  0  0
  7  8  1  0  0  0  0
  7  9  1  0  0  0  0
  9 10  1  0  0  0  0
  9 11  1  0  0  0  0
  9 25  1  0  0  0  0
 11 12  1  0  0  0  0
 11 13  1  0  0  0  0
 11 14  1  0  0  0  0
 14 15  1  0  0  0  0
 14 23  2  0  0  0  0
 15 16  1  0  0  0  0
 15 17  2  0  0  0  0
 17 18  1  0  0  0  0
 17 19  1  0  0  0  0
 19 20  1  0  0  0  0
 19 21  2  0  0  0  0
 21 22  1  0  0  0  0
 21 23  1  0  0  0  0
 23 24  1  0  0  0  0
 25 26  2  0  0  0  0
 25 27  1  0  0  0  0
 27 28  1  0  0  0  0
 27 29  1  0  0  0  0
 29 30  1  0  0  0  0
 29 31  1  0  0  0  0
 29 32  1  0  0  0  0
M  END
$$$$

  -OEChem-01062216093D

 32 32  0     1  0  0  0  0  0999 V2000
   -3.1823   -2.3429    1.2259 H   0  0  0  0  0  0  0  0  0  0  0  0
   -3.2214   -1.4605    0.5812 C   0  0  0  0  0  0  0  0  0  0  0  0
   -3.7793   -0.6750    1.0967 H   0  0  0  0  0  0  0  0  0  0  0  0
   -3.7384   -1.7209   -0.3452 H   0  0  0  0  0  0  0  0  0  0  0  0
   -1.8165   -0.9788    0.2735 C   0  0  0  0  0  0  0  0  0  0  0  0
   -0.8514   -1.6476    0.6131 O   0  0  0  0  0  0  0  0  0  0  0  0
   -1.6286    0.1671   -0.4756 N   0  0  0  0  0  0  0  0  0  0  0  0
   -2.4739    0.6907   -0.6757 H   0  0  0  0  0  0  0  0  0  0  0  0
   -0.3746    0.9404   -0.4083 C   0  0  1  0  0  0  0  0  0  0  0  0
    0.3984    0.3917   -0.9554 H   0  0  0  0  0  0  0  0  0  0  0  0
   -0.6058    2.3090   -1.0750 C   0  0  0  0  0  0  0  0  0  0  0  0
   -1.4542    2.8104   -0.5970 H   0  0  0  0  0  0  0  0  0  0  0  0
    0.2696    2.9482   -0.9211 H   0  0  0  0  0  0  0  0  0  0  0  0
   -0.8458    2.1752   -2.5600 C   0  0  0  0  0  0  0  0  0  0  0  0
    0.2348    2.0255   -3.4423 C   0  0  0  0  0  0  0  0  0  0  0  0
    1.2510    1.9967   -3.0612 H   0  0  0  0  0  0  0  0  0  0  0  0
    0.0167    1.9108   -4.8196 C   0  0  0  0  0  0  0  0  0  0  0  0
    0.8591    1.7941   -5.4953 H   0  0  0  0  0  0  0  0  0  0  0  0
   -1.2854    1.9475   -5.3271 C   0  0  0  0  0  0  0  0  0  0  0  0
   -1.4551    1.8595   -6.3963 H   0  0  0  0  0  0  0  0  0  0  0  0
   -2.3683    2.0999   -4.4564 C   0  0  0  0  0  0  0  0  0  0  0  0
   -3.3801    2.1313   -4.8499 H   0  0  0  0  0  0  0  0  0  0  0  0
   -2.1489    2.2155   -3.0796 C   0  0  0  0  0  0  0  0  0  0  0  0
   -2.9985    2.3414   -2.4159 H   0  0  0  0  0  0  0  0  0  0  0  0
    0.1552    1.1826    1.0282 C   0  0  0  0  0  0  0  0  0  0  0  0
   -0.6273    1.2834    1.9676 O   0  0  0  0  0  0  0  0  0  0  0  0
    1.4593    1.6081    1.2153 N   0  0  0  0  0  0  0  0  0  0  0  0
    2.1027    1.4856    0.4396 H   0  0  0  0  0  0  0  0  0  0  0  0
    2.0010    1.9558    2.5236 C   0  0  0  0  0  0  0  0  0  0  0  0
    1.9287    1.1031    3.2070 H   0  0  0  0  0  0  0  0  0  0  0  0
    3.0538    2.2396    2.4334 H   0  0  0  0  0  0  0  0  0  0  0  0
    1.4521    2.8000    2.9538 H   0  0  0  0  0  0  0  0  0  0  0  0
  1  2  1  0  0  0  0
  2  3  1  0  0  0  0
  2  4  1  0  0  0  0
  2  5  1  0  0  0  0
  5  6  2  0  0  0  0
  5  7  1  0  0  0  0
  7  8  1  0  0  0  0
  7  9  1  0  0  0  0
  9 10  1  0  0  0  0
  9 11  1  0  0  0  0
  9 25  1  0  0  0  0
 11 12  1  0  0  0  0
 11 13  1  0  0  0  0
 11 14  1  0  0  0  0
 14 15  1  0  0  0  0
 14 23  2  0  0  0  0
 15 16  1  0  0  0  0
 15 17  2  0  0  0  0
 17 18  1  0  0  0  0
 17 19  1  0  0  0  0
 19 20  1  0  0  0  0
 19 21  2  0  0  0  0
 21 22  1  0  0  0  0
 21 23  1  0  0  0  0
 23 24  1  0  0  0  0
 25 26  2  0  0  0  0
 25 27  1  0  0  0  0
 27 28  1  0  0  0  0
 27 29  1  0  0  0  0
 29 30  1  0  0  0  0
 29 31  1  0  0  0  0
 29 32  1  0  0  0  0
M  END
$$$$

  -OEChem-01062216093D

 32 32  0     1  0  0  0  0  0999 V2000
   -3.2731   -2.3682    1.0844 H   0  0  0  0  0  0  0  0  0  0  0  0
   -3.2726   -1.4215    0.5370 C   0  0  0  0  0  0  0  0  0  0  0  0
   -3.7276   -0.6531    1.1665 H   0  0  0  0  0  0  0  0  0  0  0  0
   -3.8644   -1.5388   -0.3737 H   0  0  0  0  0  0  0  0  0  0  0  0
   -1.8514   -1.0239    0.1862 C   0  0  0  0  0  0  0  0  0  0  0  0
   -0.9363   -1.8145    0.3596 O   0  0  0  0  0  0  0  0  0  0  0  0
   -1.6147    0.1504   -0.5034 N   0  0  0  0  0  0  0  0  0  0  0  0
   -2.4474    0.6996   -0.6856 H   0  0  0  0  0  0  0  0  0  0  0  0
   -0.3573    0.9202   -0.3939 C   0  0  1  0  0  0  0  0  0  0  0  0
    0.3334    0.5460   -1.1556 H   0  0  0  0  0  0  0  0  0  0  0  0
   -0.7069    2.3946   -0.6898 C   0  0  0  0  0  0  0  0  0  0  0  0
   -1.4990    2.7255   -0.0094 H   0  0  0  0  0  0  0  0  0  0  0  0
    0.1589    3.0367   -0.5018 H   0  0  0  0  0  0  0  0  0  0  0  0
   -1.1304    2.5909   -2.1270 C   0  0  0  0  0  0  0  0  0  0  0  0
   -0.1664    2.7049   -3.1404 C   0  0  0  0  0  0  0  0  0  0  0  0
    0.8900    2.6389   -2.9000 H   0  0  0  0  0  0  0  0  0  0  0  0
   -0.5534    2.8975   -4.4708 C   0  0  0  0  0  0  0  0  0  0  0  0
    0.1994    2.9788   -5.2497 H   0  0  0  0  0  0  0  0  0  0  0  0
   -1.9093    2.9858   -4.7991 C   0  0  0  0  0  0  0  0  0  0  0  0
   -2.2099    3.1356   -5.8322 H   0  0  0  0  0  0  0  0  0  0  0  0
   -2.8772    2.8842   -3.7956 C   0  0  0  0  0  0  0  0  0  0  0  0
   -3.9305    2.9590   -4.0499 H   0  0  0  0  0  0  0  0  0  0  0  0
   -2.4892    2.6904   -2.4655 C   0  0  0  0  0  0  0  0  0  0  0  0
   -3.2524    2.6245   -1.6964 H   0  0  0  0  0  0  0  0  0  0  0  0
    0.4019    0.8542    0.9638 C   0  0  0  0  0  0  0  0  0  0  0  0
   -0.1878    0.5756    2.0021 O   0  0  0  0  0  0  0  0  0  0  0  0
    1.5897    1.5547    1.1075 N   0  0  0  0  0  0  0  0  0  0  0  0
    2.0729    1.8299    0.2583 H   0  0  0  0  0  0  0  0  0  0  0  0
    2.2740    1.7234    2.3850 C   0  0  0  0  0  0  0  0  0  0  0  0
    2.4904    0.7486    2.8352 H   0  0  0  0  0  0  0  0  0  0  0  0
    3.2192    2.2553    2.2406 H   0  0  0  0  0  0  0  0  0  0  0  0
    1.6549    2.3023    3.0785 H   0  0  0  0  0  0  0  0  0  0  0  0
  1  2  1  0  0  0  0
  2  3  1  0  0  0  0
  2  4  1  0  0  0  0
  2  5  1  0  0  0  0
  5  6  2  0  0  0  0
  5  7  1  0  0  0  0
  7  8  1  0  0  0  0
  7  9  1  0  0  0  0
  9 10  1  0  0  0  0
  9 11  1  0  0  0  0
  9 25  1  0  0  0  0
 11 12  1  0  0  0  0
 11 13  1  0  0  0  0
 11 14  1  0  0  0  0
 14 15  1  0  0  0  0
 14 23  2  0  0  0  0
 15 16  1  0  0  0  0
 15 17  2  0  0  0  0
 17 18  1  0  0  0  0
 17 19  1  0  0  0  0
 19 20  1  0  0  0  0
 19 21  2  0  0  0  0
 21 22  1  0  0  0  0
 21 23  1  0  0  0  0
 23 24  1  0  0  0  0
 25 26  2  0  0  0  0
 25 27  1  0  0  0  0
 27 28  1  0  0  0  0
 27 29  1  0  0  0  0
 29 30  1  0  0  0  0
 29 31  1  0  0  0  0
 29 32  1  0  0  0  0
M  END
$$$$

  -OEChem-01062216093D

 32 32  0     1  0  0  0  0  0999 V2000
   -3.2740   -2.3153    1.1210 H   0  0  0  0  0  0  0  0  0  0  0  0
   -3.2732   -1.3901    0.5382 C   0  0  0  0  0  0  0  0  0  0  0  0
   -3.7162   -0.5961    1.1441 H   0  0  0  0  0  0  0  0  0  0  0  0
   -3.8753   -1.5366   -0.3614 H   0  0  0  0  0  0  0  0  0  0  0  0
   -1.8526   -1.0188    0.1573 C   0  0  0  0  0  0  0  0  0  0  0  0
   -0.9627   -1.8506    0.2420 O   0  0  0  0  0  0  0  0  0  0  0  0
   -1.6056    0.1704   -0.5016 N   0  0  0  0  0  0  0  0  0  0  0  0
   -2.4373    0.7264   -0.6656 H   0  0  0  0  0  0  0  0  0  0  0  0
   -0.3490    0.9430   -0.3804 C   0  0  1  0  0  0  0  0  0  0  0  0
    0.3409    0.5782   -1.1475 H   0  0  0  0  0  0  0  0  0  0  0  0
   -0.7269    2.4120   -0.6866 C   0  0  0  0  0  0  0  0  0  0  0  0
   -1.5289    2.7313   -0.0124 H   0  0  0  0  0  0  0  0  0  0  0  0
    0.1209    3.0783   -0.5066 H   0  0  0  0  0  0  0  0  0  0  0  0
   -1.1445    2.5910   -2.1277 C   0  0  0  0  0  0  0  0  0  0  0  0
   -0.1760    2.7184   -3.1350 C   0  0  0  0  0  0  0  0  0  0  0  0
    0.8802    2.6743   -2.8872 H   0  0  0  0  0  0  0  0  0  0  0  0
   -0.5581    2.8948   -4.4690 C   0  0  0  0  0  0  0  0  0  0  0  0
    0.1980    2.9855   -5.2434 H   0  0  0  0  0  0  0  0  0  0  0  0
   -1.9133    2.9544   -4.8068 C   0  0  0  0  0  0  0  0  0  0  0  0
   -2.2100    3.0919   -5.8427 H   0  0  0  0  0  0  0  0  0  0  0  0
   -2.8858    2.8412   -3.8093 C   0  0  0  0  0  0  0  0  0  0  0  0
   -3.9387    2.8941   -4.0707 H   0  0  0  0  0  0  0  0  0  0  0  0
   -2.5028    2.6633   -2.4756 C   0  0  0  0  0  0  0  0  0  0  0  0
   -3.2700    2.5885   -1.7114 H   0  0  0  0  0  0  0  0  0  0  0  0
    0.4360    0.8702    0.9696 C   0  0  0  0  0  0  0  0  0  0  0  0
   -0.0248    0.3165    1.9597 O   0  0  0  0  0  0  0  0  0  0  0  0
    1.4335    1.7988    1.2306 N   0  0  0  0  0  0  0  0  0  0  0  0
    1.8080    2.3142    0.4406 H   0  0  0  0  0  0  0  0  0  0  0  0
    2.0842    1.9473    2.5289 C   0  0  0  0  0  0  0  0  0  0  0  0
    2.5300    0.9982    2.8454 H   0  0  0  0  0  0  0  0  0  0  0  0
    2.8773    2.6988    2.4708 H   0  0  0  0  0  0  0  0  0  0  0  0
    1.3606    2.2669    3.2862 H   0  0  0  0  0  0  0  0  0  0  0  0
  1  2  1  0  0  0  0
  2  3  1  0  0  0  0
  2  4  1  0  0  0  0
  2  5  1  0  0  0  0
  5  6  2  0  0  0  0
  5  7  1  0  0  0  0
  7  8  1  0  0  0  0
  7  9  1  0  0  0  0
  9 10  1  0  0  0  0
  9 11  1  0  0  0  0
  9 25  1  0  0  0  0
 11 12  1  0  0  0  0
 11 13  1  0  0  0  0
 11 14  1  0  0  0  0
 14 15  1  0  0  0  0
 14 23  2  0  0  0  0
 15 16  1  0  0  0  0
 15 17  2  0  0  0  0
 17 18  1  0  0  0  0
 17 19  1  0  0  0  0
 19 20  1  0  0  0  0
 19 21  2  0  0  0  0
 21 22  1  0  0  0  0
 21 23  1  0  0  0  0
 23 24  1  0  0  0  0
 25 26  2  0  0  0  0
 25 27  1  0  0  0  0
 27 28  1  0  0  0  0
 27 29  1  0  0  0  0
 29 30  1  0  0  0  0
 29 31  1  0  0  0  0
 29 32  1  0  0  0  0
M  END
$$$$

  -OEChem-01062216093D

 32 32  0     1  0  0  0  0  0999 V2000
   -3.2475   -2.3211    1.1180 H   0  0  0  0  0  0  0  0  0  0  0  0
   -3.2531   -1.3644    0.5881 C   0  0  0  0  0  0  0  0  0  0  0  0
   -3.6307   -0.5936    1.2638 H   0  0  0  0  0  0  0  0  0  0  0  0
   -3.9149   -1.4418   -0.2777 H   0  0  0  0  0  0  0  0  0  0  0  0
   -1.8474   -1.0136    0.1389 C   0  0  0  0  0  0  0  0  0  0  0  0
   -0.9879   -1.8792    0.1172 O   0  0  0  0  0  0  0  0  0  0  0  0
   -1.6098    0.1912   -0.4943 N   0  0  0  0  0  0  0  0  0  0  0  0
   -2.4499    0.7418   -0.6295 H   0  0  0  0  0  0  0  0  0  0  0  0
   -0.3680    0.9883   -0.3635 C   0  0  1  0  0  0  0  0  0  0  0  0
    0.3294    0.6308   -1.1278 H   0  0  0  0  0  0  0  0  0  0  0  0
   -0.7695    2.4466   -0.6983 C   0  0  0  0  0  0  0  0  0  0  0  0
   -1.5848    2.7646   -0.0396 H   0  0  0  0  0  0  0  0  0  0  0  0
    0.0653    3.1307   -0.5270 H   0  0  0  0  0  0  0  0  0  0  0  0
   -1.1677    2.5988   -2.1483 C   0  0  0  0  0  0  0  0  0  0  0  0
   -0.1847    2.7314   -3.1411 C   0  0  0  0  0  0  0  0  0  0  0  0
    0.8680    2.7063   -2.8759 H   0  0  0  0  0  0  0  0  0  0  0  0
   -0.5464    2.8884   -4.4833 C   0  0  0  0  0  0  0  0  0  0  0  0
    0.2216    2.9829   -5.2457 H   0  0  0  0  0  0  0  0  0  0  0  0
   -1.8962    2.9223   -4.8446 C   0  0  0  0  0  0  0  0  0  0  0  0
   -2.1772    3.0444   -5.8867 H   0  0  0  0  0  0  0  0  0  0  0  0
   -2.8836    2.8013   -3.8625 C   0  0  0  0  0  0  0  0  0  0  0  0
   -3.9326    2.8325   -4.1427 H   0  0  0  0  0  0  0  0  0  0  0  0
   -2.5209    2.6432   -2.5205 C   0  0  0  0  0  0  0  0  0  0  0  0
   -3.3009    2.5611   -1.7703 H   0  0  0  0  0  0  0  0  0  0  0  0
    0.4327    0.9195    0.9827 C   0  0  0  0  0  0  0  0  0  0  0  0
    0.2337    0.0689    1.8371 O   0  0  0  0  0  0  0  0  0  0  0  0
    1.1794    2.0084    1.4114 N   0  0  0  0  0  0  0  0  0  0  0  0
    1.3592    2.7454    0.7382 H   0  0  0  0  0  0  0  0  0  0  0  0
    1.8521    2.0731    2.7054 C   0  0  0  0  0  0  0  0  0  0  0  0
    2.5603    1.2443    2.8108 H   0  0  0  0  0  0  0  0  0  0  0  0
    2.4040    3.0132    2.7978 H   0  0  0  0  0  0  0  0  0  0  0  0
    1.1228    2.0198    3.5208 H   0  0  0  0  0  0  0  0  0  0  0  0
  1  2  1  0  0  0  0
  2  3  1  0  0  0  0
  2  4  1  0  0  0  0
  2  5  1  0  0  0  0
  5  6  2  0  0  0  0
  5  7  1  0  0  0  0
  7  8  1  0  0  0  0
  7  9  1  0  0  0  0
  9 10  1  0  0  0  0
  9 11  1  0  0  0  0
  9 25  1  0  0  0  0
 11 12  1  0  0  0  0
 11 13  1  0  0  0  0
 11 14  1  0  0  0  0
 14 15  1  0  0  0  0
 14 23  2  0  0  0  0
 15 16  1  0  0  0  0
 15 17  2  0  0  0  0
 17 18  1  0  0  0  0
 17 19  1  0  0  0  0
 19 20  1  0  0  0  0
 19 21  2  0  0  0  0
 21 22  1  0  0  0  0
 21 23  1  0  0  0  0
 23 24  1  0  0  0  0
 25 26  2  0  0  0  0
 25 27  1  0  0  0  0
 27 28  1  0  0  0  0
 27 29  1  0  0  0  0
 29 30  1  0  0  0  0
 29 31  1  0  0  0  0
 29 32  1  0  0  0  0
M  END
$$$$

  -OEChem-01062216093D

 32 32  0     1  0  0  0  0  0999 V2000
   -3.4534   -2.4413    0.5184 H   0  0  0  0  0  0  0  0  0  0  0  0
   -3.2878   -1.5545   -0.1004 C   0  0  0  0  0  0  0  0  0  0  0  0
   -4.2133   -0.9754   -0.1421 H   0  0  0  0  0  0  0  0  0  0  0  0
   -3.0197   -1.8775   -1.1092 H   0  0  0  0  0  0  0  0  0  0  0  0
   -2.1729   -0.7092    0.4871 C   0  0  0  0  0  0  0  0  0  0  0  0
   -1.7800   -0.9659    1.6083 O   0  0  0  0  0  0  0  0  0  0  0  0
   -1.7783    0.4247   -0.1998 N   0  0  0  0  0  0  0  0  0  0  0  0
   -2.2765    0.5465   -1.0771 H   0  0  0  0  0  0  0  0  0  0  0  0
   -0.4699    1.1201   -0.1588 C   0  0  1  0  0  0  0  0  0  0  0  0
    0.1734    0.6597   -0.9154 H   0  0  0  0  0  0  0  0  0  0  0  0
   -0.7641    2.5752   -0.5880 C   0  0  0  0  0  0  0  0  0  0  0  0
   -1.5321    3.0078    0.0623 H   0  0  0  0  0  0  0  0  0  0  0  0
    0.1346    3.1921   -0.4923 H   0  0  0  0  0  0  0  0  0  0  0  0
   -1.1943    2.6354   -2.0355 C   0  0  0  0  0  0  0  0  0  0  0  0
   -0.2396    2.6073   -3.0632 C   0  0  0  0  0  0  0  0  0  0  0  0
    0.8183    2.5420   -2.8251 H   0  0  0  0  0  0  0  0  0  0  0  0
   -0.6382    2.6578   -4.4032 C   0  0  0  0  0  0  0  0  0  0  0  0
    0.1075    2.6334   -5.1927 H   0  0  0  0  0  0  0  0  0  0  0  0
   -1.9958    2.7410   -4.7267 C   0  0  0  0  0  0  0  0  0  0  0  0
   -2.3048    2.7822   -5.7675 H   0  0  0  0  0  0  0  0  0  0  0  0
   -2.9542    2.7758   -3.7094 C   0  0  0  0  0  0  0  0  0  0  0  0
   -4.0086    2.8471   -3.9605 H   0  0  0  0  0  0  0  0  0  0  0  0
   -2.5545    2.7255   -2.3698 C   0  0  0  0  0  0  0  0  0  0  0  0
   -3.3079    2.7613   -1.5881 H   0  0  0  0  0  0  0  0  0  0  0  0
    0.3718    1.0604    1.1510 C   0  0  0  0  0  0  0  0  0  0  0  0
    0.9031    0.0017    1.4572 O   0  0  0  0  0  0  0  0  0  0  0  0
    0.9744    2.1942    1.6784 N   0  0  0  0  0  0  0  0  0  0  0  0
    0.5764    3.0908    1.4209 H   0  0  0  0  0  0  0  0  0  0  0  0
    1.9463    2.1543    2.7666 C   0  0  0  0  0  0  0  0  0  0  0  0
    2.8477    1.6154    2.4561 H   0  0  0  0  0  0  0  0  0  0  0  0
    2.2344    3.1699    3.0540 H   0  0  0  0  0  0  0  0  0  0  0  0
    1.5204    1.6536    3.6427 H   0  0  0  0  0  0  0  0  0  0  0  0
  1  2  1  0  0  0  0
  2  3  1  0  0  0  0
  2  4  1  0  0  0  0
  2  5  1  0  0  0  0
  5  6  2  0  0  0  0
  5  7  1  0  0  0  0
  7  8  1  0  0  0  0
  7  9  1  0  0  0  0
  9 10  1  0  0  0  0
  9 11  1  0  0  0  0
  9 25  1  0  0  0  0
 11 12  1  0  0  0  0
 11 13  1  0  0  0  0
 11 14  1  0  0  0  0
 14 15  1  0  0  0  0
 14 23  2  0  0  0  0
 15 16  1  0  0  0  0
 15 17  2  0  0  0  0
 17 18  1  0  0  0  0
 17 19  1  0  0  0  0
 19 20  1  0  0  0  0
 19 21  2  0  0  0  0
 21 22  1  0  0  0  0
 21 23  1  0  0  0  0
 23 24  1  0  0  0  0
 25 26  2  0  0  0  0
 25 27  1  0  0  0  0
 27 28  1  0  0  0  0
 27 29  1  0  0  0  0
 29 30  1  0  0  0  0
 29 31  1  0  0  0  0
 29 32  1  0  0  0  0
M  END
$$$$

  -OEChem-01062216093D

 32 32  0     1  0  0  0  0  0999 V2000
   -3.4408   -2.4570    0.5467 H   0  0  0  0  0  0  0  0  0  0  0  0
   -3.3226   -1.5434   -0.0430 C   0  0  0  0  0  0  0  0  0  0  0  0
   -4.2361   -0.9499    0.0395 H   0  0  0  0  0  0  0  0  0  0  0  0
   -3.1665   -1.8199   -1.0884 H   0  0  0  0  0  0  0  0  0  0  0  0
   -2.1372   -0.7438    0.4654 C   0  0  0  0  0  0  0  0  0  0  0  0
   -1.6306   -1.0639    1.5230 O   0  0  0  0  0  0  0  0  0  0  0  0
   -1.7657    0.3956   -0.2257 N   0  0  0  0  0  0  0  0  0  0  0  0
   -2.3003    0.5457   -1.0770 H   0  0  0  0  0  0  0  0  0  0  0  0
   -0.4663    1.1047   -0.1884 C   0  0  1  0  0  0  0  0  0  0  0  0
    0.1800    0.6496   -0.9463 H   0  0  0  0  0  0  0  0  0  0  0  0
   -0.7531    2.5617   -0.6088 C   0  0  0  0  0  0  0  0  0  0  0  0
   -1.5209    2.9938    0.0415 H   0  0  0  0  0  0  0  0  0  0  0  0
    0.1515    3.1691   -0.5004 H   0  0  0  0  0  0  0  0  0  0  0  0
   -1.1826    2.6323   -2.0554 C   0  0  0  0  0  0  0  0  0  0  0  0
   -0.2267    2.6052   -3.0818 C   0  0  0  0  0  0  0  0  0  0  0  0
    0.8305    2.5333   -2.8418 H   0  0  0  0  0  0  0  0  0  0  0  0
   -0.6234    2.6641   -4.4219 C   0  0  0  0  0  0  0  0  0  0  0  0
    0.1232    2.6389   -5.2105 H   0  0  0  0  0  0  0  0  0  0  0  0
   -1.9800    2.7576   -4.7467 C   0  0  0  0  0  0  0  0  0  0  0  0
   -2.2875    2.8066   -5.7875 H   0  0  0  0  0  0  0  0  0  0  0  0
   -2.9394    2.7946   -3.7304 C   0  0  0  0  0  0  0  0  0  0  0  0
   -3.9928    2.8754   -3.9831 H   0  0  0  0  0  0  0  0  0  0  0  0
   -2.5418    2.7337   -2.3906 C   0  0  0  0  0  0  0  0  0  0  0  0
   -3.2956    2.7712   -1.6095 H   0  0  0  0  0  0  0  0  0  0  0  0
    0.3642    1.0426    1.1255 C   0  0  0  0  0  0  0  0  0  0  0  0
    1.0757    0.0650    1.3172 O   0  0  0  0  0  0  0  0  0  0  0  0
    0.6967    2.1891    1.8326 N   0  0  0  0  0  0  0  0  0  0  0  0
    0.1094    3.0034    1.6885 H   0  0  0  0  0  0  0  0  0  0  0  0
    1.6110    2.1853    2.9694 C   0  0  0  0  0  0  0  0  0  0  0  0
    2.6182    1.8976    2.6501 H   0  0  0  0  0  0  0  0  0  0  0  0
    1.6626    3.1823    3.4167 H   0  0  0  0  0  0  0  0  0  0  0  0
    1.2687    1.4798    3.7339 H   0  0  0  0  0  0  0  0  0  0  0  0
  1  2  1  0  0  0  0
  2  3  1  0  0  0  0
  2  4  1  0  0  0  0
  2  5  1  0  0  0  0
  5  6  2  0  0  0  0
  5  7  1  0  0  0  0
  7  8  1  0  0  0  0
  7  9  1  0  0  0  0
  9 10  1  0  0  0  0
  9 11  1  0  0  0  0
  9 25  1  0  0  0  0
 11 12  1  0  0  0  0
 11 13  1  0  0  0  0
 11 14  1  0  0  0  0
 14 15  1  0  0  0  0
 14 23  2  0  0  0  0
 15 16  1  0  0  0  0
 15 17  2  0  0  0  0
 17 18  1  0  0  0  0
 17 19  1  0  0  0  0
 19 20  1  0  0  0  0
 19 21  2  0  0  0  0
 21 22  1  0  0  0  0
 21 23  1  0  0  0  0
 23 24  1  0  0  0  0
 25 26  2  0  0  0  0
 25 27  1  0  0  0  0
 27 28  1  0  0  0  0
 27 29  1  0  0  0  0
 29 30  1  0  0  0  0
 29 31  1  0  0  0  0
 29 32  1  0  0  0  0
M  END
$$$$

  -OEChem-01062216093D

 32 32  0     1  0  0  0  0  0999 V2000
   -3.4429   -2.4571    0.5882 H   0  0  0  0  0  0  0  0  0  0  0  0
   -3.3327   -1.5463   -0.0075 C   0  0  0  0  0  0  0  0  0  0  0  0
   -4.2309   -0.9359    0.1118 H   0  0  0  0  0  0  0  0  0  0  0  0
   -3.2260   -1.8266   -1.0582 H   0  0  0  0  0  0  0  0  0  0  0  0
   -2.1121   -0.7686    0.4491 C   0  0  0  0  0  0  0  0  0  0  0  0
   -1.5344   -1.1243    1.4584 O   0  0  0  0  0  0  0  0  0  0  0  0
   -1.7553    0.3713   -0.2486 N   0  0  0  0  0  0  0  0  0  0  0  0
   -2.3143    0.5396   -1.0807 H   0  0  0  0  0  0  0  0  0  0  0  0
   -0.4601    1.0863   -0.2141 C   0  0  1  0  0  0  0  0  0  0  0  0
    0.1873    0.6340   -0.9730 H   0  0  0  0  0  0  0  0  0  0  0  0
   -0.7393    2.5472   -0.6208 C   0  0  0  0  0  0  0  0  0  0  0  0
   -1.5059    2.9776    0.0320 H   0  0  0  0  0  0  0  0  0  0  0  0
    0.1707    3.1451   -0.4992 H   0  0  0  0  0  0  0  0  0  0  0  0
   -1.1722    2.6334   -2.0654 C   0  0  0  0  0  0  0  0  0  0  0  0
   -0.2194    2.6101   -3.0945 C   0  0  0  0  0  0  0  0  0  0  0  0
    0.8381    2.5316   -2.8574 H   0  0  0  0  0  0  0  0  0  0  0  0
   -0.6190    2.6812   -4.4333 C   0  0  0  0  0  0  0  0  0  0  0  0
    0.1258    2.6589   -5.2237 H   0  0  0  0  0  0  0  0  0  0  0  0
   -1.9761    2.7814   -4.7542 C   0  0  0  0  0  0  0  0  0  0  0  0
   -2.2856    2.8376   -5.7941 H   0  0  0  0  0  0  0  0  0  0  0  0
   -2.9326    2.8138   -3.7351 C   0  0  0  0  0  0  0  0  0  0  0  0
   -3.9862    2.8985   -3.9847 H   0  0  0  0  0  0  0  0  0  0  0  0
   -2.5320    2.7420   -2.3966 C   0  0  0  0  0  0  0  0  0  0  0  0
   -3.2845    2.7765   -1.6142 H   0  0  0  0  0  0  0  0  0  0  0  0
    0.3625    1.0264    1.1019 C   0  0  0  0  0  0  0  0  0  0  0  0
    1.2289    0.1682    1.2114 O   0  0  0  0  0  0  0  0  0  0  0  0
    0.4292    2.1104    1.9639 N   0  0  0  0  0  0  0  0  0  0  0  0
   -0.3187    2.7923    1.8963 H   0  0  0  0  0  0  0  0  0  0  0  0
    1.2773    2.1262    3.1501 C   0  0  0  0  0  0  0  0  0  0  0  0
    2.3323    2.0419    2.8688 H   0  0  0  0  0  0  0  0  0  0  0  0
    1.1412    3.0623    3.6997 H   0  0  0  0  0  0  0  0  0  0  0  0
    1.0219    1.2931    3.8136 H   0  0  0  0  0  0  0  0  0  0  0  0
  1  2  1  0  0  0  0
  2  3  1  0  0  0  0
  2  4  1  0  0  0  0
  2  5  1  0  0  0  0
  5  6  2  0  0  0  0
  5  7  1  0  0  0  0
  7  8  1  0  0  0  0
  7  9  1  0  0  0  0
  9 10  1  0  0  0  0
  9 11  1  0  0  0  0
  9 25  1  0  0  0  0
 11 12  1  0  0  0  0
 11 13  1  0  0  0  0
 11 14  1  0  0  0  0
 14 15  1  0  0  0  0
 14 23  2  0  0  0  0
 15 16  1  0  0  0  0
 15 17  2  0  0  0  0
 17 18  1  0  0  0  0
 17 19  1  0  0  0  0
 19 20  1  0  0  0  0
 19 21  2  0  0  0  0
 21 22  1  0  0  0  0
 21 23  1  0  0  0  0
 23 24  1  0  0  0  0
 25 26  2  0  0  0  0
 25 27  1  0  0  0  0
 27 28  1  0  0  0  0
 27 29  1  0  0  0  0
 29 30  1  0  0  0  0
 29 31  1  0  0  0  0
 29 32  1  0  0  0  0
M  END
$$$$

  -OEChem-01062216093D

 32 32  0     1  0  0  0  0  0999 V2000
   -3.4410   -2.4569    0.6228 H   0  0  0  0  0  0  0  0  0  0  0  0
   -3.3383   -1.5471    0.0245 C   0  0  0  0  0  0  0  0  0  0  0  0
   -4.2217   -0.9227    0.1781 H   0  0  0  0  0  0  0  0  0  0  0  0
   -3.2754   -1.8269   -1.0299 H   0  0  0  0  0  0  0  0  0  0  0  0
   -2.0891   -0.7897    0.4357 C   0  0  0  0  0  0  0  0  0  0  0  0
   -1.4601   -1.1721    1.4046 O   0  0  0  0  0  0  0  0  0  0  0  0
   -1.7435    0.3494   -0.2685 N   0  0  0  0  0  0  0  0  0  0  0  0
   -2.3209    0.5317   -1.0851 H   0  0  0  0  0  0  0  0  0  0  0  0
   -0.4527    1.0702   -0.2360 C   0  0  1  0  0  0  0  0  0  0  0  0
    0.1954    0.6206   -0.9964 H   0  0  0  0  0  0  0  0  0  0  0  0
   -0.7262    2.5342   -0.6302 C   0  0  0  0  0  0  0  0  0  0  0  0
   -1.4898    2.9646    0.0258 H   0  0  0  0  0  0  0  0  0  0  0  0
    0.1873    3.1254   -0.5006 H   0  0  0  0  0  0  0  0  0  0  0  0
   -1.1621    2.6320   -2.0730 C   0  0  0  0  0  0  0  0  0  0  0  0
   -0.2119    2.6119   -3.1045 C   0  0  0  0  0  0  0  0  0  0  0  0
    0.8457    2.5264   -2.8706 H   0  0  0  0  0  0  0  0  0  0  0  0
   -0.6153    2.6962   -4.4414 C   0  0  0  0  0  0  0  0  0  0  0  0
    0.1270    2.6785   -5.2343 H   0  0  0  0  0  0  0  0  0  0  0  0
   -1.9728    2.8047   -4.7576 C   0  0  0  0  0  0  0  0  0  0  0  0
   -2.2850    2.8719   -5.7959 H   0  0  0  0  0  0  0  0  0  0  0  0
   -2.9267    2.8320   -3.7360 C   0  0  0  0  0  0  0  0  0  0  0  0
   -3.9807    2.9239   -3.9819 H   0  0  0  0  0  0  0  0  0  0  0  0
   -2.5225    2.7479   -2.3994 C   0  0  0  0  0  0  0  0  0  0  0  0
   -3.2725    2.7792   -1.6146 H   0  0  0  0  0  0  0  0  0  0  0  0
    0.3622    1.0156    1.0817 C   0  0  0  0  0  0  0  0  0  0  0  0
    1.3734    0.3261    1.1205 O   0  0  0  0  0  0  0  0  0  0  0  0
    0.1789    1.9639    2.0752 N   0  0  0  0  0  0  0  0  0  0  0  0
   -0.7097    2.4534    2.0700 H   0  0  0  0  0  0  0  0  0  0  0  0
    0.9680    1.9768    3.3010 C   0  0  0  0  0  0  0  0  0  0  0  0
    2.0303    2.1135    3.0724 H   0  0  0  0  0  0  0  0  0  0  0  0
    0.6473    2.7981    3.9489 H   0  0  0  0  0  0  0  0  0  0  0  0
    0.8432    1.0346    3.8454 H   0  0  0  0  0  0  0  0  0  0  0  0
  1  2  1  0  0  0  0
  2  3  1  0  0  0  0
  2  4  1  0  0  0  0
  2  5  1  0  0  0  0
  5  6  2  0  0  0  0
  5  7  1  0  0  0  0
  7  8  1  0  0  0  0
  7  9  1  0  0  0  0
  9 10  1  0  0  0  0
  9 11  1  0  0  0  0
  9 25  1  0  0  0  0
 11 12  1  0  0  0  0
 11 13  1  0  0  0  0
 11 14  1  0  0  0  0
 14 15  1  0  0  0  0
 14 23  2  0  0  0  0
 15 16  1  0  0  0  0
 15 17  2  0  0  0  0
 17 18  1  0  0  0  0
 17 19  1  0  0  0  0
 19 20  1  0  0  0  0
 19 21  2  0  0  0  0
 21 22  1  0  0  0  0
 21 23  1  0  0  0  0
 23 24  1  0  0  0  0
 25 26  2  0  0  0  0
 25 27  1  0  0  0  0
 27 28  1  0  0  0  0
 27 29  1  0  0  0  0
 29 30  1  0  0  0  0
 29 31  1  0  0  0  0
 29 32  1  0  0  0  0
M  END
$$$$

  -OEChem-01062216093D

 32 32  0     1  0  0  0  0  0999 V2000
   -3.4390   -2.4637    0.6384 H   0  0  0  0  0  0  0  0  0  0  0  0
   -3.3456   -1.5506    0.0435 C   0  0  0  0  0  0  0  0  0  0  0  0
   -4.2184   -0.9197    0.2275 H   0  0  0  0  0  0  0  0  0  0  0  0
   -3.3169   -1.8239   -1.0140 H   0  0  0  0  0  0  0  0  0  0  0  0
   -2.0779   -0.8070    0.4219 C   0  0  0  0  0  0  0  0  0  0  0  0
   -1.4151   -1.2074    1.3610 O   0  0  0  0  0  0  0  0  0  0  0  0
   -1.7387    0.3324   -0.2848 N   0  0  0  0  0  0  0  0  0  0  0  0
   -2.3326    0.5303   -1.0860 H   0  0  0  0  0  0  0  0  0  0  0  0
   -0.4506    1.0587   -0.2524 C   0  0  1  0  0  0  0  0  0  0  0  0
    0.1983    0.6124   -1.0137 H   0  0  0  0  0  0  0  0  0  0  0  0
   -0.7166    2.5266   -0.6327 C   0  0  0  0  0  0  0  0  0  0  0  0
   -1.4761    2.9562    0.0285 H   0  0  0  0  0  0  0  0  0  0  0  0
    0.2004    3.1113   -0.4974 H   0  0  0  0  0  0  0  0  0  0  0  0
   -1.1542    2.6359   -2.0739 C   0  0  0  0  0  0  0  0  0  0  0  0
   -0.2053    2.6180   -3.1066 C   0  0  0  0  0  0  0  0  0  0  0  0
    0.8525    2.5300   -2.8735 H   0  0  0  0  0  0  0  0  0  0  0  0
   -0.6101    2.7058   -4.4429 C   0  0  0  0  0  0  0  0  0  0  0  0
    0.1315    2.6872   -5.2366 H   0  0  0  0  0  0  0  0  0  0  0  0
   -1.9680    2.8176   -4.7569 C   0  0  0  0  0  0  0  0  0  0  0  0
   -2.2815    2.8873   -5.7946 H   0  0  0  0  0  0  0  0  0  0  0  0
   -2.9203    2.8458   -3.7338 C   0  0  0  0  0  0  0  0  0  0  0  0
   -3.9745    2.9415   -3.9776 H   0  0  0  0  0  0  0  0  0  0  0  0
   -2.5144    2.7574   -2.3979 C   0  0  0  0  0  0  0  0  0  0  0  0
   -3.2624    2.7895   -1.6115 H   0  0  0  0  0  0  0  0  0  0  0  0
    0.3615    1.0102    1.0644 C   0  0  0  0  0  0  0  0  0  0  0  0
    1.4929    0.5418    1.0452 O   0  0  0  0  0  0  0  0  0  0  0  0
   -0.0336    1.7547    2.1630 N   0  0  0  0  0  0  0  0  0  0  0  0
   -1.0165    2.0050    2.1944 H   0  0  0  0  0  0  0  0  0  0  0  0
    0.7139    1.7497    3.4144 C   0  0  0  0  0  0  0  0  0  0  0  0
    1.7394    2.0978    3.2512 H   0  0  0  0  0  0  0  0  0  0  0  0
    0.2377    2.4134    4.1422 H   0  0  0  0  0  0  0  0  0  0  0  0
    0.7475    0.7388    3.8343 H   0  0  0  0  0  0  0  0  0  0  0  0
  1  2  1  0  0  0  0
  2  3  1  0  0  0  0
  2  4  1  0  0  0  0
  2  5  1  0  0  0  0
  5  6  2  0  0  0  0
  5  7  1  0  0  0  0
  7  8  1  0  0  0  0
  7  9  1  0  0  0  0
  9 10  1  0  0  0  0
  9 11  1  0  0  0  0
  9 25  1  0  0  0  0
 11 12  1  0  0  0  0
 11 13  1  0  0  0  0
 11 14  1  0  0  0  0
 14 15  1  0  0  0  0
 14 23  2  0  0  0  0
 15 16  1  0  0  0  0
 15 17  2  0  0  0  0
 17 18  1  0  0  0  0
 17 19  1  0  0  0  0
 19 20  1  0  0  0  0
 19 21  2  0  0  0  0
 21 22  1  0  0  0  0
 21 23  1  0  0  0  0
 23 24  1  0  0  0  0
 25 26  2  0  0  0  0
 25 27  1  0  0  0  0
 27 28  1  0  0  0  0
 27 29  1  0  0  0  0
 29 30  1  0  0  0  0
 29 31  1  0  0  0  0
 29 32  1  0  0  0  0
M  END
$$$$

  -OEChem-01062216093D

 32 32  0     1  0  0  0  0  0999 V2000
   -3.4764   -2.4519    0.6535 H   0  0  0  0  0  0  0  0  0  0  0  0
   -3.3664   -1.5503    0.0439 C   0  0  0  0  0  0  0  0  0  0  0  0
   -4.2273   -0.9004    0.2174 H   0  0  0  0  0  0  0  0  0  0  0  0
   -3.3430   -1.8408   -1.0092 H   0  0  0  0  0  0  0  0  0  0  0  0
   -2.0851   -0.8242    0.4100 C   0  0  0  0  0  0  0  0  0  0  0  0
   -1.4141   -1.2357    1.3387 O   0  0  0  0  0  0  0  0  0  0  0  0
   -1.7338    0.3083   -0.3010 N   0  0  0  0  0  0  0  0  0  0  0  0
   -2.3304    0.5179   -1.0973 H   0  0  0  0  0  0  0  0  0  0  0  0
   -0.4442    1.0325   -0.2632 C   0  0  1  0  0  0  0  0  0  0  0  0
    0.2090    0.5884   -1.0223 H   0  0  0  0  0  0  0  0  0  0  0  0
   -0.7112    2.5020   -0.6312 C   0  0  0  0  0  0  0  0  0  0  0  0
   -1.4691    2.9249    0.0362 H   0  0  0  0  0  0  0  0  0  0  0  0
    0.2051    3.0865   -0.4916 H   0  0  0  0  0  0  0  0  0  0  0  0
   -1.1506    2.6246   -2.0705 C   0  0  0  0  0  0  0  0  0  0  0  0
   -0.2018    2.6162   -3.1030 C   0  0  0  0  0  0  0  0  0  0  0  0
    0.8554    2.5233   -2.8694 H   0  0  0  0  0  0  0  0  0  0  0  0
   -0.6060    2.7224   -4.4381 C   0  0  0  0  0  0  0  0  0  0  0  0
    0.1363    2.7129   -5.2309 H   0  0  0  0  0  0  0  0  0  0  0  0
   -1.9634    2.8429   -4.7509 C   0  0  0  0  0  0  0  0  0  0  0  0
   -2.2762    2.9279   -5.7876 H   0  0  0  0  0  0  0  0  0  0  0  0
   -2.9160    2.8604   -3.7276 C   0  0  0  0  0  0  0  0  0  0  0  0
   -3.9697    2.9632   -3.9703 H   0  0  0  0  0  0  0  0  0  0  0  0
   -2.5107    2.7531   -2.3928 C   0  0  0  0  0  0  0  0  0  0  0  0
   -3.2585    2.7778   -1.6059 H   0  0  0  0  0  0  0  0  0  0  0  0
    0.3630    1.0000    1.0554 C   0  0  0  0  0  0  0  0  0  0  0  0
    1.5672    0.7823    1.0070 O   0  0  0  0  0  0  0  0  0  0  0  0
   -0.1859    1.4979    2.2240 N   0  0  0  0  0  0  0  0  0  0  0  0
   -1.2003    1.4848    2.2605 H   0  0  0  0  0  0  0  0  0  0  0  0
    0.5410    1.4828    3.4871 C   0  0  0  0  0  0  0  0  0  0  0  0
    1.4670    2.0616    3.4054 H   0  0  0  0  0  0  0  0  0  0  0  0
   -0.0702    1.9237    4.2802 H   0  0  0  0  0  0  0  0  0  0  0  0
    0.7917    0.4551    3.7706 H   0  0  0  0  0  0  0  0  0  0  0  0
  1  2  1  0  0  0  0
  2  3  1  0  0  0  0
  2  4  1  0  0  0  0
  2  5  1  0  0  0  0
  5  6  2  0  0  0  0
  5  7  1  0  0  0  0
  7  8  1  0  0  0  0
  7  9  1  0  0  0  0
  9 10  1  0  0  0  0
  9 11  1  0  0  0  0
  9 25  1  0  0  0  0
 11 12  1  0  0  0  0
 11 13  1  0  0  0  0
 11 14  1  0  0  0  0
 14 15  1  0  0  0  0
 14 23  2  0  0  0  0
 15 16  1  0  0  0  0
 15 17  2  0  0  0  0
 17 18  1  0  0  0  0
 17 19  1  0  0  0  0
 19 20  1  0  0  0  0
 19 21  2  0  0  0  0
 21 22  1  0  0  0  0
 21 23  1  0  0  0  0
 23 24  1  0  0  0  0
 25 26  2  0  0  0  0
 25 27  1  0  0  0  0
 27 28  1  0  0  0  0
 27 29  1  0  0  0  0
 29 30  1  0  0  0  0
 29 31  1  0  0  0  0
 29 32  1  0  0  0  0
M  END
$$$$

  -OEChem-01062216093D

 32 32  0     1  0  0  0  0  0999 V2000
   -3.5409   -2.4494    0.5984 H   0  0  0  0  0  0  0  0  0  0  0  0
   -3.4138   -1.5406    0.0030 C   0  0  0  0  0  0  0  0  0  0  0  0
   -4.2637   -0.8784    0.1851 H   0  0  0  0  0  0  0  0  0  0  0  0
   -3.3942   -1.8150   -1.0546 H   0  0  0  0  0  0  0  0  0  0  0  0
   -2.1204   -0.8432    0.3816 C   0  0  0  0  0  0  0  0  0  0  0  0
   -1.4562   -1.2803    1.3035 O   0  0  0  0  0  0  0  0  0  0  0  0
   -1.7445    0.2892   -0.3151 N   0  0  0  0  0  0  0  0  0  0  0  0
   -2.3417    0.5261   -1.1035 H   0  0  0  0  0  0  0  0  0  0  0  0
   -0.4526    1.0102   -0.2590 C   0  0  1  0  0  0  0  0  0  0  0  0
    0.2050    0.5720   -1.0174 H   0  0  0  0  0  0  0  0  0  0  0  0
   -0.7254    2.4809   -0.6179 C   0  0  0  0  0  0  0  0  0  0  0  0
   -1.4888    2.8935    0.0499 H   0  0  0  0  0  0  0  0  0  0  0  0
    0.1858    3.0708   -0.4685 H   0  0  0  0  0  0  0  0  0  0  0  0
   -1.1552    2.6127   -2.0597 C   0  0  0  0  0  0  0  0  0  0  0  0
   -0.1988    2.6177   -3.0851 C   0  0  0  0  0  0  0  0  0  0  0  0
    0.8572    2.5285   -2.8443 H   0  0  0  0  0  0  0  0  0  0  0  0
   -0.5940    2.7317   -4.4222 C   0  0  0  0  0  0  0  0  0  0  0  0
    0.1541    2.7319   -5.2096 H   0  0  0  0  0  0  0  0  0  0  0  0
   -1.9497    2.8480   -4.7443 C   0  0  0  0  0  0  0  0  0  0  0  0
   -2.2551    2.9397   -5.7826 H   0  0  0  0  0  0  0  0  0  0  0  0
   -2.9098    2.8534   -3.7278 C   0  0  0  0  0  0  0  0  0  0  0  0
   -3.9622    2.9529   -3.9775 H   0  0  0  0  0  0  0  0  0  0  0  0
   -2.5135    2.7383   -2.3910 C   0  0  0  0  0  0  0  0  0  0  0  0
   -3.2668    2.7550   -1.6091 H   0  0  0  0  0  0  0  0  0  0  0  0
    0.3602    0.9902    1.0579 C   0  0  0  0  0  0  0  0  0  0  0  0
    1.5821    1.0454    0.9905 O   0  0  0  0  0  0  0  0  0  0  0  0
   -0.2565    1.1982    2.2786 N   0  0  0  0  0  0  0  0  0  0  0  0
   -1.2223    0.8823    2.3111 H   0  0  0  0  0  0  0  0  0  0  0  0
    0.4913    1.1956    3.5297 C   0  0  0  0  0  0  0  0  0  0  0  0
    1.2582    1.9772    3.5213 H   0  0  0  0  0  0  0  0  0  0  0  0
   -0.1817    1.3843    4.3715 H   0  0  0  0  0  0  0  0  0  0  0  0
    0.9773    0.2261    3.6826 H   0  0  0  0  0  0  0  0  0  0  0  0
  1  2  1  0  0  0  0
  2  3  1  0  0  0  0
  2  4  1  0  0  0  0
  2  5  1  0  0  0  0
  5  6  2  0  0  0  0
  5  7  1  0  0  0  0
  7  8  1  0  0  0  0
  7  9  1  0  0  0  0
  9 10  1  0  0  0  0
  9 11  1  0  0  0  0
  9 25  1  0  0  0  0
 11 12  1  0  0  0  0
 11 13  1  0  0  0  0
 11 14  1  0  0  0  0
 14 15  1  0  0  0  0
 14 23  2  0  0  0  0
 15 16  1  0  0  0  0
 15 17  2  0  0  0  0
 17 18  1  0  0  0  0
 17 19  1  0  0  0  0
 19 20  1  0  0  0  0
 19 21  2  0  0  0  0
 21 22  1  0  0  0  0
 21 23  1  0  0  0  0
 23 24  1  0  0  0  0
 25 26  2  0  0  0  0
 25 27  1  0  0  0  0
 27 28  1  0  0  0  0
 27 29  1  0  0  0  0
 29 30  1  0  0  0  0
 29 31  1  0  0  0  0
 29 32  1  0  0  0  0
M  END
$$$$

  -OEChem-01062216093D

 32 32  0     1  0  0  0  0  0999 V2000
   -3.6303   -2.4285    0.5425 H   0  0  0  0  0  0  0  0  0  0  0  0
   -3.4780   -1.5096   -0.0309 C   0  0  0  0  0  0  0  0  0  0  0  0
   -4.2938   -0.8174    0.1905 H   0  0  0  0  0  0  0  0  0  0  0  0
   -3.4957   -1.7547   -1.0958 H   0  0  0  0  0  0  0  0  0  0  0  0
   -2.1478   -0.8776    0.3343 C   0  0  0  0  0  0  0  0  0  0  0  0
   -1.4704   -1.3831    1.2107 O   0  0  0  0  0  0  0  0  0  0  0  0
   -1.7466    0.2629   -0.3341 N   0  0  0  0  0  0  0  0  0  0  0  0
   -2.3604    0.5527   -1.0914 H   0  0  0  0  0  0  0  0  0  0  0  0
   -0.4582    0.9912   -0.2521 C   0  0  1  0  0  0  0  0  0  0  0  0
    0.2086    0.5657   -1.0092 H   0  0  0  0  0  0  0  0  0  0  0  0
   -0.7527    2.4615   -0.6049 C   0  0  0  0  0  0  0  0  0  0  0  0
   -1.5305    2.8549    0.0577 H   0  0  0  0  0  0  0  0  0  0  0  0
    0.1439    3.0703   -0.4427 H   0  0  0  0  0  0  0  0  0  0  0  0
   -1.1673    2.5976   -2.0509 C   0  0  0  0  0  0  0  0  0  0  0  0
   -0.1982    2.6270   -3.0639 C   0  0  0  0  0  0  0  0  0  0  0  0
    0.8557    2.5509   -2.8103 H   0  0  0  0  0  0  0  0  0  0  0  0
   -0.5775    2.7480   -4.4048 C   0  0  0  0  0  0  0  0  0  0  0  0
    0.1806    2.7667   -5.1826 H   0  0  0  0  0  0  0  0  0  0  0  0
   -1.9304    2.8480   -4.7432 C   0  0  0  0  0  0  0  0  0  0  0  0
   -2.2238    2.9455   -5.7846 H   0  0  0  0  0  0  0  0  0  0  0  0
   -2.9035    2.8312   -3.7390 C   0  0  0  0  0  0  0  0  0  0  0  0
   -3.9539    2.9198   -4.0011 H   0  0  0  0  0  0  0  0  0  0  0  0
   -2.5227    2.7091   -2.3982 C   0  0  0  0  0  0  0  0  0  0  0  0
   -3.2859    2.7104   -1.6258 H   0  0  0  0  0  0  0  0  0  0  0  0
    0.3615    0.9837    1.0642 C   0  0  0  0  0  0  0  0  0  0  0  0
    1.5470    1.2883    1.0080 O   0  0  0  0  0  0  0  0  0  0  0  0
   -0.2399    0.8796    2.3046 N   0  0  0  0  0  0  0  0  0  0  0  0
   -1.0955    0.3255    2.2913 H   0  0  0  0  0  0  0  0  0  0  0  0
    0.5316    0.8795    3.5413 C   0  0  0  0  0  0  0  0  0  0  0  0
    1.1120    1.8035    3.6331 H   0  0  0  0  0  0  0  0  0  0  0  0
   -0.1392    0.8087    4.4027 H   0  0  0  0  0  0  0  0  0  0  0  0
    1.2193    0.0277    3.5635 H   0  0  0  0  0  0  0  0  0  0  0  0
  1  2  1  0  0  0  0
  2  3  1  0  0  0  0
  2  4  1  0  0  0  0
  2  5  1  0  0  0  0
  5  6  2  0  0  0  0
  5  7  1  0  0  0  0
  7  8  1  0  0  0  0
  7  9  1  0  0  0  0
  9 10  1  0  0  0  0
  9 11  1  0  0  0  0
  9 25  1  0  0  0  0
 11 12  1  0  0  0  0
 11 13  1  0  0  0  0
 11 14  1  0  0  0  0
 14 15  1  0  0  0  0
 14 23  2  0  0  0  0
 15 16  1  0  0  0  0
 15 17  2  0  0  0  0
 17 18  1  0  0  0  0
 17 19  1  0  0  0  0
 19 20  1  0  0  0  0
 19 21  2  0  0  0  0
 21 22  1  0  0  0  0
 21 23  1  0  0  0  0
 23 24  1  0  0  0  0
 25 26  2  0  0  0  0
 25 27  1  0  0  0  0
 27 28  1  0  0  0  0
 27 29  1  0  0  0  0
 29 30  1  0  0  0  0
 29 31  1  0  0  0  0
 29 32  1  0  0  0  0
M  END
$$$$

  -OEChem-01062216093D

 32 32  0     1  0  0  0  0  0999 V2000
   -3.7225   -2.3886    0.5119 H   0  0  0  0  0  0  0  0  0  0  0  0
   -3.5401   -1.4672   -0.0485 C   0  0  0  0  0  0  0  0  0  0  0  0
   -4.3105   -0.7379    0.2134 H   0  0  0  0  0  0  0  0  0  0  0  0
   -3.6053   -1.6887   -1.1167 H   0  0  0  0  0  0  0  0  0  0  0  0
   -2.1669   -0.9135    0.2841 C   0  0  0  0  0  0  0  0  0  0  0  0
   -1.4663   -1.5091    1.0824 O   0  0  0  0  0  0  0  0  0  0  0  0
   -1.7418    0.2354   -0.3546 N   0  0  0  0  0  0  0  0  0  0  0  0
   -2.3768    0.5829   -1.0687 H   0  0  0  0  0  0  0  0  0  0  0  0
   -0.4593    0.9728   -0.2451 C   0  0  1  0  0  0  0  0  0  0  0  0
    0.2194    0.5619   -0.9998 H   0  0  0  0  0  0  0  0  0  0  0  0
   -0.7836    2.4402   -0.5962 C   0  0  0  0  0  0  0  0  0  0  0  0
   -1.5772    2.8126    0.0599 H   0  0  0  0  0  0  0  0  0  0  0  0
    0.0946    3.0720   -0.4231 H   0  0  0  0  0  0  0  0  0  0  0  0
   -1.1825    2.5798   -2.0467 C   0  0  0  0  0  0  0  0  0  0  0  0
   -0.1999    2.6391   -3.0452 C   0  0  0  0  0  0  0  0  0  0  0  0
    0.8514    2.5791   -2.7764 H   0  0  0  0  0  0  0  0  0  0  0  0
   -0.5614    2.7704   -4.3900 C   0  0  0  0  0  0  0  0  0  0  0  0
    0.2079    2.8135   -5.1556 H   0  0  0  0  0  0  0  0  0  0  0  0
   -1.9107    2.8502   -4.7470 C   0  0  0  0  0  0  0  0  0  0  0  0
   -2.1901    2.9555   -5.7914 H   0  0  0  0  0  0  0  0  0  0  0  0
   -2.8977    2.8042   -3.7578 C   0  0  0  0  0  0  0  0  0  0  0  0
   -3.9453    2.8784   -4.0349 H   0  0  0  0  0  0  0  0  0  0  0  0
   -2.5349    2.6730   -2.4128 C   0  0  0  0  0  0  0  0  0  0  0  0
   -3.3097    2.6552   -1.6523 H   0  0  0  0  0  0  0  0  0  0  0  0
    0.3620    0.9769    1.0752 C   0  0  0  0  0  0  0  0  0  0  0  0
    1.4797    1.4795    1.0557 O   0  0  0  0  0  0  0  0  0  0  0  0
   -0.1486    0.5768    2.2955 N   0  0  0  0  0  0  0  0  0  0  0  0
   -0.9099   -0.0993    2.2230 H   0  0  0  0  0  0  0  0  0  0  0  0
    0.6550    0.5511    3.5115 C   0  0  0  0  0  0  0  0  0  0  0  0
    1.0429    1.5501    3.7373 H   0  0  0  0  0  0  0  0  0  0  0  0
    0.0459    0.2199    4.3578 H   0  0  0  0  0  0  0  0  0  0  0  0
    1.4988   -0.1376    3.3988 H   0  0  0  0  0  0  0  0  0  0  0  0
  1  2  1  0  0  0  0
  2  3  1  0  0  0  0
  2  4  1  0  0  0  0
  2  5  1  0  0  0  0
  5  6  2  0  0  0  0
  5  7  1  0  0  0  0
  7  8  1  0  0  0  0
  7  9  1  0  0  0  0
  9 10  1  0  0  0  0
  9 11  1  0  0  0  0
  9 25  1  0  0  0  0
 11 12  1  0  0  0  0
 11 13  1  0  0  0  0
 11 14  1  0  0  0  0
 14 15  1  0  0  0  0
 14 23  2  0  0  0  0
 15 16  1  0  0  0  0
 15 17  2  0  0  0  0
 17 18  1  0  0  0  0
 17 19  1  0  0  0  0
 19 20  1  0  0  0  0
 19 21  2  0  0  0  0
 21 22  1  0  0  0  0
 21 23  1  0  0  0  0
 23 24  1  0  0  0  0
 25 26  2  0  0  0  0
 25 27  1  0  0  0  0
 27 28  1  0  0  0  0
 27 29  1  0  0  0  0
 29 30  1  0  0  0  0
 29 31  1  0  0  0  0
 29 32  1  0  0  0  0
M  END
$$$$

  -OEChem-01062216093D

 32 32  0     1  0  0  0  0  0999 V2000
   -3.7871   -2.3513    0.4989 H   0  0  0  0  0  0  0  0  0  0  0  0
   -3.5856   -1.4260   -0.0487 C   0  0  0  0  0  0  0  0  0  0  0  0
   -4.3128   -0.6708    0.2593 H   0  0  0  0  0  0  0  0  0  0  0  0
   -3.7006   -1.6192   -1.1182 H   0  0  0  0  0  0  0  0  0  0  0  0
   -2.1775   -0.9405    0.2415 C   0  0  0  0  0  0  0  0  0  0  0  0
   -1.4541   -1.6197    0.9474 O   0  0  0  0  0  0  0  0  0  0  0  0
   -1.7389    0.2195   -0.3676 N   0  0  0  0  0  0  0  0  0  0  0  0
   -2.3990    0.6206   -1.0286 H   0  0  0  0  0  0  0  0  0  0  0  0
   -0.4612    0.9641   -0.2367 C   0  0  1  0  0  0  0  0  0  0  0  0
    0.2255    0.5656   -0.9903 H   0  0  0  0  0  0  0  0  0  0  0  0
   -0.8092    2.4290   -0.5905 C   0  0  0  0  0  0  0  0  0  0  0  0
   -1.6166    2.7853    0.0577 H   0  0  0  0  0  0  0  0  0  0  0  0
    0.0516    3.0819   -0.4108 H   0  0  0  0  0  0  0  0  0  0  0  0
   -1.1940    2.5663   -2.0453 C   0  0  0  0  0  0  0  0  0  0  0  0
   -0.2002    2.6462   -3.0315 C   0  0  0  0  0  0  0  0  0  0  0  0
    0.8485    2.5999   -2.7501 H   0  0  0  0  0  0  0  0  0  0  0  0
   -0.5473    2.7808   -4.3797 C   0  0  0  0  0  0  0  0  0  0  0  0
    0.2304    2.8378   -5.1359 H   0  0  0  0  0  0  0  0  0  0  0  0
   -1.8931    2.8474   -4.7521 C   0  0  0  0  0  0  0  0  0  0  0  0
   -2.1616    2.9570   -5.7989 H   0  0  0  0  0  0  0  0  0  0  0  0
   -2.8910    2.7837   -3.7750 C   0  0  0  0  0  0  0  0  0  0  0  0
   -3.9360    2.8489   -4.0640 H   0  0  0  0  0  0  0  0  0  0  0  0
   -2.5428    2.6470   -2.4267 C   0  0  0  0  0  0  0  0  0  0  0  0
   -3.3273    2.6172   -1.6765 H   0  0  0  0  0  0  0  0  0  0  0  0
    0.3630    0.9655    1.0870 C   0  0  0  0  0  0  0  0  0  0  0  0
    1.3879    1.6367    1.1290 O   0  0  0  0  0  0  0  0  0  0  0  0
    0.0008    0.2964    2.2401 N   0  0  0  0  0  0  0  0  0  0  0  0
   -0.6843   -0.4491    2.1078 H   0  0  0  0  0  0  0  0  0  0  0  0
    0.8437    0.2391    3.4285 C   0  0  0  0  0  0  0  0  0  0  0  0
    1.0354    1.2463    3.8131 H   0  0  0  0  0  0  0  0  0  0  0  0
    0.3478   -0.3397    4.2135 H   0  0  0  0  0  0  0  0  0  0  0  0
    1.8011   -0.2390    3.1965 H   0  0  0  0  0  0  0  0  0  0  0  0
  1  2  1  0  0  0  0
  2  3  1  0  0  0  0
  2  4  1  0  0  0  0
  2  5  1  0  0  0  0
  5  6  2  0  0  0  0
  5  7  1  0  0  0  0
  7  8  1  0  0  0  0
  7  9  1  0  0  0  0
  9 10  1  0  0  0  0
  9 11  1  0  0  0  0
  9 25  1  0  0  0  0
 11 12  1  0  0  0  0
 11 13  1  0  0  0  0
 11 14  1  0  0  0  0
 14 15  1  0  0  0  0
 14 23  2  0  0  0  0
 15 16  1  0  0  0  0
 15 17  2  0  0  0  0
 17 18  1  0  0  0  0
 17 19  1  0  0  0  0
 19 20  1  0  0  0  0
 19 21  2  0  0  0  0
 21 22  1  0  0  0  0
 21 23  1  0  0  0  0
 23 24  1  0  0  0  0
 25 26  2  0  0  0  0
 25 27  1  0  0  0  0
 27 28  1  0  0  0  0
 27 29  1  0  0  0  0
 29 30  1  0  0  0  0
 29 31  1  0  0  0  0
 29 32  1  0  0  0  0
M  END
$$$$

  -OEChem-01062216093D

 32 32  0     1  0  0  0  0  0999 V2000
   -3.8860   -2.2225    0.5966 H   0  0  0  0  0  0  0  0  0  0  0  0
   -3.6641   -1.2925    0.0655 C   0  0  0  0  0  0  0  0  0  0  0  0
   -4.3166   -0.5049    0.4501 H   0  0  0  0  0  0  0  0  0  0  0  0
   -3.8678   -1.4386   -0.9981 H   0  0  0  0  0  0  0  0  0  0  0  0
   -2.2104   -0.9062    0.2665 C   0  0  0  0  0  0  0  0  0  0  0  0
   -1.4808   -1.6624    0.8820 O   0  0  0  0  0  0  0  0  0  0  0  0
   -1.7428    0.2396   -0.3475 N   0  0  0  0  0  0  0  0  0  0  0  0
   -2.4256    0.6945   -0.9474 H   0  0  0  0  0  0  0  0  0  0  0  0
   -0.4431    0.9514   -0.2468 C   0  0  1  0  0  0  0  0  0  0  0  0
    0.2173    0.5282   -1.0102 H   0  0  0  0  0  0  0  0  0  0  0  0
   -0.7735    2.4178   -0.6214 C   0  0  0  0  0  0  0  0  0  0  0  0
   -1.5620    2.7992    0.0354 H   0  0  0  0  0  0  0  0  0  0  0  0
    0.0991    3.0622   -0.4731 H   0  0  0  0  0  0  0  0  0  0  0  0
   -1.1812    2.5372   -2.0721 C   0  0  0  0  0  0  0  0  0  0  0  0
   -0.2041    2.5841   -3.0769 C   0  0  0  0  0  0  0  0  0  0  0  0
    0.8487    2.5315   -2.8130 H   0  0  0  0  0  0  0  0  0  0  0  0
   -0.5731    2.6960   -4.4215 C   0  0  0  0  0  0  0  0  0  0  0  0
    0.1916    2.7288   -5.1921 H   0  0  0  0  0  0  0  0  0  0  0  0
   -1.9246    2.7696   -4.7721 C   0  0  0  0  0  0  0  0  0  0  0  0
   -2.2103    2.8587   -5.8163 H   0  0  0  0  0  0  0  0  0  0  0  0
   -2.9059    2.7377   -3.7766 C   0  0  0  0  0  0  0  0  0  0  0  0
   -3.9551    2.8065   -4.0489 H   0  0  0  0  0  0  0  0  0  0  0  0
   -2.5355    2.6269   -2.4320 C   0  0  0  0  0  0  0  0  0  0  0  0
   -3.3073    2.6220   -1.6682 H   0  0  0  0  0  0  0  0  0  0  0  0
    0.4121    0.9342    1.0615 C   0  0  0  0  0  0  0  0  0  0  0  0
    1.3337    1.7350    1.1714 O   0  0  0  0  0  0  0  0  0  0  0  0
    0.2306    0.0615    2.1164 N   0  0  0  0  0  0  0  0  0  0  0  0
   -0.4043   -0.7195    1.9450 H   0  0  0  0  0  0  0  0  0  0  0  0
    1.1138   -0.0099    3.2740 C   0  0  0  0  0  0  0  0  0  0  0  0
    1.1539    0.9567    3.7867 H   0  0  0  0  0  0  0  0  0  0  0  0
    0.7466   -0.7594    3.9815 H   0  0  0  0  0  0  0  0  0  0  0  0
    2.1267   -0.2892    2.9660 H   0  0  0  0  0  0  0  0  0  0  0  0
  1  2  1  0  0  0  0
  2  3  1  0  0  0  0
  2  4  1  0  0  0  0
  2  5  1  0  0  0  0
  5  6  2  0  0  0  0
  5  7  1  0  0  0  0
  7  8  1  0  0  0  0
  7  9  1  0  0  0  0
  9 10  1  0  0  0  0
  9 11  1  0  0  0  0
  9 25  1  0  0  0  0
 11 12  1  0  0  0  0
 11 13  1  0  0  0  0
 11 14  1  0  0  0  0
 14 15  1  0  0  0  0
 14 23  2  0  0  0  0
 15 16  1  0  0  0  0
 15 17  2  0  0  0  0
 17 18  1  0  0  0  0
 17 19  1  0  0  0  0
 19 20  1  0  0  0  0
 19 21  2  0  0  0  0
 21 22  1  0  0  0  0
 21 23  1  0  0  0  0
 23 24  1  0  0  0  0
 25 26  2  0  0  0  0
 25 27  1  0  0  0  0
 27 28  1  0  0  0  0
 27 29  1  0  0  0  0
 29 30  1  0  0  0  0
 29 31  1  0  0  0  0
 29 32  1  0  0  0  0
M  END
$$$$

  -OEChem-01062216093D

 32 32  0     1  0  0  0  0  0999 V2000
   -3.4164   -2.2798    0.9575 H   0  0  0  0  0  0  0  0  0  0  0  0
   -3.2964   -1.3119    0.4626 C   0  0  0  0  0  0  0  0  0  0  0  0
   -3.7976   -0.5472    1.0607 H   0  0  0  0  0  0  0  0  0  0  0  0
   -3.7652   -1.3610   -0.5233 H   0  0  0  0  0  0  0  0  0  0  0  0
   -1.8236   -0.9758    0.3194 C   0  0  0  0  0  0  0  0  0  0  0  0
   -0.9959   -1.8082    0.6378 O   0  0  0  0  0  0  0  0  0  0  0  0
   -1.4700    0.1855   -0.3359 N   0  0  0  0  0  0  0  0  0  0  0  0
   -2.2522    0.6926   -0.7386 H   0  0  0  0  0  0  0  0  0  0  0  0
   -0.1715    0.8975   -0.3937 C   0  0  1  0  0  0  0  0  0  0  0  0
    0.3753    0.4863   -1.2483 H   0  0  0  0  0  0  0  0  0  0  0  0
   -0.5472    2.3703   -0.6937 C   0  0  0  0  0  0  0  0  0  0  0  0
   -1.2417    2.7379    0.0686 H   0  0  0  0  0  0  0  0  0  0  0  0
    0.3387    3.0119   -0.6480 H   0  0  0  0  0  0  0  0  0  0  0  0
   -1.1428    2.5218   -2.0749 C   0  0  0  0  0  0  0  0  0  0  0  0
   -0.3062    2.5916   -3.1984 C   0  0  0  0  0  0  0  0  0  0  0  0
    0.7717    2.5269   -3.0772 H   0  0  0  0  0  0  0  0  0  0  0  0
   -0.8482    2.7385   -4.4796 C   0  0  0  0  0  0  0  0  0  0  0  0
   -0.1914    2.7848   -5.3435 H   0  0  0  0  0  0  0  0  0  0  0  0
   -2.2332    2.8278   -4.6475 C   0  0  0  0  0  0  0  0  0  0  0  0
   -2.6530    2.9444   -5.6426 H   0  0  0  0  0  0  0  0  0  0  0  0
   -3.0752    2.7746   -3.5327 C   0  0  0  0  0  0  0  0  0  0  0  0
   -4.1505    2.8552   -3.6632 H   0  0  0  0  0  0  0  0  0  0  0  0
   -2.5322    2.6264   -2.2515 C   0  0  0  0  0  0  0  0  0  0  0  0
   -3.1983    2.6053   -1.3948 H   0  0  0  0  0  0  0  0  0  0  0  0
    0.8706    0.8770    0.7747 C   0  0  0  0  0  0  0  0  0  0  0  0
    1.8496    1.6044    0.6903 O   0  0  0  0  0  0  0  0  0  0  0  0
    1.1179   -0.0945    1.7133 N   0  0  0  0  0  0  0  0  0  0  0  0
    2.0952   -0.0592    1.9900 H   0  0  0  0  0  0  0  0  0  0  0  0
    0.1974   -0.2648    2.8307 C   0  0  0  0  0  0  0  0  0  0  0  0
   -0.7815    0.1758    2.6178 H   0  0  0  0  0  0  0  0  0  0  0  0
    0.0614   -1.3291    3.0481 H   0  0  0  0  0  0  0  0  0  0  0  0
    0.6012    0.2239    3.7228 H   0  0  0  0  0  0  0  0  0  0  0  0
  1  2  1  0  0  0  0
  2  3  1  0  0  0  0
  2  4  1  0  0  0  0
  2  5  1  0  0  0  0
  5  6  2  0  0  0  0
  5  7  1  0  0  0  0
  7  8  1  0  0  0  0
  7  9  1  0  0  0  0
  9 10  1  0  0  0  0
  9 11  1  0  0  0  0
  9 25  1  0  0  0  0
 11 12  1  0  0  0  0
 11 13  1  0  0  0  0
 11 14  1  0  0  0  0
 14 15  1  0  0  0  0
 14 23  2  0  0  0  0
 15 16  1  0  0  0  0
 15 17  2  0  0  0  0
 17 18  1  0  0  0  0
 17 19  1  0  0  0  0
 19 20  1  0  0  0  0
 19 21  2  0  0  0  0
 21 22  1  0  0  0  0
 21 23  1  0  0  0  0
 23 24  1  0  0  0  0
 25 26  2  0  0  0  0
 25 27  1  0  0  0  0
 27 28  1  0  0  0  0
 27 29  1  0  0  0  0
 29 30  1  0  0  0  0
 29 31  1  0  0  0  0
 29 32  1  0  0  0  0
M  END
$$$$

  -OEChem-01062216093D

 32 32  0     1  0  0  0  0  0999 V2000
   -3.7479   -2.2733    0.6463 H   0  0  0  0  0  0  0  0  0  0  0  0
   -3.5566   -1.3494    0.0930 C   0  0  0  0  0  0  0  0  0  0  0  0
   -4.1871   -0.5579    0.5054 H   0  0  0  0  0  0  0  0  0  0  0  0
   -3.8186   -1.5065   -0.9562 H   0  0  0  0  0  0  0  0  0  0  0  0
   -2.0939   -0.9617    0.2093 C   0  0  0  0  0  0  0  0  0  0  0  0
   -1.3168   -1.7517    0.7145 O   0  0  0  0  0  0  0  0  0  0  0  0
   -1.6776    0.2219   -0.3702 N   0  0  0  0  0  0  0  0  0  0  0  0
   -2.4076    0.7093   -0.8824 H   0  0  0  0  0  0  0  0  0  0  0  0
   -0.3963    0.9660   -0.2705 C   0  0  1  0  0  0  0  0  0  0  0  0
    0.2644    0.5756   -1.0509 H   0  0  0  0  0  0  0  0  0  0  0  0
   -0.7491    2.4338   -0.6190 C   0  0  0  0  0  0  0  0  0  0  0  0
   -1.5344    2.7969    0.0520 H   0  0  0  0  0  0  0  0  0  0  0  0
    0.1210    3.0822   -0.4715 H   0  0  0  0  0  0  0  0  0  0  0  0
   -1.1682    2.5724   -2.0646 C   0  0  0  0  0  0  0  0  0  0  0  0
   -0.1996    2.6498   -3.0760 C   0  0  0  0  0  0  0  0  0  0  0  0
    0.8558    2.6043   -2.8224 H   0  0  0  0  0  0  0  0  0  0  0  0
   -0.5804    2.7837   -4.4152 C   0  0  0  0  0  0  0  0  0  0  0  0
    0.1775    2.8404   -5.1912 H   0  0  0  0  0  0  0  0  0  0  0  0
   -1.9351    2.8488   -4.7541 C   0  0  0  0  0  0  0  0  0  0  0  0
   -2.2296    2.9555   -5.7942 H   0  0  0  0  0  0  0  0  0  0  0  0
   -2.9081    2.7862   -3.7522 C   0  0  0  0  0  0  0  0  0  0  0  0
   -3.9600    2.8492   -4.0155 H   0  0  0  0  0  0  0  0  0  0  0  0
   -2.5261    2.6528   -2.4127 C   0  0  0  0  0  0  0  0  0  0  0  0
   -3.2917    2.6243   -1.6434 H   0  0  0  0  0  0  0  0  0  0  0  0
    0.4636    0.8936    1.0350 C   0  0  0  0  0  0  0  0  0  0  0  0
    0.9723    1.9102    1.4945 O   0  0  0  0  0  0  0  0  0  0  0  0
    0.7319   -0.2799    1.7107 N   0  0  0  0  0  0  0  0  0  0  0  0
    0.2211   -1.1080    1.3973 H   0  0  0  0  0  0  0  0  0  0  0  0
    1.4908   -0.3582    2.9528 C   0  0  0  0  0  0  0  0  0  0  0  0
    0.9936    0.2135    3.7431 H   0  0  0  0  0  0  0  0  0  0  0  0
    1.5727   -1.3999    3.2772 H   0  0  0  0  0  0  0  0  0  0  0  0
    2.5012    0.0391    2.8108 H   0  0  0  0  0  0  0  0  0  0  0  0
  1  2  1  0  0  0  0
  2  3  1  0  0  0  0
  2  4  1  0  0  0  0
  2  5  1  0  0  0  0
  5  6  2  0  0  0  0
  5  7  1  0  0  0  0
  7  8  1  0  0  0  0
  7  9  1  0  0  0  0
  9 10  1  0  0  0  0
  9 11  1  0  0  0  0
  9 25  1  0  0  0  0
 11 12  1  0  0  0  0
 11 13  1  0  0  0  0
 11 14  1  0  0  0  0
 14 15  1  0  0  0  0
 14 23  2  0  0  0  0
 15 16  1  0  0  0  0
 15 17  2  0  0  0  0
 17 18  1  0  0  0  0
 17 19  1  0  0  0  0
 19 20  1  0  0  0  0
 19 21  2  0  0  0  0
 21 22  1  0  0  0  0
 21 23  1  0  0  0  0
 23 24  1  0  0  0  0
 25 26  2  0  0  0  0
 25 27  1  0  0  0  0
 27 28  1  0  0  0  0
 27 29  1  0  0  0  0
 29 30  1  0  0  0  0
 29 31  1  0  0  0  0
 29 32  1  0  0  0  0
M  END
$$$$

  -OEChem-01062216093D

 32 32  0     1  0  0  0  0  0999 V2000
   -3.6339   -2.2886    0.7512 H   0  0  0  0  0  0  0  0  0  0  0  0
   -3.4787   -1.3743    0.1712 C   0  0  0  0  0  0  0  0  0  0  0  0
   -4.1165   -0.5876    0.5811 H   0  0  0  0  0  0  0  0  0  0  0  0
   -3.7637   -1.5621   -0.8668 H   0  0  0  0  0  0  0  0  0  0  0  0
   -2.0235   -0.9506    0.2393 C   0  0  0  0  0  0  0  0  0  0  0  0
   -1.2097   -1.7122    0.7313 O   0  0  0  0  0  0  0  0  0  0  0  0
   -1.6477    0.2316   -0.3694 N   0  0  0  0  0  0  0  0  0  0  0  0
   -2.4002    0.7124   -0.8541 H   0  0  0  0  0  0  0  0  0  0  0  0
   -0.3717    0.9830   -0.2946 C   0  0  1  0  0  0  0  0  0  0  0  0
    0.2850    0.5902   -1.0770 H   0  0  0  0  0  0  0  0  0  0  0  0
   -0.7150    2.4512   -0.6413 C   0  0  0  0  0  0  0  0  0  0  0  0
   -1.4895    2.8234    0.0375 H   0  0  0  0  0  0  0  0  0  0  0  0
    0.1663    3.0863   -0.5000 H   0  0  0  0  0  0  0  0  0  0  0  0
   -1.1516    2.5894   -2.0815 C   0  0  0  0  0  0  0  0  0  0  0  0
   -0.1979    2.6551   -3.1079 C   0  0  0  0  0  0  0  0  0  0  0  0
    0.8608    2.6030   -2.8708 H   0  0  0  0  0  0  0  0  0  0  0  0
   -0.5986    2.7840   -4.4420 C   0  0  0  0  0  0  0  0  0  0  0  0
    0.1475    2.8289   -5.2301 H   0  0  0  0  0  0  0  0  0  0  0  0
   -1.9580    2.8584   -4.7602 C   0  0  0  0  0  0  0  0  0  0  0  0
   -2.2682    2.9613   -5.7961 H   0  0  0  0  0  0  0  0  0  0  0  0
   -2.9159    2.8091   -3.7428 C   0  0  0  0  0  0  0  0  0  0  0  0
   -3.9714    2.8795   -3.9893 H   0  0  0  0  0  0  0  0  0  0  0  0
   -2.5138    2.6783   -2.4091 C   0  0  0  0  0  0  0  0  0  0  0  0
   -3.2668    2.6586   -1.6273 H   0  0  0  0  0  0  0  0  0  0  0  0
    0.4788    0.9049    1.0125 C   0  0  0  0  0  0  0  0  0  0  0  0
    0.7751    1.9255    1.6246 O   0  0  0  0  0  0  0  0  0  0  0  0
    0.9773   -0.2886    1.4966 N   0  0  0  0  0  0  0  0  0  0  0  0
    0.5127   -1.1251    1.1349 H   0  0  0  0  0  0  0  0  0  0  0  0
    1.6959   -0.4029    2.7595 C   0  0  0  0  0  0  0  0  0  0  0  0
    1.0606   -0.0842    3.5923 H   0  0  0  0  0  0  0  0  0  0  0  0
    1.9961   -1.4414    2.9283 H   0  0  0  0  0  0  0  0  0  0  0  0
    2.5977    0.2177    2.7451 H   0  0  0  0  0  0  0  0  0  0  0  0
  1  2  1  0  0  0  0
  2  3  1  0  0  0  0
  2  4  1  0  0  0  0
  2  5  1  0  0  0  0
  5  6  2  0  0  0  0
  5  7  1  0  0  0  0
  7  8  1  0  0  0  0
  7  9  1  0  0  0  0
  9 10  1  0  0  0  0
  9 11  1  0  0  0  0
  9 25  1  0  0  0  0
 11 12  1  0  0  0  0
 11 13  1  0  0  0  0
 11 14  1  0  0  0  0
 14 15  1  0  0  0  0
 14 23  2  0  0  0  0
 15 16  1  0  0  0  0
 15 17  2  0  0  0  0
 17 18  1  0  0  0  0
 17 19  1  0  0  0  0
 19 20  1  0  0  0  0
 19 21  2  0  0  0  0
 21 22  1  0  0  0  0
 21 23  1  0  0  0  0
 23 24  1  0  0  0  0
 25 26  2  0  0  0  0
 25 27  1  0  0  0  0
 27 28  1  0  0  0  0
 27 29  1  0  0  0  0
 29 30  1  0  0  0  0
 29 31  1  0  0  0  0
 29 32  1  0  0  0  0
M  END
$$$$

  -OEChem-01062216093D

 32 32  0     1  0  0  0  0  0999 V2000
   -3.5092   -2.3111    0.8659 H   0  0  0  0  0  0  0  0  0  0  0  0
   -3.4025   -1.4054    0.2622 C   0  0  0  0  0  0  0  0  0  0  0  0
   -4.0449   -0.6276    0.6821 H   0  0  0  0  0  0  0  0  0  0  0  0
   -3.7236   -1.6227   -0.7594 H   0  0  0  0  0  0  0  0  0  0  0  0
   -1.9578   -0.9419    0.2633 C   0  0  0  0  0  0  0  0  0  0  0  0
   -1.0992   -1.6663    0.7377 O   0  0  0  0  0  0  0  0  0  0  0  0
   -1.6306    0.2348   -0.3820 N   0  0  0  0  0  0  0  0  0  0  0  0
   -2.4068    0.7098   -0.8334 H   0  0  0  0  0  0  0  0  0  0  0  0
   -0.3633    0.9962   -0.3188 C   0  0  1  0  0  0  0  0  0  0  0  0
    0.3012    0.6064   -1.0960 H   0  0  0  0  0  0  0  0  0  0  0  0
   -0.6999    2.4644   -0.6616 C   0  0  0  0  0  0  0  0  0  0  0  0
   -1.4723    2.8379    0.0192 H   0  0  0  0  0  0  0  0  0  0  0  0
    0.1868    3.0906   -0.5142 H   0  0  0  0  0  0  0  0  0  0  0  0
   -1.1424    2.6063   -2.0994 C   0  0  0  0  0  0  0  0  0  0  0  0
   -0.1922    2.6681   -3.1294 C   0  0  0  0  0  0  0  0  0  0  0  0
    0.8672    2.6105   -2.8965 H   0  0  0  0  0  0  0  0  0  0  0  0
   -0.5969    2.8006   -4.4619 C   0  0  0  0  0  0  0  0  0  0  0  0
    0.1463    2.8443   -5.2528 H   0  0  0  0  0  0  0  0  0  0  0  0
   -1.9571    2.8802   -4.7750 C   0  0  0  0  0  0  0  0  0  0  0  0
   -2.2707    2.9863   -5.8095 H   0  0  0  0  0  0  0  0  0  0  0  0
   -2.9116    2.8320   -3.7546 C   0  0  0  0  0  0  0  0  0  0  0  0
   -3.9677    2.9050   -3.9978 H   0  0  0  0  0  0  0  0  0  0  0  0
   -2.5056    2.6987   -2.4222 C   0  0  0  0  0  0  0  0  0  0  0  0
   -3.2561    2.6783   -1.6381 H   0  0  0  0  0  0  0  0  0  0  0  0
    0.4537    0.9177    1.0043 C   0  0  0  0  0  0  0  0  0  0  0  0
    0.5490    1.8936    1.7412 O   0  0  0  0  0  0  0  0  0  0  0  0
    1.1793   -0.2146    1.3207 N   0  0  0  0  0  0  0  0  0  0  0  0
    0.8047   -1.0693    0.9035 H   0  0  0  0  0  0  0  0  0  0  0  0
    1.9126   -0.3504    2.5731 C   0  0  0  0  0  0  0  0  0  0  0  0
    1.2280   -0.2940    3.4260 H   0  0  0  0  0  0  0  0  0  0  0  0
    2.4285   -1.3148    2.6035 H   0  0  0  0  0  0  0  0  0  0  0  0
    2.6614    0.4430    2.6679 H   0  0  0  0  0  0  0  0  0  0  0  0
  1  2  1  0  0  0  0
  2  3  1  0  0  0  0
  2  4  1  0  0  0  0
  2  5  1  0  0  0  0
  5  6  2  0  0  0  0
  5  7  1  0  0  0  0
  7  8  1  0  0  0  0
  7  9  1  0  0  0  0
  9 10  1  0  0  0  0
  9 11  1  0  0  0  0
  9 25  1  0  0  0  0
 11 12  1  0  0  0  0
 11 13  1  0  0  0  0
 11 14  1  0  0  0  0
 14 15  1  0  0  0  0
 14 23  2  0  0  0  0
 15 16  1  0  0  0  0
 15 17  2  0  0  0  0
 17 18  1  0  0  0  0
 17 19  1  0  0  0  0
 19 20  1  0  0  0  0
 19 21  2  0  0  0  0
 21 22  1  0  0  0  0
 21 23  1  0  0  0  0
 23 24  1  0  0  0  0
 25 26  2  0  0  0  0
 25 27  1  0  0  0  0
 27 28  1  0  0  0  0
 27 29  1  0  0  0  0
 29 30  1  0  0  0  0
 29 31  1  0  0  0  0
 29 32  1  0  0  0  0
M  END
$$$$

  -OEChem-01062216093D

 32 32  0     1  0  0  0  0  0999 V2000
   -3.3811   -2.3426    0.9649 H   0  0  0  0  0  0  0  0  0  0  0  0
   -3.3293   -1.4334    0.3594 C   0  0  0  0  0  0  0  0  0  0  0  0
   -3.9599   -0.6695    0.8208 H   0  0  0  0  0  0  0  0  0  0  0  0
   -3.7076   -1.6539   -0.6417 H   0  0  0  0  0  0  0  0  0  0  0  0
   -1.8964   -0.9417    0.2753 C   0  0  0  0  0  0  0  0  0  0  0  0
   -0.9939   -1.6372    0.7132 O   0  0  0  0  0  0  0  0  0  0  0  0
   -1.6212    0.2298   -0.4035 N   0  0  0  0  0  0  0  0  0  0  0  0
   -2.4249    0.7082   -0.7994 H   0  0  0  0  0  0  0  0  0  0  0  0
   -0.3634    1.0027   -0.3476 C   0  0  1  0  0  0  0  0  0  0  0  0
    0.3080    0.6143   -1.1194 H   0  0  0  0  0  0  0  0  0  0  0  0
   -0.6913    2.4724   -0.6838 C   0  0  0  0  0  0  0  0  0  0  0  0
   -1.4635    2.8463   -0.0029 H   0  0  0  0  0  0  0  0  0  0  0  0
    0.1990    3.0914   -0.5276 H   0  0  0  0  0  0  0  0  0  0  0  0
   -1.1361    2.6219   -2.1199 C   0  0  0  0  0  0  0  0  0  0  0  0
   -0.1869    2.6813   -3.1511 C   0  0  0  0  0  0  0  0  0  0  0  0
    0.8725    2.6184   -2.9200 H   0  0  0  0  0  0  0  0  0  0  0  0
   -0.5929    2.8191   -4.4825 C   0  0  0  0  0  0  0  0  0  0  0  0
    0.1493    2.8603   -5.2743 H   0  0  0  0  0  0  0  0  0  0  0  0
   -1.9529    2.9067   -4.7938 C   0  0  0  0  0  0  0  0  0  0  0  0
   -2.2676    3.0165   -5.8276 H   0  0  0  0  0  0  0  0  0  0  0  0
   -2.9062    2.8613   -3.7720 C   0  0  0  0  0  0  0  0  0  0  0  0
   -3.9623    2.9406   -4.0129 H   0  0  0  0  0  0  0  0  0  0  0  0
   -2.4991    2.7226   -2.4406 C   0  0  0  0  0  0  0  0  0  0  0  0
   -3.2483    2.7041   -1.6551 H   0  0  0  0  0  0  0  0  0  0  0  0
    0.4223    0.9250    0.9893 C   0  0  0  0  0  0  0  0  0  0  0  0
    0.2957    1.7996    1.8399 O   0  0  0  0  0  0  0  0  0  0  0  0
    1.3734   -0.0606    1.1755 N   0  0  0  0  0  0  0  0  0  0  0  0
    1.1918   -0.9102    0.6420 H   0  0  0  0  0  0  0  0  0  0  0  0
    2.0999   -0.2064    2.4305 C   0  0  0  0  0  0  0  0  0  0  0  0
    1.4077   -0.4304    3.2488 H   0  0  0  0  0  0  0  0  0  0  0  0
    2.8242   -1.0227    2.3533 H   0  0  0  0  0  0  0  0  0  0  0  0
    2.6438    0.7135    2.6694 H   0  0  0  0  0  0  0  0  0  0  0  0
  1  2  1  0  0  0  0
  2  3  1  0  0  0  0
  2  4  1  0  0  0  0
  2  5  1  0  0  0  0
  5  6  2  0  0  0  0
  5  7  1  0  0  0  0
  7  8  1  0  0  0  0
  7  9  1  0  0  0  0
  9 10  1  0  0  0  0
  9 11  1  0  0  0  0
  9 25  1  0  0  0  0
 11 12  1  0  0  0  0
 11 13  1  0  0  0  0
 11 14  1  0  0  0  0
 14 15  1  0  0  0  0
 14 23  2  0  0  0  0
 15 16  1  0  0  0  0
 15 17  2  0  0  0  0
 17 18  1  0  0  0  0
 17 19  1  0  0  0  0
 19 20  1  0  0  0  0
 19 21  2  0  0  0  0
 21 22  1  0  0  0  0
 21 23  1  0  0  0  0
 23 24  1  0  0  0  0
 25 26  2  0  0  0  0
 25 27  1  0  0  0  0
 27 28  1  0  0  0  0
 27 29  1  0  0  0  0
 29 30  1  0  0  0  0
 29 31  1  0  0  0  0
 29 32  1  0  0  0  0
M  END
$$$$

  -OEChem-01062216093D

 32 32  0     1  0  0  0  0  0999 V2000
   -3.3023   -2.3466    1.0393 H   0  0  0  0  0  0  0  0  0  0  0  0
   -3.2805   -1.4469    0.4179 C   0  0  0  0  0  0  0  0  0  0  0  0
   -3.9049   -0.6824    0.8867 H   0  0  0  0  0  0  0  0  0  0  0  0
   -3.6864   -1.6881   -0.5676 H   0  0  0  0  0  0  0  0  0  0  0  0
   -1.8570   -0.9407    0.2815 C   0  0  0  0  0  0  0  0  0  0  0  0
   -0.9323   -1.6187    0.7012 O   0  0  0  0  0  0  0  0  0  0  0  0
   -1.6118    0.2222   -0.4235 N   0  0  0  0  0  0  0  0  0  0  0  0
   -2.4318    0.7061   -0.7763 H   0  0  0  0  0  0  0  0  0  0  0  0
   -0.3595    1.0013   -0.3729 C   0  0  1  0  0  0  0  0  0  0  0  0
    0.3154    0.6130   -1.1416 H   0  0  0  0  0  0  0  0  0  0  0  0
   -0.6829    2.4716   -0.7025 C   0  0  0  0  0  0  0  0  0  0  0  0
   -1.4538    2.8448   -0.0195 H   0  0  0  0  0  0  0  0  0  0  0  0
    0.2095    3.0863   -0.5428 H   0  0  0  0  0  0  0  0  0  0  0  0
   -1.1320    2.6286   -2.1359 C   0  0  0  0  0  0  0  0  0  0  0  0
   -0.1872    2.6890   -3.1710 C   0  0  0  0  0  0  0  0  0  0  0  0
    0.8729    2.6206   -2.9449 H   0  0  0  0  0  0  0  0  0  0  0  0
   -0.5985    2.8346   -4.5000 C   0  0  0  0  0  0  0  0  0  0  0  0
    0.1400    2.8770   -5.2954 H   0  0  0  0  0  0  0  0  0  0  0  0
   -1.9597    2.9286   -4.8044 C   0  0  0  0  0  0  0  0  0  0  0  0
   -2.2794    3.0434   -5.8360 H   0  0  0  0  0  0  0  0  0  0  0  0
   -2.9083    2.8818   -3.7785 C   0  0  0  0  0  0  0  0  0  0  0  0
   -3.9654    2.9653   -4.0136 H   0  0  0  0  0  0  0  0  0  0  0  0
   -2.4958    2.7357   -2.4497 C   0  0  0  0  0  0  0  0  0  0  0  0
   -3.2420    2.7154   -1.6614 H   0  0  0  0  0  0  0  0  0  0  0  0
    0.4059    0.9329    0.9733 C   0  0  0  0  0  0  0  0  0  0  0  0
    0.0734    1.6520    1.9096 O   0  0  0  0  0  0  0  0  0  0  0  0
    1.5531    0.1682    1.0790 N   0  0  0  0  0  0  0  0  0  0  0  0
    1.6212   -0.5923    0.4075 H   0  0  0  0  0  0  0  0  0  0  0  0
    2.2633    0.0135    2.3422 C   0  0  0  0  0  0  0  0  0  0  0  0
    1.6162   -0.4595    3.0882 H   0  0  0  0  0  0  0  0  0  0  0  0
    3.1494   -0.6128    2.2026 H   0  0  0  0  0  0  0  0  0  0  0  0
    2.5874    0.9877    2.7230 H   0  0  0  0  0  0  0  0  0  0  0  0
  1  2  1  0  0  0  0
  2  3  1  0  0  0  0
  2  4  1  0  0  0  0
  2  5  1  0  0  0  0
  5  6  2  0  0  0  0
  5  7  1  0  0  0  0
  7  8  1  0  0  0  0
  7  9  1  0  0  0  0
  9 10  1  0  0  0  0
  9 11  1  0  0  0  0
  9 25  1  0  0  0  0
 11 12  1  0  0  0  0
 11 13  1  0  0  0  0
 11 14  1  0  0  0  0
 14 15  1  0  0  0  0
 14 23  2  0  0  0  0
 15 16  1  0  0  0  0
 15 17  2  0  0  0  0
 17 18  1  0  0  0  0
 17 19  1  0  0  0  0
 19 20  1  0  0  0  0
 19 21  2  0  0  0  0
 21 22  1  0  0  0  0
 21 23  1  0  0  0  0
 23 24  1  0  0  0  0
 25 26  2  0  0  0  0
 25 27  1  0  0  0  0
 27 28  1  0  0  0  0
 27 29  1  0  0  0  0
 29 30  1  0  0  0  0
 29 31  1  0  0  0  0
 29 32  1  0  0  0  0
M  END
$$$$

  -OEChem-01062216093D

 32 32  0     1  0  0  0  0  0999 V2000
   -3.2674   -2.3474    1.0820 H   0  0  0  0  0  0  0  0  0  0  0  0
   -3.2607   -1.4491    0.4584 C   0  0  0  0  0  0  0  0  0  0  0  0
   -3.8627   -0.6793    0.9468 H   0  0  0  0  0  0  0  0  0  0  0  0
   -3.7021   -1.6886   -0.5119 H   0  0  0  0  0  0  0  0  0  0  0  0
   -1.8391   -0.9535    0.2732 C   0  0  0  0  0  0  0  0  0  0  0  0
   -0.9040   -1.6356    0.6632 O   0  0  0  0  0  0  0  0  0  0  0  0
   -1.6089    0.2041   -0.4458 N   0  0  0  0  0  0  0  0  0  0  0  0
   -2.4386    0.6963   -0.7615 H   0  0  0  0  0  0  0  0  0  0  0  0
   -0.3605    0.9886   -0.3911 C   0  0  1  0  0  0  0  0  0  0  0  0
    0.3197    0.6013   -1.1554 H   0  0  0  0  0  0  0  0  0  0  0  0
   -0.6825    2.4601   -0.7110 C   0  0  0  0  0  0  0  0  0  0  0  0
   -1.4538    2.8286   -0.0260 H   0  0  0  0  0  0  0  0  0  0  0  0
    0.2104    3.0730   -0.5462 H   0  0  0  0  0  0  0  0  0  0  0  0
   -1.1307    2.6274   -2.1435 C   0  0  0  0  0  0  0  0  0  0  0  0
   -0.1855    2.6943   -3.1779 C   0  0  0  0  0  0  0  0  0  0  0  0
    0.8745    2.6233   -2.9527 H   0  0  0  0  0  0  0  0  0  0  0  0
   -0.5966    2.8484   -4.5062 C   0  0  0  0  0  0  0  0  0  0  0  0
    0.1419    2.8939   -5.3013 H   0  0  0  0  0  0  0  0  0  0  0  0
   -1.9576    2.9470   -4.8103 C   0  0  0  0  0  0  0  0  0  0  0  0
   -2.2767    3.0693   -5.8414 H   0  0  0  0  0  0  0  0  0  0  0  0
   -2.9064    2.8953   -3.7847 C   0  0  0  0  0  0  0  0  0  0  0  0
   -3.9631    2.9829   -4.0198 H   0  0  0  0  0  0  0  0  0  0  0  0
   -2.4943    2.7379   -2.4571 C   0  0  0  0  0  0  0  0  0  0  0  0
   -3.2408    2.7115   -1.6693 H   0  0  0  0  0  0  0  0  0  0  0  0
    0.3878    0.9294    0.9635 C   0  0  0  0  0  0  0  0  0  0  0  0
   -0.1023    1.4598    1.9549 O   0  0  0  0  0  0  0  0  0  0  0  0
    1.6792    0.4382    1.0249 N   0  0  0  0  0  0  0  0  0  0  0  0
    1.9594   -0.1622    0.2551 H   0  0  0  0  0  0  0  0  0  0  0  0
    2.4016    0.3125    2.2845 C   0  0  0  0  0  0  0  0  0  0  0  0
    1.8699   -0.3629    2.9632 H   0  0  0  0  0  0  0  0  0  0  0  0
    3.4036   -0.0895    2.1067 H   0  0  0  0  0  0  0  0  0  0  0  0
    2.5041    1.2898    2.7679 H   0  0  0  0  0  0  0  0  0  0  0  0
  1  2  1  0  0  0  0
  2  3  1  0  0  0  0
  2  4  1  0  0  0  0
  2  5  1  0  0  0  0
  5  6  2  0  0  0  0
  5  7  1  0  0  0  0
  7  8  1  0  0  0  0
  7  9  1  0  0  0  0
  9 10  1  0  0  0  0
  9 11  1  0  0  0  0
  9 25  1  0  0  0  0
 11 12  1  0  0  0  0
 11 13  1  0  0  0  0
 11 14  1  0  0  0  0
 14 15  1  0  0  0  0
 14 23  2  0  0  0  0
 15 16  1  0  0  0  0
 15 17  2  0  0  0  0
 17 18  1  0  0  0  0
 17 19  1  0  0  0  0
 19 20  1  0  0  0  0
 19 21  2  0  0  0  0
 21 22  1  0  0  0  0
 21 23  1  0  0  0  0
 23 24  1  0  0  0  0
 25 26  2  0  0  0  0
 25 27  1  0  0  0  0
 27 28  1  0  0  0  0
 27 29  1  0  0  0  0
 29 30  1  0  0  0  0
 29 31  1  0  0  0  0
 29 32  1  0  0  0  0
M  END
$$$$

  -OEChem-01062216093D

 32 32  0     1  0  0  0  0  0999 V2000
   -3.2607   -2.3478    1.1128 H   0  0  0  0  0  0  0  0  0  0  0  0
   -3.2610   -1.4518    0.4857 C   0  0  0  0  0  0  0  0  0  0  0  0
   -3.8395   -0.6730    0.9885 H   0  0  0  0  0  0  0  0  0  0  0  0
   -3.7325   -1.6898   -0.4707 H   0  0  0  0  0  0  0  0  0  0  0  0
   -1.8394   -0.9739    0.2587 C   0  0  0  0  0  0  0  0  0  0  0  0
   -0.9015   -1.6713    0.6138 O   0  0  0  0  0  0  0  0  0  0  0  0
   -1.6138    0.1810   -0.4665 N   0  0  0  0  0  0  0  0  0  0  0  0
   -2.4476    0.6868   -0.7472 H   0  0  0  0  0  0  0  0  0  0  0  0
   -0.3656    0.9654   -0.4007 C   0  0  1  0  0  0  0  0  0  0  0  0
    0.3196    0.5780   -1.1605 H   0  0  0  0  0  0  0  0  0  0  0  0
   -0.6859    2.4385   -0.7107 C   0  0  0  0  0  0  0  0  0  0  0  0
   -1.4590    2.8012   -0.0246 H   0  0  0  0  0  0  0  0  0  0  0  0
    0.2062    3.0503   -0.5380 H   0  0  0  0  0  0  0  0  0  0  0  0
   -1.1280    2.6193   -2.1432 C   0  0  0  0  0  0  0  0  0  0  0  0
   -0.1790    2.6951   -3.1735 C   0  0  0  0  0  0  0  0  0  0  0  0
    0.8801    2.6206   -2.9457 H   0  0  0  0  0  0  0  0  0  0  0  0
   -0.5852    2.8653   -4.5013 C   0  0  0  0  0  0  0  0  0  0  0  0
    0.1559    2.9200   -5.2933 H   0  0  0  0  0  0  0  0  0  0  0  0
   -1.9452    2.9678   -4.8090 C   0  0  0  0  0  0  0  0  0  0  0  0
   -2.2608    3.1018   -5.8396 H   0  0  0  0  0  0  0  0  0  0  0  0
   -2.8980    2.9037   -3.7879 C   0  0  0  0  0  0  0  0  0  0  0  0
   -3.9541    2.9918   -4.0256 H   0  0  0  0  0  0  0  0  0  0  0  0
   -2.4905    2.7327   -2.4606 C   0  0  0  0  0  0  0  0  0  0  0  0
   -3.2399    2.6971   -1.6760 H   0  0  0  0  0  0  0  0  0  0  0  0
    0.3723    0.9136    0.9592 C   0  0  0  0  0  0  0  0  0  0  0  0
   -0.2140    1.2550    1.9812 O   0  0  0  0  0  0  0  0  0  0  0  0
    1.7419    0.7240    0.9999 N   0  0  0  0  0  0  0  0  0  0  0  0
    2.1684    0.3232    0.1702 H   0  0  0  0  0  0  0  0  0  0  0  0
    2.4865    0.6715    2.2520 C   0  0  0  0  0  0  0  0  0  0  0  0
    2.1174   -0.1439    2.8831 H   0  0  0  0  0  0  0  0  0  0  0  0
    3.5490    0.5029    2.0529 H   0  0  0  0  0  0  0  0  0  0  0  0
    2.3840    1.6145    2.7991 H   0  0  0  0  0  0  0  0  0  0  0  0
  1  2  1  0  0  0  0
  2  3  1  0  0  0  0
  2  4  1  0  0  0  0
  2  5  1  0  0  0  0
  5  6  2  0  0  0  0
  5  7  1  0  0  0  0
  7  8  1  0  0  0  0
  7  9  1  0  0  0  0
  9 10  1  0  0  0  0
  9 11  1  0  0  0  0
  9 25  1  0  0  0  0
 11 12  1  0  0  0  0
 11 13  1  0  0  0  0
 11 14  1  0  0  0  0
 14 15  1  0  0  0  0
 14 23  2  0  0  0  0
 15 16  1  0  0  0  0
 15 17  2  0  0  0  0
 17 18  1  0  0  0  0
 17 19  1  0  0  0  0
 19 20  1  0  0  0  0
 19 21  2  0  0  0  0
 21 22  1  0  0  0  0
 21 23  1  0  0  0  0
 23 24  1  0  0  0  0
 25 26  2  0  0  0  0
 25 27  1  0  0  0  0
 27 28  1  0  0  0  0
 27 29  1  0  0  0  0
 29 30  1  0  0  0  0
 29 31  1  0  0  0  0
 29 32  1  0  0  0  0
M  END
$$$$

  -OEChem-01062216093D

 32 32  0     1  0  0  0  0  0999 V2000
   -3.2580   -2.3574    1.1199 H   0  0  0  0  0  0  0  0  0  0  0  0
   -3.2643   -1.4512    0.5078 C   0  0  0  0  0  0  0  0  0  0  0  0
   -3.8080   -0.6702    1.0449 H   0  0  0  0  0  0  0  0  0  0  0  0
   -3.7756   -1.6635   -0.4340 H   0  0  0  0  0  0  0  0  0  0  0  0
   -1.8425   -0.9971    0.2364 C   0  0  0  0  0  0  0  0  0  0  0  0
   -0.9052   -1.7189    0.5416 O   0  0  0  0  0  0  0  0  0  0  0  0
   -1.6179    0.1604   -0.4851 N   0  0  0  0  0  0  0  0  0  0  0  0
   -2.4535    0.6795   -0.7329 H   0  0  0  0  0  0  0  0  0  0  0  0
   -0.3679    0.9420   -0.4052 C   0  0  1  0  0  0  0  0  0  0  0  0
    0.3212    0.5573   -1.1625 H   0  0  0  0  0  0  0  0  0  0  0  0
   -0.6893    2.4177   -0.7046 C   0  0  0  0  0  0  0  0  0  0  0  0
   -1.4666    2.7715   -0.0186 H   0  0  0  0  0  0  0  0  0  0  0  0
    0.1996    3.0316   -0.5233 H   0  0  0  0  0  0  0  0  0  0  0  0
   -1.1248    2.6110   -2.1376 C   0  0  0  0  0  0  0  0  0  0  0  0
   -0.1713    2.6977   -3.1630 C   0  0  0  0  0  0  0  0  0  0  0  0
    0.8869    2.6218   -2.9318 H   0  0  0  0  0  0  0  0  0  0  0  0
   -0.5716    2.8783   -4.4913 C   0  0  0  0  0  0  0  0  0  0  0  0
    0.1730    2.9387   -5.2799 H   0  0  0  0  0  0  0  0  0  0  0  0
   -1.9301    2.9822   -4.8045 C   0  0  0  0  0  0  0  0  0  0  0  0
   -2.2412    3.1231   -5.8357 H   0  0  0  0  0  0  0  0  0  0  0  0
   -2.8872    2.9097   -3.7881 C   0  0  0  0  0  0  0  0  0  0  0  0
   -3.9422    2.9990   -4.0302 H   0  0  0  0  0  0  0  0  0  0  0  0
   -2.4859    2.7274   -2.4603 C   0  0  0  0  0  0  0  0  0  0  0  0
   -3.2394    2.6851   -1.6797 H   0  0  0  0  0  0  0  0  0  0  0  0
    0.3666    0.8885    0.9577 C   0  0  0  0  0  0  0  0  0  0  0  0
   -0.2679    1.0372    1.9971 O   0  0  0  0  0  0  0  0  0  0  0  0
    1.7445    1.0099    1.0025 N   0  0  0  0  0  0  0  0  0  0  0  0
    2.2513    0.8210    0.1433 H   0  0  0  0  0  0  0  0  0  0  0  0
    2.4905    1.0522    2.2543 C   0  0  0  0  0  0  0  0  0  0  0  0
    2.3093    0.1435    2.8383 H   0  0  0  0  0  0  0  0  0  0  0  0
    3.5633    1.1274    2.0529 H   0  0  0  0  0  0  0  0  0  0  0  0
    2.1898    1.9201    2.8507 H   0  0  0  0  0  0  0  0  0  0  0  0
  1  2  1  0  0  0  0
  2  3  1  0  0  0  0
  2  4  1  0  0  0  0
  2  5  1  0  0  0  0
  5  6  2  0  0  0  0
  5  7  1  0  0  0  0
  7  8  1  0  0  0  0
  7  9  1  0  0  0  0
  9 10  1  0  0  0  0
  9 11  1  0  0  0  0
  9 25  1  0  0  0  0
 11 12  1  0  0  0  0
 11 13  1  0  0  0  0
 11 14  1  0  0  0  0
 14 15  1  0  0  0  0
 14 23  2  0  0  0  0
 15 16  1  0  0  0  0
 15 17  2  0  0  0  0
 17 18  1  0  0  0  0
 17 19  1  0  0  0  0
 19 20  1  0  0  0  0
 19 21  2  0  0  0  0
 21 22  1  0  0  0  0
 21 23  1  0  0  0  0
 23 24  1  0  0  0  0
 25 26  2  0  0  0  0
 25 27  1  0  0  0  0
 27 28  1  0  0  0  0
 27 29  1  0  0  0  0
 29 30  1  0  0  0  0
 29 31  1  0  0  0  0
 29 32  1  0  0  0  0
M  END
$$$$

  -OEChem-01062216093D

 32 32  0     1  0  0  0  0  0999 V2000
   -3.2729   -2.3361    1.1477 H   0  0  0  0  0  0  0  0  0  0  0  0
   -3.2747   -1.4421    0.5176 C   0  0  0  0  0  0  0  0  0  0  0  0
   -3.7954   -0.6416    1.0485 H   0  0  0  0  0  0  0  0  0  0  0  0
   -3.8053   -1.6637   -0.4113 H   0  0  0  0  0  0  0  0  0  0  0  0
   -1.8507   -1.0181    0.2127 C   0  0  0  0  0  0  0  0  0  0  0  0
   -0.9231   -1.7714    0.4670 O   0  0  0  0  0  0  0  0  0  0  0  0
   -1.6164    0.1431   -0.4995 N   0  0  0  0  0  0  0  0  0  0  0  0
   -2.4492    0.6778   -0.7220 H   0  0  0  0  0  0  0  0  0  0  0  0
   -0.3610    0.9158   -0.4035 C   0  0  1  0  0  0  0  0  0  0  0  0
    0.3309    0.5350   -1.1607 H   0  0  0  0  0  0  0  0  0  0  0  0
   -0.6919    2.3924   -0.6951 C   0  0  0  0  0  0  0  0  0  0  0  0
   -1.4743    2.7344   -0.0090 H   0  0  0  0  0  0  0  0  0  0  0  0
    0.1888    3.0155   -0.5072 H   0  0  0  0  0  0  0  0  0  0  0  0
   -1.1224    2.5964   -2.1284 C   0  0  0  0  0  0  0  0  0  0  0  0
   -0.1651    2.6993   -3.1490 C   0  0  0  0  0  0  0  0  0  0  0  0
    0.8925    2.6249   -2.9154 H   0  0  0  0  0  0  0  0  0  0  0  0
   -0.5609    2.8970   -4.4764 C   0  0  0  0  0  0  0  0  0  0  0  0
    0.1866    2.9732   -5.2608 H   0  0  0  0  0  0  0  0  0  0  0  0
   -1.9185    2.9991   -4.7941 C   0  0  0  0  0  0  0  0  0  0  0  0
   -2.2257    3.1546   -5.8244 H   0  0  0  0  0  0  0  0  0  0  0  0
   -2.8794    2.9060   -3.7831 C   0  0  0  0  0  0  0  0  0  0  0  0
   -3.9339    2.9917   -4.0286 H   0  0  0  0  0  0  0  0  0  0  0  0
   -2.4826    2.7082   -2.4561 C   0  0  0  0  0  0  0  0  0  0  0  0
   -3.2394    2.6498   -1.6801 H   0  0  0  0  0  0  0  0  0  0  0  0
    0.3779    0.8600    0.9598 C   0  0  0  0  0  0  0  0  0  0  0  0
   -0.2613    0.8168    2.0059 O   0  0  0  0  0  0  0  0  0  0  0  0
    1.6949    1.2825    1.0338 N   0  0  0  0  0  0  0  0  0  0  0  0
    2.2213    1.3148    0.1664 H   0  0  0  0  0  0  0  0  0  0  0  0
    2.4164    1.4240    2.2934 C   0  0  0  0  0  0  0  0  0  0  0  0
    2.4363    0.4712    2.8330 H   0  0  0  0  0  0  0  0  0  0  0  0
    3.4477    1.7374    2.1056 H   0  0  0  0  0  0  0  0  0  0  0  0
    1.9375    2.1778    2.9272 H   0  0  0  0  0  0  0  0  0  0  0  0
  1  2  1  0  0  0  0
  2  3  1  0  0  0  0
  2  4  1  0  0  0  0
  2  5  1  0  0  0  0
  5  6  2  0  0  0  0
  5  7  1  0  0  0  0
  7  8  1  0  0  0  0
  7  9  1  0  0  0  0
  9 10  1  0  0  0  0
  9 11  1  0  0  0  0
  9 25  1  0  0  0  0
 11 12  1  0  0  0  0
 11 13  1  0  0  0  0
 11 14  1  0  0  0  0
 14 15  1  0  0  0  0
 14 23  2  0  0  0  0
 15 16  1  0  0  0  0
 15 17  2  0  0  0  0
 17 18  1  0  0  0  0
 17 19  1  0  0  0  0
 19 20  1  0  0  0  0
 19 21  2  0  0  0  0
 21 22  1  0  0  0  0
 21 23  1  0  0  0  0
 23 24  1  0  0  0  0
 25 26  2  0  0  0  0
 25 27  1  0  0  0  0
 27 28  1  0  0  0  0
 27 29  1  0  0  0  0
 29 30  1  0  0  0  0
 29 31  1  0  0  0  0
 29 32  1  0  0  0  0
M  END
$$$$

  -OEChem-01062216093D

 32 32  0     1  0  0  0  0  0999 V2000
   -3.3838   -2.3013    1.0383 H   0  0  0  0  0  0  0  0  0  0  0  0
   -3.3368   -1.3466    0.5066 C   0  0  0  0  0  0  0  0  0  0  0  0
   -3.7216   -0.5621    1.1622 H   0  0  0  0  0  0  0  0  0  0  0  0
   -3.9608   -1.4076   -0.3880 H   0  0  0  0  0  0  0  0  0  0  0  0
   -1.9029   -1.0384    0.1200 C   0  0  0  0  0  0  0  0  0  0  0  0
   -1.0613   -1.9210    0.1720 O   0  0  0  0  0  0  0  0  0  0  0  0
   -1.6076    0.1446   -0.5304 N   0  0  0  0  0  0  0  0  0  0  0  0
   -2.4213    0.7235   -0.7089 H   0  0  0  0  0  0  0  0  0  0  0  0
   -0.3390    0.8959   -0.3965 C   0  0  1  0  0  0  0  0  0  0  0  0
    0.2405    0.7309   -1.3095 H   0  0  0  0  0  0  0  0  0  0  0  0
   -0.7362    2.3859   -0.2938 C   0  0  0  0  0  0  0  0  0  0  0  0
   -1.4392    2.5193    0.5357 H   0  0  0  0  0  0  0  0  0  0  0  0
    0.1388    3.0021   -0.0663 H   0  0  0  0  0  0  0  0  0  0  0  0
   -1.3393    2.8926   -1.5833 C   0  0  0  0  0  0  0  0  0  0  0  0
   -0.5110    3.2740   -2.6496 C   0  0  0  0  0  0  0  0  0  0  0  0
    0.5680    3.1969   -2.5586 H   0  0  0  0  0  0  0  0  0  0  0  0
   -1.0635    3.7524   -3.8424 C   0  0  0  0  0  0  0  0  0  0  0  0
   -0.4147    4.0405   -4.6647 H   0  0  0  0  0  0  0  0  0  0  0  0
   -2.4506    3.8607   -3.9771 C   0  0  0  0  0  0  0  0  0  0  0  0
   -2.8790    4.2334   -4.9032 H   0  0  0  0  0  0  0  0  0  0  0  0
   -3.2842    3.4936   -2.9168 C   0  0  0  0  0  0  0  0  0  0  0  0
   -4.3617    3.5846   -3.0194 H   0  0  0  0  0  0  0  0  0  0  0  0
   -2.7309    3.0153   -1.7240 C   0  0  0  0  0  0  0  0  0  0  0  0
   -3.3912    2.7481   -0.9046 H   0  0  0  0  0  0  0  0  0  0  0  0
    0.6183    0.5648    0.7875 C   0  0  0  0  0  0  0  0  0  0  0  0
    0.1915    0.0992    1.8372 O   0  0  0  0  0  0  0  0  0  0  0  0
    1.8077    1.2702    0.8947 N   0  0  0  0  0  0  0  0  0  0  0  0
    2.1562    1.7217    0.0553 H   0  0  0  0  0  0  0  0  0  0  0  0
    2.6700    1.2270    2.0712 C   0  0  0  0  0  0  0  0  0  0  0  0
    2.9455    0.1936    2.3067 H   0  0  0  0  0  0  0  0  0  0  0  0
    3.5864    1.7963    1.8888 H   0  0  0  0  0  0  0  0  0  0  0  0
    2.1603    1.6617    2.9373 H   0  0  0  0  0  0  0  0  0  0  0  0
  1  2  1  0  0  0  0
  2  3  1  0  0  0  0
  2  4  1  0  0  0  0
  2  5  1  0  0  0  0
  5  6  2  0  0  0  0
  5  7  1  0  0  0  0
  7  8  1  0  0  0  0
  7  9  1  0  0  0  0
  9 10  1  0  0  0  0
  9 11  1  0  0  0  0
  9 25  1  0  0  0  0
 11 12  1  0  0  0  0
 11 13  1  0  0  0  0
 11 14  1  0  0  0  0
 14 15  1  0  0  0  0
 14 23  2  0  0  0  0
 15 16  1  0  0  0  0
 15 17  2  0  0  0  0
 17 18  1  0  0  0  0
 17 19  1  0  0  0  0
 19 20  1  0  0  0  0
 19 21  2  0  0  0  0
 21 22  1  0  0  0  0
 21 23  1  0  0  0  0
 23 24  1  0  0  0  0
 25 26  2  0  0  0  0
 25 27  1  0  0  0  0
 27 28  1  0  0  0  0
 27 29  1  0  0  0  0
 29 30  1  0  0  0  0
 29 31  1  0  0  0  0
 29 32  1  0  0  0  0
M  END
$$$$

  -OEChem-01062216093D

 32 32  0     1  0  0  0  0  0999 V2000
   -3.3822   -2.2881    1.0042 H   0  0  0  0  0  0  0  0  0  0  0  0
   -3.3177   -1.3009    0.5378 C   0  0  0  0  0  0  0  0  0  0  0  0
   -3.6244   -0.5487    1.2684 H   0  0  0  0  0  0  0  0  0  0  0  0
   -3.9946   -1.2688   -0.3192 H   0  0  0  0  0  0  0  0  0  0  0  0
   -1.8942   -1.0322    0.0877 C   0  0  0  0  0  0  0  0  0  0  0  0
   -1.0996   -1.9557    0.0260 O   0  0  0  0  0  0  0  0  0  0  0  0
   -1.5882    0.1640   -0.5319 N   0  0  0  0  0  0  0  0  0  0  0  0
   -2.4023    0.7488   -0.6868 H   0  0  0  0  0  0  0  0  0  0  0  0
   -0.3243    0.9237   -0.3826 C   0  0  1  0  0  0  0  0  0  0  0  0
    0.2588    0.7709   -1.2957 H   0  0  0  0  0  0  0  0  0  0  0  0
   -0.7619    2.4068   -0.2925 C   0  0  0  0  0  0  0  0  0  0  0  0
   -1.4779    2.5279    0.5276 H   0  0  0  0  0  0  0  0  0  0  0  0
    0.0892    3.0542   -0.0648 H   0  0  0  0  0  0  0  0  0  0  0  0
   -1.3587    2.8927   -1.5933 C   0  0  0  0  0  0  0  0  0  0  0  0
   -0.5258    3.2907   -2.6500 C   0  0  0  0  0  0  0  0  0  0  0  0
    0.5536    3.2402   -2.5453 H   0  0  0  0  0  0  0  0  0  0  0  0
   -1.0741    3.7511   -3.8518 C   0  0  0  0  0  0  0  0  0  0  0  0
   -0.4222    4.0524   -4.6667 H   0  0  0  0  0  0  0  0  0  0  0  0
   -2.4615    3.8248   -4.0051 C   0  0  0  0  0  0  0  0  0  0  0  0
   -2.8873    4.1831   -4.9381 H   0  0  0  0  0  0  0  0  0  0  0  0
   -3.2999    3.4418   -2.9543 C   0  0  0  0  0  0  0  0  0  0  0  0
   -4.3778    3.5060   -3.0715 H   0  0  0  0  0  0  0  0  0  0  0  0
   -2.7510    2.9821   -1.7524 C   0  0  0  0  0  0  0  0  0  0  0  0
   -3.4161    2.7030   -0.9411 H   0  0  0  0  0  0  0  0  0  0  0  0
    0.6531    0.5965    0.7946 C   0  0  0  0  0  0  0  0  0  0  0  0
    0.3580   -0.1672    1.7026 O   0  0  0  0  0  0  0  0  0  0  0  0
    1.6654    1.4937    1.1065 N   0  0  0  0  0  0  0  0  0  0  0  0
    1.9168    2.1755    0.3982 H   0  0  0  0  0  0  0  0  0  0  0  0
    2.4964    1.3977    2.3032 C   0  0  0  0  0  0  0  0  0  0  0  0
    3.0016    0.4269    2.3426 H   0  0  0  0  0  0  0  0  0  0  0  0
    3.2577    2.1835    2.2997 H   0  0  0  0  0  0  0  0  0  0  0  0
    1.8851    1.5138    3.2044 H   0  0  0  0  0  0  0  0  0  0  0  0
  1  2  1  0  0  0  0
  2  3  1  0  0  0  0
  2  4  1  0  0  0  0
  2  5  1  0  0  0  0
  5  6  2  0  0  0  0
  5  7  1  0  0  0  0
  7  8  1  0  0  0  0
  7  9  1  0  0  0  0
  9 10  1  0  0  0  0
  9 11  1  0  0  0  0
  9 25  1  0  0  0  0
 11 12  1  0  0  0  0
 11 13  1  0  0  0  0
 11 14  1  0  0  0  0
 14 15  1  0  0  0  0
 14 23  2  0  0  0  0
 15 16  1  0  0  0  0
 15 17  2  0  0  0  0
 17 18  1  0  0  0  0
 17 19  1  0  0  0  0
 19 20  1  0  0  0  0
 19 21  2  0  0  0  0
 21 22  1  0  0  0  0
 21 23  1  0  0  0  0
 23 24  1  0  0  0  0
 25 26  2  0  0  0  0
 25 27  1  0  0  0  0
 27 28  1  0  0  0  0
 27 29  1  0  0  0  0
 29 30  1  0  0  0  0
 29 31  1  0  0  0  0
 29 32  1  0  0  0  0
M  END
$$$$

  -OEChem-01062216093D

 32 32  0     1  0  0  0  0  0999 V2000
   -3.3390   -2.4503    0.7078 H   0  0  0  0  0  0  0  0  0  0  0  0
   -3.1725   -1.6254    0.0091 C   0  0  0  0  0  0  0  0  0  0  0  0
   -4.1287   -1.1415   -0.2033 H   0  0  0  0  0  0  0  0  0  0  0  0
   -2.7604   -2.0309   -0.9180 H   0  0  0  0  0  0  0  0  0  0  0  0
   -2.2057   -0.6226    0.6102 C   0  0  0  0  0  0  0  0  0  0  0  0
   -1.9921   -0.6521    1.8098 O   0  0  0  0  0  0  0  0  0  0  0  0
   -1.8254    0.4772   -0.1355 N   0  0  0  0  0  0  0  0  0  0  0  0
   -2.2910    0.5152   -1.0375 H   0  0  0  0  0  0  0  0  0  0  0  0
   -0.4862    1.1130   -0.1430 C   0  0  1  0  0  0  0  0  0  0  0  0
    0.0244    0.8102   -1.0626 H   0  0  0  0  0  0  0  0  0  0  0  0
   -0.7557    2.6326   -0.2075 C   0  0  0  0  0  0  0  0  0  0  0  0
   -1.4042    2.9276    0.6250 H   0  0  0  0  0  0  0  0  0  0  0  0
    0.1752    3.1974   -0.1116 H   0  0  0  0  0  0  0  0  0  0  0  0
   -1.3789    3.0158   -1.5306 C   0  0  0  0  0  0  0  0  0  0  0  0
   -0.5807    3.1886   -2.6718 C   0  0  0  0  0  0  0  0  0  0  0  0
    0.4943    3.0463   -2.6133 H   0  0  0  0  0  0  0  0  0  0  0  0
   -1.1594    3.5424   -3.8956 C   0  0  0  0  0  0  0  0  0  0  0  0
   -0.5345    3.6734   -4.7744 H   0  0  0  0  0  0  0  0  0  0  0  0
   -2.5419    3.7303   -3.9876 C   0  0  0  0  0  0  0  0  0  0  0  0
   -2.9911    4.0079   -4.9370 H   0  0  0  0  0  0  0  0  0  0  0  0
   -3.3448    3.5641   -2.8552 C   0  0  0  0  0  0  0  0  0  0  0  0
   -4.4182    3.7159   -2.9239 H   0  0  0  0  0  0  0  0  0  0  0  0
   -2.7649    3.2089   -1.6327 C   0  0  0  0  0  0  0  0  0  0  0  0
   -3.3967    3.0842   -0.7577 H   0  0  0  0  0  0  0  0  0  0  0  0
    0.5157    0.7497    0.9935 C   0  0  0  0  0  0  0  0  0  0  0  0
    0.8091   -0.4282    1.1564 O   0  0  0  0  0  0  0  0  0  0  0  0
    1.4624    1.6604    1.4405 N   0  0  0  0  0  0  0  0  0  0  0  0
    1.2596    2.6438    1.2982 H   0  0  0  0  0  0  0  0  0  0  0  0
    2.5552    1.3044    2.3404 C   0  0  0  0  0  0  0  0  0  0  0  0
    3.2355    0.5956    1.8567 H   0  0  0  0  0  0  0  0  0  0  0  0
    3.1258    2.1969    2.6145 H   0  0  0  0  0  0  0  0  0  0  0  0
    2.1643    0.8482    3.2561 H   0  0  0  0  0  0  0  0  0  0  0  0
  1  2  1  0  0  0  0
  2  3  1  0  0  0  0
  2  4  1  0  0  0  0
  2  5  1  0  0  0  0
  5  6  2  0  0  0  0
  5  7  1  0  0  0  0
  7  8  1  0  0  0  0
  7  9  1  0  0  0  0
  9 10  1  0  0  0  0
  9 11  1  0  0  0  0
  9 25  1  0  0  0  0
 11 12  1  0  0  0  0
 11 13  1  0  0  0  0
 11 14  1  0  0  0  0
 14 15  1  0  0  0  0
 14 23  2  0  0  0  0
 15 16  1  0  0  0  0
 15 17  2  0  0  0  0
 17 18  1  0  0  0  0
 17 19  1  0  0  0  0
 19 20  1  0  0  0  0
 19 21  2  0  0  0  0
 21 22  1  0  0  0  0
 21 23  1  0  0  0  0
 23 24  1  0  0  0  0
 25 26  2  0  0  0  0
 25 27  1  0  0  0  0
 27 28  1  0  0  0  0
 27 29  1  0  0  0  0
 29 30  1  0  0  0  0
 29 31  1  0  0  0  0
 29 32  1  0  0  0  0
M  END
$$$$

  -OEChem-01062216093D

 32 32  0     1  0  0  0  0  0999 V2000
   -3.3913   -2.4275    0.7078 H   0  0  0  0  0  0  0  0  0  0  0  0
   -3.2290   -1.5910    0.0219 C   0  0  0  0  0  0  0  0  0  0  0  0
   -4.1715   -1.0547   -0.1113 H   0  0  0  0  0  0  0  0  0  0  0  0
   -2.9010   -1.9877   -0.9419 H   0  0  0  0  0  0  0  0  0  0  0  0
   -2.1741   -0.6556    0.5821 C   0  0  0  0  0  0  0  0  0  0  0  0
   -1.8362   -0.7772    1.7466 O   0  0  0  0  0  0  0  0  0  0  0  0
   -1.8073    0.4568   -0.1532 N   0  0  0  0  0  0  0  0  0  0  0  0
   -2.3067    0.5326   -1.0349 H   0  0  0  0  0  0  0  0  0  0  0  0
   -0.4788    1.1130   -0.1620 C   0  0  1  0  0  0  0  0  0  0  0  0
    0.0338    0.8174   -1.0830 H   0  0  0  0  0  0  0  0  0  0  0  0
   -0.7510    2.6312   -0.2232 C   0  0  0  0  0  0  0  0  0  0  0  0
   -1.3975    2.9265    0.6101 H   0  0  0  0  0  0  0  0  0  0  0  0
    0.1847    3.1904   -0.1292 H   0  0  0  0  0  0  0  0  0  0  0  0
   -1.3761    3.0147   -1.5448 C   0  0  0  0  0  0  0  0  0  0  0  0
   -0.5779    3.1900   -2.6854 C   0  0  0  0  0  0  0  0  0  0  0  0
    0.4980    3.0540   -2.6252 H   0  0  0  0  0  0  0  0  0  0  0  0
   -1.1573    3.5379   -3.9104 C   0  0  0  0  0  0  0  0  0  0  0  0
   -0.5320    3.6709   -4.7888 H   0  0  0  0  0  0  0  0  0  0  0  0
   -2.5407    3.7161   -4.0046 C   0  0  0  0  0  0  0  0  0  0  0  0
   -2.9904    3.9864   -4.9557 H   0  0  0  0  0  0  0  0  0  0  0  0
   -3.3436    3.5496   -2.8723 C   0  0  0  0  0  0  0  0  0  0  0  0
   -4.4178    3.6940   -2.9432 H   0  0  0  0  0  0  0  0  0  0  0  0
   -2.7632    3.2011   -1.6480 C   0  0  0  0  0  0  0  0  0  0  0  0
   -3.3956    3.0765   -0.7736 H   0  0  0  0  0  0  0  0  0  0  0  0
    0.5201    0.7448    0.9726 C   0  0  0  0  0  0  0  0  0  0  0  0
    0.9802   -0.3907    0.9806 O   0  0  0  0  0  0  0  0  0  0  0  0
    1.2481    1.7076    1.6560 N   0  0  0  0  0  0  0  0  0  0  0  0
    0.8604    2.6448    1.6756 H   0  0  0  0  0  0  0  0  0  0  0  0
    2.2984    1.3758    2.6130 C   0  0  0  0  0  0  0  0  0  0  0  0
    3.1239    0.8591    2.1124 H   0  0  0  0  0  0  0  0  0  0  0  0
    2.6917    2.2864    3.0743 H   0  0  0  0  0  0  0  0  0  0  0  0
    1.9053    0.7286    3.4043 H   0  0  0  0  0  0  0  0  0  0  0  0
  1  2  1  0  0  0  0
  2  3  1  0  0  0  0
  2  4  1  0  0  0  0
  2  5  1  0  0  0  0
  5  6  2  0  0  0  0
  5  7  1  0  0  0  0
  7  8  1  0  0  0  0
  7  9  1  0  0  0  0
  9 10  1  0  0  0  0
  9 11  1  0  0  0  0
  9 25  1  0  0  0  0
 11 12  1  0  0  0  0
 11 13  1  0  0  0  0
 11 14  1  0  0  0  0
 14 15  1  0  0  0  0
 14 23  2  0  0  0  0
 15 16  1  0  0  0  0
 15 17  2  0  0  0  0
 17 18  1  0  0  0  0
 17 19  1  0  0  0  0
 19 20  1  0  0  0  0
 19 21  2  0  0  0  0
 21 22  1  0  0  0  0
 21 23  1  0  0  0  0
 23 24  1  0  0  0  0
 25 26  2  0  0  0  0
 25 27  1  0  0  0  0
 27 28  1  0  0  0  0
 27 29  1  0  0  0  0
 29 30  1  0  0  0  0
 29 31  1  0  0  0  0
 29 32  1  0  0  0  0
M  END
$$$$

  -OEChem-01062216093D

 32 32  0     1  0  0  0  0  0999 V2000
   -3.4090   -2.4418    0.6753 H   0  0  0  0  0  0  0  0  0  0  0  0
   -3.2912   -1.5594    0.0399 C   0  0  0  0  0  0  0  0  0  0  0  0
   -4.2215   -0.9869    0.0542 H   0  0  0  0  0  0  0  0  0  0  0  0
   -3.0875   -1.8892   -0.9815 H   0  0  0  0  0  0  0  0  0  0  0  0
   -2.1466   -0.7017    0.5460 C   0  0  0  0  0  0  0  0  0  0  0  0
   -1.6921   -0.9237    1.6541 O   0  0  0  0  0  0  0  0  0  0  0  0
   -1.7840    0.4205   -0.1777 N   0  0  0  0  0  0  0  0  0  0  0  0
   -2.3210    0.5455   -1.0314 H   0  0  0  0  0  0  0  0  0  0  0  0
   -0.4671    1.0981   -0.1797 C   0  0  1  0  0  0  0  0  0  0  0  0
    0.0513    0.8125   -1.1008 H   0  0  0  0  0  0  0  0  0  0  0  0
   -0.7494    2.6134   -0.2341 C   0  0  0  0  0  0  0  0  0  0  0  0
   -1.4031    2.8999    0.5964 H   0  0  0  0  0  0  0  0  0  0  0  0
    0.1853    3.1736   -0.1272 H   0  0  0  0  0  0  0  0  0  0  0  0
   -1.3727    3.0027   -1.5545 C   0  0  0  0  0  0  0  0  0  0  0  0
   -0.5710    3.1911   -2.6904 C   0  0  0  0  0  0  0  0  0  0  0  0
    0.5055    3.0600   -2.6264 H   0  0  0  0  0  0  0  0  0  0  0  0
   -1.1468    3.5474   -3.9147 C   0  0  0  0  0  0  0  0  0  0  0  0
   -0.5178    3.6919   -4.7886 H   0  0  0  0  0  0  0  0  0  0  0  0
   -2.5307    3.7199   -4.0131 C   0  0  0  0  0  0  0  0  0  0  0  0
   -2.9773    3.9987   -4.9633 H   0  0  0  0  0  0  0  0  0  0  0  0
   -3.3378    3.5358   -2.8863 C   0  0  0  0  0  0  0  0  0  0  0  0
   -4.4127    3.6730   -2.9611 H   0  0  0  0  0  0  0  0  0  0  0  0
   -2.7607    3.1799   -1.6625 C   0  0  0  0  0  0  0  0  0  0  0  0
   -3.3963    3.0429   -0.7924 H   0  0  0  0  0  0  0  0  0  0  0  0
    0.5313    0.7405    0.9561 C   0  0  0  0  0  0  0  0  0  0  0  0
    1.1646   -0.3029    0.8516 O   0  0  0  0  0  0  0  0  0  0  0  0
    1.0108    1.6889    1.8467 N   0  0  0  0  0  0  0  0  0  0  0  0
    0.4391    2.5166    1.9784 H   0  0  0  0  0  0  0  0  0  0  0  0
    2.0206    1.3815    2.8533 C   0  0  0  0  0  0  0  0  0  0  0  0
    2.9614    1.0882    2.3756 H   0  0  0  0  0  0  0  0  0  0  0  0
    2.2110    2.2586    3.4789 H   0  0  0  0  0  0  0  0  0  0  0  0
    1.6821    0.5624    3.4969 H   0  0  0  0  0  0  0  0  0  0  0  0
  1  2  1  0  0  0  0
  2  3  1  0  0  0  0
  2  4  1  0  0  0  0
  2  5  1  0  0  0  0
  5  6  2  0  0  0  0
  5  7  1  0  0  0  0
  7  8  1  0  0  0  0
  7  9  1  0  0  0  0
  9 10  1  0  0  0  0
  9 11  1  0  0  0  0
  9 25  1  0  0  0  0
 11 12  1  0  0  0  0
 11 13  1  0  0  0  0
 11 14  1  0  0  0  0
 14 15  1  0  0  0  0
 14 23  2  0  0  0  0
 15 16  1  0  0  0  0
 15 17  2  0  0  0  0
 17 18  1  0  0  0  0
 17 19  1  0  0  0  0
 19 20  1  0  0  0  0
 19 21  2  0  0  0  0
 21 22  1  0  0  0  0
 21 23  1  0  0  0  0
 23 24  1  0  0  0  0
 25 26  2  0  0  0  0
 25 27  1  0  0  0  0
 27 28  1  0  0  0  0
 27 29  1  0  0  0  0
 29 30  1  0  0  0  0
 29 31  1  0  0  0  0
 29 32  1  0  0  0  0
M  END
$$$$

  -OEChem-01062216093D

 32 32  0     1  0  0  0  0  0999 V2000
   -3.4468   -2.4312    0.6785 H   0  0  0  0  0  0  0  0  0  0  0  0
   -3.3257   -1.5437    0.0505 C   0  0  0  0  0  0  0  0  0  0  0  0
   -4.2310   -0.9360    0.1194 H   0  0  0  0  0  0  0  0  0  0  0  0
   -3.1870   -1.8646   -0.9847 H   0  0  0  0  0  0  0  0  0  0  0  0
   -2.1242   -0.7390    0.5100 C   0  0  0  0  0  0  0  0  0  0  0  0
   -1.5863   -1.0364    1.5612 O   0  0  0  0  0  0  0  0  0  0  0  0
   -1.7671    0.3912   -0.2042 N   0  0  0  0  0  0  0  0  0  0  0  0
   -2.3345    0.5567   -1.0313 H   0  0  0  0  0  0  0  0  0  0  0  0
   -0.4592    1.0852   -0.1990 C   0  0  1  0  0  0  0  0  0  0  0  0
    0.0617    0.8106   -1.1223 H   0  0  0  0  0  0  0  0  0  0  0  0
   -0.7460    2.5990   -0.2382 C   0  0  0  0  0  0  0  0  0  0  0  0
   -1.4034    2.8759    0.5926 H   0  0  0  0  0  0  0  0  0  0  0  0
    0.1890    3.1567   -0.1175 H   0  0  0  0  0  0  0  0  0  0  0  0
   -1.3690    2.9979   -1.5551 C   0  0  0  0  0  0  0  0  0  0  0  0
   -0.5646    3.1989   -2.6867 C   0  0  0  0  0  0  0  0  0  0  0  0
    0.5126    3.0747   -2.6194 H   0  0  0  0  0  0  0  0  0  0  0  0
   -1.1392    3.5580   -3.9104 C   0  0  0  0  0  0  0  0  0  0  0  0
   -0.5086    3.7105   -4.7818 H   0  0  0  0  0  0  0  0  0  0  0  0
   -2.5238    3.7220   -4.0118 C   0  0  0  0  0  0  0  0  0  0  0  0
   -2.9690    4.0024   -4.9621 H   0  0  0  0  0  0  0  0  0  0  0  0
   -3.3332    3.5295   -2.8883 C   0  0  0  0  0  0  0  0  0  0  0  0
   -4.4085    3.6626   -2.9659 H   0  0  0  0  0  0  0  0  0  0  0  0
   -2.7575    3.1701   -1.6648 C   0  0  0  0  0  0  0  0  0  0  0  0
   -3.3951    3.0270   -0.7973 H   0  0  0  0  0  0  0  0  0  0  0  0
    0.5404    0.7382    0.9360 C   0  0  0  0  0  0  0  0  0  0  0  0
    1.3384   -0.1712    0.7450 O   0  0  0  0  0  0  0  0  0  0  0  0
    0.7687    1.5961    2.0002 N   0  0  0  0  0  0  0  0  0  0  0  0
    0.0370    2.2706    2.1980 H   0  0  0  0  0  0  0  0  0  0  0  0
    1.7305    1.2944    3.0535 C   0  0  0  0  0  0  0  0  0  0  0  0
    2.7404    1.2113    2.6387 H   0  0  0  0  0  0  0  0  0  0  0  0
    1.7319    2.0903    3.8041 H   0  0  0  0  0  0  0  0  0  0  0  0
    1.4734    0.3509    3.5466 H   0  0  0  0  0  0  0  0  0  0  0  0
  1  2  1  0  0  0  0
  2  3  1  0  0  0  0
  2  4  1  0  0  0  0
  2  5  1  0  0  0  0
  5  6  2  0  0  0  0
  5  7  1  0  0  0  0
  7  8  1  0  0  0  0
  7  9  1  0  0  0  0
  9 10  1  0  0  0  0
  9 11  1  0  0  0  0
  9 25  1  0  0  0  0
 11 12  1  0  0  0  0
 11 13  1  0  0  0  0
 11 14  1  0  0  0  0
 14 15  1  0  0  0  0
 14 23  2  0  0  0  0
 15 16  1  0  0  0  0
 15 17  2  0  0  0  0
 17 18  1  0  0  0  0
 17 19  1  0  0  0  0
 19 20  1  0  0  0  0
 19 21  2  0  0  0  0
 21 22  1  0  0  0  0
 21 23  1  0  0  0  0
 23 24  1  0  0  0  0
 25 26  2  0  0  0  0
 25 27  1  0  0  0  0
 27 28  1  0  0  0  0
 27 29  1  0  0  0  0
 29 30  1  0  0  0  0
 29 31  1  0  0  0  0
 29 32  1  0  0  0  0
M  END
$$$$

  -OEChem-01062216093D

 32 32  0     1  0  0  0  0  0999 V2000
   -3.4699   -2.4264    0.6656 H   0  0  0  0  0  0  0  0  0  0  0  0
   -3.3548   -1.5230    0.0597 C   0  0  0  0  0  0  0  0  0  0  0  0
   -4.2369   -0.8927    0.1950 H   0  0  0  0  0  0  0  0  0  0  0  0
   -3.2800   -1.8141   -0.9908 H   0  0  0  0  0  0  0  0  0  0  0  0
   -2.1072   -0.7674    0.4789 C   0  0  0  0  0  0  0  0  0  0  0  0
   -1.5121   -1.1224    1.4803 O   0  0  0  0  0  0  0  0  0  0  0  0
   -1.7486    0.3656   -0.2293 N   0  0  0  0  0  0  0  0  0  0  0  0
   -2.3387    0.5643   -1.0329 H   0  0  0  0  0  0  0  0  0  0  0  0
   -0.4479    1.0716   -0.2159 C   0  0  1  0  0  0  0  0  0  0  0  0
    0.0776    0.8063   -1.1395 H   0  0  0  0  0  0  0  0  0  0  0  0
   -0.7403    2.5833   -0.2408 C   0  0  0  0  0  0  0  0  0  0  0  0
   -1.4013    2.8519    0.5897 H   0  0  0  0  0  0  0  0  0  0  0  0
    0.1935    3.1412   -0.1090 H   0  0  0  0  0  0  0  0  0  0  0  0
   -1.3632    2.9885   -1.5559 C   0  0  0  0  0  0  0  0  0  0  0  0
   -0.5585    3.2013   -2.6847 C   0  0  0  0  0  0  0  0  0  0  0  0
    0.5190    3.0786   -2.6167 H   0  0  0  0  0  0  0  0  0  0  0  0
   -1.1331    3.5685   -3.9062 C   0  0  0  0  0  0  0  0  0  0  0  0
   -0.5018    3.7305   -4.7753 H   0  0  0  0  0  0  0  0  0  0  0  0
   -2.5184    3.7283   -4.0081 C   0  0  0  0  0  0  0  0  0  0  0  0
   -2.9633    4.0162   -4.9563 H   0  0  0  0  0  0  0  0  0  0  0  0
   -3.3284    3.5220   -2.8874 C   0  0  0  0  0  0  0  0  0  0  0  0
   -4.4041    3.6519   -2.9653 H   0  0  0  0  0  0  0  0  0  0  0  0
   -2.7525    3.1549   -1.6664 C   0  0  0  0  0  0  0  0  0  0  0  0
   -3.3906    3.0028   -0.8008 H   0  0  0  0  0  0  0  0  0  0  0  0
    0.5491    0.7384    0.9226 C   0  0  0  0  0  0  0  0  0  0  0  0
    1.5063    0.0176    0.6689 O   0  0  0  0  0  0  0  0  0  0  0  0
    0.5385    1.4373    2.1185 N   0  0  0  0  0  0  0  0  0  0  0  0
   -0.3369    1.8936    2.3532 H   0  0  0  0  0  0  0  0  0  0  0  0
    1.4587    1.1256    3.2052 C   0  0  0  0  0  0  0  0  0  0  0  0
    2.4962    1.2515    2.8787 H   0  0  0  0  0  0  0  0  0  0  0  0
    1.2822    1.7934    4.0536 H   0  0  0  0  0  0  0  0  0  0  0  0
    1.3172    0.0923    3.5394 H   0  0  0  0  0  0  0  0  0  0  0  0
  1  2  1  0  0  0  0
  2  3  1  0  0  0  0
  2  4  1  0  0  0  0
  2  5  1  0  0  0  0
  5  6  2  0  0  0  0
  5  7  1  0  0  0  0
  7  8  1  0  0  0  0
  7  9  1  0  0  0  0
  9 10  1  0  0  0  0
  9 11  1  0  0  0  0
  9 25  1  0  0  0  0
 11 12  1  0  0  0  0
 11 13  1  0  0  0  0
 11 14  1  0  0  0  0
 14 15  1  0  0  0  0
 14 23  2  0  0  0  0
 15 16  1  0  0  0  0
 15 17  2  0  0  0  0
 17 18  1  0  0  0  0
 17 19  1  0  0  0  0
 19 20  1  0  0  0  0
 19 21  2  0  0  0  0
 21 22  1  0  0  0  0
 21 23  1  0  0  0  0
 23 24  1  0  0  0  0
 25 26  2  0  0  0  0
 25 27  1  0  0  0  0
 27 28  1  0  0  0  0
 27 29  1  0  0  0  0
 29 30  1  0  0  0  0
 29 31  1  0  0  0  0
 29 32  1  0  0  0  0
M  END
$$$$

  -OEChem-01062216093D

 32 32  0     1  0  0  0  0  0999 V2000
   -3.5173   -2.4146    0.6676 H   0  0  0  0  0  0  0  0  0  0  0  0
   -3.3879   -1.5149    0.0593 C   0  0  0  0  0  0  0  0  0  0  0  0
   -4.2482   -0.8590    0.2120 H   0  0  0  0  0  0  0  0  0  0  0  0
   -3.3426   -1.8075   -0.9926 H   0  0  0  0  0  0  0  0  0  0  0  0
   -2.1107   -0.7963    0.4528 C   0  0  0  0  0  0  0  0  0  0  0  0
   -1.4838   -1.1928    1.4184 O   0  0  0  0  0  0  0  0  0  0  0  0
   -1.7424    0.3352   -0.2520 N   0  0  0  0  0  0  0  0  0  0  0  0
   -2.3486    0.5644   -1.0357 H   0  0  0  0  0  0  0  0  0  0  0  0
   -0.4446    1.0467   -0.2294 C   0  0  1  0  0  0  0  0  0  0  0  0
    0.0862    0.7865   -1.1516 H   0  0  0  0  0  0  0  0  0  0  0  0
   -0.7361    2.5578   -0.2409 C   0  0  0  0  0  0  0  0  0  0  0  0
   -1.3965    2.8198    0.5920 H   0  0  0  0  0  0  0  0  0  0  0  0
    0.1983    3.1128   -0.1008 H   0  0  0  0  0  0  0  0  0  0  0  0
   -1.3562    2.9760   -1.5532 C   0  0  0  0  0  0  0  0  0  0  0  0
   -0.5502    3.1993   -2.6790 C   0  0  0  0  0  0  0  0  0  0  0  0
    0.5269    3.0734   -2.6111 H   0  0  0  0  0  0  0  0  0  0  0  0
   -1.1234    3.5806   -3.8969 C   0  0  0  0  0  0  0  0  0  0  0  0
   -0.4915    3.7500   -4.7641 H   0  0  0  0  0  0  0  0  0  0  0  0
   -2.5081    3.7456   -3.9977 C   0  0  0  0  0  0  0  0  0  0  0  0
   -2.9521    4.0451   -4.9427 H   0  0  0  0  0  0  0  0  0  0  0  0
   -3.3192    3.5301   -2.8797 C   0  0  0  0  0  0  0  0  0  0  0  0
   -4.3944    3.6638   -2.9563 H   0  0  0  0  0  0  0  0  0  0  0  0
   -2.7451    3.1477   -1.6624 C   0  0  0  0  0  0  0  0  0  0  0  0
   -3.3837    2.9898   -0.7982 H   0  0  0  0  0  0  0  0  0  0  0  0
    0.5484    0.7291    0.9153 C   0  0  0  0  0  0  0  0  0  0  0  0
    1.6410    0.2533    0.6322 O   0  0  0  0  0  0  0  0  0  0  0  0
    0.3333    1.2112    2.1951 N   0  0  0  0  0  0  0  0  0  0  0  0
   -0.6386    1.3950    2.4242 H   0  0  0  0  0  0  0  0  0  0  0  0
    1.2409    0.9092    3.2948 C   0  0  0  0  0  0  0  0  0  0  0  0
    2.2480    1.2790    3.0756 H   0  0  0  0  0  0  0  0  0  0  0  0
    0.8922    1.3882    4.2147 H   0  0  0  0  0  0  0  0  0  0  0  0
    1.2907   -0.1720    3.4617 H   0  0  0  0  0  0  0  0  0  0  0  0
  1  2  1  0  0  0  0
  2  3  1  0  0  0  0
  2  4  1  0  0  0  0
  2  5  1  0  0  0  0
  5  6  2  0  0  0  0
  5  7  1  0  0  0  0
  7  8  1  0  0  0  0
  7  9  1  0  0  0  0
  9 10  1  0  0  0  0
  9 11  1  0  0  0  0
  9 25  1  0  0  0  0
 11 12  1  0  0  0  0
 11 13  1  0  0  0  0
 11 14  1  0  0  0  0
 14 15  1  0  0  0  0
 14 23  2  0  0  0  0
 15 16  1  0  0  0  0
 15 17  2  0  0  0  0
 17 18  1  0  0  0  0
 17 19  1  0  0  0  0
 19 20  1  0  0  0  0
 19 21  2  0  0  0  0
 21 22  1  0  0  0  0
 21 23  1  0  0  0  0
 23 24  1  0  0  0  0
 25 26  2  0  0  0  0
 25 27  1  0  0  0  0
 27 28  1  0  0  0  0
 27 29  1  0  0  0  0
 29 30  1  0  0  0  0
 29 31  1  0  0  0  0
 29 32  1  0  0  0  0
M  END
$$$$

  -OEChem-01062216093D

 32 32  0     1  0  0  0  0  0999 V2000
   -3.5964   -2.4007    0.6257 H   0  0  0  0  0  0  0  0  0  0  0  0
   -3.4466   -1.4946    0.0317 C   0  0  0  0  0  0  0  0  0  0  0  0
   -4.2828   -0.8142    0.2091 H   0  0  0  0  0  0  0  0  0  0  0  0
   -3.4267   -1.7690   -1.0259 H   0  0  0  0  0  0  0  0  0  0  0  0
   -2.1412   -0.8245    0.4174 C   0  0  0  0  0  0  0  0  0  0  0  0
   -1.5045   -1.2659    1.3566 O   0  0  0  0  0  0  0  0  0  0  0  0
   -1.7478    0.3063   -0.2736 N   0  0  0  0  0  0  0  0  0  0  0  0
   -2.3632    0.5737   -1.0380 H   0  0  0  0  0  0  0  0  0  0  0  0
   -0.4491    1.0175   -0.2332 C   0  0  1  0  0  0  0  0  0  0  0  0
    0.0877    0.7638   -1.1536 H   0  0  0  0  0  0  0  0  0  0  0  0
   -0.7426    2.5273   -0.2297 C   0  0  0  0  0  0  0  0  0  0  0  0
   -1.4077    2.7774    0.6032 H   0  0  0  0  0  0  0  0  0  0  0  0
    0.1896    3.0825   -0.0766 H   0  0  0  0  0  0  0  0  0  0  0  0
   -1.3538    2.9592   -1.5416 C   0  0  0  0  0  0  0  0  0  0  0  0
   -0.5409    3.1963   -2.6596 C   0  0  0  0  0  0  0  0  0  0  0  0
    0.5362    3.0722   -2.5851 H   0  0  0  0  0  0  0  0  0  0  0  0
   -1.1072    3.5876   -3.8777 C   0  0  0  0  0  0  0  0  0  0  0  0
   -0.4700    3.7661   -4.7392 H   0  0  0  0  0  0  0  0  0  0  0  0
   -2.4918    3.7501   -3.9856 C   0  0  0  0  0  0  0  0  0  0  0  0
   -2.9304    4.0571   -4.9306 H   0  0  0  0  0  0  0  0  0  0  0  0
   -3.3094    3.5232   -2.8744 C   0  0  0  0  0  0  0  0  0  0  0  0
   -4.3842    3.6574   -2.9561 H   0  0  0  0  0  0  0  0  0  0  0  0
   -2.7420    3.1306   -1.6574 C   0  0  0  0  0  0  0  0  0  0  0  0
   -3.3854    2.9648   -0.7984 H   0  0  0  0  0  0  0  0  0  0  0  0
    0.5455    0.7171    0.9144 C   0  0  0  0  0  0  0  0  0  0  0  0
    1.7238    0.5347    0.6335 O   0  0  0  0  0  0  0  0  0  0  0  0
    0.1918    0.9306    2.2350 N   0  0  0  0  0  0  0  0  0  0  0  0
   -0.7989    0.7955    2.4203 H   0  0  0  0  0  0  0  0  0  0  0  0
    1.1159    0.6622    3.3296 C   0  0  0  0  0  0  0  0  0  0  0  0
    2.0196    1.2727    3.2293 H   0  0  0  0  0  0  0  0  0  0  0  0
    0.6448    0.9016    4.2877 H   0  0  0  0  0  0  0  0  0  0  0  0
    1.4027   -0.3947    3.3361 H   0  0  0  0  0  0  0  0  0  0  0  0
  1  2  1  0  0  0  0
  2  3  1  0  0  0  0
  2  4  1  0  0  0  0
  2  5  1  0  0  0  0
  5  6  2  0  0  0  0
  5  7  1  0  0  0  0
  7  8  1  0  0  0  0
  7  9  1  0  0  0  0
  9 10  1  0  0  0  0
  9 11  1  0  0  0  0
  9 25  1  0  0  0  0
 11 12  1  0  0  0  0
 11 13  1  0  0  0  0
 11 14  1  0  0  0  0
 14 15  1  0  0  0  0
 14 23  2  0  0  0  0
 15 16  1  0  0  0  0
 15 17  2  0  0  0  0
 17 18  1  0  0  0  0
 17 19  1  0  0  0  0
 19 20  1  0  0  0  0
 19 21  2  0  0  0  0
 21 22  1  0  0  0  0
 21 23  1  0  0  0  0
 23 24  1  0  0  0  0
 25 26  2  0  0  0  0
 25 27  1  0  0  0  0
 27 28  1  0  0  0  0
 27 29  1  0  0  0  0
 29 30  1  0  0  0  0
 29 31  1  0  0  0  0
 29 32  1  0  0  0  0
M  END
$$$$

  -OEChem-01062216093D

 32 32  0     1  0  0  0  0  0999 V2000
   -3.7073   -2.3680    0.5656 H   0  0  0  0  0  0  0  0  0  0  0  0
   -3.5259   -1.4541   -0.0075 C   0  0  0  0  0  0  0  0  0  0  0  0
   -4.3255   -0.7405    0.2052 H   0  0  0  0  0  0  0  0  0  0  0  0
   -3.5398   -1.7002   -1.0722 H   0  0  0  0  0  0  0  0  0  0  0  0
   -2.1826   -0.8566    0.3686 C   0  0  0  0  0  0  0  0  0  0  0  0
   -1.5380   -1.3717    1.2634 O   0  0  0  0  0  0  0  0  0  0  0  0
   -1.7531    0.2761   -0.2969 N   0  0  0  0  0  0  0  0  0  0  0  0
   -2.3787    0.5970   -1.0319 H   0  0  0  0  0  0  0  0  0  0  0  0
   -0.4534    0.9872   -0.2308 C   0  0  1  0  0  0  0  0  0  0  0  0
    0.0927    0.7453   -1.1489 H   0  0  0  0  0  0  0  0  0  0  0  0
   -0.7631    2.4945   -0.2144 C   0  0  0  0  0  0  0  0  0  0  0  0
   -1.4392    2.7278    0.6147 H   0  0  0  0  0  0  0  0  0  0  0  0
    0.1606    3.0592   -0.0445 H   0  0  0  0  0  0  0  0  0  0  0  0
   -1.3618    2.9366   -1.5289 C   0  0  0  0  0  0  0  0  0  0  0  0
   -0.5359    3.1954   -2.6321 C   0  0  0  0  0  0  0  0  0  0  0  0
    0.5412    3.0810   -2.5438 H   0  0  0  0  0  0  0  0  0  0  0  0
   -1.0891    3.5970   -3.8527 C   0  0  0  0  0  0  0  0  0  0  0  0
   -0.4417    3.7932   -4.7024 H   0  0  0  0  0  0  0  0  0  0  0  0
   -2.4735    3.7482   -3.9781 C   0  0  0  0  0  0  0  0  0  0  0  0
   -2.9018    4.0635   -4.9252 H   0  0  0  0  0  0  0  0  0  0  0  0
   -3.3042    3.4998   -2.8813 C   0  0  0  0  0  0  0  0  0  0  0  0
   -4.3790    3.6253   -2.9761 H   0  0  0  0  0  0  0  0  0  0  0  0
   -2.7498    3.0975   -1.6614 C   0  0  0  0  0  0  0  0  0  0  0  0
   -3.4028    2.9172   -0.8127 H   0  0  0  0  0  0  0  0  0  0  0  0
    0.5487    0.7078    0.9178 C   0  0  0  0  0  0  0  0  0  0  0  0
    1.7454    0.8037    0.6735 O   0  0  0  0  0  0  0  0  0  0  0  0
    0.1416    0.6220    2.2365 N   0  0  0  0  0  0  0  0  0  0  0  0
   -0.7925    0.2262    2.3410 H   0  0  0  0  0  0  0  0  0  0  0  0
    1.0852    0.3808    3.3208 C   0  0  0  0  0  0  0  0  0  0  0  0
    1.8354    1.1773    3.3623 H   0  0  0  0  0  0  0  0  0  0  0  0
    0.5585    0.3555    4.2794 H   0  0  0  0  0  0  0  0  0  0  0  0
    1.5950   -0.5777    3.1778 H   0  0  0  0  0  0  0  0  0  0  0  0
  1  2  1  0  0  0  0
  2  3  1  0  0  0  0
  2  4  1  0  0  0  0
  2  5  1  0  0  0  0
  5  6  2  0  0  0  0
  5  7  1  0  0  0  0
  7  8  1  0  0  0  0
  7  9  1  0  0  0  0
  9 10  1  0  0  0  0
  9 11  1  0  0  0  0
  9 25  1  0  0  0  0
 11 12  1  0  0  0  0
 11 13  1  0  0  0  0
 11 14  1  0  0  0  0
 14 15  1  0  0  0  0
 14 23  2  0  0  0  0
 15 16  1  0  0  0  0
 15 17  2  0  0  0  0
 17 18  1  0  0  0  0
 17 19  1  0  0  0  0
 19 20  1  0  0  0  0
 19 21  2  0  0  0  0
 21 22  1  0  0  0  0
 21 23  1  0  0  0  0
 23 24  1  0  0  0  0
 25 26  2  0  0  0  0
 25 27  1  0  0  0  0
 27 28  1  0  0  0  0
 27 29  1  0  0  0  0
 29 30  1  0  0  0  0
 29 31  1  0  0  0  0
 29 32  1  0  0  0  0
M  END
$$$$

  -OEChem-01062216093D

 32 32  0     1  0  0  0  0  0999 V2000
   -3.8267   -2.3083    0.5238 H   0  0  0  0  0  0  0  0  0  0  0  0
   -3.6052   -1.3945   -0.0353 C   0  0  0  0  0  0  0  0  0  0  0  0
   -4.3514   -0.6377    0.2187 H   0  0  0  0  0  0  0  0  0  0  0  0
   -3.6677   -1.6143   -1.1041 H   0  0  0  0  0  0  0  0  0  0  0  0
   -2.2160   -0.8905    0.3102 C   0  0  0  0  0  0  0  0  0  0  0  0
   -1.5541   -1.5077    1.1238 O   0  0  0  0  0  0  0  0  0  0  0  0
   -1.7538    0.2486   -0.3216 N   0  0  0  0  0  0  0  0  0  0  0  0
   -2.3953    0.6323   -1.0116 H   0  0  0  0  0  0  0  0  0  0  0  0
   -0.4566    0.9638   -0.2236 C   0  0  1  0  0  0  0  0  0  0  0  0
    0.1020    0.7365   -1.1375 H   0  0  0  0  0  0  0  0  0  0  0  0
   -0.7955    2.4671   -0.1991 C   0  0  0  0  0  0  0  0  0  0  0  0
   -1.4904    2.6785    0.6204 H   0  0  0  0  0  0  0  0  0  0  0  0
    0.1116    3.0517   -0.0075 H   0  0  0  0  0  0  0  0  0  0  0  0
   -1.3778    2.9132   -1.5201 C   0  0  0  0  0  0  0  0  0  0  0  0
   -0.5353    3.1988   -2.6041 C   0  0  0  0  0  0  0  0  0  0  0  0
    0.5415    3.0993   -2.4966 H   0  0  0  0  0  0  0  0  0  0  0  0
   -1.0708    3.6086   -3.8298 C   0  0  0  0  0  0  0  0  0  0  0  0
   -0.4102    3.8266   -4.6641 H   0  0  0  0  0  0  0  0  0  0  0  0
   -2.4548    3.7404   -3.9798 C   0  0  0  0  0  0  0  0  0  0  0  0
   -2.8694    4.0619   -4.9311 H   0  0  0  0  0  0  0  0  0  0  0  0
   -3.3022    3.4657   -2.9021 C   0  0  0  0  0  0  0  0  0  0  0  0
   -4.3764    3.5775   -3.0165 H   0  0  0  0  0  0  0  0  0  0  0  0
   -2.7654    3.0566   -1.6767 C   0  0  0  0  0  0  0  0  0  0  0  0
   -3.4322    2.8582   -0.8428 H   0  0  0  0  0  0  0  0  0  0  0  0
    0.5528    0.7043    0.9276 C   0  0  0  0  0  0  0  0  0  0  0  0
    1.7201    1.0284    0.7433 O   0  0  0  0  0  0  0  0  0  0  0  0
    0.1746    0.3148    2.1981 N   0  0  0  0  0  0  0  0  0  0  0  0
   -0.6949   -0.2202    2.2218 H   0  0  0  0  0  0  0  0  0  0  0  0
    1.1410    0.0624    3.2594 C   0  0  0  0  0  0  0  0  0  0  0  0
    1.7382    0.9584    3.4580 H   0  0  0  0  0  0  0  0  0  0  0  0
    0.6219   -0.2155    4.1816 H   0  0  0  0  0  0  0  0  0  0  0  0
    1.8135   -0.7544    2.9782 H   0  0  0  0  0  0  0  0  0  0  0  0
  1  2  1  0  0  0  0
  2  3  1  0  0  0  0
  2  4  1  0  0  0  0
  2  5  1  0  0  0  0
  5  6  2  0  0  0  0
  5  7  1  0  0  0  0
  7  8  1  0  0  0  0
  7  9  1  0  0  0  0
  9 10  1  0  0  0  0
  9 11  1  0  0  0  0
  9 25  1  0  0  0  0
 11 12  1  0  0  0  0
 11 13  1  0  0  0  0
 11 14  1  0  0  0  0
 14 15  1  0  0  0  0
 14 23  2  0  0  0  0
 15 16  1  0  0  0  0
 15 17  2  0  0  0  0
 17 18  1  0  0  0  0
 17 19  1  0  0  0  0
 19 20  1  0  0  0  0
 19 21  2  0  0  0  0
 21 22  1  0  0  0  0
 21 23  1  0  0  0  0
 23 24  1  0  0  0  0
 25 26  2  0  0  0  0
 25 27  1  0  0  0  0
 27 28  1  0  0  0  0
 27 29  1  0  0  0  0
 29 30  1  0  0  0  0
 29 31  1  0  0  0  0
 29 32  1  0  0  0  0
M  END
$$$$

  -OEChem-01062216093D

 32 32  0     1  0  0  0  0  0999 V2000
   -3.9317   -2.2472    0.4865 H   0  0  0  0  0  0  0  0  0  0  0  0
   -3.6738   -1.3352   -0.0597 C   0  0  0  0  0  0  0  0  0  0  0  0
   -4.3721   -0.5451    0.2272 H   0  0  0  0  0  0  0  0  0  0  0  0
   -3.7726   -1.5288   -1.1308 H   0  0  0  0  0  0  0  0  0  0  0  0
   -2.2520   -0.9129    0.2622 C   0  0  0  0  0  0  0  0  0  0  0  0
   -1.5871   -1.6151    1.0007 O   0  0  0  0  0  0  0  0  0  0  0  0
   -1.7590    0.2303   -0.3381 N   0  0  0  0  0  0  0  0  0  0  0  0
   -2.4103    0.6655   -0.9870 H   0  0  0  0  0  0  0  0  0  0  0  0
   -0.4609    0.9425   -0.2154 C   0  0  1  0  0  0  0  0  0  0  0  0
    0.1054    0.7269   -1.1271 H   0  0  0  0  0  0  0  0  0  0  0  0
   -0.8225    2.4433   -0.1859 C   0  0  0  0  0  0  0  0  0  0  0  0
   -1.5319    2.6380    0.6252 H   0  0  0  0  0  0  0  0  0  0  0  0
    0.0695    3.0451    0.0214 H   0  0  0  0  0  0  0  0  0  0  0  0
   -1.3915    2.8923   -1.5117 C   0  0  0  0  0  0  0  0  0  0  0  0
   -0.5359    3.1980   -2.5798 C   0  0  0  0  0  0  0  0  0  0  0  0
    0.5402    3.1099   -2.4560 H   0  0  0  0  0  0  0  0  0  0  0  0
   -1.0571    3.6119   -3.8103 C   0  0  0  0  0  0  0  0  0  0  0  0
   -0.3861    3.8440   -4.6325 H   0  0  0  0  0  0  0  0  0  0  0  0
   -2.4400    3.7306   -3.9798 C   0  0  0  0  0  0  0  0  0  0  0  0
   -2.8436    4.0553   -4.9345 H   0  0  0  0  0  0  0  0  0  0  0  0
   -3.3005    3.4398   -2.9169 C   0  0  0  0  0  0  0  0  0  0  0  0
   -4.3739    3.5433   -3.0459 H   0  0  0  0  0  0  0  0  0  0  0  0
   -2.7780    3.0255   -1.6869 C   0  0  0  0  0  0  0  0  0  0  0  0
   -3.4553    2.8168   -0.8642 H   0  0  0  0  0  0  0  0  0  0  0  0
    0.5558    0.6906    0.9361 C   0  0  0  0  0  0  0  0  0  0  0  0
    1.6691    1.1917    0.8251 O   0  0  0  0  0  0  0  0  0  0  0  0
    0.2707    0.0253    2.1121 N   0  0  0  0  0  0  0  0  0  0  0  0
   -0.5478   -0.5842    2.0743 H   0  0  0  0  0  0  0  0  0  0  0  0
    1.2724   -0.2481    3.1350 C   0  0  0  0  0  0  0  0  0  0  0  0
    1.7071    0.6857    3.5069 H   0  0  0  0  0  0  0  0  0  0  0  0
    0.8142   -0.7737    3.9782 H   0  0  0  0  0  0  0  0  0  0  0  0
    2.0736   -0.8735    2.7283 H   0  0  0  0  0  0  0  0  0  0  0  0
  1  2  1  0  0  0  0
  2  3  1  0  0  0  0
  2  4  1  0  0  0  0
  2  5  1  0  0  0  0
  5  6  2  0  0  0  0
  5  7  1  0  0  0  0
  7  8  1  0  0  0  0
  7  9  1  0  0  0  0
  9 10  1  0  0  0  0
  9 11  1  0  0  0  0
  9 25  1  0  0  0  0
 11 12  1  0  0  0  0
 11 13  1  0  0  0  0
 11 14  1  0  0  0  0
 14 15  1  0  0  0  0
 14 23  2  0  0  0  0
 15 16  1  0  0  0  0
 15 17  2  0  0  0  0
 17 18  1  0  0  0  0
 17 19  1  0  0  0  0
 19 20  1  0  0  0  0
 19 21  2  0  0  0  0
 21 22  1  0  0  0  0
 21 23  1  0  0  0  0
 23 24  1  0  0  0  0
 25 26  2  0  0  0  0
 25 27  1  0  0  0  0
 27 28  1  0  0  0  0
 27 29  1  0  0  0  0
 29 30  1  0  0  0  0
 29 31  1  0  0  0  0
 29 32  1  0  0  0  0
M  END
$$$$

  -OEChem-01062216093D

 32 32  0     1  0  0  0  0  0999 V2000
   -3.6601   -2.3030    0.6313 H   0  0  0  0  0  0  0  0  0  0  0  0
   -3.4744   -1.3460    0.1351 C   0  0  0  0  0  0  0  0  0  0  0  0
   -4.1956   -0.6134    0.5052 H   0  0  0  0  0  0  0  0  0  0  0  0
   -3.6149   -1.4757   -0.9408 H   0  0  0  0  0  0  0  0  0  0  0  0
   -2.0618   -0.8706    0.4213 C   0  0  0  0  0  0  0  0  0  0  0  0
   -1.3350   -1.5904    1.0738 O   0  0  0  0  0  0  0  0  0  0  0  0
   -1.6389    0.2936   -0.1900 N   0  0  0  0  0  0  0  0  0  0  0  0
   -2.3282    0.6801   -0.8289 H   0  0  0  0  0  0  0  0  0  0  0  0
   -0.4652    1.1791    0.0194 C   0  0  1  0  0  0  0  0  0  0  0  0
    0.2250    0.9847   -0.8070 H   0  0  0  0  0  0  0  0  0  0  0  0
   -1.0486    2.6071   -0.1351 C   0  0  0  0  0  0  0  0  0  0  0  0
   -1.8738    2.7478    0.5706 H   0  0  0  0  0  0  0  0  0  0  0  0
   -0.2957    3.3644    0.1060 H   0  0  0  0  0  0  0  0  0  0  0  0
   -1.5059    2.8660   -1.5527 C   0  0  0  0  0  0  0  0  0  0  0  0
   -0.5778    3.2256   -2.5406 C   0  0  0  0  0  0  0  0  0  0  0  0
    0.4753    3.3162   -2.2890 H   0  0  0  0  0  0  0  0  0  0  0  0
   -0.9964    3.4659   -3.8537 C   0  0  0  0  0  0  0  0  0  0  0  0
   -0.2693    3.7385   -4.6132 H   0  0  0  0  0  0  0  0  0  0  0  0
   -2.3499    3.3585   -4.1873 C   0  0  0  0  0  0  0  0  0  0  0  0
   -2.6747    3.5476   -5.2065 H   0  0  0  0  0  0  0  0  0  0  0  0
   -3.2850    3.0167   -3.2057 C   0  0  0  0  0  0  0  0  0  0  0  0
   -4.3380    2.9464   -3.4625 H   0  0  0  0  0  0  0  0  0  0  0  0
   -2.8650    2.7744   -1.8935 C   0  0  0  0  0  0  0  0  0  0  0  0
   -3.6036    2.5253   -1.1375 H   0  0  0  0  0  0  0  0  0  0  0  0
    0.4513    1.1420    1.2879 C   0  0  0  0  0  0  0  0  0  0  0  0
    1.2335    2.0600    1.4915 O   0  0  0  0  0  0  0  0  0  0  0  0
    0.3651    0.3360    2.3956 N   0  0  0  0  0  0  0  0  0  0  0  0
    0.5937    0.8889    3.2164 H   0  0  0  0  0  0  0  0  0  0  0  0
    1.1447   -0.8972    2.3590 C   0  0  0  0  0  0  0  0  0  0  0  0
    2.1547   -0.7149    2.7394 H   0  0  0  0  0  0  0  0  0  0  0  0
    0.6686   -1.6620    2.9808 H   0  0  0  0  0  0  0  0  0  0  0  0
    1.2295   -1.2876    1.3390 H   0  0  0  0  0  0  0  0  0  0  0  0
  1  2  1  0  0  0  0
  2  3  1  0  0  0  0
  2  4  1  0  0  0  0
  2  5  1  0  0  0  0
  5  6  2  0  0  0  0
  5  7  1  0  0  0  0
  7  8  1  0  0  0  0
  7  9  1  0  0  0  0
  9 10  1  0  0  0  0
  9 11  1  0  0  0  0
  9 25  1  0  0  0  0
 11 12  1  0  0  0  0
 11 13  1  0  0  0  0
 11 14  1  0  0  0  0
 14 15  1  0  0  0  0
 14 23  2  0  0  0  0
 15 16  1  0  0  0  0
 15 17  2  0  0  0  0
 17 18  1  0  0  0  0
 17 19  1  0  0  0  0
 19 20  1  0  0  0  0
 19 21  2  0  0  0  0
 21 22  1  0  0  0  0
 21 23  1  0  0  0  0
 23 24  1  0  0  0  0
 25 26  2  0  0  0  0
 25 27  1  0  0  0  0
 27 28  1  0  0  0  0
 27 29  1  0  0  0  0
 29 30  1  0  0  0  0
 29 31  1  0  0  0  0
 29 32  1  0  0  0  0
M  END
$$$$

  -OEChem-01062216093D

 32 32  0     1  0  0  0  0  0999 V2000
   -3.5077   -2.2556    0.9570 H   0  0  0  0  0  0  0  0  0  0  0  0
   -3.3586   -1.3258    0.4002 C   0  0  0  0  0  0  0  0  0  0  0  0
   -3.8505   -0.5122    0.9384 H   0  0  0  0  0  0  0  0  0  0  0  0
   -3.8144   -1.4299   -0.5873 H   0  0  0  0  0  0  0  0  0  0  0  0
   -1.8768   -1.0323    0.2568 C   0  0  0  0  0  0  0  0  0  0  0  0
   -1.0809   -1.8960    0.5688 O   0  0  0  0  0  0  0  0  0  0  0  0
   -1.4973    0.1296   -0.3850 N   0  0  0  0  0  0  0  0  0  0  0  0
   -2.2766    0.6510   -0.7770 H   0  0  0  0  0  0  0  0  0  0  0  0
   -0.2031    0.8544   -0.4351 C   0  0  1  0  0  0  0  0  0  0  0  0
    0.2200    0.6604   -1.4260 H   0  0  0  0  0  0  0  0  0  0  0  0
   -0.5910    2.3485   -0.3292 C   0  0  0  0  0  0  0  0  0  0  0  0
   -1.1814    2.5142    0.5778 H   0  0  0  0  0  0  0  0  0  0  0  0
    0.3054    2.9720   -0.2408 H   0  0  0  0  0  0  0  0  0  0  0  0
   -1.3518    2.8108   -1.5503 C   0  0  0  0  0  0  0  0  0  0  0  0
   -0.6627    3.1562   -2.7217 C   0  0  0  0  0  0  0  0  0  0  0  0
    0.4213    3.0847   -2.7550 H   0  0  0  0  0  0  0  0  0  0  0  0
   -1.3610    3.5876   -3.8545 C   0  0  0  0  0  0  0  0  0  0  0  0
   -0.8189    3.8478   -4.7590 H   0  0  0  0  0  0  0  0  0  0  0  0
   -2.7552    3.6867   -3.8214 C   0  0  0  0  0  0  0  0  0  0  0  0
   -3.2965    4.0242   -4.7005 H   0  0  0  0  0  0  0  0  0  0  0  0
   -3.4501    3.3588   -2.6533 C   0  0  0  0  0  0  0  0  0  0  0  0
   -4.5323    3.4470   -2.6246 H   0  0  0  0  0  0  0  0  0  0  0  0
   -2.7509    2.9262   -1.5215 C   0  0  0  0  0  0  0  0  0  0  0  0
   -3.3021    2.6908   -0.6161 H   0  0  0  0  0  0  0  0  0  0  0  0
    0.9980    0.6221    0.5381 C   0  0  0  0  0  0  0  0  0  0  0  0
    2.0359    1.2251    0.3059 O   0  0  0  0  0  0  0  0  0  0  0  0
    1.2481   -0.4042    1.4145 N   0  0  0  0  0  0  0  0  0  0  0  0
    2.2489   -0.4975    1.5640 H   0  0  0  0  0  0  0  0  0  0  0  0
    0.4489   -0.5207    2.6281 C   0  0  0  0  0  0  0  0  0  0  0  0
    0.9665   -0.0411    3.4648 H   0  0  0  0  0  0  0  0  0  0  0  0
   -0.5284   -0.0416    2.5135 H   0  0  0  0  0  0  0  0  0  0  0  0
    0.2915   -1.5757    2.8740 H   0  0  0  0  0  0  0  0  0  0  0  0
  1  2  1  0  0  0  0
  2  3  1  0  0  0  0
  2  4  1  0  0  0  0
  2  5  1  0  0  0  0
  5  6  2  0  0  0  0
  5  7  1  0  0  0  0
  7  8  1  0  0  0  0
  7  9  1  0  0  0  0
  9 10  1  0  0  0  0
  9 11  1  0  0  0  0
  9 25  1  0  0  0  0
 11 12  1  0  0  0  0
 11 13  1  0  0  0  0
 11 14  1  0  0  0  0
 14 15  1  0  0  0  0
 14 23  2  0  0  0  0
 15 16  1  0  0  0  0
 15 17  2  0  0  0  0
 17 18  1  0  0  0  0
 17 19  1  0  0  0  0
 19 20  1  0  0  0  0
 19 21  2  0  0  0  0
 21 22  1  0  0  0  0
 21 23  1  0  0  0  0
 23 24  1  0  0  0  0
 25 26  2  0  0  0  0
 25 27  1  0  0  0  0
 27 28  1  0  0  0  0
 27 29  1  0  0  0  0
 29 30  1  0  0  0  0
 29 31  1  0  0  0  0
 29 32  1  0  0  0  0
M  END
$$$$

  -OEChem-01062216093D

 32 32  0     1  0  0  0  0  0999 V2000
   -3.9401   -2.2054    0.4672 H   0  0  0  0  0  0  0  0  0  0  0  0
   -3.6507   -1.3120   -0.0937 C   0  0  0  0  0  0  0  0  0  0  0  0
   -4.3148   -0.4920    0.1896 H   0  0  0  0  0  0  0  0  0  0  0  0
   -3.7665   -1.5143   -1.1612 H   0  0  0  0  0  0  0  0  0  0  0  0
   -2.2100   -0.9436    0.2096 C   0  0  0  0  0  0  0  0  0  0  0  0
   -1.5442   -1.7202    0.8670 O   0  0  0  0  0  0  0  0  0  0  0  0
   -1.7135    0.2269   -0.3348 N   0  0  0  0  0  0  0  0  0  0  0  0
   -2.3870    0.7076   -0.9263 H   0  0  0  0  0  0  0  0  0  0  0  0
   -0.4153    0.9445   -0.2160 C   0  0  1  0  0  0  0  0  0  0  0  0
    0.1335    0.7543   -1.1435 H   0  0  0  0  0  0  0  0  0  0  0  0
   -0.8200    2.4414   -0.1787 C   0  0  0  0  0  0  0  0  0  0  0  0
   -1.5257    2.6140    0.6405 H   0  0  0  0  0  0  0  0  0  0  0  0
    0.0487    3.0790    0.0133 H   0  0  0  0  0  0  0  0  0  0  0  0
   -1.4098    2.8811   -1.4998 C   0  0  0  0  0  0  0  0  0  0  0  0
   -0.5695    3.2149   -2.5719 C   0  0  0  0  0  0  0  0  0  0  0  0
    0.5091    3.1553   -2.4548 H   0  0  0  0  0  0  0  0  0  0  0  0
   -1.1091    3.6232   -3.7961 C   0  0  0  0  0  0  0  0  0  0  0  0
   -0.4496    3.8772   -4.6210 H   0  0  0  0  0  0  0  0  0  0  0  0
   -2.4955    3.7086   -3.9559 C   0  0  0  0  0  0  0  0  0  0  0  0
   -2.9133    4.0287   -4.9062 H   0  0  0  0  0  0  0  0  0  0  0  0
   -3.3414    3.3913   -2.8887 C   0  0  0  0  0  0  0  0  0  0  0  0
   -4.4179    3.4705   -3.0098 H   0  0  0  0  0  0  0  0  0  0  0  0
   -2.8004    2.9839   -1.6643 C   0  0  0  0  0  0  0  0  0  0  0  0
   -3.4666    2.7584   -0.8370 H   0  0  0  0  0  0  0  0  0  0  0  0
    0.6397    0.6405    0.9003 C   0  0  0  0  0  0  0  0  0  0  0  0
    1.4359    1.5143    1.2257 O   0  0  0  0  0  0  0  0  0  0  0  0
    0.8266   -0.5912    1.4944 N   0  0  0  0  0  0  0  0  0  0  0  0
    0.1239   -1.3041    1.2924 H   0  0  0  0  0  0  0  0  0  0  0  0
    1.8131   -0.8630    2.5328 C   0  0  0  0  0  0  0  0  0  0  0  0
    1.6374   -0.2251    3.4052 H   0  0  0  0  0  0  0  0  0  0  0  0
    1.7481   -1.9085    2.8492 H   0  0  0  0  0  0  0  0  0  0  0  0
    2.8250   -0.6788    2.1576 H   0  0  0  0  0  0  0  0  0  0  0  0
  1  2  1  0  0  0  0
  2  3  1  0  0  0  0
  2  4  1  0  0  0  0
  2  5  1  0  0  0  0
  5  6  2  0  0  0  0
  5  7  1  0  0  0  0
  7  8  1  0  0  0  0
  7  9  1  0  0  0  0
  9 10  1  0  0  0  0
  9 11  1  0  0  0  0
  9 25  1  0  0  0  0
 11 12  1  0  0  0  0
 11 13  1  0  0  0  0
 11 14  1  0  0  0  0
 14 15  1  0  0  0  0
 14 23  2  0  0  0  0
 15 16  1  0  0  0  0
 15 17  2  0  0  0  0
 17 18  1  0  0  0  0
 17 19  1  0  0  0  0
 19 20  1  0  0  0  0
 19 21  2  0  0  0  0
 21 22  1  0  0  0  0
 21 23  1  0  0  0  0
 23 24  1  0  0  0  0
 25 26  2  0  0  0  0
 25 27  1  0  0  0  0
 27 28  1  0  0  0  0
 27 29  1  0  0  0  0
 29 30  1  0  0  0  0
 29 31  1  0  0  0  0
 29 32  1  0  0  0  0
M  END
$$$$

  -OEChem-01062216093D

 32 32  0     1  0  0  0  0  0999 V2000
   -3.8861   -2.1689    0.5956 H   0  0  0  0  0  0  0  0  0  0  0  0
   -3.6304   -1.2594    0.0443 C   0  0  0  0  0  0  0  0  0  0  0  0
   -4.2680   -0.4454    0.3974 H   0  0  0  0  0  0  0  0  0  0  0  0
   -3.8196   -1.4273   -1.0187 H   0  0  0  0  0  0  0  0  0  0  0  0
   -2.1704   -0.9063    0.2606 C   0  0  0  0  0  0  0  0  0  0  0  0
   -1.4716   -1.6846    0.8814 O   0  0  0  0  0  0  0  0  0  0  0  0
   -1.6908    0.2533   -0.3200 N   0  0  0  0  0  0  0  0  0  0  0  0
   -2.3871    0.7456   -0.8741 H   0  0  0  0  0  0  0  0  0  0  0  0
   -0.3794    0.9494   -0.2517 C   0  0  1  0  0  0  0  0  0  0  0  0
    0.1421    0.7375   -1.1900 H   0  0  0  0  0  0  0  0  0  0  0  0
   -0.7419    2.4558   -0.2224 C   0  0  0  0  0  0  0  0  0  0  0  0
   -1.4140    2.6607    0.6176 H   0  0  0  0  0  0  0  0  0  0  0  0
    0.1539    3.0666   -0.0702 H   0  0  0  0  0  0  0  0  0  0  0  0
   -1.3616    2.8942   -1.5298 C   0  0  0  0  0  0  0  0  0  0  0  0
   -0.5510    3.1920   -2.6349 C   0  0  0  0  0  0  0  0  0  0  0  0
    0.5291    3.1064   -2.5553 H   0  0  0  0  0  0  0  0  0  0  0  0
   -1.1226    3.5988   -3.8452 C   0  0  0  0  0  0  0  0  0  0  0  0
   -0.4865    3.8252   -4.6962 H   0  0  0  0  0  0  0  0  0  0  0  0
   -2.5109    3.7188   -3.9579 C   0  0  0  0  0  0  0  0  0  0  0  0
   -2.9540    4.0380   -4.8968 H   0  0  0  0  0  0  0  0  0  0  0  0
   -3.3267    3.4373   -2.8580 C   0  0  0  0  0  0  0  0  0  0  0  0
   -4.4044    3.5432   -2.9419 H   0  0  0  0  0  0  0  0  0  0  0  0
   -2.7540    3.0304   -1.6482 C   0  0  0  0  0  0  0  0  0  0  0  0
   -3.3969    2.8325   -0.7955 H   0  0  0  0  0  0  0  0  0  0  0  0
    0.6803    0.6086    0.8473 C   0  0  0  0  0  0  0  0  0  0  0  0
    1.3349    1.5040    1.3699 O   0  0  0  0  0  0  0  0  0  0  0  0
    1.0157   -0.6838    1.1999 N   0  0  0  0  0  0  0  0  0  0  0  0
    0.3261   -1.3935    0.9442 H   0  0  0  0  0  0  0  0  0  0  0  0
    1.9581   -1.0078    2.2639 C   0  0  0  0  0  0  0  0  0  0  0  0
    1.6119   -0.6006    3.2196 H   0  0  0  0  0  0  0  0  0  0  0  0
    2.0537   -2.0932    2.3630 H   0  0  0  0  0  0  0  0  0  0  0  0
    2.9466   -0.5938    2.0397 H   0  0  0  0  0  0  0  0  0  0  0  0
  1  2  1  0  0  0  0
  2  3  1  0  0  0  0
  2  4  1  0  0  0  0
  2  5  1  0  0  0  0
  5  6  2  0  0  0  0
  5  7  1  0  0  0  0
  7  8  1  0  0  0  0
  7  9  1  0  0  0  0
  9 10  1  0  0  0  0
  9 11  1  0  0  0  0
  9 25  1  0  0  0  0
 11 12  1  0  0  0  0
 11 13  1  0  0  0  0
 11 14  1  0  0  0  0
 14 15  1  0  0  0  0
 14 23  2  0  0  0  0
 15 16  1  0  0  0  0
 15 17  2  0  0  0  0
 17 18  1  0  0  0  0
 17 19  1  0  0  0  0
 19 20  1  0  0  0  0
 19 21  2  0  0  0  0
 21 22  1  0  0  0  0
 21 23  1  0  0  0  0
 23 24  1  0  0  0  0
 25 26  2  0  0  0  0
 25 27  1  0  0  0  0
 27 28  1  0  0  0  0
 27 29  1  0  0  0  0
 29 30  1  0  0  0  0
 29 31  1  0  0  0  0
 29 32  1  0  0  0  0
M  END
$$$$

  -OEChem-01062216093D

 32 32  0     1  0  0  0  0  0999 V2000
   -3.7471   -2.2050    0.7337 H   0  0  0  0  0  0  0  0  0  0  0  0
   -3.5474   -1.3000    0.1527 C   0  0  0  0  0  0  0  0  0  0  0  0
   -4.1787   -0.4937    0.5340 H   0  0  0  0  0  0  0  0  0  0  0  0
   -3.8010   -1.4895   -0.8931 H   0  0  0  0  0  0  0  0  0  0  0  0
   -2.0844   -0.9137    0.2683 C   0  0  0  0  0  0  0  0  0  0  0  0
   -1.3173   -1.6830    0.8175 O   0  0  0  0  0  0  0  0  0  0  0  0
   -1.6634    0.2561   -0.3363 N   0  0  0  0  0  0  0  0  0  0  0  0
   -2.3950    0.7504   -0.8406 H   0  0  0  0  0  0  0  0  0  0  0  0
   -0.3672    0.9757   -0.2721 C   0  0  1  0  0  0  0  0  0  0  0  0
    0.1648    0.7697   -1.2058 H   0  0  0  0  0  0  0  0  0  0  0  0
   -0.7293    2.4800   -0.2412 C   0  0  0  0  0  0  0  0  0  0  0  0
   -1.3999    2.6843    0.6001 H   0  0  0  0  0  0  0  0  0  0  0  0
    0.1714    3.0841   -0.0865 H   0  0  0  0  0  0  0  0  0  0  0  0
   -1.3527    2.9185   -1.5465 C   0  0  0  0  0  0  0  0  0  0  0  0
   -0.5445    3.2168   -2.6532 C   0  0  0  0  0  0  0  0  0  0  0  0
    0.5360    3.1348   -2.5754 H   0  0  0  0  0  0  0  0  0  0  0  0
   -1.1192    3.6188   -3.8636 C   0  0  0  0  0  0  0  0  0  0  0  0
   -0.4849    3.8445   -4.7160 H   0  0  0  0  0  0  0  0  0  0  0  0
   -2.5081    3.7340   -3.9747 C   0  0  0  0  0  0  0  0  0  0  0  0
   -2.9532    4.0495   -4.9140 H   0  0  0  0  0  0  0  0  0  0  0  0
   -3.3214    3.4517   -2.8731 C   0  0  0  0  0  0  0  0  0  0  0  0
   -4.3997    3.5525   -2.9563 H   0  0  0  0  0  0  0  0  0  0  0  0
   -2.7456    3.0489   -1.6633 C   0  0  0  0  0  0  0  0  0  0  0  0
   -3.3861    2.8476   -0.8097 H   0  0  0  0  0  0  0  0  0  0  0  0
    0.6662    0.6271    0.8445 C   0  0  0  0  0  0  0  0  0  0  0  0
    1.1299    1.5047    1.5650 O   0  0  0  0  0  0  0  0  0  0  0  0
    1.1961   -0.6432    0.9653 N   0  0  0  0  0  0  0  0  0  0  0  0
    0.5781   -1.3793    0.6175 H   0  0  0  0  0  0  0  0  0  0  0  0
    2.1327   -1.0074    2.0216 C   0  0  0  0  0  0  0  0  0  0  0  0
    1.6727   -0.8700    3.0058 H   0  0  0  0  0  0  0  0  0  0  0  0
    2.4264   -2.0561    1.9180 H   0  0  0  0  0  0  0  0  0  0  0  0
    3.0356   -0.3908    1.9645 H   0  0  0  0  0  0  0  0  0  0  0  0
  1  2  1  0  0  0  0
  2  3  1  0  0  0  0
  2  4  1  0  0  0  0
  2  5  1  0  0  0  0
  5  6  2  0  0  0  0
  5  7  1  0  0  0  0
  7  8  1  0  0  0  0
  7  9  1  0  0  0  0
  9 10  1  0  0  0  0
  9 11  1  0  0  0  0
  9 25  1  0  0  0  0
 11 12  1  0  0  0  0
 11 13  1  0  0  0  0
 11 14  1  0  0  0  0
 14 15  1  0  0  0  0
 14 23  2  0  0  0  0
 15 16  1  0  0  0  0
 15 17  2  0  0  0  0
 17 18  1  0  0  0  0
 17 19  1  0  0  0  0
 19 20  1  0  0  0  0
 19 21  2  0  0  0  0
 21 22  1  0  0  0  0
 21 23  1  0  0  0  0
 23 24  1  0  0  0  0
 25 26  2  0  0  0  0
 25 27  1  0  0  0  0
 27 28  1  0  0  0  0
 27 29  1  0  0  0  0
 29 30  1  0  0  0  0
 29 31  1  0  0  0  0
 29 32  1  0  0  0  0
M  END
$$$$

  -OEChem-01062216093D

 32 32  0     1  0  0  0  0  0999 V2000
   -3.5955   -2.2435    0.8592 H   0  0  0  0  0  0  0  0  0  0  0  0
   -3.4559   -1.3446    0.2521 C   0  0  0  0  0  0  0  0  0  0  0  0
   -4.0801   -0.5465    0.6612 H   0  0  0  0  0  0  0  0  0  0  0  0
   -3.7715   -1.5579   -0.7719 H   0  0  0  0  0  0  0  0  0  0  0  0
   -1.9982   -0.9236    0.2672 C   0  0  0  0  0  0  0  0  0  0  0  0
   -1.1692   -1.6783    0.7447 O   0  0  0  0  0  0  0  0  0  0  0  0
   -1.6368    0.2496   -0.3681 N   0  0  0  0  0  0  0  0  0  0  0  0
   -2.4028    0.7470   -0.8143 H   0  0  0  0  0  0  0  0  0  0  0  0
   -0.3565    0.9918   -0.3042 C   0  0  1  0  0  0  0  0  0  0  0  0
    0.1897    0.7937   -1.2314 H   0  0  0  0  0  0  0  0  0  0  0  0
   -0.7195    2.4931   -0.2660 C   0  0  0  0  0  0  0  0  0  0  0  0
   -1.3912    2.6921    0.5761 H   0  0  0  0  0  0  0  0  0  0  0  0
    0.1844    3.0905   -0.1024 H   0  0  0  0  0  0  0  0  0  0  0  0
   -1.3464    2.9378   -1.5672 C   0  0  0  0  0  0  0  0  0  0  0  0
   -0.5414    3.2423   -2.6748 C   0  0  0  0  0  0  0  0  0  0  0  0
    0.5392    3.1597   -2.6012 H   0  0  0  0  0  0  0  0  0  0  0  0
   -1.1197    3.6505   -3.8813 C   0  0  0  0  0  0  0  0  0  0  0  0
   -0.4887    3.8811   -4.7348 H   0  0  0  0  0  0  0  0  0  0  0  0
   -2.5090    3.7659   -3.9875 C   0  0  0  0  0  0  0  0  0  0  0  0
   -2.9573    4.0869   -4.9234 H   0  0  0  0  0  0  0  0  0  0  0  0
   -3.3191    3.4767   -2.8854 C   0  0  0  0  0  0  0  0  0  0  0  0
   -4.3977    3.5769   -2.9651 H   0  0  0  0  0  0  0  0  0  0  0  0
   -2.7398    3.0671   -1.6795 C   0  0  0  0  0  0  0  0  0  0  0  0
   -3.3780    2.8604   -0.8256 H   0  0  0  0  0  0  0  0  0  0  0  0
    0.6406    0.6400    0.8384 C   0  0  0  0  0  0  0  0  0  0  0  0
    0.8919    1.4484    1.7262 O   0  0  0  0  0  0  0  0  0  0  0  0
    1.3824   -0.5251    0.7789 N   0  0  0  0  0  0  0  0  0  0  0  0
    0.9041   -1.2808    0.2882 H   0  0  0  0  0  0  0  0  0  0  0  0
    2.3009   -0.9110    1.8432 C   0  0  0  0  0  0  0  0  0  0  0  0
    1.7616   -1.0327    2.7884 H   0  0  0  0  0  0  0  0  0  0  0  0
    2.7869   -1.8593    1.5953 H   0  0  0  0  0  0  0  0  0  0  0  0
    3.0780   -0.1509    1.9754 H   0  0  0  0  0  0  0  0  0  0  0  0
  1  2  1  0  0  0  0
  2  3  1  0  0  0  0
  2  4  1  0  0  0  0
  2  5  1  0  0  0  0
  5  6  2  0  0  0  0
  5  7  1  0  0  0  0
  7  8  1  0  0  0  0
  7  9  1  0  0  0  0
  9 10  1  0  0  0  0
  9 11  1  0  0  0  0
  9 25  1  0  0  0  0
 11 12  1  0  0  0  0
 11 13  1  0  0  0  0
 11 14  1  0  0  0  0
 14 15  1  0  0  0  0
 14 23  2  0  0  0  0
 15 16  1  0  0  0  0
 15 17  2  0  0  0  0
 17 18  1  0  0  0  0
 17 19  1  0  0  0  0
 19 20  1  0  0  0  0
 19 21  2  0  0  0  0
 21 22  1  0  0  0  0
 21 23  1  0  0  0  0
 23 24  1  0  0  0  0
 25 26  2  0  0  0  0
 25 27  1  0  0  0  0
 27 28  1  0  0  0  0
 27 29  1  0  0  0  0
 29 30  1  0  0  0  0
 29 31  1  0  0  0  0
 29 32  1  0  0  0  0
M  END
$$$$

  -OEChem-01062216093D

 32 32  0     1  0  0  0  0  0999 V2000
   -3.4764   -2.2750    0.9415 H   0  0  0  0  0  0  0  0  0  0  0  0
   -3.3841   -1.3756    0.3261 C   0  0  0  0  0  0  0  0  0  0  0  0
   -3.9992   -0.5865    0.7651 H   0  0  0  0  0  0  0  0  0  0  0  0
   -3.7483   -1.5968   -0.6800 H   0  0  0  0  0  0  0  0  0  0  0  0
   -1.9351   -0.9305    0.2656 C   0  0  0  0  0  0  0  0  0  0  0  0
   -1.0667   -1.6700    0.6966 O   0  0  0  0  0  0  0  0  0  0  0  0
   -1.6203    0.2420   -0.3958 N   0  0  0  0  0  0  0  0  0  0  0  0
   -2.4118    0.7412   -0.7917 H   0  0  0  0  0  0  0  0  0  0  0  0
   -0.3529    1.0011   -0.3327 C   0  0  1  0  0  0  0  0  0  0  0  0
    0.2016    0.8078   -1.2558 H   0  0  0  0  0  0  0  0  0  0  0  0
   -0.7130    2.5009   -0.2868 C   0  0  0  0  0  0  0  0  0  0  0  0
   -1.3849    2.6979    0.5557 H   0  0  0  0  0  0  0  0  0  0  0  0
    0.1940    3.0912   -0.1167 H   0  0  0  0  0  0  0  0  0  0  0  0
   -1.3426    2.9522   -1.5834 C   0  0  0  0  0  0  0  0  0  0  0  0
   -0.5410    3.2608   -2.6922 C   0  0  0  0  0  0  0  0  0  0  0  0
    0.5398    3.1786   -2.6220 H   0  0  0  0  0  0  0  0  0  0  0  0
   -1.1233    3.6733   -3.8956 C   0  0  0  0  0  0  0  0  0  0  0  0
   -0.4949    3.9072   -4.7501 H   0  0  0  0  0  0  0  0  0  0  0  0
   -2.5130    3.7883   -3.9970 C   0  0  0  0  0  0  0  0  0  0  0  0
   -2.9651    4.1110   -4.9306 H   0  0  0  0  0  0  0  0  0  0  0  0
   -3.3191    3.4965   -2.8927 C   0  0  0  0  0  0  0  0  0  0  0  0
   -4.3979    3.5971   -2.9673 H   0  0  0  0  0  0  0  0  0  0  0  0
   -2.7358    3.0837   -1.6902 C   0  0  0  0  0  0  0  0  0  0  0  0
   -3.3716    2.8755   -0.8349 H   0  0  0  0  0  0  0  0  0  0  0  0
    0.6185    0.6527    0.8276 C   0  0  0  0  0  0  0  0  0  0  0  0
    0.6452    1.3338    1.8476 O   0  0  0  0  0  0  0  0  0  0  0  0
    1.5763   -0.3288    0.6498 N   0  0  0  0  0  0  0  0  0  0  0  0
    1.3263   -1.0355   -0.0380 H   0  0  0  0  0  0  0  0  0  0  0  0
    2.4679   -0.7363    1.7283 C   0  0  0  0  0  0  0  0  0  0  0  0
    1.8910   -1.1228    2.5752 H   0  0  0  0  0  0  0  0  0  0  0  0
    3.1453   -1.5222    1.3812 H   0  0  0  0  0  0  0  0  0  0  0  0
    3.0711    0.1116    2.0695 H   0  0  0  0  0  0  0  0  0  0  0  0
  1  2  1  0  0  0  0
  2  3  1  0  0  0  0
  2  4  1  0  0  0  0
  2  5  1  0  0  0  0
  5  6  2  0  0  0  0
  5  7  1  0  0  0  0
  7  8  1  0  0  0  0
  7  9  1  0  0  0  0
  9 10  1  0  0  0  0
  9 11  1  0  0  0  0
  9 25  1  0  0  0  0
 11 12  1  0  0  0  0
 11 13  1  0  0  0  0
 11 14  1  0  0  0  0
 14 15  1  0  0  0  0
 14 23  2  0  0  0  0
 15 16  1  0  0  0  0
 15 17  2  0  0  0  0
 17 18  1  0  0  0  0
 17 19  1  0  0  0  0
 19 20  1  0  0  0  0
 19 21  2  0  0  0  0
 21 22  1  0  0  0  0
 21 23  1  0  0  0  0
 23 24  1  0  0  0  0
 25 26  2  0  0  0  0
 25 27  1  0  0  0  0
 27 28  1  0  0  0  0
 27 29  1  0  0  0  0
 29 30  1  0  0  0  0
 29 31  1  0  0  0  0
 29 32  1  0  0  0  0
M  END
$$$$

  -OEChem-01062216093D

 32 32  0     1  0  0  0  0  0999 V2000
   -3.4120   -2.2899    1.0011 H   0  0  0  0  0  0  0  0  0  0  0  0
   -3.3498   -1.3880    0.3854 C   0  0  0  0  0  0  0  0  0  0  0  0
   -3.9395   -0.5999    0.8595 H   0  0  0  0  0  0  0  0  0  0  0  0
   -3.7665   -1.6041   -0.6012 H   0  0  0  0  0  0  0  0  0  0  0  0
   -1.9048   -0.9451    0.2525 C   0  0  0  0  0  0  0  0  0  0  0  0
   -1.0155   -1.6876    0.6346 O   0  0  0  0  0  0  0  0  0  0  0  0
   -1.6175    0.2262   -0.4238 N   0  0  0  0  0  0  0  0  0  0  0  0
   -2.4263    0.7362   -0.7666 H   0  0  0  0  0  0  0  0  0  0  0  0
   -0.3575    0.9954   -0.3537 C   0  0  1  0  0  0  0  0  0  0  0  0
    0.2037    0.8067   -1.2734 H   0  0  0  0  0  0  0  0  0  0  0  0
   -0.7182    2.4931   -0.2988 C   0  0  0  0  0  0  0  0  0  0  0  0
   -1.3946    2.6816    0.5421 H   0  0  0  0  0  0  0  0  0  0  0  0
    0.1881    3.0813   -0.1178 H   0  0  0  0  0  0  0  0  0  0  0  0
   -1.3454    2.9540   -1.5933 C   0  0  0  0  0  0  0  0  0  0  0  0
   -0.5393    3.2705   -2.6966 C   0  0  0  0  0  0  0  0  0  0  0  0
    0.5410    3.1859   -2.6235 H   0  0  0  0  0  0  0  0  0  0  0  0
   -1.1158    3.6952   -3.8983 C   0  0  0  0  0  0  0  0  0  0  0  0
   -0.4834    3.9366   -4.7478 H   0  0  0  0  0  0  0  0  0  0  0  0
   -2.5048    3.8120   -4.0050 C   0  0  0  0  0  0  0  0  0  0  0  0
   -2.9517    4.1436   -4.9378 H   0  0  0  0  0  0  0  0  0  0  0  0
   -3.3163    3.5087   -2.9075 C   0  0  0  0  0  0  0  0  0  0  0  0
   -4.3948    3.6093   -2.9875 H   0  0  0  0  0  0  0  0  0  0  0  0
   -2.7385    3.0844   -1.7058 C   0  0  0  0  0  0  0  0  0  0  0  0
   -3.3783    2.8660   -0.8561 H   0  0  0  0  0  0  0  0  0  0  0  0
    0.5971    0.6537    0.8199 C   0  0  0  0  0  0  0  0  0  0  0  0
    0.4311    1.1678    1.9212 O   0  0  0  0  0  0  0  0  0  0  0  0
    1.7441   -0.0825    0.5834 N   0  0  0  0  0  0  0  0  0  0  0  0
    1.7223   -0.6640   -0.2495 H   0  0  0  0  0  0  0  0  0  0  0  0
    2.6441   -0.4777    1.6596 C   0  0  0  0  0  0  0  0  0  0  0  0
    2.1190   -1.1089    2.3842 H   0  0  0  0  0  0  0  0  0  0  0  0
    3.4905   -1.0413    1.2557 H   0  0  0  0  0  0  0  0  0  0  0  0
    3.0347    0.4042    2.1780 H   0  0  0  0  0  0  0  0  0  0  0  0
  1  2  1  0  0  0  0
  2  3  1  0  0  0  0
  2  4  1  0  0  0  0
  2  5  1  0  0  0  0
  5  6  2  0  0  0  0
  5  7  1  0  0  0  0
  7  8  1  0  0  0  0
  7  9  1  0  0  0  0
  9 10  1  0  0  0  0
  9 11  1  0  0  0  0
  9 25  1  0  0  0  0
 11 12  1  0  0  0  0
 11 13  1  0  0  0  0
 11 14  1  0  0  0  0
 14 15  1  0  0  0  0
 14 23  2  0  0  0  0
 15 16  1  0  0  0  0
 15 17  2  0  0  0  0
 17 18  1  0  0  0  0
 17 19  1  0  0  0  0
 19 20  1  0  0  0  0
 19 21  2  0  0  0  0
 21 22  1  0  0  0  0
 21 23  1  0  0  0  0
 23 24  1  0  0  0  0
 25 26  2  0  0  0  0
 25 27  1  0  0  0  0
 27 28  1  0  0  0  0
 27 29  1  0  0  0  0
 29 30  1  0  0  0  0
 29 31  1  0  0  0  0
 29 32  1  0  0  0  0
M  END
$$$$

  -OEChem-01062216093D

 32 32  0     1  0  0  0  0  0999 V2000
   -3.3779   -2.3059    1.0327 H   0  0  0  0  0  0  0  0  0  0  0  0
   -3.3343   -1.3959    0.4272 C   0  0  0  0  0  0  0  0  0  0  0  0
   -3.8895   -0.6076    0.9411 H   0  0  0  0  0  0  0  0  0  0  0  0
   -3.8015   -1.5918   -0.5409 H   0  0  0  0  0  0  0  0  0  0  0  0
   -1.8918   -0.9688    0.2306 C   0  0  0  0  0  0  0  0  0  0  0  0
   -0.9930   -1.7259    0.5596 O   0  0  0  0  0  0  0  0  0  0  0  0
   -1.6191    0.2009   -0.4549 N   0  0  0  0  0  0  0  0  0  0  0  0
   -2.4374    0.7213   -0.7566 H   0  0  0  0  0  0  0  0  0  0  0  0
   -0.3635    0.9757   -0.3733 C   0  0  1  0  0  0  0  0  0  0  0  0
    0.2053    0.7902   -1.2890 H   0  0  0  0  0  0  0  0  0  0  0  0
   -0.7232    2.4721   -0.3077 C   0  0  0  0  0  0  0  0  0  0  0  0
   -1.4033    2.6536    0.5317 H   0  0  0  0  0  0  0  0  0  0  0  0
    0.1826    3.0576   -0.1166 H   0  0  0  0  0  0  0  0  0  0  0  0
   -1.3449    2.9465   -1.5996 C   0  0  0  0  0  0  0  0  0  0  0  0
   -0.5342    3.2728   -2.6968 C   0  0  0  0  0  0  0  0  0  0  0  0
    0.5457    3.1856   -2.6213 H   0  0  0  0  0  0  0  0  0  0  0  0
   -1.1057    3.7118   -3.8958 C   0  0  0  0  0  0  0  0  0  0  0  0
   -0.4704    3.9605   -4.7410 H   0  0  0  0  0  0  0  0  0  0  0  0
   -2.4941    3.8346   -4.0051 C   0  0  0  0  0  0  0  0  0  0  0  0
   -2.9376    4.1782   -4.9352 H   0  0  0  0  0  0  0  0  0  0  0  0
   -3.3097    3.5225   -2.9133 C   0  0  0  0  0  0  0  0  0  0  0  0
   -4.3877    3.6282   -2.9950 H   0  0  0  0  0  0  0  0  0  0  0  0
   -2.7371    3.0832   -1.7147 C   0  0  0  0  0  0  0  0  0  0  0  0
   -3.3806    2.8584   -0.8695 H   0  0  0  0  0  0  0  0  0  0  0  0
    0.5778    0.6430    0.8119 C   0  0  0  0  0  0  0  0  0  0  0  0
    0.2662    0.9753    1.9509 O   0  0  0  0  0  0  0  0  0  0  0  0
    1.8633    0.1930    0.5695 N   0  0  0  0  0  0  0  0  0  0  0  0
    2.0289   -0.2138   -0.3459 H   0  0  0  0  0  0  0  0  0  0  0  0
    2.7834   -0.1487    1.6469 C   0  0  0  0  0  0  0  0  0  0  0  0
    2.3703   -0.9570    2.2597 H   0  0  0  0  0  0  0  0  0  0  0  0
    3.7417   -0.4786    1.2349 H   0  0  0  0  0  0  0  0  0  0  0  0
    2.9659    0.7209    2.2868 H   0  0  0  0  0  0  0  0  0  0  0  0
  1  2  1  0  0  0  0
  2  3  1  0  0  0  0
  2  4  1  0  0  0  0
  2  5  1  0  0  0  0
  5  6  2  0  0  0  0
  5  7  1  0  0  0  0
  7  8  1  0  0  0  0
  7  9  1  0  0  0  0
  9 10  1  0  0  0  0
  9 11  1  0  0  0  0
  9 25  1  0  0  0  0
 11 12  1  0  0  0  0
 11 13  1  0  0  0  0
 11 14  1  0  0  0  0
 14 15  1  0  0  0  0
 14 23  2  0  0  0  0
 15 16  1  0  0  0  0
 15 17  2  0  0  0  0
 17 18  1  0  0  0  0
 17 19  1  0  0  0  0
 19 20  1  0  0  0  0
 19 21  2  0  0  0  0
 21 22  1  0  0  0  0
 21 23  1  0  0  0  0
 23 24  1  0  0  0  0
 25 26  2  0  0  0  0
 25 27  1  0  0  0  0
 27 28  1  0  0  0  0
 27 29  1  0  0  0  0
 29 30  1  0  0  0  0
 29 31  1  0  0  0  0
 29 32  1  0  0  0  0
M  END
$$$$

  -OEChem-01062216093D

 32 32  0     1  0  0  0  0  0999 V2000
   -3.3727   -2.3043    1.0540 H   0  0  0  0  0  0  0  0  0  0  0  0
   -3.3343   -1.3959    0.4463 C   0  0  0  0  0  0  0  0  0  0  0  0
   -3.8610   -0.5988    0.9761 H   0  0  0  0  0  0  0  0  0  0  0  0
   -3.8342   -1.5860   -0.5062 H   0  0  0  0  0  0  0  0  0  0  0  0
   -1.8920   -0.9918    0.2049 C   0  0  0  0  0  0  0  0  0  0  0  0
   -0.9952   -1.7724    0.4808 O   0  0  0  0  0  0  0  0  0  0  0  0
   -1.6203    0.1769   -0.4825 N   0  0  0  0  0  0  0  0  0  0  0  0
   -2.4405    0.7098   -0.7541 H   0  0  0  0  0  0  0  0  0  0  0  0
   -0.3641    0.9494   -0.3887 C   0  0  1  0  0  0  0  0  0  0  0  0
    0.2098    0.7662   -1.3015 H   0  0  0  0  0  0  0  0  0  0  0  0
   -0.7229    2.4448   -0.3094 C   0  0  0  0  0  0  0  0  0  0  0  0
   -1.4053    2.6164    0.5305 H   0  0  0  0  0  0  0  0  0  0  0  0
    0.1825    3.0281   -0.1096 H   0  0  0  0  0  0  0  0  0  0  0  0
   -1.3400    2.9351   -1.5979 C   0  0  0  0  0  0  0  0  0  0  0  0
   -0.5270    3.2736   -2.6901 C   0  0  0  0  0  0  0  0  0  0  0  0
    0.5525    3.1849   -2.6142 H   0  0  0  0  0  0  0  0  0  0  0  0
   -1.0958    3.7262   -3.8854 C   0  0  0  0  0  0  0  0  0  0  0  0
   -0.4593    3.9834   -4.7271 H   0  0  0  0  0  0  0  0  0  0  0  0
   -2.4839    3.8512   -3.9959 C   0  0  0  0  0  0  0  0  0  0  0  0
   -2.9261    4.2043   -4.9232 H   0  0  0  0  0  0  0  0  0  0  0  0
   -3.3014    3.5286   -2.9086 C   0  0  0  0  0  0  0  0  0  0  0  0
   -4.3790    3.6359   -2.9910 H   0  0  0  0  0  0  0  0  0  0  0  0
   -2.7318    3.0753   -1.7140 C   0  0  0  0  0  0  0  0  0  0  0  0
   -3.3773    2.8413   -0.8727 H   0  0  0  0  0  0  0  0  0  0  0  0
    0.5683    0.6201    0.8041 C   0  0  0  0  0  0  0  0  0  0  0  0
    0.1614    0.7719    1.9514 O   0  0  0  0  0  0  0  0  0  0  0  0
    1.9287    0.4724    0.5969 N   0  0  0  0  0  0  0  0  0  0  0  0
    2.2260    0.2609   -0.3504 H   0  0  0  0  0  0  0  0  0  0  0  0
    2.8647    0.2240    1.6866 C   0  0  0  0  0  0  0  0  0  0  0  0
    2.6008   -0.6985    2.2147 H   0  0  0  0  0  0  0  0  0  0  0  0
    3.8813    0.1217    1.2955 H   0  0  0  0  0  0  0  0  0  0  0  0
    2.8521    1.0548    2.4000 H   0  0  0  0  0  0  0  0  0  0  0  0
  1  2  1  0  0  0  0
  2  3  1  0  0  0  0
  2  4  1  0  0  0  0
  2  5  1  0  0  0  0
  5  6  2  0  0  0  0
  5  7  1  0  0  0  0
  7  8  1  0  0  0  0
  7  9  1  0  0  0  0
  9 10  1  0  0  0  0
  9 11  1  0  0  0  0
  9 25  1  0  0  0  0
 11 12  1  0  0  0  0
 11 13  1  0  0  0  0
 11 14  1  0  0  0  0
 14 15  1  0  0  0  0
 14 23  2  0  0  0  0
 15 16  1  0  0  0  0
 15 17  2  0  0  0  0
 17 18  1  0  0  0  0
 17 19  1  0  0  0  0
 19 20  1  0  0  0  0
 19 21  2  0  0  0  0
 21 22  1  0  0  0  0
 21 23  1  0  0  0  0
 23 24  1  0  0  0  0
 25 26  2  0  0  0  0
 25 27  1  0  0  0  0
 27 28  1  0  0  0  0
 27 29  1  0  0  0  0
 29 30  1  0  0  0  0
 29 31  1  0  0  0  0
 29 32  1  0  0  0  0
M  END
$$$$

  -OEChem-01062216093D

 32 32  0     1  0  0  0  0  0999 V2000
   -3.3687   -2.3196    1.0446 H   0  0  0  0  0  0  0  0  0  0  0  0
   -3.3343   -1.3914    0.4669 C   0  0  0  0  0  0  0  0  0  0  0  0
   -3.8168   -0.6009    1.0466 H   0  0  0  0  0  0  0  0  0  0  0  0
   -3.8800   -1.5362   -0.4685 H   0  0  0  0  0  0  0  0  0  0  0  0
   -1.8940   -1.0133    0.1770 C   0  0  0  0  0  0  0  0  0  0  0  0
   -1.0047   -1.8220    0.3905 O   0  0  0  0  0  0  0  0  0  0  0  0
   -1.6200    0.1572   -0.5063 N   0  0  0  0  0  0  0  0  0  0  0  0
   -2.4403    0.7045   -0.7467 H   0  0  0  0  0  0  0  0  0  0  0  0
   -0.3613    0.9251   -0.3991 C   0  0  1  0  0  0  0  0  0  0  0  0
    0.2174    0.7449   -1.3095 H   0  0  0  0  0  0  0  0  0  0  0  0
   -0.7225    2.4197   -0.3077 C   0  0  0  0  0  0  0  0  0  0  0  0
   -1.4089    2.5824    0.5305 H   0  0  0  0  0  0  0  0  0  0  0  0
    0.1790    3.0058   -0.0982 H   0  0  0  0  0  0  0  0  0  0  0  0
   -1.3339    2.9200   -1.5947 C   0  0  0  0  0  0  0  0  0  0  0  0
   -0.5171    3.2691   -2.6806 C   0  0  0  0  0  0  0  0  0  0  0  0
    0.5621    3.1776   -2.6034 H   0  0  0  0  0  0  0  0  0  0  0  0
   -1.0825    3.7344   -3.8727 C   0  0  0  0  0  0  0  0  0  0  0  0
   -0.4436    3.9976   -4.7107 H   0  0  0  0  0  0  0  0  0  0  0  0
   -2.4700    3.8636   -3.9856 C   0  0  0  0  0  0  0  0  0  0  0  0
   -2.9086    4.2275   -4.9105 H   0  0  0  0  0  0  0  0  0  0  0  0
   -3.2912    3.5304   -2.9043 C   0  0  0  0  0  0  0  0  0  0  0  0
   -4.3685    3.6401   -2.9883 H   0  0  0  0  0  0  0  0  0  0  0  0
   -2.7252    3.0629   -1.7133 C   0  0  0  0  0  0  0  0  0  0  0  0
   -3.3737    2.8212   -0.8764 H   0  0  0  0  0  0  0  0  0  0  0  0
    0.5685    0.5961    0.7969 C   0  0  0  0  0  0  0  0  0  0  0  0
    0.1085    0.5662    1.9336 O   0  0  0  0  0  0  0  0  0  0  0  0
    1.9370    0.7548    0.6592 N   0  0  0  0  0  0  0  0  0  0  0  0
    2.3089    0.7524   -0.2851 H   0  0  0  0  0  0  0  0  0  0  0  0
    2.8661    0.5989    1.7724 C   0  0  0  0  0  0  0  0  0  0  0  0
    2.7718   -0.3995    2.2127 H   0  0  0  0  0  0  0  0  0  0  0  0
    3.8958    0.7298    1.4268 H   0  0  0  0  0  0  0  0  0  0  0  0
    2.6651    1.3461    2.5473 H   0  0  0  0  0  0  0  0  0  0  0  0
  1  2  1  0  0  0  0
  2  3  1  0  0  0  0
  2  4  1  0  0  0  0
  2  5  1  0  0  0  0
  5  6  2  0  0  0  0
  5  7  1  0  0  0  0
  7  8  1  0  0  0  0
  7  9  1  0  0  0  0
  9 10  1  0  0  0  0
  9 11  1  0  0  0  0
  9 25  1  0  0  0  0
 11 12  1  0  0  0  0
 11 13  1  0  0  0  0
 11 14  1  0  0  0  0
 14 15  1  0  0  0  0
 14 23  2  0  0  0  0
 15 16  1  0  0  0  0
 15 17  2  0  0  0  0
 17 18  1  0  0  0  0
 17 19  1  0  0  0  0
 19 20  1  0  0  0  0
 19 21  2  0  0  0  0
 21 22  1  0  0  0  0
 21 23  1  0  0  0  0
 23 24  1  0  0  0  0
 25 26  2  0  0  0  0
 25 27  1  0  0  0  0
 27 28  1  0  0  0  0
 27 29  1  0  0  0  0
 29 30  1  0  0  0  0
 29 31  1  0  0  0  0
 29 32  1  0  0  0  0
M  END
$$$$

  -OEChem-01062216093D

 32 32  0     1  0  0  0  0  0999 V2000
   -3.3790   -2.3125    1.0419 H   0  0  0  0  0  0  0  0  0  0  0  0
   -3.3388   -1.3680    0.4920 C   0  0  0  0  0  0  0  0  0  0  0  0
   -3.7640   -0.5806    1.1188 H   0  0  0  0  0  0  0  0  0  0  0  0
   -3.9334   -1.4630   -0.4194 H   0  0  0  0  0  0  0  0  0  0  0  0
   -1.9015   -1.0308    0.1428 C   0  0  0  0  0  0  0  0  0  0  0  0
   -1.0317   -1.8768    0.2783 O   0  0  0  0  0  0  0  0  0  0  0  0
   -1.6179    0.1437   -0.5287 N   0  0  0  0  0  0  0  0  0  0  0  0
   -2.4345    0.7103   -0.7328 H   0  0  0  0  0  0  0  0  0  0  0  0
   -0.3524    0.8993   -0.4061 C   0  0  1  0  0  0  0  0  0  0  0  0
    0.2277    0.7271   -1.3174 H   0  0  0  0  0  0  0  0  0  0  0  0
   -0.7237    2.3919   -0.2998 C   0  0  0  0  0  0  0  0  0  0  0  0
   -1.4167    2.5384    0.5359 H   0  0  0  0  0  0  0  0  0  0  0  0
    0.1697    2.9848   -0.0782 H   0  0  0  0  0  0  0  0  0  0  0  0
   -1.3304    2.9055   -1.5840 C   0  0  0  0  0  0  0  0  0  0  0  0
   -0.5076    3.2729   -2.6593 C   0  0  0  0  0  0  0  0  0  0  0  0
    0.5714    3.1878   -2.5747 H   0  0  0  0  0  0  0  0  0  0  0  0
   -1.0658    3.7490   -3.8504 C   0  0  0  0  0  0  0  0  0  0  0  0
   -0.4215    4.0280   -4.6792 H   0  0  0  0  0  0  0  0  0  0  0  0
   -2.4532    3.8665   -3.9746 C   0  0  0  0  0  0  0  0  0  0  0  0
   -2.8867    4.2352   -4.8998 H   0  0  0  0  0  0  0  0  0  0  0  0
   -3.2811    3.5136   -2.9050 C   0  0  0  0  0  0  0  0  0  0  0  0
   -4.3586    3.6128   -2.9992 H   0  0  0  0  0  0  0  0  0  0  0  0
   -2.7219    3.0383   -1.7139 C   0  0  0  0  0  0  0  0  0  0  0  0
   -3.3768    2.7800   -0.8872 H   0  0  0  0  0  0  0  0  0  0  0  0
    0.5841    0.5666    0.7867 C   0  0  0  0  0  0  0  0  0  0  0  0
    0.1128    0.3414    1.8962 O   0  0  0  0  0  0  0  0  0  0  0  0
    1.8946    1.0151    0.7491 N   0  0  0  0  0  0  0  0  0  0  0  0
    2.2853    1.2296   -0.1627 H   0  0  0  0  0  0  0  0  0  0  0  0
    2.7942    0.9520    1.8956 C   0  0  0  0  0  0  0  0  0  0  0  0
    2.8835   -0.0785    2.2558 H   0  0  0  0  0  0  0  0  0  0  0  0
    3.7898    1.3087    1.6150 H   0  0  0  0  0  0  0  0  0  0  0  0
    2.4199    1.5795    2.7114 H   0  0  0  0  0  0  0  0  0  0  0  0
  1  2  1  0  0  0  0
  2  3  1  0  0  0  0
  2  4  1  0  0  0  0
  2  5  1  0  0  0  0
  5  6  2  0  0  0  0
  5  7  1  0  0  0  0
  7  8  1  0  0  0  0
  7  9  1  0  0  0  0
  9 10  1  0  0  0  0
  9 11  1  0  0  0  0
  9 25  1  0  0  0  0
 11 12  1  0  0  0  0
 11 13  1  0  0  0  0
 11 14  1  0  0  0  0
 14 15  1  0  0  0  0
 14 23  2  0  0  0  0
 15 16  1  0  0  0  0
 15 17  2  0  0  0  0
 17 18  1  0  0  0  0
 17 19  1  0  0  0  0
 19 20  1  0  0  0  0
 19 21  2  0  0  0  0
 21 22  1  0  0  0  0
 21 23  1  0  0  0  0
 23 24  1  0  0  0  0
 25 26  2  0  0  0  0
 25 27  1  0  0  0  0
 27 28  1  0  0  0  0
 27 29  1  0  0  0  0
 29 30  1  0  0  0  0
 29 31  1  0  0  0  0
 29 32  1  0  0  0  0
M  END
$$$$

  -OEChem-01062216093D

 32 32  0     1  0  0  0  0  0999 V2000
   -3.4914   -2.1926    1.0279 H   0  0  0  0  0  0  0  0  0  0  0  0
   -3.3852   -1.2172    0.5449 C   0  0  0  0  0  0  0  0  0  0  0  0
   -3.6475   -0.4399    1.2665 H   0  0  0  0  0  0  0  0  0  0  0  0
   -4.0695   -1.1664   -0.3052 H   0  0  0  0  0  0  0  0  0  0  0  0
   -1.9560   -1.0244    0.0737 C   0  0  0  0  0  0  0  0  0  0  0  0
   -1.2195   -1.9928   -0.0068 O   0  0  0  0  0  0  0  0  0  0  0  0
   -1.6037    0.1535   -0.5560 N   0  0  0  0  0  0  0  0  0  0  0  0
   -2.3963    0.7697   -0.7054 H   0  0  0  0  0  0  0  0  0  0  0  0
   -0.3188    0.8781   -0.4144 C   0  0  1  0  0  0  0  0  0  0  0  0
    0.1331    0.9389   -1.4087 H   0  0  0  0  0  0  0  0  0  0  0  0
   -0.7044    2.2943    0.0721 C   0  0  0  0  0  0  0  0  0  0  0  0
   -1.2974    2.2164    0.9900 H   0  0  0  0  0  0  0  0  0  0  0  0
    0.1898    2.8721    0.3247 H   0  0  0  0  0  0  0  0  0  0  0  0
   -1.4651    3.0584   -0.9867 C   0  0  0  0  0  0  0  0  0  0  0  0
   -0.7816    3.6968   -2.0327 C   0  0  0  0  0  0  0  0  0  0  0  0
    0.3010    3.6419   -2.0930 H   0  0  0  0  0  0  0  0  0  0  0  0
   -1.4856    4.4073   -3.0112 C   0  0  0  0  0  0  0  0  0  0  0  0
   -0.9496    4.8956   -3.8201 H   0  0  0  0  0  0  0  0  0  0  0  0
   -2.8796    4.4914   -2.9476 C   0  0  0  0  0  0  0  0  0  0  0  0
   -3.4261    5.0437   -3.7067 H   0  0  0  0  0  0  0  0  0  0  0  0
   -3.5687    3.8693   -1.9024 C   0  0  0  0  0  0  0  0  0  0  0  0
   -4.6512    3.9430   -1.8482 H   0  0  0  0  0  0  0  0  0  0  0  0
   -2.8641    3.1595   -0.9244 C   0  0  0  0  0  0  0  0  0  0  0  0
   -3.4121    2.6948   -0.1101 H   0  0  0  0  0  0  0  0  0  0  0  0
    0.8007    0.3350    0.5247 C   0  0  0  0  0  0  0  0  0  0  0  0
    0.5422   -0.3490    1.5056 O   0  0  0  0  0  0  0  0  0  0  0  0
    1.9881    1.0478    0.6122 N   0  0  0  0  0  0  0  0  0  0  0  0
    2.2048    1.6857   -0.1466 H   0  0  0  0  0  0  0  0  0  0  0  0
    3.0067    0.8045    1.6291 C   0  0  0  0  0  0  0  0  0  0  0  0
    3.3320   -0.2409    1.6039 H   0  0  0  0  0  0  0  0  0  0  0  0
    3.8781    1.4420    1.4520 H   0  0  0  0  0  0  0  0  0  0  0  0
    2.6133    1.0269    2.6266 H   0  0  0  0  0  0  0  0  0  0  0  0
  1  2  1  0  0  0  0
  2  3  1  0  0  0  0
  2  4  1  0  0  0  0
  2  5  1  0  0  0  0
  5  6  2  0  0  0  0
  5  7  1  0  0  0  0
  7  8  1  0  0  0  0
  7  9  1  0  0  0  0
  9 10  1  0  0  0  0
  9 11  1  0  0  0  0
  9 25  1  0  0  0  0
 11 12  1  0  0  0  0
 11 13  1  0  0  0  0
 11 14  1  0  0  0  0
 14 15  1  0  0  0  0
 14 23  2  0  0  0  0
 15 16  1  0  0  0  0
 15 17  2  0  0  0  0
 17 18  1  0  0  0  0
 17 19  1  0  0  0  0
 19 20  1  0  0  0  0
 19 21  2  0  0  0  0
 21 22  1  0  0  0  0
 21 23  1  0  0  0  0
 23 24  1  0  0  0  0
 25 26  2  0  0  0  0
 25 27  1  0  0  0  0
 27 28  1  0  0  0  0
 27 29  1  0  0  0  0
 29 30  1  0  0  0  0
 29 31  1  0  0  0  0
 29 32  1  0  0  0  0
M  END
$$$$

  -OEChem-01062216093D

 32 32  0     1  0  0  0  0  0999 V2000
   -3.3251   -2.4484    0.8571 H   0  0  0  0  0  0  0  0  0  0  0  0
   -3.1626   -1.6560    0.1210 C   0  0  0  0  0  0  0  0  0  0  0  0
   -4.1190   -1.1774   -0.1016 H   0  0  0  0  0  0  0  0  0  0  0  0
   -2.7625   -2.1040   -0.7916 H   0  0  0  0  0  0  0  0  0  0  0  0
   -2.1827   -0.6342    0.6665 C   0  0  0  0  0  0  0  0  0  0  0  0
   -1.9306   -0.6237    1.8604 O   0  0  0  0  0  0  0  0  0  0  0  0
   -1.8196    0.4494   -0.1105 N   0  0  0  0  0  0  0  0  0  0  0  0
   -2.3029    0.4722   -1.0031 H   0  0  0  0  0  0  0  0  0  0  0  0
   -0.4739    1.0720   -0.1447 C   0  0  1  0  0  0  0  0  0  0  0  0
   -0.0912    0.9902   -1.1664 H   0  0  0  0  0  0  0  0  0  0  0  0
   -0.7069    2.5636    0.1820 C   0  0  0  0  0  0  0  0  0  0  0  0
   -1.2418    2.6484    1.1346 H   0  0  0  0  0  0  0  0  0  0  0  0
    0.2421    3.0930    0.2977 H   0  0  0  0  0  0  0  0  0  0  0  0
   -1.4808    3.2472   -0.9218 C   0  0  0  0  0  0  0  0  0  0  0  0
   -0.8269    3.6859   -2.0834 C   0  0  0  0  0  0  0  0  0  0  0  0
    0.2436    3.5422   -2.1953 H   0  0  0  0  0  0  0  0  0  0  0  0
   -1.5450    4.3124   -3.1078 C   0  0  0  0  0  0  0  0  0  0  0  0
   -1.0317    4.6508   -4.0032 H   0  0  0  0  0  0  0  0  0  0  0  0
   -2.9238    4.5055   -2.9790 C   0  0  0  0  0  0  0  0  0  0  0  0
   -3.4814    4.9938   -3.7730 H   0  0  0  0  0  0  0  0  0  0  0  0
   -3.5835    4.0725   -1.8250 C   0  0  0  0  0  0  0  0  0  0  0  0
   -4.6541    4.2238   -1.7220 H   0  0  0  0  0  0  0  0  0  0  0  0
   -2.8642    3.4472   -0.8011 C   0  0  0  0  0  0  0  0  0  0  0  0
   -3.3838    3.1130    0.0927 H   0  0  0  0  0  0  0  0  0  0  0  0
    0.6552    0.4763    0.7489 C   0  0  0  0  0  0  0  0  0  0  0  0
    0.7764   -0.7393    0.8392 O   0  0  0  0  0  0  0  0  0  0  0  0
    1.8141    1.2004    0.9886 N   0  0  0  0  0  0  0  0  0  0  0  0
    1.7738    2.2046    0.8521 H   0  0  0  0  0  0  0  0  0  0  0  0
    3.0014    0.6329    1.6199 C   0  0  0  0  0  0  0  0  0  0  0  0
    3.4462   -0.1355    0.9790 H   0  0  0  0  0  0  0  0  0  0  0  0
    3.7482    1.4137    1.7922 H   0  0  0  0  0  0  0  0  0  0  0  0
    2.7444    0.1818    2.5843 H   0  0  0  0  0  0  0  0  0  0  0  0
  1  2  1  0  0  0  0
  2  3  1  0  0  0  0
  2  4  1  0  0  0  0
  2  5  1  0  0  0  0
  5  6  2  0  0  0  0
  5  7  1  0  0  0  0
  7  8  1  0  0  0  0
  7  9  1  0  0  0  0
  9 10  1  0  0  0  0
  9 11  1  0  0  0  0
  9 25  1  0  0  0  0
 11 12  1  0  0  0  0
 11 13  1  0  0  0  0
 11 14  1  0  0  0  0
 14 15  1  0  0  0  0
 14 23  2  0  0  0  0
 15 16  1  0  0  0  0
 15 17  2  0  0  0  0
 17 18  1  0  0  0  0
 17 19  1  0  0  0  0
 19 20  1  0  0  0  0
 19 21  2  0  0  0  0
 21 22  1  0  0  0  0
 21 23  1  0  0  0  0
 23 24  1  0  0  0  0
 25 26  2  0  0  0  0
 25 27  1  0  0  0  0
 27 28  1  0  0  0  0
 27 29  1  0  0  0  0
 29 30  1  0  0  0  0
 29 31  1  0  0  0  0
 29 32  1  0  0  0  0
M  END
$$$$

  -OEChem-01062216093D

 32 32  0     1  0  0  0  0  0999 V2000
   -3.2898   -2.4718    0.8186 H   0  0  0  0  0  0  0  0  0  0  0  0
   -3.1892   -1.6284    0.1293 C   0  0  0  0  0  0  0  0  0  0  0  0
   -4.1558   -1.1272    0.0391 H   0  0  0  0  0  0  0  0  0  0  0  0
   -2.8891   -2.0111   -0.8490 H   0  0  0  0  0  0  0  0  0  0  0  0
   -2.1458   -0.6558    0.6458 C   0  0  0  0  0  0  0  0  0  0  0  0
   -1.8002   -0.7164    1.8146 O   0  0  0  0  0  0  0  0  0  0  0  0
   -1.8028    0.4439   -0.1193 N   0  0  0  0  0  0  0  0  0  0  0  0
   -2.3137    0.4968   -0.9955 H   0  0  0  0  0  0  0  0  0  0  0  0
   -0.4685    1.0887   -0.1555 C   0  0  1  0  0  0  0  0  0  0  0  0
   -0.0825    1.0098   -1.1763 H   0  0  0  0  0  0  0  0  0  0  0  0
   -0.7095    2.5802    0.1635 C   0  0  0  0  0  0  0  0  0  0  0  0
   -1.2386    2.6706    1.1187 H   0  0  0  0  0  0  0  0  0  0  0  0
    0.2398    3.1128    0.2641 H   0  0  0  0  0  0  0  0  0  0  0  0
   -1.4900    3.2531   -0.9424 C   0  0  0  0  0  0  0  0  0  0  0  0
   -0.8404    3.6887   -2.1073 C   0  0  0  0  0  0  0  0  0  0  0  0
    0.2305    3.5477   -2.2202 H   0  0  0  0  0  0  0  0  0  0  0  0
   -1.5627    4.3069   -3.1338 C   0  0  0  0  0  0  0  0  0  0  0  0
   -1.0517    4.6414   -4.0321 H   0  0  0  0  0  0  0  0  0  0  0  0
   -2.9419    4.4960   -3.0034 C   0  0  0  0  0  0  0  0  0  0  0  0
   -3.5029    4.9770   -3.7996 H   0  0  0  0  0  0  0  0  0  0  0  0
   -3.5974    4.0676   -1.8451 C   0  0  0  0  0  0  0  0  0  0  0  0
   -4.6684    4.2162   -1.7410 H   0  0  0  0  0  0  0  0  0  0  0  0
   -2.8738    3.4497   -0.8193 C   0  0  0  0  0  0  0  0  0  0  0  0
   -3.3912    3.1199    0.0774 H   0  0  0  0  0  0  0  0  0  0  0  0
    0.6530    0.4767    0.7346 C   0  0  0  0  0  0  0  0  0  0  0  0
    0.8969   -0.7187    0.6181 O   0  0  0  0  0  0  0  0  0  0  0  0
    1.6695    1.2559    1.2666 N   0  0  0  0  0  0  0  0  0  0  0  0
    1.4861    2.2484    1.3660 H   0  0  0  0  0  0  0  0  0  0  0  0
    2.8294    0.6949    1.9515 C   0  0  0  0  0  0  0  0  0  0  0  0
    3.4269    0.0897    1.2615 H   0  0  0  0  0  0  0  0  0  0  0  0
    3.4627    1.4969    2.3427 H   0  0  0  0  0  0  0  0  0  0  0  0
    2.5117    0.0643    2.7888 H   0  0  0  0  0  0  0  0  0  0  0  0
  1  2  1  0  0  0  0
  2  3  1  0  0  0  0
  2  4  1  0  0  0  0
  2  5  1  0  0  0  0
  5  6  2  0  0  0  0
  5  7  1  0  0  0  0
  7  8  1  0  0  0  0
  7  9  1  0  0  0  0
  9 10  1  0  0  0  0
  9 11  1  0  0  0  0
  9 25  1  0  0  0  0
 11 12  1  0  0  0  0
 11 13  1  0  0  0  0
 11 14  1  0  0  0  0
 14 15  1  0  0  0  0
 14 23  2  0  0  0  0
 15 16  1  0  0  0  0
 15 17  2  0  0  0  0
 17 18  1  0  0  0  0
 17 19  1  0  0  0  0
 19 20  1  0  0  0  0
 19 21  2  0  0  0  0
 21 22  1  0  0  0  0
 21 23  1  0  0  0  0
 23 24  1  0  0  0  0
 25 26  2  0  0  0  0
 25 27  1  0  0  0  0
 27 28  1  0  0  0  0
 27 29  1  0  0  0  0
 29 30  1  0  0  0  0
 29 31  1  0  0  0  0
 29 32  1  0  0  0  0
M  END
$$$$

  -OEChem-01062216093D

 32 32  0     1  0  0  0  0  0999 V2000
   -3.3184   -2.4538    0.8189 H   0  0  0  0  0  0  0  0  0  0  0  0
   -3.2121   -1.6081    0.1333 C   0  0  0  0  0  0  0  0  0  0  0  0
   -4.1641   -1.0749    0.0784 H   0  0  0  0  0  0  0  0  0  0  0  0
   -2.9564   -1.9913   -0.8576 H   0  0  0  0  0  0  0  0  0  0  0  0
   -2.1216   -0.6746    0.6240 C   0  0  0  0  0  0  0  0  0  0  0  0
   -1.6994   -0.7979    1.7620 O   0  0  0  0  0  0  0  0  0  0  0  0
   -1.7900    0.4350   -0.1322 N   0  0  0  0  0  0  0  0  0  0  0  0
   -2.3274    0.5179   -0.9902 H   0  0  0  0  0  0  0  0  0  0  0  0
   -0.4643    1.0948   -0.1718 C   0  0  1  0  0  0  0  0  0  0  0  0
   -0.0820    1.0202   -1.1944 H   0  0  0  0  0  0  0  0  0  0  0  0
   -0.7047    2.5847    0.1484 C   0  0  0  0  0  0  0  0  0  0  0  0
   -1.2283    2.6768    1.1064 H   0  0  0  0  0  0  0  0  0  0  0  0
    0.2488    3.1132    0.2411 H   0  0  0  0  0  0  0  0  0  0  0  0
   -1.4915    3.2554   -0.9537 C   0  0  0  0  0  0  0  0  0  0  0  0
   -0.8478    3.6906   -2.1219 C   0  0  0  0  0  0  0  0  0  0  0  0
    0.2231    3.5522   -2.2394 H   0  0  0  0  0  0  0  0  0  0  0  0
   -1.5758    4.3051   -3.1463 C   0  0  0  0  0  0  0  0  0  0  0  0
   -1.0692    4.6392   -4.0472 H   0  0  0  0  0  0  0  0  0  0  0  0
   -2.9548    4.4912   -3.0103 C   0  0  0  0  0  0  0  0  0  0  0  0
   -3.5196    4.9701   -3.8052 H   0  0  0  0  0  0  0  0  0  0  0  0
   -3.6044    4.0630   -1.8485 C   0  0  0  0  0  0  0  0  0  0  0  0
   -4.6749    4.2106   -1.7396 H   0  0  0  0  0  0  0  0  0  0  0  0
   -2.8752    3.4483   -0.8250 C   0  0  0  0  0  0  0  0  0  0  0  0
   -3.3878    3.1183    0.0740 H   0  0  0  0  0  0  0  0  0  0  0  0
    0.6578    0.4792    0.7111 C   0  0  0  0  0  0  0  0  0  0  0  0
    1.0306   -0.6587    0.4495 O   0  0  0  0  0  0  0  0  0  0  0  0
    1.4932    1.2549    1.5002 N   0  0  0  0  0  0  0  0  0  0  0  0
    1.1514    2.1742    1.7596 H   0  0  0  0  0  0  0  0  0  0  0  0
    2.6076    0.6948    2.2562 C   0  0  0  0  0  0  0  0  0  0  0  0
    3.3487    0.2567    1.5793 H   0  0  0  0  0  0  0  0  0  0  0  0
    3.0976    1.4773    2.8434 H   0  0  0  0  0  0  0  0  0  0  0  0
    2.2525   -0.0827    2.9410 H   0  0  0  0  0  0  0  0  0  0  0  0
  1  2  1  0  0  0  0
  2  3  1  0  0  0  0
  2  4  1  0  0  0  0
  2  5  1  0  0  0  0
  5  6  2  0  0  0  0
  5  7  1  0  0  0  0
  7  8  1  0  0  0  0
  7  9  1  0  0  0  0
  9 10  1  0  0  0  0
  9 11  1  0  0  0  0
  9 25  1  0  0  0  0
 11 12  1  0  0  0  0
 11 13  1  0  0  0  0
 11 14  1  0  0  0  0
 14 15  1  0  0  0  0
 14 23  2  0  0  0  0
 15 16  1  0  0  0  0
 15 17  2  0  0  0  0
 17 18  1  0  0  0  0
 17 19  1  0  0  0  0
 19 20  1  0  0  0  0
 19 21  2  0  0  0  0
 21 22  1  0  0  0  0
 21 23  1  0  0  0  0
 23 24  1  0  0  0  0
 25 26  2  0  0  0  0
 25 27  1  0  0  0  0
 27 28  1  0  0  0  0
 27 29  1  0  0  0  0
 29 30  1  0  0  0  0
 29 31  1  0  0  0  0
 29 32  1  0  0  0  0
M  END
$$$$

  -OEChem-01062216093D

 32 32  0     1  0  0  0  0  0999 V2000
   -3.3384   -2.4565    0.7822 H   0  0  0  0  0  0  0  0  0  0  0  0
   -3.2504   -1.5821    0.1311 C   0  0  0  0  0  0  0  0  0  0  0  0
   -4.1894   -1.0241    0.1587 H   0  0  0  0  0  0  0  0  0  0  0  0
   -3.0648   -1.9244   -0.8898 H   0  0  0  0  0  0  0  0  0  0  0  0
   -2.1081   -0.6987    0.5964 C   0  0  0  0  0  0  0  0  0  0  0  0
   -1.6187   -0.8906    1.6970 O   0  0  0  0  0  0  0  0  0  0  0  0
   -1.7770    0.4195   -0.1475 N   0  0  0  0  0  0  0  0  0  0  0  0
   -2.3368    0.5377   -0.9870 H   0  0  0  0  0  0  0  0  0  0  0  0
   -0.4591    1.0934   -0.1808 C   0  0  1  0  0  0  0  0  0  0  0  0
   -0.0750    1.0253   -1.2037 H   0  0  0  0  0  0  0  0  0  0  0  0
   -0.7024    2.5806    0.1442 C   0  0  0  0  0  0  0  0  0  0  0  0
   -1.2291    2.6701    1.1003 H   0  0  0  0  0  0  0  0  0  0  0  0
    0.2540    3.1046    0.2439 H   0  0  0  0  0  0  0  0  0  0  0  0
   -1.4897    3.2517   -0.9573 C   0  0  0  0  0  0  0  0  0  0  0  0
   -0.8463    3.6914   -2.1239 C   0  0  0  0  0  0  0  0  0  0  0  0
    0.2253    3.5570   -2.2393 H   0  0  0  0  0  0  0  0  0  0  0  0
   -1.5759    4.3033   -3.1489 C   0  0  0  0  0  0  0  0  0  0  0  0
   -1.0693    4.6405   -4.0486 H   0  0  0  0  0  0  0  0  0  0  0  0
   -2.9560    4.4821   -3.0150 C   0  0  0  0  0  0  0  0  0  0  0  0
   -3.5221    4.9582   -3.8106 H   0  0  0  0  0  0  0  0  0  0  0  0
   -3.6055    4.0496   -1.8549 C   0  0  0  0  0  0  0  0  0  0  0  0
   -4.6771    4.1913   -1.7480 H   0  0  0  0  0  0  0  0  0  0  0  0
   -2.8748    3.4370   -0.8310 C   0  0  0  0  0  0  0  0  0  0  0  0
   -3.3879    3.1033    0.0664 H   0  0  0  0  0  0  0  0  0  0  0  0
    0.6657    0.4842    0.6995 C   0  0  0  0  0  0  0  0  0  0  0  0
    1.1886   -0.5562    0.3178 O   0  0  0  0  0  0  0  0  0  0  0  0
    1.2885    1.1964    1.7121 N   0  0  0  0  0  0  0  0  0  0  0  0
    0.7724    1.9837    2.0912 H   0  0  0  0  0  0  0  0  0  0  0  0
    2.3694    0.6331    2.5121 C   0  0  0  0  0  0  0  0  0  0  0  0
    3.2249    0.3798    1.8772 H   0  0  0  0  0  0  0  0  0  0  0  0
    2.7008    1.3562    3.2632 H   0  0  0  0  0  0  0  0  0  0  0  0
    2.0317   -0.2730    3.0262 H   0  0  0  0  0  0  0  0  0  0  0  0
  1  2  1  0  0  0  0
  2  3  1  0  0  0  0
  2  4  1  0  0  0  0
  2  5  1  0  0  0  0
  5  6  2  0  0  0  0
  5  7  1  0  0  0  0
  7  8  1  0  0  0  0
  7  9  1  0  0  0  0
  9 10  1  0  0  0  0
  9 11  1  0  0  0  0
  9 25  1  0  0  0  0
 11 12  1  0  0  0  0
 11 13  1  0  0  0  0
 11 14  1  0  0  0  0
 14 15  1  0  0  0  0
 14 23  2  0  0  0  0
 15 16  1  0  0  0  0
 15 17  2  0  0  0  0
 17 18  1  0  0  0  0
 17 19  1  0  0  0  0
 19 20  1  0  0  0  0
 19 21  2  0  0  0  0
 21 22  1  0  0  0  0
 21 23  1  0  0  0  0
 23 24  1  0  0  0  0
 25 26  2  0  0  0  0
 25 27  1  0  0  0  0
 27 28  1  0  0  0  0
 27 29  1  0  0  0  0
 29 30  1  0  0  0  0
 29 31  1  0  0  0  0
 29 32  1  0  0  0  0
M  END
$$$$

  -OEChem-01062216093D

 32 32  0     1  0  0  0  0  0999 V2000
   -3.3917   -2.4372    0.7721 H   0  0  0  0  0  0  0  0  0  0  0  0
   -3.2930   -1.5561    0.1315 C   0  0  0  0  0  0  0  0  0  0  0  0
   -4.2055   -0.9598    0.2073 H   0  0  0  0  0  0  0  0  0  0  0  0
   -3.1654   -1.8875   -0.9018 H   0  0  0  0  0  0  0  0  0  0  0  0
   -2.0955   -0.7297    0.5618 C   0  0  0  0  0  0  0  0  0  0  0  0
   -1.5466   -0.9880    1.6194 O   0  0  0  0  0  0  0  0  0  0  0  0
   -1.7585    0.3932   -0.1725 N   0  0  0  0  0  0  0  0  0  0  0  0
   -2.3451    0.5532   -0.9870 H   0  0  0  0  0  0  0  0  0  0  0  0
   -0.4479    1.0810   -0.1967 C   0  0  1  0  0  0  0  0  0  0  0  0
   -0.0617    1.0214   -1.2195 H   0  0  0  0  0  0  0  0  0  0  0  0
   -0.6986    2.5635    0.1384 C   0  0  0  0  0  0  0  0  0  0  0  0
   -1.2291    2.6453    1.0928 H   0  0  0  0  0  0  0  0  0  0  0  0
    0.2583    3.0851    0.2481 H   0  0  0  0  0  0  0  0  0  0  0  0
   -1.4867    3.2397   -0.9590 C   0  0  0  0  0  0  0  0  0  0  0  0
   -0.8420    3.6909   -2.1202 C   0  0  0  0  0  0  0  0  0  0  0  0
    0.2307    3.5617   -2.2334 H   0  0  0  0  0  0  0  0  0  0  0  0
   -1.5709    4.3095   -3.1416 C   0  0  0  0  0  0  0  0  0  0  0  0
   -1.0631    4.6577   -4.0365 H   0  0  0  0  0  0  0  0  0  0  0  0
   -2.9522    4.4816   -3.0101 C   0  0  0  0  0  0  0  0  0  0  0  0
   -3.5178    4.9631   -3.8027 H   0  0  0  0  0  0  0  0  0  0  0  0
   -3.6034    4.0358   -1.8561 C   0  0  0  0  0  0  0  0  0  0  0  0
   -4.6758    4.1721   -1.7517 H   0  0  0  0  0  0  0  0  0  0  0  0
   -2.8731    3.4182   -0.8350 C   0  0  0  0  0  0  0  0  0  0  0  0
   -3.3876    3.0763    0.0584 H   0  0  0  0  0  0  0  0  0  0  0  0
    0.6815    0.4890    0.6866 C   0  0  0  0  0  0  0  0  0  0  0  0
    1.3711   -0.4077    0.2162 O   0  0  0  0  0  0  0  0  0  0  0  0
    1.0760    1.0807    1.8754 N   0  0  0  0  0  0  0  0  0  0  0  0
    0.3922    1.6902    2.3125 H   0  0  0  0  0  0  0  0  0  0  0  0
    2.1162    0.5064    2.7196 C   0  0  0  0  0  0  0  0  0  0  0  0
    3.0646    0.4481    2.1752 H   0  0  0  0  0  0  0  0  0  0  0  0
    2.2678    1.1271    3.6076 H   0  0  0  0  0  0  0  0  0  0  0  0
    1.8320   -0.5009    3.0426 H   0  0  0  0  0  0  0  0  0  0  0  0
  1  2  1  0  0  0  0
  2  3  1  0  0  0  0
  2  4  1  0  0  0  0
  2  5  1  0  0  0  0
  5  6  2  0  0  0  0
  5  7  1  0  0  0  0
  7  8  1  0  0  0  0
  7  9  1  0  0  0  0
  9 10  1  0  0  0  0
  9 11  1  0  0  0  0
  9 25  1  0  0  0  0
 11 12  1  0  0  0  0
 11 13  1  0  0  0  0
 11 14  1  0  0  0  0
 14 15  1  0  0  0  0
 14 23  2  0  0  0  0
 15 16  1  0  0  0  0
 15 17  2  0  0  0  0
 17 18  1  0  0  0  0
 17 19  1  0  0  0  0
 19 20  1  0  0  0  0
 19 21  2  0  0  0  0
 21 22  1  0  0  0  0
 21 23  1  0  0  0  0
 23 24  1  0  0  0  0
 25 26  2  0  0  0  0
 25 27  1  0  0  0  0
 27 28  1  0  0  0  0
 27 29  1  0  0  0  0
 29 30  1  0  0  0  0
 29 31  1  0  0  0  0
 29 32  1  0  0  0  0
M  END
$$$$

  -OEChem-01062216093D

 32 32  0     1  0  0  0  0  0999 V2000
   -3.4561   -2.4193    0.7536 H   0  0  0  0  0  0  0  0  0  0  0  0
   -3.3430   -1.5301    0.1266 C   0  0  0  0  0  0  0  0  0  0  0  0
   -4.2259   -0.8979    0.2474 H   0  0  0  0  0  0  0  0  0  0  0  0
   -3.2676   -1.8452   -0.9170 H   0  0  0  0  0  0  0  0  0  0  0  0
   -2.0970   -0.7628    0.5276 C   0  0  0  0  0  0  0  0  0  0  0  0
   -1.5035   -1.0857    1.5420 O   0  0  0  0  0  0  0  0  0  0  0  0
   -1.7470    0.3639   -0.1943 N   0  0  0  0  0  0  0  0  0  0  0  0
   -2.3569    0.5705   -0.9808 H   0  0  0  0  0  0  0  0  0  0  0  0
   -0.4426    1.0632   -0.2040 C   0  0  1  0  0  0  0  0  0  0  0  0
   -0.0518    1.0121   -1.2259 H   0  0  0  0  0  0  0  0  0  0  0  0
   -0.7009    2.5412    0.1403 C   0  0  0  0  0  0  0  0  0  0  0  0
   -1.2383    2.6145    1.0913 H   0  0  0  0  0  0  0  0  0  0  0  0
    0.2546    3.0628    0.2640 H   0  0  0  0  0  0  0  0  0  0  0  0
   -1.4852    3.2231   -0.9562 C   0  0  0  0  0  0  0  0  0  0  0  0
   -0.8340    3.6849   -2.1096 C   0  0  0  0  0  0  0  0  0  0  0  0
    0.2394    3.5569   -2.2170 H   0  0  0  0  0  0  0  0  0  0  0  0
   -1.5575    4.3104   -3.1306 C   0  0  0  0  0  0  0  0  0  0  0  0
   -1.0444    4.6656   -4.0196 H   0  0  0  0  0  0  0  0  0  0  0  0
   -2.9396    4.4805   -3.0055 C   0  0  0  0  0  0  0  0  0  0  0  0
   -3.5004    4.9684   -3.7976 H   0  0  0  0  0  0  0  0  0  0  0  0
   -3.5972    4.0264   -1.8582 C   0  0  0  0  0  0  0  0  0  0  0  0
   -4.6702    4.1633   -1.7586 H   0  0  0  0  0  0  0  0  0  0  0  0
   -2.8723    3.4010   -0.8378 C   0  0  0  0  0  0  0  0  0  0  0  0
   -3.3919    3.0551    0.0510 H   0  0  0  0  0  0  0  0  0  0  0  0
    0.6916    0.4925    0.6846 C   0  0  0  0  0  0  0  0  0  0  0  0
    1.5560   -0.1959    0.1557 O   0  0  0  0  0  0  0  0  0  0  0  0
    0.8630    0.9029    1.9960 N   0  0  0  0  0  0  0  0  0  0  0  0
    0.0256    1.2618    2.4444 H   0  0  0  0  0  0  0  0  0  0  0  0
    1.8912    0.3262    2.8530 C   0  0  0  0  0  0  0  0  0  0  0  0
    2.8855    0.4873    2.4231 H   0  0  0  0  0  0  0  0  0  0  0  0
    1.8653    0.7938    3.8418 H   0  0  0  0  0  0  0  0  0  0  0  0
    1.7283   -0.7503    2.9714 H   0  0  0  0  0  0  0  0  0  0  0  0
  1  2  1  0  0  0  0
  2  3  1  0  0  0  0
  2  4  1  0  0  0  0
  2  5  1  0  0  0  0
  5  6  2  0  0  0  0
  5  7  1  0  0  0  0
  7  8  1  0  0  0  0
  7  9  1  0  0  0  0
  9 10  1  0  0  0  0
  9 11  1  0  0  0  0
  9 25  1  0  0  0  0
 11 12  1  0  0  0  0
 11 13  1  0  0  0  0
 11 14  1  0  0  0  0
 14 15  1  0  0  0  0
 14 23  2  0  0  0  0
 15 16  1  0  0  0  0
 15 17  2  0  0  0  0
 17 18  1  0  0  0  0
 17 19  1  0  0  0  0
 19 20  1  0  0  0  0
 19 21  2  0  0  0  0
 21 22  1  0  0  0  0
 21 23  1  0  0  0  0
 23 24  1  0  0  0  0
 25 26  2  0  0  0  0
 25 27  1  0  0  0  0
 27 28  1  0  0  0  0
 27 29  1  0  0  0  0
 29 30  1  0  0  0  0
 29 31  1  0  0  0  0
 29 32  1  0  0  0  0
M  END
$$$$

  -OEChem-01062216093D

 32 32  0     1  0  0  0  0  0999 V2000
   -3.5612   -2.3967    0.7213 H   0  0  0  0  0  0  0  0  0  0  0  0
   -3.4192   -1.5059    0.1024 C   0  0  0  0  0  0  0  0  0  0  0  0
   -4.2724   -0.8382    0.2441 H   0  0  0  0  0  0  0  0  0  0  0  0
   -3.3734   -1.8119   -0.9456 H   0  0  0  0  0  0  0  0  0  0  0  0
   -2.1351   -0.7971    0.4910 C   0  0  0  0  0  0  0  0  0  0  0  0
   -1.5218   -1.1802    1.4715 O   0  0  0  0  0  0  0  0  0  0  0  0
   -1.7566    0.3295   -0.2157 N   0  0  0  0  0  0  0  0  0  0  0  0
   -2.3807    0.5839   -0.9771 H   0  0  0  0  0  0  0  0  0  0  0  0
   -0.4512    1.0289   -0.2073 C   0  0  1  0  0  0  0  0  0  0  0  0
   -0.0560    0.9840   -1.2278 H   0  0  0  0  0  0  0  0  0  0  0  0
   -0.7070    2.5038    0.1500 C   0  0  0  0  0  0  0  0  0  0  0  0
   -1.2491    2.5701    1.0991 H   0  0  0  0  0  0  0  0  0  0  0  0
    0.2499    3.0196    0.2861 H   0  0  0  0  0  0  0  0  0  0  0  0
   -1.4808    3.1985   -0.9457 C   0  0  0  0  0  0  0  0  0  0  0  0
   -0.8194    3.6691   -2.0895 C   0  0  0  0  0  0  0  0  0  0  0  0
    0.2545    3.5377   -2.1896 H   0  0  0  0  0  0  0  0  0  0  0  0
   -1.5328    4.3072   -3.1097 C   0  0  0  0  0  0  0  0  0  0  0  0
   -1.0116    4.6675   -3.9921 H   0  0  0  0  0  0  0  0  0  0  0  0
   -2.9150    4.4833   -2.9922 C   0  0  0  0  0  0  0  0  0  0  0  0
   -3.4680    4.9819   -3.7831 H   0  0  0  0  0  0  0  0  0  0  0  0
   -3.5824    4.0218   -1.8535 C   0  0  0  0  0  0  0  0  0  0  0  0
   -4.6550    4.1645   -1.7588 H   0  0  0  0  0  0  0  0  0  0  0  0
   -2.8676    3.3828   -0.8344 C   0  0  0  0  0  0  0  0  0  0  0  0
   -3.3939    3.0327    0.0486 H   0  0  0  0  0  0  0  0  0  0  0  0
    0.6881    0.4788    0.6868 C   0  0  0  0  0  0  0  0  0  0  0  0
    1.7103    0.0732    0.1473 O   0  0  0  0  0  0  0  0  0  0  0  0
    0.6721    0.6547    2.0593 N   0  0  0  0  0  0  0  0  0  0  0  0
   -0.2636    0.6964    2.4563 H   0  0  0  0  0  0  0  0  0  0  0  0
    1.7322    0.1324    2.9121 C   0  0  0  0  0  0  0  0  0  0  0  0
    2.6996    0.5604    2.6293 H   0  0  0  0  0  0  0  0  0  0  0  0
    1.5361    0.3890    3.9575 H   0  0  0  0  0  0  0  0  0  0  0  0
    1.7894   -0.9579    2.8256 H   0  0  0  0  0  0  0  0  0  0  0  0
  1  2  1  0  0  0  0
  2  3  1  0  0  0  0
  2  4  1  0  0  0  0
  2  5  1  0  0  0  0
  5  6  2  0  0  0  0
  5  7  1  0  0  0  0
  7  8  1  0  0  0  0
  7  9  1  0  0  0  0
  9 10  1  0  0  0  0
  9 11  1  0  0  0  0
  9 25  1  0  0  0  0
 11 12  1  0  0  0  0
 11 13  1  0  0  0  0
 11 14  1  0  0  0  0
 14 15  1  0  0  0  0
 14 23  2  0  0  0  0
 15 16  1  0  0  0  0
 15 17  2  0  0  0  0
 17 18  1  0  0  0  0
 17 19  1  0  0  0  0
 19 20  1  0  0  0  0
 19 21  2  0  0  0  0
 21 22  1  0  0  0  0
 21 23  1  0  0  0  0
 23 24  1  0  0  0  0
 25 26  2  0  0  0  0
 25 27  1  0  0  0  0
 27 28  1  0  0  0  0
 27 29  1  0  0  0  0
 29 30  1  0  0  0  0
 29 31  1  0  0  0  0
 29 32  1  0  0  0  0
M  END
$$$$

  -OEChem-01062216093D

 32 32  0     1  0  0  0  0  0999 V2000
   -3.7023   -2.3480    0.6542 H   0  0  0  0  0  0  0  0  0  0  0  0
   -3.5206   -1.4473    0.0608 C   0  0  0  0  0  0  0  0  0  0  0  0
   -4.3298   -0.7360    0.2428 H   0  0  0  0  0  0  0  0  0  0  0  0
   -3.5157   -1.7209   -0.9972 H   0  0  0  0  0  0  0  0  0  0  0  0
   -2.1889   -0.8273    0.4420 C   0  0  0  0  0  0  0  0  0  0  0  0
   -1.5699   -1.2918    1.3822 O   0  0  0  0  0  0  0  0  0  0  0  0
   -1.7637    0.2971   -0.2403 N   0  0  0  0  0  0  0  0  0  0  0  0
   -2.3989    0.6147   -0.9684 H   0  0  0  0  0  0  0  0  0  0  0  0
   -0.4538    0.9907   -0.2078 C   0  0  1  0  0  0  0  0  0  0  0  0
   -0.0512    0.9553   -1.2259 H   0  0  0  0  0  0  0  0  0  0  0  0
   -0.7197    2.4595    0.1652 C   0  0  0  0  0  0  0  0  0  0  0  0
   -1.2720    2.5105    1.1094 H   0  0  0  0  0  0  0  0  0  0  0  0
    0.2334    2.9777    0.3199 H   0  0  0  0  0  0  0  0  0  0  0  0
   -1.4812    3.1665   -0.9315 C   0  0  0  0  0  0  0  0  0  0  0  0
   -0.8075    3.6549   -2.0603 C   0  0  0  0  0  0  0  0  0  0  0  0
    0.2685    3.5303   -2.1471 H   0  0  0  0  0  0  0  0  0  0  0  0
   -1.5111    4.3025   -3.0815 C   0  0  0  0  0  0  0  0  0  0  0  0
   -0.9801    4.6776   -3.9516 H   0  0  0  0  0  0  0  0  0  0  0  0
   -2.8956    4.4694   -2.9802 C   0  0  0  0  0  0  0  0  0  0  0  0
   -3.4409    4.9756   -3.7716 H   0  0  0  0  0  0  0  0  0  0  0  0
   -3.5755    3.9899   -1.8563 C   0  0  0  0  0  0  0  0  0  0  0  0
   -4.6501    4.1255   -1.7743 H   0  0  0  0  0  0  0  0  0  0  0  0
   -2.8703    3.3424   -0.8360 C   0  0  0  0  0  0  0  0  0  0  0  0
   -3.4062    2.9792    0.0360 H   0  0  0  0  0  0  0  0  0  0  0  0
    0.6949    0.4666    0.6912 C   0  0  0  0  0  0  0  0  0  0  0  0
    1.8111    0.3612    0.1975 O   0  0  0  0  0  0  0  0  0  0  0  0
    0.5590    0.3682    2.0638 N   0  0  0  0  0  0  0  0  0  0  0  0
   -0.3898    0.1309    2.3543 H   0  0  0  0  0  0  0  0  0  0  0  0
    1.6459   -0.1022    2.9136 C   0  0  0  0  0  0  0  0  0  0  0  0
    2.5234    0.5450    2.8104 H   0  0  0  0  0  0  0  0  0  0  0  0
    1.3346   -0.0933    3.9625 H   0  0  0  0  0  0  0  0  0  0  0  0
    1.9281   -1.1249    2.6423 H   0  0  0  0  0  0  0  0  0  0  0  0
  1  2  1  0  0  0  0
  2  3  1  0  0  0  0
  2  4  1  0  0  0  0
  2  5  1  0  0  0  0
  5  6  2  0  0  0  0
  5  7  1  0  0  0  0
  7  8  1  0  0  0  0
  7  9  1  0  0  0  0
  9 10  1  0  0  0  0
  9 11  1  0  0  0  0
  9 25  1  0  0  0  0
 11 12  1  0  0  0  0
 11 13  1  0  0  0  0
 11 14  1  0  0  0  0
 14 15  1  0  0  0  0
 14 23  2  0  0  0  0
 15 16  1  0  0  0  0
 15 17  2  0  0  0  0
 17 18  1  0  0  0  0
 17 19  1  0  0  0  0
 19 20  1  0  0  0  0
 19 21  2  0  0  0  0
 21 22  1  0  0  0  0
 21 23  1  0  0  0  0
 23 24  1  0  0  0  0
 25 26  2  0  0  0  0
 25 27  1  0  0  0  0
 27 28  1  0  0  0  0
 27 29  1  0  0  0  0
 29 30  1  0  0  0  0
 29 31  1  0  0  0  0
 29 32  1  0  0  0  0
M  END
$$$$

  -OEChem-01062216093D

 32 32  0     1  0  0  0  0  0999 V2000
   -3.8519   -2.2750    0.5940 H   0  0  0  0  0  0  0  0  0  0  0  0
   -3.6216   -1.3711    0.0225 C   0  0  0  0  0  0  0  0  0  0  0  0
   -4.3745   -0.6115    0.2470 H   0  0  0  0  0  0  0  0  0  0  0  0
   -3.6616   -1.6109   -1.0429 H   0  0  0  0  0  0  0  0  0  0  0  0
   -2.2409   -0.8570    0.3858 C   0  0  0  0  0  0  0  0  0  0  0  0
   -1.6146   -1.4298    1.2579 O   0  0  0  0  0  0  0  0  0  0  0  0
   -1.7691    0.2684   -0.2637 N   0  0  0  0  0  0  0  0  0  0  0  0
   -2.4156    0.6533   -0.9483 H   0  0  0  0  0  0  0  0  0  0  0  0
   -0.4569    0.9599   -0.2025 C   0  0  1  0  0  0  0  0  0  0  0  0
   -0.0450    0.9362   -1.2170 H   0  0  0  0  0  0  0  0  0  0  0  0
   -0.7429    2.4224    0.1833 C   0  0  0  0  0  0  0  0  0  0  0  0
   -1.3101    2.4567    1.1192 H   0  0  0  0  0  0  0  0  0  0  0  0
    0.2011    2.9500    0.3604 H   0  0  0  0  0  0  0  0  0  0  0  0
   -1.4909    3.1355   -0.9185 C   0  0  0  0  0  0  0  0  0  0  0  0
   -0.8012    3.6433   -2.0291 C   0  0  0  0  0  0  0  0  0  0  0  0
    0.2773    3.5292   -2.0978 H   0  0  0  0  0  0  0  0  0  0  0  0
   -1.4926    4.2959   -3.0554 C   0  0  0  0  0  0  0  0  0  0  0  0
   -0.9499    4.6856   -3.9119 H   0  0  0  0  0  0  0  0  0  0  0  0
   -2.8804    4.4488   -2.9771 C   0  0  0  0  0  0  0  0  0  0  0  0
   -3.4163    4.9586   -3.7726 H   0  0  0  0  0  0  0  0  0  0  0  0
   -3.5755    3.9510   -1.8707 C   0  0  0  0  0  0  0  0  0  0  0  0
   -4.6524    4.0766   -1.8060 H   0  0  0  0  0  0  0  0  0  0  0  0
   -2.8827    3.2989   -0.8450 C   0  0  0  0  0  0  0  0  0  0  0  0
   -3.4303    2.9232    0.0143 H   0  0  0  0  0  0  0  0  0  0  0  0
    0.7051    0.4654    0.6992 C   0  0  0  0  0  0  0  0  0  0  0  0
    1.8481    0.6151    0.2844 O   0  0  0  0  0  0  0  0  0  0  0  0
    0.5292    0.0750    2.0129 N   0  0  0  0  0  0  0  0  0  0  0  0
   -0.3959   -0.3139    2.2049 H   0  0  0  0  0  0  0  0  0  0  0  0
    1.6331   -0.3874    2.8449 C   0  0  0  0  0  0  0  0  0  0  0  0
    2.3988    0.3901    2.9350 H   0  0  0  0  0  0  0  0  0  0  0  0
    1.2711   -0.6303    3.8485 H   0  0  0  0  0  0  0  0  0  0  0  0
    2.0894   -1.2839    2.4124 H   0  0  0  0  0  0  0  0  0  0  0  0
  1  2  1  0  0  0  0
  2  3  1  0  0  0  0
  2  4  1  0  0  0  0
  2  5  1  0  0  0  0
  5  6  2  0  0  0  0
  5  7  1  0  0  0  0
  7  8  1  0  0  0  0
  7  9  1  0  0  0  0
  9 10  1  0  0  0  0
  9 11  1  0  0  0  0
  9 25  1  0  0  0  0
 11 12  1  0  0  0  0
 11 13  1  0  0  0  0
 11 14  1  0  0  0  0
 14 15  1  0  0  0  0
 14 23  2  0  0  0  0
 15 16  1  0  0  0  0
 15 17  2  0  0  0  0
 17 18  1  0  0  0  0
 17 19  1  0  0  0  0
 19 20  1  0  0  0  0
 19 21  2  0  0  0  0
 21 22  1  0  0  0  0
 21 23  1  0  0  0  0
 23 24  1  0  0  0  0
 25 26  2  0  0  0  0
 25 27  1  0  0  0  0
 27 28  1  0  0  0  0
 27 29  1  0  0  0  0
 29 30  1  0  0  0  0
 29 31  1  0  0  0  0
 29 32  1  0  0  0  0
M  END
$$$$

  -OEChem-01062216093D

 32 32  0     1  0  0  0  0  0999 V2000
   -3.9876   -2.1925    0.5535 H   0  0  0  0  0  0  0  0  0  0  0  0
   -3.7111   -1.2939   -0.0055 C   0  0  0  0  0  0  0  0  0  0  0  0
   -4.4103   -0.4934    0.2484 H   0  0  0  0  0  0  0  0  0  0  0  0
   -3.7861   -1.5086   -1.0744 H   0  0  0  0  0  0  0  0  0  0  0  0
   -2.2942   -0.8745    0.3404 C   0  0  0  0  0  0  0  0  0  0  0  0
   -1.6747   -1.5355    1.1521 O   0  0  0  0  0  0  0  0  0  0  0  0
   -1.7799    0.2488   -0.2801 N   0  0  0  0  0  0  0  0  0  0  0  0
   -2.4291    0.6869   -0.9294 H   0  0  0  0  0  0  0  0  0  0  0  0
   -0.4623    0.9311   -0.1959 C   0  0  1  0  0  0  0  0  0  0  0  0
   -0.0429    0.9167   -1.2074 H   0  0  0  0  0  0  0  0  0  0  0  0
   -0.7674    2.3893    0.1983 C   0  0  0  0  0  0  0  0  0  0  0  0
   -1.3502    2.4098    1.1252 H   0  0  0  0  0  0  0  0  0  0  0  0
    0.1668    2.9272    0.3963 H   0  0  0  0  0  0  0  0  0  0  0  0
   -1.5026    3.1074   -0.9092 C   0  0  0  0  0  0  0  0  0  0  0  0
   -0.7982    3.6311   -2.0031 C   0  0  0  0  0  0  0  0  0  0  0  0
    0.2821    3.5239   -2.0551 H   0  0  0  0  0  0  0  0  0  0  0  0
   -1.4772    4.2884   -3.0346 C   0  0  0  0  0  0  0  0  0  0  0  0
   -0.9231    4.6891   -3.8785 H   0  0  0  0  0  0  0  0  0  0  0  0
   -2.8669    4.4320   -2.9773 C   0  0  0  0  0  0  0  0  0  0  0  0
   -3.3929    4.9453   -3.7772 H   0  0  0  0  0  0  0  0  0  0  0  0
   -3.5766    3.9216   -1.8860 C   0  0  0  0  0  0  0  0  0  0  0  0
   -4.6549    4.0423   -1.8367 H   0  0  0  0  0  0  0  0  0  0  0  0
   -2.8964    3.2641   -0.8554 C   0  0  0  0  0  0  0  0  0  0  0  0
   -3.4552    2.8804   -0.0070 H   0  0  0  0  0  0  0  0  0  0  0  0
    0.7106    0.4550    0.7064 C   0  0  0  0  0  0  0  0  0  0  0  0
    1.8402    0.8030    0.3833 O   0  0  0  0  0  0  0  0  0  0  0  0
    0.5631   -0.2104    1.9070 N   0  0  0  0  0  0  0  0  0  0  0  0
   -0.3368   -0.6775    2.0330 H   0  0  0  0  0  0  0  0  0  0  0  0
    1.6914   -0.6845    2.6983 C   0  0  0  0  0  0  0  0  0  0  0  0
    2.3382    0.1516    2.9838 H   0  0  0  0  0  0  0  0  0  0  0  0
    1.3330   -1.1691    3.6115 H   0  0  0  0  0  0  0  0  0  0  0  0
    2.2812   -1.4095    2.1279 H   0  0  0  0  0  0  0  0  0  0  0  0
  1  2  1  0  0  0  0
  2  3  1  0  0  0  0
  2  4  1  0  0  0  0
  2  5  1  0  0  0  0
  5  6  2  0  0  0  0
  5  7  1  0  0  0  0
  7  8  1  0  0  0  0
  7  9  1  0  0  0  0
  9 10  1  0  0  0  0
  9 11  1  0  0  0  0
  9 25  1  0  0  0  0
 11 12  1  0  0  0  0
 11 13  1  0  0  0  0
 11 14  1  0  0  0  0
 14 15  1  0  0  0  0
 14 23  2  0  0  0  0
 15 16  1  0  0  0  0
 15 17  2  0  0  0  0
 17 18  1  0  0  0  0
 17 19  1  0  0  0  0
 19 20  1  0  0  0  0
 19 21  2  0  0  0  0
 21 22  1  0  0  0  0
 21 23  1  0  0  0  0
 23 24  1  0  0  0  0
 25 26  2  0  0  0  0
 25 27  1  0  0  0  0
 27 28  1  0  0  0  0
 27 29  1  0  0  0  0
 29 30  1  0  0  0  0
 29 31  1  0  0  0  0
 29 32  1  0  0  0  0
M  END
$$$$

  -OEChem-01062216093D

 32 32  0     1  0  0  0  0  0999 V2000
   -3.6447   -2.3094    0.6097 H   0  0  0  0  0  0  0  0  0  0  0  0
   -3.4037   -1.3974    0.0556 C   0  0  0  0  0  0  0  0  0  0  0  0
   -4.2286   -0.6896    0.1677 H   0  0  0  0  0  0  0  0  0  0  0  0
   -3.2901   -1.6503   -1.0014 H   0  0  0  0  0  0  0  0  0  0  0  0
   -2.1197   -0.7844    0.5845 C   0  0  0  0  0  0  0  0  0  0  0  0
   -1.6288   -1.2669    1.5828 O   0  0  0  0  0  0  0  0  0  0  0  0
   -1.6321    0.3343   -0.0639 N   0  0  0  0  0  0  0  0  0  0  0  0
   -2.2265    0.6320   -0.8333 H   0  0  0  0  0  0  0  0  0  0  0  0
   -0.3916    1.1430    0.0653 C   0  0  1  0  0  0  0  0  0  0  0  0
    0.1043    1.0948   -0.9091 H   0  0  0  0  0  0  0  0  0  0  0  0
   -0.9116    2.5827    0.2930 C   0  0  0  0  0  0  0  0  0  0  0  0
   -1.5808    2.6002    1.1597 H   0  0  0  0  0  0  0  0  0  0  0  0
   -0.0845    3.2635    0.5201 H   0  0  0  0  0  0  0  0  0  0  0  0
   -1.6158    3.1097   -0.9369 C   0  0  0  0  0  0  0  0  0  0  0  0
   -0.8750    3.6304   -2.0076 C   0  0  0  0  0  0  0  0  0  0  0  0
    0.2100    3.6596   -1.9537 H   0  0  0  0  0  0  0  0  0  0  0  0
   -1.5228    4.1140   -3.1493 C   0  0  0  0  0  0  0  0  0  0  0  0
   -0.9404    4.5150   -3.9738 H   0  0  0  0  0  0  0  0  0  0  0  0
   -2.9186    4.0856   -3.2269 C   0  0  0  0  0  0  0  0  0  0  0  0
   -3.4212    4.4648   -4.1120 H   0  0  0  0  0  0  0  0  0  0  0  0
   -3.6661    3.5775   -2.1600 C   0  0  0  0  0  0  0  0  0  0  0  0
   -4.7508    3.5653   -2.2152 H   0  0  0  0  0  0  0  0  0  0  0  0
   -3.0169    3.0940   -1.0190 C   0  0  0  0  0  0  0  0  0  0  0  0
   -3.6060    2.7119   -0.1903 H   0  0  0  0  0  0  0  0  0  0  0  0
    0.7785    0.8896    1.0700 C   0  0  0  0  0  0  0  0  0  0  0  0
    1.7388    1.6463    1.0412 O   0  0  0  0  0  0  0  0  0  0  0  0
    0.8253    0.0985    2.1898 N   0  0  0  0  0  0  0  0  0  0  0  0
    1.3964    0.5577    2.8930 H   0  0  0  0  0  0  0  0  0  0  0  0
    1.2189   -1.2931    1.9985 C   0  0  0  0  0  0  0  0  0  0  0  0
    2.3081   -1.3866    2.0514 H   0  0  0  0  0  0  0  0  0  0  0  0
    0.7753   -1.9186    2.7797 H   0  0  0  0  0  0  0  0  0  0  0  0
    0.8901   -1.6731    1.0253 H   0  0  0  0  0  0  0  0  0  0  0  0
  1  2  1  0  0  0  0
  2  3  1  0  0  0  0
  2  4  1  0  0  0  0
  2  5  1  0  0  0  0
  5  6  2  0  0  0  0
  5  7  1  0  0  0  0
  7  8  1  0  0  0  0
  7  9  1  0  0  0  0
  9 10  1  0  0  0  0
  9 11  1  0  0  0  0
  9 25  1  0  0  0  0
 11 12  1  0  0  0  0
 11 13  1  0  0  0  0
 11 14  1  0  0  0  0
 14 15  1  0  0  0  0
 14 23  2  0  0  0  0
 15 16  1  0  0  0  0
 15 17  2  0  0  0  0
 17 18  1  0  0  0  0
 17 19  1  0  0  0  0
 19 20  1  0  0  0  0
 19 21  2  0  0  0  0
 21 22  1  0  0  0  0
 21 23  1  0  0  0  0
 23 24  1  0  0  0  0
 25 26  2  0  0  0  0
 25 27  1  0  0  0  0
 27 28  1  0  0  0  0
 27 29  1  0  0  0  0
 29 30  1  0  0  0  0
 29 31  1  0  0  0  0
 29 32  1  0  0  0  0
M  END
$$$$

  -OEChem-01062216093D

 32 32  0     1  0  0  0  0  0999 V2000
   -3.6248   -2.1599    1.0573 H   0  0  0  0  0  0  0  0  0  0  0  0
   -3.3447   -1.3887    0.3339 C   0  0  0  0  0  0  0  0  0  0  0  0
   -4.1684   -0.6764    0.2435 H   0  0  0  0  0  0  0  0  0  0  0  0
   -3.1734   -1.8628   -0.6355 H   0  0  0  0  0  0  0  0  0  0  0  0
   -2.0864   -0.6737    0.7909 C   0  0  0  0  0  0  0  0  0  0  0  0
   -1.6131   -0.9719    1.8688 O   0  0  0  0  0  0  0  0  0  0  0  0
   -1.6465    0.4061    0.0509 N   0  0  0  0  0  0  0  0  0  0  0  0
   -2.2730    0.6383   -0.7155 H   0  0  0  0  0  0  0  0  0  0  0  0
   -0.3434    1.1183   -0.0228 C   0  0  1  0  0  0  0  0  0  0  0  0
   -0.0036    1.0272   -1.0588 H   0  0  0  0  0  0  0  0  0  0  0  0
   -0.7233    2.5956    0.2452 C   0  0  0  0  0  0  0  0  0  0  0  0
   -1.2567    2.6714    1.1990 H   0  0  0  0  0  0  0  0  0  0  0  0
    0.1696    3.2225    0.3326 H   0  0  0  0  0  0  0  0  0  0  0  0
   -1.5625    3.1526   -0.8832 C   0  0  0  0  0  0  0  0  0  0  0  0
   -0.9530    3.6033   -2.0631 C   0  0  0  0  0  0  0  0  0  0  0  0
    0.1279    3.5602   -2.1657 H   0  0  0  0  0  0  0  0  0  0  0  0
   -1.7269    4.1102   -3.1126 C   0  0  0  0  0  0  0  0  0  0  0  0
   -1.2456    4.4572   -4.0223 H   0  0  0  0  0  0  0  0  0  0  0  0
   -3.1179    4.1757   -2.9879 C   0  0  0  0  0  0  0  0  0  0  0  0
   -3.7176    4.5747   -3.8010 H   0  0  0  0  0  0  0  0  0  0  0  0
   -3.7341    3.7367   -1.8120 C   0  0  0  0  0  0  0  0  0  0  0  0
   -4.8139    3.7959   -1.7103 H   0  0  0  0  0  0  0  0  0  0  0  0
   -2.9586    3.2293   -0.7638 C   0  0  0  0  0  0  0  0  0  0  0  0
   -3.4439    2.8983    0.1499 H   0  0  0  0  0  0  0  0  0  0  0  0
    0.9412    0.7594    0.7979 C   0  0  0  0  0  0  0  0  0  0  0  0
    1.8871    1.5341    0.7893 O   0  0  0  0  0  0  0  0  0  0  0  0
    1.1625   -0.2355    1.7176 N   0  0  0  0  0  0  0  0  0  0  0  0
    1.9609    0.0023    2.2994 H   0  0  0  0  0  0  0  0  0  0  0  0
    1.1432   -1.6260    1.2784 C   0  0  0  0  0  0  0  0  0  0  0  0
    0.7614   -2.2674    2.0791 H   0  0  0  0  0  0  0  0  0  0  0  0
    0.5102   -1.7613    0.3961 H   0  0  0  0  0  0  0  0  0  0  0  0
    2.1562   -1.9521    1.0225 H   0  0  0  0  0  0  0  0  0  0  0  0
  1  2  1  0  0  0  0
  2  3  1  0  0  0  0
  2  4  1  0  0  0  0
  2  5  1  0  0  0  0
  5  6  2  0  0  0  0
  5  7  1  0  0  0  0
  7  8  1  0  0  0  0
  7  9  1  0  0  0  0
  9 10  1  0  0  0  0
  9 11  1  0  0  0  0
  9 25  1  0  0  0  0
 11 12  1  0  0  0  0
 11 13  1  0  0  0  0
 11 14  1  0  0  0  0
 14 15  1  0  0  0  0
 14 23  2  0  0  0  0
 15 16  1  0  0  0  0
 15 17  2  0  0  0  0
 17 18  1  0  0  0  0
 17 19  1  0  0  0  0
 19 20  1  0  0  0  0
 19 21  2  0  0  0  0
 21 22  1  0  0  0  0
 21 23  1  0  0  0  0
 23 24  1  0  0  0  0
 25 26  2  0  0  0  0
 25 27  1  0  0  0  0
 27 28  1  0  0  0  0
 27 29  1  0  0  0  0
 29 30  1  0  0  0  0
 29 31  1  0  0  0  0
 29 32  1  0  0  0  0
M  END
$$$$

  -OEChem-01062216093D

 32 32  0     1  0  0  0  0  0999 V2000
   -3.8517   -2.0764    0.9359 H   0  0  0  0  0  0  0  0  0  0  0  0
   -3.5988   -1.2514    0.2636 C   0  0  0  0  0  0  0  0  0  0  0  0
   -4.1764   -0.3716    0.5572 H   0  0  0  0  0  0  0  0  0  0  0  0
   -3.8695   -1.5333   -0.7569 H   0  0  0  0  0  0  0  0  0  0  0  0
   -2.1132   -0.9491    0.3380 C   0  0  0  0  0  0  0  0  0  0  0  0
   -1.4102   -1.7098    0.9679 O   0  0  0  0  0  0  0  0  0  0  0  0
   -1.6572    0.1738   -0.3261 N   0  0  0  0  0  0  0  0  0  0  0  0
   -2.3999    0.6779   -0.8038 H   0  0  0  0  0  0  0  0  0  0  0  0
   -0.3182    0.7931   -0.5051 C   0  0  1  0  0  0  0  0  0  0  0  0
   -0.1379    0.8074   -1.5847 H   0  0  0  0  0  0  0  0  0  0  0  0
   -0.5013    2.2444   -0.0049 C   0  0  0  0  0  0  0  0  0  0  0  0
   -0.8827    2.2354    1.0216 H   0  0  0  0  0  0  0  0  0  0  0  0
    0.4607    2.7676    0.0199 H   0  0  0  0  0  0  0  0  0  0  0  0
   -1.4285    3.0226   -0.9105 C   0  0  0  0  0  0  0  0  0  0  0  0
   -0.9472    3.5783   -2.1048 C   0  0  0  0  0  0  0  0  0  0  0  0
    0.0962    3.4504   -2.3809 H   0  0  0  0  0  0  0  0  0  0  0  0
   -1.8022    4.2957   -2.9482 C   0  0  0  0  0  0  0  0  0  0  0  0
   -1.4205    4.7212   -3.8718 H   0  0  0  0  0  0  0  0  0  0  0  0
   -3.1457    4.4679   -2.6005 C   0  0  0  0  0  0  0  0  0  0  0  0
   -3.8081    5.0283   -3.2542 H   0  0  0  0  0  0  0  0  0  0  0  0
   -3.6323    3.9255   -1.4071 C   0  0  0  0  0  0  0  0  0  0  0  0
   -4.6734    4.0682   -1.1321 H   0  0  0  0  0  0  0  0  0  0  0  0
   -2.7762    3.2079   -0.5649 C   0  0  0  0  0  0  0  0  0  0  0  0
   -3.1612    2.8000    0.3651 H   0  0  0  0  0  0  0  0  0  0  0  0
    1.0343    0.2708    0.0746 C   0  0  0  0  0  0  0  0  0  0  0  0
    2.0548    0.8231   -0.3117 O   0  0  0  0  0  0  0  0  0  0  0  0
    1.3449   -0.9523    0.6114 N   0  0  0  0  0  0  0  0  0  0  0  0
    2.2733   -1.2232    0.3008 H   0  0  0  0  0  0  0  0  0  0  0  0
    1.1806   -1.1010    2.0529 C   0  0  0  0  0  0  0  0  0  0  0  0
    0.3604   -0.4799    2.4286 H   0  0  0  0  0  0  0  0  0  0  0  0
    0.9624   -2.1447    2.3001 H   0  0  0  0  0  0  0  0  0  0  0  0
    2.0985   -0.8033    2.5691 H   0  0  0  0  0  0  0  0  0  0  0  0
  1  2  1  0  0  0  0
  2  3  1  0  0  0  0
  2  4  1  0  0  0  0
  2  5  1  0  0  0  0
  5  6  2  0  0  0  0
  5  7  1  0  0  0  0
  7  8  1  0  0  0  0
  7  9  1  0  0  0  0
  9 10  1  0  0  0  0
  9 11  1  0  0  0  0
  9 25  1  0  0  0  0
 11 12  1  0  0  0  0
 11 13  1  0  0  0  0
 11 14  1  0  0  0  0
 14 15  1  0  0  0  0
 14 23  2  0  0  0  0
 15 16  1  0  0  0  0
 15 17  2  0  0  0  0
 17 18  1  0  0  0  0
 17 19  1  0  0  0  0
 19 20  1  0  0  0  0
 19 21  2  0  0  0  0
 21 22  1  0  0  0  0
 21 23  1  0  0  0  0
 23 24  1  0  0  0  0
 25 26  2  0  0  0  0
 25 27  1  0  0  0  0
 27 28  1  0  0  0  0
 27 29  1  0  0  0  0
 29 30  1  0  0  0  0
 29 31  1  0  0  0  0
 29 32  1  0  0  0  0
M  END
$$$$

  -OEChem-01062216093D

 32 32  0     1  0  0  0  0  0999 V2000
   -3.9970   -2.1231    0.6133 H   0  0  0  0  0  0  0  0  0  0  0  0
   -3.7111   -1.2305    0.0491 C   0  0  0  0  0  0  0  0  0  0  0  0
   -4.3755   -0.4104    0.3317 H   0  0  0  0  0  0  0  0  0  0  0  0
   -3.8304   -1.4366   -1.0175 H   0  0  0  0  0  0  0  0  0  0  0  0
   -2.2703   -0.8576    0.3474 C   0  0  0  0  0  0  0  0  0  0  0  0
   -1.6406   -1.5553    1.1193 O   0  0  0  0  0  0  0  0  0  0  0  0
   -1.7530    0.2714   -0.2609 N   0  0  0  0  0  0  0  0  0  0  0  0
   -2.4249    0.7505   -0.8562 H   0  0  0  0  0  0  0  0  0  0  0  0
   -0.4133    0.9181   -0.2342 C   0  0  1  0  0  0  0  0  0  0  0  0
   -0.0407    0.9063   -1.2628 H   0  0  0  0  0  0  0  0  0  0  0  0
   -0.7092    2.3853    0.1658 C   0  0  0  0  0  0  0  0  0  0  0  0
   -1.2588    2.4069    1.1127 H   0  0  0  0  0  0  0  0  0  0  0  0
    0.2182    2.9443    0.3254 H   0  0  0  0  0  0  0  0  0  0  0  0
   -1.4821    3.0985   -0.9205 C   0  0  0  0  0  0  0  0  0  0  0  0
   -0.8133    3.6180   -2.0383 C   0  0  0  0  0  0  0  0  0  0  0  0
    0.2645    3.5091   -2.1245 H   0  0  0  0  0  0  0  0  0  0  0  0
   -1.5233    4.2768   -3.0474 C   0  0  0  0  0  0  0  0  0  0  0  0
   -0.9959    4.6746   -3.9097 H   0  0  0  0  0  0  0  0  0  0  0  0
   -2.9094    4.4283   -2.9425 C   0  0  0  0  0  0  0  0  0  0  0  0
   -3.4595    4.9445   -3.7241 H   0  0  0  0  0  0  0  0  0  0  0  0
   -3.5837    3.9245   -1.8259 C   0  0  0  0  0  0  0  0  0  0  0  0
   -4.6587    4.0540   -1.7384 H   0  0  0  0  0  0  0  0  0  0  0  0
   -2.8722    3.2642   -0.8181 C   0  0  0  0  0  0  0  0  0  0  0  0
   -3.4030    2.8881    0.0516 H   0  0  0  0  0  0  0  0  0  0  0  0
    0.7945    0.3629    0.5885 C   0  0  0  0  0  0  0  0  0  0  0  0
    1.7174    1.1159    0.8794 O   0  0  0  0  0  0  0  0  0  0  0  0
    0.9868   -0.9764    0.8659 N   0  0  0  0  0  0  0  0  0  0  0  0
    0.1449   -1.5526    0.8174 H   0  0  0  0  0  0  0  0  0  0  0  0
    2.1073   -1.4804    1.6510 C   0  0  0  0  0  0  0  0  0  0  0  0
    2.1064   -1.0339    2.6509 H   0  0  0  0  0  0  0  0  0  0  0  0
    2.0340   -2.5669    1.7562 H   0  0  0  0  0  0  0  0  0  0  0  0
    3.0569   -1.2454    1.1590 H   0  0  0  0  0  0  0  0  0  0  0  0
  1  2  1  0  0  0  0
  2  3  1  0  0  0  0
  2  4  1  0  0  0  0
  2  5  1  0  0  0  0
  5  6  2  0  0  0  0
  5  7  1  0  0  0  0
  7  8  1  0  0  0  0
  7  9  1  0  0  0  0
  9 10  1  0  0  0  0
  9 11  1  0  0  0  0
  9 25  1  0  0  0  0
 11 12  1  0  0  0  0
 11 13  1  0  0  0  0
 11 14  1  0  0  0  0
 14 15  1  0  0  0  0
 14 23  2  0  0  0  0
 15 16  1  0  0  0  0
 15 17  2  0  0  0  0
 17 18  1  0  0  0  0
 17 19  1  0  0  0  0
 19 20  1  0  0  0  0
 19 21  2  0  0  0  0
 21 22  1  0  0  0  0
 21 23  1  0  0  0  0
 23 24  1  0  0  0  0
 25 26  2  0  0  0  0
 25 27  1  0  0  0  0
 27 28  1  0  0  0  0
 27 29  1  0  0  0  0
 29 30  1  0  0  0  0
 29 31  1  0  0  0  0
 29 32  1  0  0  0  0
M  END
$$$$

  -OEChem-01062216093D

 32 32  0     1  0  0  0  0  0999 V2000
   -3.8744   -2.1408    0.7171 H   0  0  0  0  0  0  0  0  0  0  0  0
   -3.6320   -1.2447    0.1384 C   0  0  0  0  0  0  0  0  0  0  0  0
   -4.2793   -0.4288    0.4693 H   0  0  0  0  0  0  0  0  0  0  0  0
   -3.8230   -1.4470   -0.9182 H   0  0  0  0  0  0  0  0  0  0  0  0
   -2.1756   -0.8679    0.3395 C   0  0  0  0  0  0  0  0  0  0  0  0
   -1.4749   -1.5965    1.0162 O   0  0  0  0  0  0  0  0  0  0  0  0
   -1.7059    0.2782   -0.2754 N   0  0  0  0  0  0  0  0  0  0  0  0
   -2.4131    0.7745   -0.8126 H   0  0  0  0  0  0  0  0  0  0  0  0
   -0.3814    0.9516   -0.2499 C   0  0  1  0  0  0  0  0  0  0  0  0
   -0.0029    0.9462   -1.2764 H   0  0  0  0  0  0  0  0  0  0  0  0
   -0.6886    2.4154    0.1507 C   0  0  0  0  0  0  0  0  0  0  0  0
   -1.2308    2.4346    1.1018 H   0  0  0  0  0  0  0  0  0  0  0  0
    0.2376    2.9797    0.3006 H   0  0  0  0  0  0  0  0  0  0  0  0
   -1.4728    3.1183   -0.9334 C   0  0  0  0  0  0  0  0  0  0  0  0
   -0.8160    3.6427   -2.0560 C   0  0  0  0  0  0  0  0  0  0  0  0
    0.2623    3.5466   -2.1489 H   0  0  0  0  0  0  0  0  0  0  0  0
   -1.5398    4.2892   -3.0635 C   0  0  0  0  0  0  0  0  0  0  0  0
   -1.0221    4.6900   -3.9302 H   0  0  0  0  0  0  0  0  0  0  0  0
   -2.9269    4.4235   -2.9524 C   0  0  0  0  0  0  0  0  0  0  0  0
   -3.4873    4.9300   -3.7329 H   0  0  0  0  0  0  0  0  0  0  0  0
   -3.5891    3.9146   -1.8310 C   0  0  0  0  0  0  0  0  0  0  0  0
   -4.6651    4.0302   -1.7388 H   0  0  0  0  0  0  0  0  0  0  0  0
   -2.8644    3.2671   -0.8245 C   0  0  0  0  0  0  0  0  0  0  0  0
   -3.3864    2.8881    0.0492 H   0  0  0  0  0  0  0  0  0  0  0  0
    0.8100    0.3799    0.5822 C   0  0  0  0  0  0  0  0  0  0  0  0
    1.6011    1.1377    1.1331 O   0  0  0  0  0  0  0  0  0  0  0  0
    1.1300   -0.9644    0.5709 N   0  0  0  0  0  0  0  0  0  0  0  0
    0.3293   -1.5740    0.3966 H   0  0  0  0  0  0  0  0  0  0  0  0
    2.2227   -1.5185    1.3611 C   0  0  0  0  0  0  0  0  0  0  0  0
    2.0625   -1.3221    2.4263 H   0  0  0  0  0  0  0  0  0  0  0  0
    2.2821   -2.6007    1.2128 H   0  0  0  0  0  0  0  0  0  0  0  0
    3.1784   -1.0769    1.0600 H   0  0  0  0  0  0  0  0  0  0  0  0
  1  2  1  0  0  0  0
  2  3  1  0  0  0  0
  2  4  1  0  0  0  0
  2  5  1  0  0  0  0
  5  6  2  0  0  0  0
  5  7  1  0  0  0  0
  7  8  1  0  0  0  0
  7  9  1  0  0  0  0
  9 10  1  0  0  0  0
  9 11  1  0  0  0  0
  9 25  1  0  0  0  0
 11 12  1  0  0  0  0
 11 13  1  0  0  0  0
 11 14  1  0  0  0  0
 14 15  1  0  0  0  0
 14 23  2  0  0  0  0
 15 16  1  0  0  0  0
 15 17  2  0  0  0  0
 17 18  1  0  0  0  0
 17 19  1  0  0  0  0
 19 20  1  0  0  0  0
 19 21  2  0  0  0  0
 21 22  1  0  0  0  0
 21 23  1  0  0  0  0
 23 24  1  0  0  0  0
 25 26  2  0  0  0  0
 25 27  1  0  0  0  0
 27 28  1  0  0  0  0
 27 29  1  0  0  0  0
 29 30  1  0  0  0  0
 29 31  1  0  0  0  0
 29 32  1  0  0  0  0
M  END
$$$$

  -OEChem-01062216093D

 32 32  0     1  0  0  0  0  0999 V2000
   -3.7478   -2.1587    0.8355 H   0  0  0  0  0  0  0  0  0  0  0  0
   -3.5515   -1.2691    0.2301 C   0  0  0  0  0  0  0  0  0  0  0  0
   -4.1719   -0.4499    0.6017 H   0  0  0  0  0  0  0  0  0  0  0  0
   -3.8228   -1.4819   -0.8067 H   0  0  0  0  0  0  0  0  0  0  0  0
   -2.0846   -0.8900    0.3147 C   0  0  0  0  0  0  0  0  0  0  0  0
   -1.3154   -1.6462    0.8785 O   0  0  0  0  0  0  0  0  0  0  0  0
   -1.6665    0.2693   -0.3122 N   0  0  0  0  0  0  0  0  0  0  0  0
   -2.4090    0.7827   -0.7810 H   0  0  0  0  0  0  0  0  0  0  0  0
   -0.3606    0.9725   -0.2718 C   0  0  1  0  0  0  0  0  0  0  0  0
    0.0385    0.9787   -1.2904 H   0  0  0  0  0  0  0  0  0  0  0  0
   -0.6855    2.4297    0.1327 C   0  0  0  0  0  0  0  0  0  0  0  0
   -1.2322    2.4397    1.0815 H   0  0  0  0  0  0  0  0  0  0  0  0
    0.2391    2.9950    0.2903 H   0  0  0  0  0  0  0  0  0  0  0  0
   -1.4717    3.1332   -0.9501 C   0  0  0  0  0  0  0  0  0  0  0  0
   -0.8165    3.6727   -2.0667 C   0  0  0  0  0  0  0  0  0  0  0  0
    0.2630    3.5899   -2.1562 H   0  0  0  0  0  0  0  0  0  0  0  0
   -1.5431    4.3217   -3.0707 C   0  0  0  0  0  0  0  0  0  0  0  0
   -1.0268    4.7366   -3.9314 H   0  0  0  0  0  0  0  0  0  0  0  0
   -2.9319    4.4414   -2.9635 C   0  0  0  0  0  0  0  0  0  0  0  0
   -3.4948    4.9490   -3.7415 H   0  0  0  0  0  0  0  0  0  0  0  0
   -3.5929    3.9152   -1.8495 C   0  0  0  0  0  0  0  0  0  0  0  0
   -4.6705    4.0185   -1.7607 H   0  0  0  0  0  0  0  0  0  0  0  0
   -2.8653    3.2665   -0.8460 C   0  0  0  0  0  0  0  0  0  0  0  0
   -3.3871    2.8751    0.0223 H   0  0  0  0  0  0  0  0  0  0  0  0
    0.8007    0.3928    0.5912 C   0  0  0  0  0  0  0  0  0  0  0  0
    1.4184    1.1038    1.3769 O   0  0  0  0  0  0  0  0  0  0  0  0
    1.2935   -0.8740    0.3377 N   0  0  0  0  0  0  0  0  0  0  0  0
    0.5819   -1.5172   -0.0090 H   0  0  0  0  0  0  0  0  0  0  0  0
    2.3754   -1.4550    1.1238 C   0  0  0  0  0  0  0  0  0  0  0  0
    2.0846   -1.5316    2.1768 H   0  0  0  0  0  0  0  0  0  0  0  0
    2.6129   -2.4572    0.7548 H   0  0  0  0  0  0  0  0  0  0  0  0
    3.2782   -0.8397    1.0506 H   0  0  0  0  0  0  0  0  0  0  0  0
  1  2  1  0  0  0  0
  2  3  1  0  0  0  0
  2  4  1  0  0  0  0
  2  5  1  0  0  0  0
  5  6  2  0  0  0  0
  5  7  1  0  0  0  0
  7  8  1  0  0  0  0
  7  9  1  0  0  0  0
  9 10  1  0  0  0  0
  9 11  1  0  0  0  0
  9 25  1  0  0  0  0
 11 12  1  0  0  0  0
 11 13  1  0  0  0  0
 11 14  1  0  0  0  0
 14 15  1  0  0  0  0
 14 23  2  0  0  0  0
 15 16  1  0  0  0  0
 15 17  2  0  0  0  0
 17 18  1  0  0  0  0
 17 19  1  0  0  0  0
 19 20  1  0  0  0  0
 19 21  2  0  0  0  0
 21 22  1  0  0  0  0
 21 23  1  0  0  0  0
 23 24  1  0  0  0  0
 25 26  2  0  0  0  0
 25 27  1  0  0  0  0
 27 28  1  0  0  0  0
 27 29  1  0  0  0  0
 29 30  1  0  0  0  0
 29 31  1  0  0  0  0
 29 32  1  0  0  0  0
M  END
$$$$

  -OEChem-01062216093D

 32 32  0     1  0  0  0  0  0999 V2000
   -3.6200   -2.1913    0.9128 H   0  0  0  0  0  0  0  0  0  0  0  0
   -3.4718   -1.3003    0.2962 C   0  0  0  0  0  0  0  0  0  0  0  0
   -4.0817   -0.4894    0.7014 H   0  0  0  0  0  0  0  0  0  0  0  0
   -3.7979   -1.5188   -0.7235 H   0  0  0  0  0  0  0  0  0  0  0  0
   -2.0080   -0.9006    0.2979 C   0  0  0  0  0  0  0  0  0  0  0  0
   -1.1918   -1.6568    0.7929 O   0  0  0  0  0  0  0  0  0  0  0  0
   -1.6383    0.2658   -0.3465 N   0  0  0  0  0  0  0  0  0  0  0  0
   -2.4089    0.7845   -0.7604 H   0  0  0  0  0  0  0  0  0  0  0  0
   -0.3481    0.9923   -0.2990 C   0  0  1  0  0  0  0  0  0  0  0  0
    0.0623    1.0085   -1.3129 H   0  0  0  0  0  0  0  0  0  0  0  0
   -0.6784    2.4434    0.1145 C   0  0  0  0  0  0  0  0  0  0  0  0
   -1.2257    2.4451    1.0634 H   0  0  0  0  0  0  0  0  0  0  0  0
    0.2486    3.0039    0.2783 H   0  0  0  0  0  0  0  0  0  0  0  0
   -1.4698    3.1494   -0.9619 C   0  0  0  0  0  0  0  0  0  0  0  0
   -0.8194    3.6988   -2.0764 C   0  0  0  0  0  0  0  0  0  0  0  0
    0.2603    3.6233   -2.1680 H   0  0  0  0  0  0  0  0  0  0  0  0
   -1.5515    4.3472   -3.0767 C   0  0  0  0  0  0  0  0  0  0  0  0
   -1.0392    4.7688   -3.9366 H   0  0  0  0  0  0  0  0  0  0  0  0
   -2.9411    4.4562   -2.9678 C   0  0  0  0  0  0  0  0  0  0  0  0
   -3.5085    4.9627   -3.7433 H   0  0  0  0  0  0  0  0  0  0  0  0
   -3.5975    3.9206   -1.8555 C   0  0  0  0  0  0  0  0  0  0  0  0
   -4.6759    4.0148   -1.7655 H   0  0  0  0  0  0  0  0  0  0  0  0
   -2.8641    3.2724   -0.8557 C   0  0  0  0  0  0  0  0  0  0  0  0
   -3.3822    2.8722    0.0108 H   0  0  0  0  0  0  0  0  0  0  0  0
    0.7909    0.4109    0.5862 C   0  0  0  0  0  0  0  0  0  0  0  0
    1.2005    1.0163    1.5714 O   0  0  0  0  0  0  0  0  0  0  0  0
    1.4881   -0.7037    0.1556 N   0  0  0  0  0  0  0  0  0  0  0  0
    0.9500   -1.3191   -0.4494 H   0  0  0  0  0  0  0  0  0  0  0  0
    2.5313   -1.3187    0.9675 C   0  0  0  0  0  0  0  0  0  0  0  0
    2.1203   -1.6570    1.9246 H   0  0  0  0  0  0  0  0  0  0  0  0
    2.9553   -2.1821    0.4463 H   0  0  0  0  0  0  0  0  0  0  0  0
    3.3387   -0.6051    1.1626 H   0  0  0  0  0  0  0  0  0  0  0  0
  1  2  1  0  0  0  0
  2  3  1  0  0  0  0
  2  4  1  0  0  0  0
  2  5  1  0  0  0  0
  5  6  2  0  0  0  0
  5  7  1  0  0  0  0
  7  8  1  0  0  0  0
  7  9  1  0  0  0  0
  9 10  1  0  0  0  0
  9 11  1  0  0  0  0
  9 25  1  0  0  0  0
 11 12  1  0  0  0  0
 11 13  1  0  0  0  0
 11 14  1  0  0  0  0
 14 15  1  0  0  0  0
 14 23  2  0  0  0  0
 15 16  1  0  0  0  0
 15 17  2  0  0  0  0
 17 18  1  0  0  0  0
 17 19  1  0  0  0  0
 19 20  1  0  0  0  0
 19 21  2  0  0  0  0
 21 22  1  0  0  0  0
 21 23  1  0  0  0  0
 23 24  1  0  0  0  0
 25 26  2  0  0  0  0
 25 27  1  0  0  0  0
 27 28  1  0  0  0  0
 27 29  1  0  0  0  0
 29 30  1  0  0  0  0
 29 31  1  0  0  0  0
 29 32  1  0  0  0  0
M  END
$$$$

  -OEChem-01062216093D

 32 32  0     1  0  0  0  0  0999 V2000
   -3.5444   -2.2124    0.9659 H   0  0  0  0  0  0  0  0  0  0  0  0
   -3.4281   -1.3195    0.3449 C   0  0  0  0  0  0  0  0  0  0  0  0
   -4.0196   -0.5110    0.7809 H   0  0  0  0  0  0  0  0  0  0  0  0
   -3.8014   -1.5365   -0.6587 H   0  0  0  0  0  0  0  0  0  0  0  0
   -1.9667   -0.9160    0.2784 C   0  0  0  0  0  0  0  0  0  0  0  0
   -1.1231   -1.6811    0.7115 O   0  0  0  0  0  0  0  0  0  0  0  0
   -1.6275    0.2542   -0.3770 N   0  0  0  0  0  0  0  0  0  0  0  0
   -2.4156    0.7791   -0.7465 H   0  0  0  0  0  0  0  0  0  0  0  0
   -0.3483    0.9965   -0.3174 C   0  0  1  0  0  0  0  0  0  0  0  0
    0.0719    1.0217   -1.3270 H   0  0  0  0  0  0  0  0  0  0  0  0
   -0.6819    2.4428    0.1042 C   0  0  0  0  0  0  0  0  0  0  0  0
   -1.2345    2.4366    1.0499 H   0  0  0  0  0  0  0  0  0  0  0  0
    0.2456    2.9987    0.2802 H   0  0  0  0  0  0  0  0  0  0  0  0
   -1.4714    3.1550   -0.9691 C   0  0  0  0  0  0  0  0  0  0  0  0
   -0.8183    3.7128   -2.0779 C   0  0  0  0  0  0  0  0  0  0  0  0
    0.2618    3.6397   -2.1669 H   0  0  0  0  0  0  0  0  0  0  0  0
   -1.5483    4.3660   -3.0765 C   0  0  0  0  0  0  0  0  0  0  0  0
   -1.0340    4.7948   -3.9317 H   0  0  0  0  0  0  0  0  0  0  0  0
   -2.9385    4.4707   -2.9718 C   0  0  0  0  0  0  0  0  0  0  0  0
   -3.5045    4.9805   -3.7462 H   0  0  0  0  0  0  0  0  0  0  0  0
   -3.5973    3.9263   -1.8653 C   0  0  0  0  0  0  0  0  0  0  0  0
   -4.6763    4.0164   -1.7790 H   0  0  0  0  0  0  0  0  0  0  0  0
   -2.8661    3.2739   -0.8667 C   0  0  0  0  0  0  0  0  0  0  0  0
   -3.3863    2.8668   -0.0046 H   0  0  0  0  0  0  0  0  0  0  0  0
    0.7741    0.4196    0.5869 C   0  0  0  0  0  0  0  0  0  0  0  0
    0.9824    0.8816    1.7041 O   0  0  0  0  0  0  0  0  0  0  0  0
    1.6808   -0.4791    0.0539 N   0  0  0  0  0  0  0  0  0  0  0  0
    1.3495   -0.9944   -0.7563 H   0  0  0  0  0  0  0  0  0  0  0  0
    2.7191   -1.0993    0.8675 C   0  0  0  0  0  0  0  0  0  0  0  0
    2.2712   -1.6684    1.6892 H   0  0  0  0  0  0  0  0  0  0  0  0
    3.3186   -1.7814    0.2574 H   0  0  0  0  0  0  0  0  0  0  0  0
    3.3851   -0.3381    1.2874 H   0  0  0  0  0  0  0  0  0  0  0  0
  1  2  1  0  0  0  0
  2  3  1  0  0  0  0
  2  4  1  0  0  0  0
  2  5  1  0  0  0  0
  5  6  2  0  0  0  0
  5  7  1  0  0  0  0
  7  8  1  0  0  0  0
  7  9  1  0  0  0  0
  9 10  1  0  0  0  0
  9 11  1  0  0  0  0
  9 25  1  0  0  0  0
 11 12  1  0  0  0  0
 11 13  1  0  0  0  0
 11 14  1  0  0  0  0
 14 15  1  0  0  0  0
 14 23  2  0  0  0  0
 15 16  1  0  0  0  0
 15 17  2  0  0  0  0
 17 18  1  0  0  0  0
 17 19  1  0  0  0  0
 19 20  1  0  0  0  0
 19 21  2  0  0  0  0
 21 22  1  0  0  0  0
 21 23  1  0  0  0  0
 23 24  1  0  0  0  0
 25 26  2  0  0  0  0
 25 27  1  0  0  0  0
 27 28  1  0  0  0  0
 27 29  1  0  0  0  0
 29 30  1  0  0  0  0
 29 31  1  0  0  0  0
 29 32  1  0  0  0  0
M  END
$$$$

  -OEChem-01062216093D

 32 32  0     1  0  0  0  0  0999 V2000
   -3.5122   -2.2242    0.9971 H   0  0  0  0  0  0  0  0  0  0  0  0
   -3.4155   -1.3250    0.3819 C   0  0  0  0  0  0  0  0  0  0  0  0
   -3.9750   -0.5153    0.8561 H   0  0  0  0  0  0  0  0  0  0  0  0
   -3.8397   -1.5248   -0.6048 H   0  0  0  0  0  0  0  0  0  0  0  0
   -1.9544   -0.9384    0.2495 C   0  0  0  0  0  0  0  0  0  0  0  0
   -1.0990   -1.7246    0.6178 O   0  0  0  0  0  0  0  0  0  0  0  0
   -1.6304    0.2340   -0.4097 N   0  0  0  0  0  0  0  0  0  0  0  0
   -2.4290    0.7725   -0.7339 H   0  0  0  0  0  0  0  0  0  0  0  0
   -0.3567    0.9825   -0.3345 C   0  0  1  0  0  0  0  0  0  0  0  0
    0.0694    1.0145   -1.3413 H   0  0  0  0  0  0  0  0  0  0  0  0
   -0.6903    2.4248    0.0978 C   0  0  0  0  0  0  0  0  0  0  0  0
   -1.2516    2.4105    1.0386 H   0  0  0  0  0  0  0  0  0  0  0  0
    0.2374    2.9757    0.2879 H   0  0  0  0  0  0  0  0  0  0  0  0
   -1.4729    3.1478   -0.9727 C   0  0  0  0  0  0  0  0  0  0  0  0
   -0.8126    3.7147   -2.0727 C   0  0  0  0  0  0  0  0  0  0  0  0
    0.2679    3.6409   -2.1562 H   0  0  0  0  0  0  0  0  0  0  0  0
   -1.5356    4.3790   -3.0691 C   0  0  0  0  0  0  0  0  0  0  0  0
   -1.0159    4.8150   -3.9175 H   0  0  0  0  0  0  0  0  0  0  0  0
   -2.9263    4.4848   -2.9711 C   0  0  0  0  0  0  0  0  0  0  0  0
   -3.4876    5.0016   -3.7443 H   0  0  0  0  0  0  0  0  0  0  0  0
   -3.5923    3.9314   -1.8732 C   0  0  0  0  0  0  0  0  0  0  0  0
   -4.6716    4.0227   -1.7913 H   0  0  0  0  0  0  0  0  0  0  0  0
   -2.8678    3.2684   -0.8767 C   0  0  0  0  0  0  0  0  0  0  0  0
   -3.3937    2.8548   -0.0213 H   0  0  0  0  0  0  0  0  0  0  0  0
    0.7566    0.4126    0.5833 C   0  0  0  0  0  0  0  0  0  0  0  0
    0.7927    0.7104    1.7727 O   0  0  0  0  0  0  0  0  0  0  0  0
    1.8488   -0.2236    0.0204 N   0  0  0  0  0  0  0  0  0  0  0  0
    1.7120   -0.5937   -0.9149 H   0  0  0  0  0  0  0  0  0  0  0  0
    2.9134   -0.8002    0.8324 C   0  0  0  0  0  0  0  0  0  0  0  0
    2.5084   -1.5618    1.5073 H   0  0  0  0  0  0  0  0  0  0  0  0
    3.6665   -1.2684    0.1915 H   0  0  0  0  0  0  0  0  0  0  0  0
    3.4047   -0.0251    1.4299 H   0  0  0  0  0  0  0  0  0  0  0  0
  1  2  1  0  0  0  0
  2  3  1  0  0  0  0
  2  4  1  0  0  0  0
  2  5  1  0  0  0  0
  5  6  2  0  0  0  0
  5  7  1  0  0  0  0
  7  8  1  0  0  0  0
  7  9  1  0  0  0  0
  9 10  1  0  0  0  0
  9 11  1  0  0  0  0
  9 25  1  0  0  0  0
 11 12  1  0  0  0  0
 11 13  1  0  0  0  0
 11 14  1  0  0  0  0
 14 15  1  0  0  0  0
 14 23  2  0  0  0  0
 15 16  1  0  0  0  0
 15 17  2  0  0  0  0
 17 18  1  0  0  0  0
 17 19  1  0  0  0  0
 19 20  1  0  0  0  0
 19 21  2  0  0  0  0
 21 22  1  0  0  0  0
 21 23  1  0  0  0  0
 23 24  1  0  0  0  0
 25 26  2  0  0  0  0
 25 27  1  0  0  0  0
 27 28  1  0  0  0  0
 27 29  1  0  0  0  0
 29 30  1  0  0  0  0
 29 31  1  0  0  0  0
 29 32  1  0  0  0  0
M  END
$$$$

  -OEChem-01062216093D

 32 32  0     1  0  0  0  0  0999 V2000
   -3.4855   -2.2640    0.9658 H   0  0  0  0  0  0  0  0  0  0  0  0
   -3.4044   -1.3168    0.4247 C   0  0  0  0  0  0  0  0  0  0  0  0
   -3.8935   -0.5358    1.0117 H   0  0  0  0  0  0  0  0  0  0  0  0
   -3.9123   -1.4152   -0.5376 H   0  0  0  0  0  0  0  0  0  0  0  0
   -1.9449   -0.9636    0.2078 C   0  0  0  0  0  0  0  0  0  0  0  0
   -1.0878   -1.7846    0.4865 O   0  0  0  0  0  0  0  0  0  0  0  0
   -1.6297    0.2089   -0.4550 N   0  0  0  0  0  0  0  0  0  0  0  0
   -2.4353    0.7654   -0.7263 H   0  0  0  0  0  0  0  0  0  0  0  0
   -0.3591    0.9601   -0.3623 C   0  0  1  0  0  0  0  0  0  0  0  0
    0.0769    0.9970   -1.3647 H   0  0  0  0  0  0  0  0  0  0  0  0
   -0.6959    2.3963    0.0834 C   0  0  0  0  0  0  0  0  0  0  0  0
   -1.2623    2.3706    1.0209 H   0  0  0  0  0  0  0  0  0  0  0  0
    0.2307    2.9445    0.2857 H   0  0  0  0  0  0  0  0  0  0  0  0
   -1.4725    3.1330   -0.9825 C   0  0  0  0  0  0  0  0  0  0  0  0
   -0.8076    3.7138   -2.0725 C   0  0  0  0  0  0  0  0  0  0  0  0
    0.2727    3.6388   -2.1544 H   0  0  0  0  0  0  0  0  0  0  0  0
   -1.5264    4.3925   -3.0624 C   0  0  0  0  0  0  0  0  0  0  0  0
   -1.0036    4.8382   -3.9038 H   0  0  0  0  0  0  0  0  0  0  0  0
   -2.9172    4.5008   -2.9672 C   0  0  0  0  0  0  0  0  0  0  0  0
   -3.4749    5.0299   -3.7348 H   0  0  0  0  0  0  0  0  0  0  0  0
   -3.5876    3.9342   -1.8789 C   0  0  0  0  0  0  0  0  0  0  0  0
   -4.6669    4.0272   -1.7995 H   0  0  0  0  0  0  0  0  0  0  0  0
   -2.8676    3.2560   -0.8894 C   0  0  0  0  0  0  0  0  0  0  0  0
   -3.3976    2.8327   -0.0411 H   0  0  0  0  0  0  0  0  0  0  0  0
    0.7423    0.3957    0.5719 C   0  0  0  0  0  0  0  0  0  0  0  0
    0.6333    0.5179    1.7876 O   0  0  0  0  0  0  0  0  0  0  0  0
    1.9755    0.0451    0.0505 N   0  0  0  0  0  0  0  0  0  0  0  0
    2.0062   -0.1501   -0.9451 H   0  0  0  0  0  0  0  0  0  0  0  0
    3.0601   -0.4588    0.8847 C   0  0  0  0  0  0  0  0  0  0  0  0
    2.7536   -1.3781    1.3951 H   0  0  0  0  0  0  0  0  0  0  0  0
    3.9387   -0.6779    0.2707 H   0  0  0  0  0  0  0  0  0  0  0  0
    3.3438    0.2844    1.6374 H   0  0  0  0  0  0  0  0  0  0  0  0
  1  2  1  0  0  0  0
  2  3  1  0  0  0  0
  2  4  1  0  0  0  0
  2  5  1  0  0  0  0
  5  6  2  0  0  0  0
  5  7  1  0  0  0  0
  7  8  1  0  0  0  0
  7  9  1  0  0  0  0
  9 10  1  0  0  0  0
  9 11  1  0  0  0  0
  9 25  1  0  0  0  0
 11 12  1  0  0  0  0
 11 13  1  0  0  0  0
 11 14  1  0  0  0  0
 14 15  1  0  0  0  0
 14 23  2  0  0  0  0
 15 16  1  0  0  0  0
 15 17  2  0  0  0  0
 17 18  1  0  0  0  0
 17 19  1  0  0  0  0
 19 20  1  0  0  0  0
 19 21  2  0  0  0  0
 21 22  1  0  0  0  0
 21 23  1  0  0  0  0
 23 24  1  0  0  0  0
 25 26  2  0  0  0  0
 25 27  1  0  0  0  0
 27 28  1  0  0  0  0
 27 29  1  0  0  0  0
 29 30  1  0  0  0  0
 29 31  1  0  0  0  0
 29 32  1  0  0  0  0
M  END
$$$$

  -OEChem-01062216093D

 32 32  0     1  0  0  0  0  0999 V2000
   -3.4733   -2.2562    1.0001 H   0  0  0  0  0  0  0  0  0  0  0  0
   -3.3996   -1.3100    0.4566 C   0  0  0  0  0  0  0  0  0  0  0  0
   -3.8389   -0.5197    1.0698 H   0  0  0  0  0  0  0  0  0  0  0  0
   -3.9594   -1.3946   -0.4778 H   0  0  0  0  0  0  0  0  0  0  0  0
   -1.9460   -0.9896    0.1646 C   0  0  0  0  0  0  0  0  0  0  0  0
   -1.0979   -1.8453    0.3540 O   0  0  0  0  0  0  0  0  0  0  0  0
   -1.6332    0.1845   -0.4958 N   0  0  0  0  0  0  0  0  0  0  0  0
   -2.4403    0.7571   -0.7252 H   0  0  0  0  0  0  0  0  0  0  0  0
   -0.3621    0.9324   -0.3860 C   0  0  1  0  0  0  0  0  0  0  0  0
    0.0810    0.9748   -1.3850 H   0  0  0  0  0  0  0  0  0  0  0  0
   -0.6983    2.3630    0.0762 C   0  0  0  0  0  0  0  0  0  0  0  0
   -1.2694    2.3264    1.0106 H   0  0  0  0  0  0  0  0  0  0  0  0
    0.2282    2.9067    0.2907 H   0  0  0  0  0  0  0  0  0  0  0  0
   -1.4673    3.1152   -0.9837 C   0  0  0  0  0  0  0  0  0  0  0  0
   -0.7958    3.7089   -2.0625 C   0  0  0  0  0  0  0  0  0  0  0  0
    0.2845    3.6314   -2.1411 H   0  0  0  0  0  0  0  0  0  0  0  0
   -1.5083    4.4031   -3.0463 C   0  0  0  0  0  0  0  0  0  0  0  0
   -0.9808    4.8575   -3.8801 H   0  0  0  0  0  0  0  0  0  0  0  0
   -2.8990    4.5158   -2.9545 C   0  0  0  0  0  0  0  0  0  0  0  0
   -3.4523    5.0579   -3.7160 H   0  0  0  0  0  0  0  0  0  0  0  0
   -3.5756    3.9373   -1.8766 C   0  0  0  0  0  0  0  0  0  0  0  0
   -4.6546    4.0336   -1.7993 H   0  0  0  0  0  0  0  0  0  0  0  0
   -2.8623    3.2422   -0.8942 C   0  0  0  0  0  0  0  0  0  0  0  0
   -3.3979    2.8093   -0.0544 H   0  0  0  0  0  0  0  0  0  0  0  0
    0.7322    0.3693    0.5569 C   0  0  0  0  0  0  0  0  0  0  0  0
    0.5227    0.3163    1.7643 O   0  0  0  0  0  0  0  0  0  0  0  0
    2.0461    0.3151    0.1239 N   0  0  0  0  0  0  0  0  0  0  0  0
    2.1987    0.3141   -0.8796 H   0  0  0  0  0  0  0  0  0  0  0  0
    3.1443   -0.0923    0.9926 C   0  0  0  0  0  0  0  0  0  0  0  0
    2.9704   -1.1011    1.3816 H   0  0  0  0  0  0  0  0  0  0  0  0
    4.0866   -0.0926    0.4368 H   0  0  0  0  0  0  0  0  0  0  0  0
    3.2427    0.5985    1.8367 H   0  0  0  0  0  0  0  0  0  0  0  0
  1  2  1  0  0  0  0
  2  3  1  0  0  0  0
  2  4  1  0  0  0  0
  2  5  1  0  0  0  0
  5  6  2  0  0  0  0
  5  7  1  0  0  0  0
  7  8  1  0  0  0  0
  7  9  1  0  0  0  0
  9 10  1  0  0  0  0
  9 11  1  0  0  0  0
  9 25  1  0  0  0  0
 11 12  1  0  0  0  0
 11 13  1  0  0  0  0
 11 14  1  0  0  0  0
 14 15  1  0  0  0  0
 14 23  2  0  0  0  0
 15 16  1  0  0  0  0
 15 17  2  0  0  0  0
 17 18  1  0  0  0  0
 17 19  1  0  0  0  0
 19 20  1  0  0  0  0
 19 21  2  0  0  0  0
 21 22  1  0  0  0  0
 21 23  1  0  0  0  0
 23 24  1  0  0  0  0
 25 26  2  0  0  0  0
 25 27  1  0  0  0  0
 27 28  1  0  0  0  0
 27 29  1  0  0  0  0
 29 30  1  0  0  0  0
 29 31  1  0  0  0  0
 29 32  1  0  0  0  0
M  END
$$$$

  -OEChem-01062216093D

 32 32  0     1  0  0  0  0  0999 V2000
   -3.4888   -2.2420    0.9994 H   0  0  0  0  0  0  0  0  0  0  0  0
   -3.4059   -1.2845    0.4773 C   0  0  0  0  0  0  0  0  0  0  0  0
   -3.7915   -0.4965    1.1284 H   0  0  0  0  0  0  0  0  0  0  0  0
   -4.0071   -1.3247   -0.4340 H   0  0  0  0  0  0  0  0  0  0  0  0
   -1.9555   -1.0044    0.1312 C   0  0  0  0  0  0  0  0  0  0  0  0
   -1.1307   -1.8957    0.2444 O   0  0  0  0  0  0  0  0  0  0  0  0
   -1.6322    0.1692   -0.5236 N   0  0  0  0  0  0  0  0  0  0  0  0
   -2.4352    0.7583   -0.7226 H   0  0  0  0  0  0  0  0  0  0  0  0
   -0.3549    0.9054   -0.4022 C   0  0  1  0  0  0  0  0  0  0  0  0
    0.0920    0.9536   -1.3991 H   0  0  0  0  0  0  0  0  0  0  0  0
   -0.6939    2.3298    0.0776 C   0  0  0  0  0  0  0  0  0  0  0  0
   -1.2689    2.2791    1.0087 H   0  0  0  0  0  0  0  0  0  0  0  0
    0.2299    2.8732    0.3042 H   0  0  0  0  0  0  0  0  0  0  0  0
   -1.4586    3.0957   -0.9757 C   0  0  0  0  0  0  0  0  0  0  0  0
   -0.7821    3.7039   -2.0433 C   0  0  0  0  0  0  0  0  0  0  0  0
    0.2988    3.6313   -2.1161 H   0  0  0  0  0  0  0  0  0  0  0  0
   -1.4906    4.4065   -3.0239 C   0  0  0  0  0  0  0  0  0  0  0  0
   -0.9600    4.8726   -3.8492 H   0  0  0  0  0  0  0  0  0  0  0  0
   -2.8823    4.5114   -2.9415 C   0  0  0  0  0  0  0  0  0  0  0  0
   -3.4327    5.0582   -3.7019 H   0  0  0  0  0  0  0  0  0  0  0  0
   -3.5641    3.9178   -1.8752 C   0  0  0  0  0  0  0  0  0  0  0  0
   -4.6445    4.0066   -1.8068 H   0  0  0  0  0  0  0  0  0  0  0  0
   -2.8548    3.2156   -0.8951 C   0  0  0  0  0  0  0  0  0  0  0  0
   -3.3951    2.7692   -0.0655 H   0  0  0  0  0  0  0  0  0  0  0  0
    0.7394    0.3433    0.5419 C   0  0  0  0  0  0  0  0  0  0  0  0
    0.4711    0.1146    1.7163 O   0  0  0  0  0  0  0  0  0  0  0  0
    2.0700    0.5765    0.2354 N   0  0  0  0  0  0  0  0  0  0  0  0
    2.2935    0.7720   -0.7350 H   0  0  0  0  0  0  0  0  0  0  0  0
    3.1621    0.2666    1.1511 C   0  0  0  0  0  0  0  0  0  0  0  0
    3.1455   -0.7944    1.4218 H   0  0  0  0  0  0  0  0  0  0  0  0
    4.1244    0.4896    0.6809 H   0  0  0  0  0  0  0  0  0  0  0  0
    3.0779    0.8648    2.0644 H   0  0  0  0  0  0  0  0  0  0  0  0
  1  2  1  0  0  0  0
  2  3  1  0  0  0  0
  2  4  1  0  0  0  0
  2  5  1  0  0  0  0
  5  6  2  0  0  0  0
  5  7  1  0  0  0  0
  7  8  1  0  0  0  0
  7  9  1  0  0  0  0
  9 10  1  0  0  0  0
  9 11  1  0  0  0  0
  9 25  1  0  0  0  0
 11 12  1  0  0  0  0
 11 13  1  0  0  0  0
 11 14  1  0  0  0  0
 14 15  1  0  0  0  0
 14 23  2  0  0  0  0
 15 16  1  0  0  0  0
 15 17  2  0  0  0  0
 17 18  1  0  0  0  0
 17 19  1  0  0  0  0
 19 20  1  0  0  0  0
 19 21  2  0  0  0  0
 21 22  1  0  0  0  0
 21 23  1  0  0  0  0
 23 24  1  0  0  0  0
 25 26  2  0  0  0  0
 25 27  1  0  0  0  0
 27 28  1  0  0  0  0
 27 29  1  0  0  0  0
 29 30  1  0  0  0  0
 29 31  1  0  0  0  0
 29 32  1  0  0  0  0
M  END
$$$$

  -OEChem-01062216093D

 32 32  0     1  0  0  0  0  0999 V2000
   -3.4852   -2.2377    0.9984 H   0  0  0  0  0  0  0  0  0  0  0  0
   -3.3928   -1.2606    0.5158 C   0  0  0  0  0  0  0  0  0  0  0  0
   -3.7030   -0.4899    1.2253 H   0  0  0  0  0  0  0  0  0  0  0  0
   -4.0499   -1.2329   -0.3565 H   0  0  0  0  0  0  0  0  0  0  0  0
   -1.9555   -1.0237    0.0926 C   0  0  0  0  0  0  0  0  0  0  0  0
   -1.1654   -1.9528    0.1069 O   0  0  0  0  0  0  0  0  0  0  0  0
   -1.6235    0.1519   -0.5533 N   0  0  0  0  0  0  0  0  0  0  0  0
   -2.4223    0.7560   -0.7201 H   0  0  0  0  0  0  0  0  0  0  0  0
   -0.3424    0.8816   -0.4188 C   0  0  1  0  0  0  0  0  0  0  0  0
    0.1086    0.9372   -1.4136 H   0  0  0  0  0  0  0  0  0  0  0  0
   -0.6969    2.3008    0.0714 C   0  0  0  0  0  0  0  0  0  0  0  0
   -1.2804    2.2347    0.9963 H   0  0  0  0  0  0  0  0  0  0  0  0
    0.2166    2.8543    0.3135 H   0  0  0  0  0  0  0  0  0  0  0  0
   -1.4576    3.0742   -0.9797 C   0  0  0  0  0  0  0  0  0  0  0  0
   -0.7753    3.6987   -2.0343 C   0  0  0  0  0  0  0  0  0  0  0  0
    0.3062    3.6300   -2.1015 H   0  0  0  0  0  0  0  0  0  0  0  0
   -1.4785    4.4135   -3.0097 C   0  0  0  0  0  0  0  0  0  0  0  0
   -0.9430    4.8926   -3.8243 H   0  0  0  0  0  0  0  0  0  0  0  0
   -2.8709    4.5144   -2.9353 C   0  0  0  0  0  0  0  0  0  0  0  0
   -3.4169    5.0702   -3.6922 H   0  0  0  0  0  0  0  0  0  0  0  0
   -3.5588    3.9055   -1.8815 C   0  0  0  0  0  0  0  0  0  0  0  0
   -4.6397    3.9924   -1.8187 H   0  0  0  0  0  0  0  0  0  0  0  0
   -2.8546    3.1916   -0.9060 C   0  0  0  0  0  0  0  0  0  0  0  0
   -3.3999    2.7358   -0.0849 H   0  0  0  0  0  0  0  0  0  0  0  0
    0.7589    0.3266    0.5256 C   0  0  0  0  0  0  0  0  0  0  0  0
    0.4648   -0.1059    1.6337 O   0  0  0  0  0  0  0  0  0  0  0  0
    2.0461    0.8254    0.3965 N   0  0  0  0  0  0  0  0  0  0  0  0
    2.2973    1.2368   -0.4966 H   0  0  0  0  0  0  0  0  0  0  0  0
    3.1039    0.5769    1.3703 C   0  0  0  0  0  0  0  0  0  0  0  0
    3.2470   -0.4993    1.5143 H   0  0  0  0  0  0  0  0  0  0  0  0
    4.0474    1.0077    1.0221 H   0  0  0  0  0  0  0  0  0  0  0  0
    2.8522    1.0309    2.3344 H   0  0  0  0  0  0  0  0  0  0  0  0
  1  2  1  0  0  0  0
  2  3  1  0  0  0  0
  2  4  1  0  0  0  0
  2  5  1  0  0  0  0
  5  6  2  0  0  0  0
  5  7  1  0  0  0  0
  7  8  1  0  0  0  0
  7  9  1  0  0  0  0
  9 10  1  0  0  0  0
  9 11  1  0  0  0  0
  9 25  1  0  0  0  0
 11 12  1  0  0  0  0
 11 13  1  0  0  0  0
 11 14  1  0  0  0  0
 14 15  1  0  0  0  0
 14 23  2  0  0  0  0
 15 16  1  0  0  0  0
 15 17  2  0  0  0  0
 17 18  1  0  0  0  0
 17 19  1  0  0  0  0
 19 20  1  0  0  0  0
 19 21  2  0  0  0  0
 21 22  1  0  0  0  0
 21 23  1  0  0  0  0
 23 24  1  0  0  0  0
 25 26  2  0  0  0  0
 25 27  1  0  0  0  0
 27 28  1  0  0  0  0
 27 29  1  0  0  0  0
 29 30  1  0  0  0  0
 29 31  1  0  0  0  0
 29 32  1  0  0  0  0
M  END
$$$$

  -OEChem-01062216093D

 32 32  0     1  0  0  0  0  0999 V2000
   -3.2473   -2.5125    0.9235 H   0  0  0  0  0  0  0  0  0  0  0  0
   -3.1492   -1.7041    0.1935 C   0  0  0  0  0  0  0  0  0  0  0  0
   -4.1236   -1.2296    0.0560 H   0  0  0  0  0  0  0  0  0  0  0  0
   -2.8182   -2.1302   -0.7565 H   0  0  0  0  0  0  0  0  0  0  0  0
   -2.1384   -0.6841    0.6824 C   0  0  0  0  0  0  0  0  0  0  0  0
   -1.8080   -0.6767    1.8578 O   0  0  0  0  0  0  0  0  0  0  0  0
   -1.8039    0.3918   -0.1178 N   0  0  0  0  0  0  0  0  0  0  0  0
   -2.3024    0.4004   -1.0018 H   0  0  0  0  0  0  0  0  0  0  0  0
   -0.4642    1.0246   -0.1645 C   0  0  1  0  0  0  0  0  0  0  0  0
   -0.2069    1.1845   -1.2156 H   0  0  0  0  0  0  0  0  0  0  0  0
   -0.6155    2.3960    0.5275 C   0  0  0  0  0  0  0  0  0  0  0  0
   -1.0300    2.2519    1.5318 H   0  0  0  0  0  0  0  0  0  0  0  0
    0.3577    2.8785    0.6511 H   0  0  0  0  0  0  0  0  0  0  0  0
   -1.4995    3.3210   -0.2776 C   0  0  0  0  0  0  0  0  0  0  0  0
   -0.9826    4.0247   -1.3762 C   0  0  0  0  0  0  0  0  0  0  0  0
    0.0605    3.9124   -1.6556 H   0  0  0  0  0  0  0  0  0  0  0  0
   -1.8035    4.8778   -2.1221 C   0  0  0  0  0  0  0  0  0  0  0  0
   -1.3962    5.4189   -2.9710 H   0  0  0  0  0  0  0  0  0  0  0  0
   -3.1484    5.0362   -1.7741 C   0  0  0  0  0  0  0  0  0  0  0  0
   -3.7856    5.7002   -2.3513 H   0  0  0  0  0  0  0  0  0  0  0  0
   -3.6718    4.3407   -0.6800 C   0  0  0  0  0  0  0  0  0  0  0  0
   -4.7155    4.4634   -0.4057 H   0  0  0  0  0  0  0  0  0  0  0  0
   -2.8500    3.4872    0.0641 C   0  0  0  0  0  0  0  0  0  0  0  0
   -3.2632    2.9481    0.9123 H   0  0  0  0  0  0  0  0  0  0  0  0
    0.7546    0.2662    0.4403 C   0  0  0  0  0  0  0  0  0  0  0  0
    0.7653   -0.9561    0.5185 O   0  0  0  0  0  0  0  0  0  0  0  0
    2.0043    0.8667    0.3983 N   0  0  0  0  0  0  0  0  0  0  0  0
    2.0381    1.8665    0.2292 H   0  0  0  0  0  0  0  0  0  0  0  0
    3.2481    0.1703    0.7119 C   0  0  0  0  0  0  0  0  0  0  0  0
    3.4467   -0.6109   -0.0292 H   0  0  0  0  0  0  0  0  0  0  0  0
    4.0869    0.8727    0.7074 H   0  0  0  0  0  0  0  0  0  0  0  0
    3.1902   -0.2904    1.7039 H   0  0  0  0  0  0  0  0  0  0  0  0
  1  2  1  0  0  0  0
  2  3  1  0  0  0  0
  2  4  1  0  0  0  0
  2  5  1  0  0  0  0
  5  6  2  0  0  0  0
  5  7  1  0  0  0  0
  7  8  1  0  0  0  0
  7  9  1  0  0  0  0
  9 10  1  0  0  0  0
  9 11  1  0  0  0  0
  9 25  1  0  0  0  0
 11 12  1  0  0  0  0
 11 13  1  0  0  0  0
 11 14  1  0  0  0  0
 14 15  1  0  0  0  0
 14 23  2  0  0  0  0
 15 16  1  0  0  0  0
 15 17  2  0  0  0  0
 17 18  1  0  0  0  0
 17 19  1  0  0  0  0
 19 20  1  0  0  0  0
 19 21  2  0  0  0  0
 21 22  1  0  0  0  0
 21 23  1  0  0  0  0
 23 24  1  0  0  0  0
 25 26  2  0  0  0  0
 25 27  1  0  0  0  0
 27 28  1  0  0  0  0
 27 29  1  0  0  0  0
 29 30  1  0  0  0  0
 29 31  1  0  0  0  0
 29 32  1  0  0  0  0
M  END
$$$$

  -OEChem-01062216093D

 32 32  0     1  0  0  0  0  0999 V2000
   -3.2461   -2.4848    0.9390 H   0  0  0  0  0  0  0  0  0  0  0  0
   -3.1464   -1.6794    0.2058 C   0  0  0  0  0  0  0  0  0  0  0  0
   -4.1126   -1.1827    0.0910 H   0  0  0  0  0  0  0  0  0  0  0  0
   -2.8485   -2.1140   -0.7513 H   0  0  0  0  0  0  0  0  0  0  0  0
   -2.1003   -0.6827    0.6677 C   0  0  0  0  0  0  0  0  0  0  0  0
   -1.6947   -0.7217    1.8191 O   0  0  0  0  0  0  0  0  0  0  0  0
   -1.7889    0.4054   -0.1264 N   0  0  0  0  0  0  0  0  0  0  0  0
   -2.3061    0.4297   -0.9994 H   0  0  0  0  0  0  0  0  0  0  0  0
   -0.4564    1.0519   -0.1781 C   0  0  1  0  0  0  0  0  0  0  0  0
   -0.1975    1.2162   -1.2282 H   0  0  0  0  0  0  0  0  0  0  0  0
   -0.6197    2.4230    0.5129 C   0  0  0  0  0  0  0  0  0  0  0  0
   -1.0261    2.2774    1.5202 H   0  0  0  0  0  0  0  0  0  0  0  0
    0.3469    2.9203    0.6243 H   0  0  0  0  0  0  0  0  0  0  0  0
   -1.5158    3.3370   -0.2903 C   0  0  0  0  0  0  0  0  0  0  0  0
   -1.0087    4.0442   -1.3913 C   0  0  0  0  0  0  0  0  0  0  0  0
    0.0347    3.9417   -1.6736 H   0  0  0  0  0  0  0  0  0  0  0  0
   -1.8398    4.8888   -2.1352 C   0  0  0  0  0  0  0  0  0  0  0  0
   -1.4395    5.4348   -2.9844 H   0  0  0  0  0  0  0  0  0  0  0  0
   -3.1857    5.0326   -1.7846 C   0  0  0  0  0  0  0  0  0  0  0  0
   -3.8305    5.6902   -2.3606 H   0  0  0  0  0  0  0  0  0  0  0  0
   -3.7001    4.3302   -0.6907 C   0  0  0  0  0  0  0  0  0  0  0  0
   -4.7451    4.4398   -0.4163 H   0  0  0  0  0  0  0  0  0  0  0  0
   -2.8678    3.4868    0.0526 C   0  0  0  0  0  0  0  0  0  0  0  0
   -3.2747    2.9419    0.9001 H   0  0  0  0  0  0  0  0  0  0  0  0
    0.7481    0.2662    0.4193 C   0  0  0  0  0  0  0  0  0  0  0  0
    0.8207   -0.9455    0.2479 O   0  0  0  0  0  0  0  0  0  0  0  0
    1.9448    0.9105    0.6944 N   0  0  0  0  0  0  0  0  0  0  0  0
    1.9177    1.9193    0.7972 H   0  0  0  0  0  0  0  0  0  0  0  0
    3.1674    0.2062    1.0661 C   0  0  0  0  0  0  0  0  0  0  0  0
    3.5176   -0.4171    0.2366 H   0  0  0  0  0  0  0  0  0  0  0  0
    3.9559    0.9222    1.3168 H   0  0  0  0  0  0  0  0  0  0  0  0
    2.9911   -0.4333    1.9377 H   0  0  0  0  0  0  0  0  0  0  0  0
  1  2  1  0  0  0  0
  2  3  1  0  0  0  0
  2  4  1  0  0  0  0
  2  5  1  0  0  0  0
  5  6  2  0  0  0  0
  5  7  1  0  0  0  0
  7  8  1  0  0  0  0
  7  9  1  0  0  0  0
  9 10  1  0  0  0  0
  9 11  1  0  0  0  0
  9 25  1  0  0  0  0
 11 12  1  0  0  0  0
 11 13  1  0  0  0  0
 11 14  1  0  0  0  0
 14 15  1  0  0  0  0
 14 23  2  0  0  0  0
 15 16  1  0  0  0  0
 15 17  2  0  0  0  0
 17 18  1  0  0  0  0
 17 19  1  0  0  0  0
 19 20  1  0  0  0  0
 19 21  2  0  0  0  0
 21 22  1  0  0  0  0
 21 23  1  0  0  0  0
 23 24  1  0  0  0  0
 25 26  2  0  0  0  0
 25 27  1  0  0  0  0
 27 28  1  0  0  0  0
 27 29  1  0  0  0  0
 29 30  1  0  0  0  0
 29 31  1  0  0  0  0
 29 32  1  0  0  0  0
M  END
$$$$

  -OEChem-01062216093D

 32 32  0     1  0  0  0  0  0999 V2000
   -3.2369   -2.4702    0.9394 H   0  0  0  0  0  0  0  0  0  0  0  0
   -3.1440   -1.6582    0.2127 C   0  0  0  0  0  0  0  0  0  0  0  0
   -4.1033   -1.1419    0.1335 H   0  0  0  0  0  0  0  0  0  0  0  0
   -2.8838   -2.0862   -0.7583 H   0  0  0  0  0  0  0  0  0  0  0  0
   -2.0662   -0.6862    0.6535 C   0  0  0  0  0  0  0  0  0  0  0  0
   -1.6000   -0.7713    1.7794 O   0  0  0  0  0  0  0  0  0  0  0  0
   -1.7744    0.4151   -0.1304 N   0  0  0  0  0  0  0  0  0  0  0  0
   -2.3138    0.4601   -0.9894 H   0  0  0  0  0  0  0  0  0  0  0  0
   -0.4506    1.0771   -0.1887 C   0  0  1  0  0  0  0  0  0  0  0  0
   -0.1963    1.2436   -1.2395 H   0  0  0  0  0  0  0  0  0  0  0  0
   -0.6165    2.4488    0.4997 C   0  0  0  0  0  0  0  0  0  0  0  0
   -1.0111    2.3062    1.5119 H   0  0  0  0  0  0  0  0  0  0  0  0
    0.3495    2.9518    0.5941 H   0  0  0  0  0  0  0  0  0  0  0  0
   -1.5243    3.3541   -0.3004 C   0  0  0  0  0  0  0  0  0  0  0  0
   -1.0297    4.0605   -1.4076 C   0  0  0  0  0  0  0  0  0  0  0  0
    0.0138    3.9667   -1.6936 H   0  0  0  0  0  0  0  0  0  0  0  0
   -1.8724    4.8927   -2.1526 C   0  0  0  0  0  0  0  0  0  0  0  0
   -1.4809    5.4383   -3.0064 H   0  0  0  0  0  0  0  0  0  0  0  0
   -3.2184    5.0238   -1.7977 C   0  0  0  0  0  0  0  0  0  0  0  0
   -3.8729    5.6702   -2.3755 H   0  0  0  0  0  0  0  0  0  0  0  0
   -3.7202    4.3232   -0.6967 C   0  0  0  0  0  0  0  0  0  0  0  0
   -4.7651    4.4241   -0.4181 H   0  0  0  0  0  0  0  0  0  0  0  0
   -2.8758    3.4930    0.0482 C   0  0  0  0  0  0  0  0  0  0  0  0
   -3.2734    2.9493    0.9007 H   0  0  0  0  0  0  0  0  0  0  0  0
    0.7479    0.2744    0.3947 C   0  0  0  0  0  0  0  0  0  0  0  0
    0.9004   -0.8876    0.0338 O   0  0  0  0  0  0  0  0  0  0  0  0
    1.8426    0.9021    0.9683 N   0  0  0  0  0  0  0  0  0  0  0  0
    1.7088    1.8526    1.2966 H   0  0  0  0  0  0  0  0  0  0  0  0
    3.0266    0.1765    1.4145 C   0  0  0  0  0  0  0  0  0  0  0  0
    3.5238   -0.3054    0.5662 H   0  0  0  0  0  0  0  0  0  0  0  0
    3.7368    0.8633    1.8846 H   0  0  0  0  0  0  0  0  0  0  0  0
    2.7511   -0.5920    2.1446 H   0  0  0  0  0  0  0  0  0  0  0  0
  1  2  1  0  0  0  0
  2  3  1  0  0  0  0
  2  4  1  0  0  0  0
  2  5  1  0  0  0  0
  5  6  2  0  0  0  0
  5  7  1  0  0  0  0
  7  8  1  0  0  0  0
  7  9  1  0  0  0  0
  9 10  1  0  0  0  0
  9 11  1  0  0  0  0
  9 25  1  0  0  0  0
 11 12  1  0  0  0  0
 11 13  1  0  0  0  0
 11 14  1  0  0  0  0
 14 15  1  0  0  0  0
 14 23  2  0  0  0  0
 15 16  1  0  0  0  0
 15 17  2  0  0  0  0
 17 18  1  0  0  0  0
 17 19  1  0  0  0  0
 19 20  1  0  0  0  0
 19 21  2  0  0  0  0
 21 22  1  0  0  0  0
 21 23  1  0  0  0  0
 23 24  1  0  0  0  0
 25 26  2  0  0  0  0
 25 27  1  0  0  0  0
 27 28  1  0  0  0  0
 27 29  1  0  0  0  0
 29 30  1  0  0  0  0
 29 31  1  0  0  0  0
 29 32  1  0  0  0  0
M  END
$$$$

  -OEChem-01062216093D

 32 32  0     1  0  0  0  0  0999 V2000
   -3.2158   -2.4945    0.8984 H   0  0  0  0  0  0  0  0  0  0  0  0
   -3.1592   -1.6454    0.2113 C   0  0  0  0  0  0  0  0  0  0  0  0
   -4.1162   -1.1187    0.2190 H   0  0  0  0  0  0  0  0  0  0  0  0
   -2.9646   -2.0230   -0.7954 H   0  0  0  0  0  0  0  0  0  0  0  0
   -2.0465   -0.7057    0.6352 C   0  0  0  0  0  0  0  0  0  0  0  0
   -1.5297   -0.8409    1.7334 O   0  0  0  0  0  0  0  0  0  0  0  0
   -1.7632    0.4060   -0.1369 N   0  0  0  0  0  0  0  0  0  0  0  0
   -2.3240    0.4790   -0.9803 H   0  0  0  0  0  0  0  0  0  0  0  0
   -0.4490    1.0846   -0.1925 C   0  0  1  0  0  0  0  0  0  0  0  0
   -0.1956    1.2524   -1.2436 H   0  0  0  0  0  0  0  0  0  0  0  0
   -0.6165    2.4575    0.4903 C   0  0  0  0  0  0  0  0  0  0  0  0
   -1.0084    2.3191    1.5040 H   0  0  0  0  0  0  0  0  0  0  0  0
    0.3519    2.9591    0.5769 H   0  0  0  0  0  0  0  0  0  0  0  0
   -1.5286    3.3561   -0.3120 C   0  0  0  0  0  0  0  0  0  0  0  0
   -1.0387    4.0583   -1.4236 C   0  0  0  0  0  0  0  0  0  0  0  0
    0.0032    3.9616   -1.7143 H   0  0  0  0  0  0  0  0  0  0  0  0
   -1.8847    4.8879   -2.1676 C   0  0  0  0  0  0  0  0  0  0  0  0
   -1.4971    5.4276   -3.0268 H   0  0  0  0  0  0  0  0  0  0  0  0
   -3.2283    5.0237   -1.8047 C   0  0  0  0  0  0  0  0  0  0  0  0
   -3.8847    5.6693   -2.3810 H   0  0  0  0  0  0  0  0  0  0  0  0
   -3.7247    4.3288   -0.6977 C   0  0  0  0  0  0  0  0  0  0  0  0
   -4.7672    4.4344   -0.4121 H   0  0  0  0  0  0  0  0  0  0  0  0
   -2.8778    3.4985    0.0441 C   0  0  0  0  0  0  0  0  0  0  0  0
   -3.2708    2.9597    0.9016 H   0  0  0  0  0  0  0  0  0  0  0  0
    0.7507    0.2827    0.3848 C   0  0  0  0  0  0  0  0  0  0  0  0
    1.0158   -0.8001   -0.1253 O   0  0  0  0  0  0  0  0  0  0  0  0
    1.6929    0.8514    1.2266 N   0  0  0  0  0  0  0  0  0  0  0  0
    1.4106    1.6918    1.7201 H   0  0  0  0  0  0  0  0  0  0  0  0
    2.8455    0.1126    1.7278 C   0  0  0  0  0  0  0  0  0  0  0  0
    3.4844   -0.2097    0.8988 H   0  0  0  0  0  0  0  0  0  0  0  0
    3.4394    0.7450    2.3942 H   0  0  0  0  0  0  0  0  0  0  0  0
    2.5196   -0.7714    2.2861 H   0  0  0  0  0  0  0  0  0  0  0  0
  1  2  1  0  0  0  0
  2  3  1  0  0  0  0
  2  4  1  0  0  0  0
  2  5  1  0  0  0  0
  5  6  2  0  0  0  0
  5  7  1  0  0  0  0
  7  8  1  0  0  0  0
  7  9  1  0  0  0  0
  9 10  1  0  0  0  0
  9 11  1  0  0  0  0
  9 25  1  0  0  0  0
 11 12  1  0  0  0  0
 11 13  1  0  0  0  0
 11 14  1  0  0  0  0
 14 15  1  0  0  0  0
 14 23  2  0  0  0  0
 15 16  1  0  0  0  0
 15 17  2  0  0  0  0
 17 18  1  0  0  0  0
 17 19  1  0  0  0  0
 19 20  1  0  0  0  0
 19 21  2  0  0  0  0
 21 22  1  0  0  0  0
 21 23  1  0  0  0  0
 23 24  1  0  0  0  0
 25 26  2  0  0  0  0
 25 27  1  0  0  0  0
 27 28  1  0  0  0  0
 27 29  1  0  0  0  0
 29 30  1  0  0  0  0
 29 31  1  0  0  0  0
 29 32  1  0  0  0  0
M  END
$$$$

  -OEChem-01062216093D

 32 32  0     1  0  0  0  0  0999 V2000
   -3.2435   -2.4827    0.8849 H   0  0  0  0  0  0  0  0  0  0  0  0
   -3.1856   -1.6244    0.2096 C   0  0  0  0  0  0  0  0  0  0  0  0
   -4.1283   -1.0739    0.2549 H   0  0  0  0  0  0  0  0  0  0  0  0
   -3.0318   -1.9904   -0.8084 H   0  0  0  0  0  0  0  0  0  0  0  0
   -2.0362   -0.7205    0.6134 C   0  0  0  0  0  0  0  0  0  0  0  0
   -1.4790   -0.9009    1.6847 O   0  0  0  0  0  0  0  0  0  0  0  0
   -1.7513    0.3979   -0.1485 N   0  0  0  0  0  0  0  0  0  0  0  0
   -2.3325    0.5027   -0.9749 H   0  0  0  0  0  0  0  0  0  0  0  0
   -0.4433    1.0878   -0.1997 C   0  0  1  0  0  0  0  0  0  0  0  0
   -0.1914    1.2606   -1.2507 H   0  0  0  0  0  0  0  0  0  0  0  0
   -0.6118    2.4573    0.4866 C   0  0  0  0  0  0  0  0  0  0  0  0
   -1.0037    2.3169    1.4998 H   0  0  0  0  0  0  0  0  0  0  0  0
    0.3594    2.9546    0.5739 H   0  0  0  0  0  0  0  0  0  0  0  0
   -1.5272    3.3545   -0.3127 C   0  0  0  0  0  0  0  0  0  0  0  0
   -1.0389    4.0587   -1.4236 C   0  0  0  0  0  0  0  0  0  0  0  0
    0.0040    3.9662   -1.7125 H   0  0  0  0  0  0  0  0  0  0  0  0
   -1.8875    4.8841   -2.1692 C   0  0  0  0  0  0  0  0  0  0  0  0
   -1.5008    5.4254   -3.0277 H   0  0  0  0  0  0  0  0  0  0  0  0
   -3.2321    5.0137   -1.8087 C   0  0  0  0  0  0  0  0  0  0  0  0
   -3.8907    5.6554   -2.3869 H   0  0  0  0  0  0  0  0  0  0  0  0
   -3.7271    4.3173   -0.7020 C   0  0  0  0  0  0  0  0  0  0  0  0
   -4.7707    4.4184   -0.4188 H   0  0  0  0  0  0  0  0  0  0  0  0
   -2.8776    3.4915    0.0421 C   0  0  0  0  0  0  0  0  0  0  0  0
   -3.2702    2.9525    0.8996 H   0  0  0  0  0  0  0  0  0  0  0  0
    0.7612    0.2942    0.3740 C   0  0  0  0  0  0  0  0  0  0  0  0
    1.1602   -0.6766   -0.2584 O   0  0  0  0  0  0  0  0  0  0  0  0
    1.5206    0.7522    1.4383 N   0  0  0  0  0  0  0  0  0  0  0  0
    1.0781    1.4442    2.0347 H   0  0  0  0  0  0  0  0  0  0  0  0
    2.6324   -0.0139    1.9878 C   0  0  0  0  0  0  0  0  0  0  0  0
    3.4010   -0.1762    1.2249 H   0  0  0  0  0  0  0  0  0  0  0  0
    3.0866    0.5263    2.8236 H   0  0  0  0  0  0  0  0  0  0  0  0
    2.2839   -0.9869    2.3500 H   0  0  0  0  0  0  0  0  0  0  0  0
  1  2  1  0  0  0  0
  2  3  1  0  0  0  0
  2  4  1  0  0  0  0
  2  5  1  0  0  0  0
  5  6  2  0  0  0  0
  5  7  1  0  0  0  0
  7  8  1  0  0  0  0
  7  9  1  0  0  0  0
  9 10  1  0  0  0  0
  9 11  1  0  0  0  0
  9 25  1  0  0  0  0
 11 12  1  0  0  0  0
 11 13  1  0  0  0  0
 11 14  1  0  0  0  0
 14 15  1  0  0  0  0
 14 23  2  0  0  0  0
 15 16  1  0  0  0  0
 15 17  2  0  0  0  0
 17 18  1  0  0  0  0
 17 19  1  0  0  0  0
 19 20  1  0  0  0  0
 19 21  2  0  0  0  0
 21 22  1  0  0  0  0
 21 23  1  0  0  0  0
 23 24  1  0  0  0  0
 25 26  2  0  0  0  0
 25 27  1  0  0  0  0
 27 28  1  0  0  0  0
 27 29  1  0  0  0  0
 29 30  1  0  0  0  0
 29 31  1  0  0  0  0
 29 32  1  0  0  0  0
M  END
$$$$

  -OEChem-01062216093D

 32 32  0     1  0  0  0  0  0999 V2000
   -3.3045   -2.4632    0.8767 H   0  0  0  0  0  0  0  0  0  0  0  0
   -3.2297   -1.6024    0.2061 C   0  0  0  0  0  0  0  0  0  0  0  0
   -4.1505   -1.0185    0.2772 H   0  0  0  0  0  0  0  0  0  0  0  0
   -3.1133   -1.9662   -0.8177 H   0  0  0  0  0  0  0  0  0  0  0  0
   -2.0390   -0.7438    0.5894 C   0  0  0  0  0  0  0  0  0  0  0  0
   -1.4464   -0.9735    1.6313 O   0  0  0  0  0  0  0  0  0  0  0  0
   -1.7424    0.3777   -0.1632 N   0  0  0  0  0  0  0  0  0  0  0  0
   -2.3436    0.5198   -0.9699 H   0  0  0  0  0  0  0  0  0  0  0  0
   -0.4389    1.0762   -0.2051 C   0  0  1  0  0  0  0  0  0  0  0  0
   -0.1873    1.2535   -1.2558 H   0  0  0  0  0  0  0  0  0  0  0  0
   -0.6105    2.4430    0.4849 C   0  0  0  0  0  0  0  0  0  0  0  0
   -1.0070    2.3011    1.4958 H   0  0  0  0  0  0  0  0  0  0  0  0
    0.3635    2.9348    0.5798 H   0  0  0  0  0  0  0  0  0  0  0  0
   -1.5245    3.3433   -0.3125 C   0  0  0  0  0  0  0  0  0  0  0  0
   -1.0327    4.0518   -1.4190 C   0  0  0  0  0  0  0  0  0  0  0  0
    0.0113    3.9603   -1.7049 H   0  0  0  0  0  0  0  0  0  0  0  0
   -1.8787    4.8800   -2.1642 C   0  0  0  0  0  0  0  0  0  0  0  0
   -1.4895    5.4242   -3.0198 H   0  0  0  0  0  0  0  0  0  0  0  0
   -3.2241    5.0090   -1.8067 C   0  0  0  0  0  0  0  0  0  0  0  0
   -3.8803    5.6541   -2.3837 H   0  0  0  0  0  0  0  0  0  0  0  0
   -3.7226    4.3089   -0.7039 C   0  0  0  0  0  0  0  0  0  0  0  0
   -4.7669    4.4109   -0.4231 H   0  0  0  0  0  0  0  0  0  0  0  0
   -2.8760    3.4790    0.0389 C   0  0  0  0  0  0  0  0  0  0  0  0
   -3.2719    2.9377    0.8933 H   0  0  0  0  0  0  0  0  0  0  0  0
    0.7736    0.3009    0.3725 C   0  0  0  0  0  0  0  0  0  0  0  0
    1.3359   -0.5122   -0.3510 O   0  0  0  0  0  0  0  0  0  0  0  0
    1.3280    0.6043    1.6047 N   0  0  0  0  0  0  0  0  0  0  0  0
    0.7115    1.0914    2.2480 H   0  0  0  0  0  0  0  0  0  0  0  0
    2.4178   -0.1776    2.1753 C   0  0  0  0  0  0  0  0  0  0  0  0
    3.2937   -0.1536    1.5183 H   0  0  0  0  0  0  0  0  0  0  0  0
    2.7073    0.2315    3.1479 H   0  0  0  0  0  0  0  0  0  0  0  0
    2.1083   -1.2190    2.3136 H   0  0  0  0  0  0  0  0  0  0  0  0
  1  2  1  0  0  0  0
  2  3  1  0  0  0  0
  2  4  1  0  0  0  0
  2  5  1  0  0  0  0
  5  6  2  0  0  0  0
  5  7  1  0  0  0  0
  7  8  1  0  0  0  0
  7  9  1  0  0  0  0
  9 10  1  0  0  0  0
  9 11  1  0  0  0  0
  9 25  1  0  0  0  0
 11 12  1  0  0  0  0
 11 13  1  0  0  0  0
 11 14  1  0  0  0  0
 14 15  1  0  0  0  0
 14 23  2  0  0  0  0
 15 16  1  0  0  0  0
 15 17  2  0  0  0  0
 17 18  1  0  0  0  0
 17 19  1  0  0  0  0
 19 20  1  0  0  0  0
 19 21  2  0  0  0  0
 21 22  1  0  0  0  0
 21 23  1  0  0  0  0
 23 24  1  0  0  0  0
 25 26  2  0  0  0  0
 25 27  1  0  0  0  0
 27 28  1  0  0  0  0
 27 29  1  0  0  0  0
 29 30  1  0  0  0  0
 29 31  1  0  0  0  0
 29 32  1  0  0  0  0
M  END
$$$$

  -OEChem-01062216093D

 32 32  0     1  0  0  0  0  0999 V2000
   -3.4010   -2.4378    0.8353 H   0  0  0  0  0  0  0  0  0  0  0  0
   -3.3096   -1.5579    0.1919 C   0  0  0  0  0  0  0  0  0  0  0  0
   -4.2011   -0.9377    0.3128 H   0  0  0  0  0  0  0  0  0  0  0  0
   -3.2425   -1.8901   -0.8470 H   0  0  0  0  0  0  0  0  0  0  0  0
   -2.0712   -0.7642    0.5635 C   0  0  0  0  0  0  0  0  0  0  0  0
   -1.4605   -1.0502    1.5800 O   0  0  0  0  0  0  0  0  0  0  0  0
   -1.7432    0.3572   -0.1750 N   0  0  0  0  0  0  0  0  0  0  0  0
   -2.3644    0.5533   -0.9551 H   0  0  0  0  0  0  0  0  0  0  0  0
   -0.4381    1.0539   -0.2025 C   0  0  1  0  0  0  0  0  0  0  0  0
   -0.1831    1.2379   -1.2513 H   0  0  0  0  0  0  0  0  0  0  0  0
   -0.6110    2.4149    0.4963 C   0  0  0  0  0  0  0  0  0  0  0  0
   -1.0145    2.2685    1.5036 H   0  0  0  0  0  0  0  0  0  0  0  0
    0.3651    2.9004    0.6029 H   0  0  0  0  0  0  0  0  0  0  0  0
   -1.5181    3.3208   -0.3026 C   0  0  0  0  0  0  0  0  0  0  0  0
   -1.0169    4.0348   -1.4010 C   0  0  0  0  0  0  0  0  0  0  0  0
    0.0301    3.9461   -1.6762 H   0  0  0  0  0  0  0  0  0  0  0  0
   -1.8569    4.8648   -2.1511 C   0  0  0  0  0  0  0  0  0  0  0  0
   -1.4589    5.4145   -2.9992 H   0  0  0  0  0  0  0  0  0  0  0  0
   -3.2068    4.9880   -1.8078 C   0  0  0  0  0  0  0  0  0  0  0  0
   -3.8589    5.6333   -2.3895 H   0  0  0  0  0  0  0  0  0  0  0  0
   -3.7148    4.2817   -0.7131 C   0  0  0  0  0  0  0  0  0  0  0  0
   -4.7623    4.3791   -0.4428 H   0  0  0  0  0  0  0  0  0  0  0  0
   -2.8732    3.4523    0.0363 C   0  0  0  0  0  0  0  0  0  0  0  0
   -3.2754    2.9075    0.8857 H   0  0  0  0  0  0  0  0  0  0  0  0
    0.7816    0.2965    0.3809 C   0  0  0  0  0  0  0  0  0  0  0  0
    1.5293   -0.2873   -0.3940 O   0  0  0  0  0  0  0  0  0  0  0  0
    1.1319    0.3963    1.7161 N   0  0  0  0  0  0  0  0  0  0  0  0
    0.3526    0.6075    2.3348 H   0  0  0  0  0  0  0  0  0  0  0  0
    2.2424   -0.3616    2.2781 C   0  0  0  0  0  0  0  0  0  0  0  0
    3.1760   -0.1172    1.7607 H   0  0  0  0  0  0  0  0  0  0  0  0
    2.3645   -0.1209    3.3384 H   0  0  0  0  0  0  0  0  0  0  0  0
    2.0574   -1.4369    2.1836 H   0  0  0  0  0  0  0  0  0  0  0  0
  1  2  1  0  0  0  0
  2  3  1  0  0  0  0
  2  4  1  0  0  0  0
  2  5  1  0  0  0  0
  5  6  2  0  0  0  0
  5  7  1  0  0  0  0
  7  8  1  0  0  0  0
  7  9  1  0  0  0  0
  9 10  1  0  0  0  0
  9 11  1  0  0  0  0
  9 25  1  0  0  0  0
 11 12  1  0  0  0  0
 11 13  1  0  0  0  0
 11 14  1  0  0  0  0
 14 15  1  0  0  0  0
 14 23  2  0  0  0  0
 15 16  1  0  0  0  0
 15 17  2  0  0  0  0
 17 18  1  0  0  0  0
 17 19  1  0  0  0  0
 19 20  1  0  0  0  0
 19 21  2  0  0  0  0
 21 22  1  0  0  0  0
 21 23  1  0  0  0  0
 23 24  1  0  0  0  0
 25 26  2  0  0  0  0
 25 27  1  0  0  0  0
 27 28  1  0  0  0  0
 27 29  1  0  0  0  0
 29 30  1  0  0  0  0
 29 31  1  0  0  0  0
 29 32  1  0  0  0  0
M  END
$$$$

  -OEChem-01062216093D

 32 32  0     1  0  0  0  0  0999 V2000
   -3.5511   -2.3948    0.7964 H   0  0  0  0  0  0  0  0  0  0  0  0
   -3.4168   -1.5138    0.1625 C   0  0  0  0  0  0  0  0  0  0  0  0
   -4.2711   -0.8464    0.3000 H   0  0  0  0  0  0  0  0  0  0  0  0
   -3.3787   -1.8364   -0.8810 H   0  0  0  0  0  0  0  0  0  0  0  0
   -2.1319   -0.7961    0.5310 C   0  0  0  0  0  0  0  0  0  0  0  0
   -1.5184   -1.1483    1.5238 O   0  0  0  0  0  0  0  0  0  0  0  0
   -1.7587    0.3219   -0.1901 N   0  0  0  0  0  0  0  0  0  0  0  0
   -2.3932    0.5763   -0.9425 H   0  0  0  0  0  0  0  0  0  0  0  0
   -0.4485    1.0122   -0.2009 C   0  0  1  0  0  0  0  0  0  0  0  0
   -0.1922    1.2006   -1.2490 H   0  0  0  0  0  0  0  0  0  0  0  0
   -0.6208    2.3682    0.5060 C   0  0  0  0  0  0  0  0  0  0  0  0
   -1.0321    2.2157    1.5094 H   0  0  0  0  0  0  0  0  0  0  0  0
    0.3571    2.8472    0.6260 H   0  0  0  0  0  0  0  0  0  0  0  0
   -1.5158    3.2854   -0.2938 C   0  0  0  0  0  0  0  0  0  0  0  0
   -1.0000    4.0046   -1.3821 C   0  0  0  0  0  0  0  0  0  0  0  0
    0.0489    3.9095   -1.6492 H   0  0  0  0  0  0  0  0  0  0  0  0
   -1.8277    4.8471   -2.1318 C   0  0  0  0  0  0  0  0  0  0  0  0
   -1.4192    5.4000   -2.9727 H   0  0  0  0  0  0  0  0  0  0  0  0
   -3.1790    4.9786   -1.7980 C   0  0  0  0  0  0  0  0  0  0  0  0
   -3.8206    5.6343   -2.3795 H   0  0  0  0  0  0  0  0  0  0  0  0
   -3.7012    4.2687   -0.7126 C   0  0  0  0  0  0  0  0  0  0  0  0
   -4.7495    4.3747   -0.4490 H   0  0  0  0  0  0  0  0  0  0  0  0
   -2.8723    3.4263    0.0363 C   0  0  0  0  0  0  0  0  0  0  0  0
   -3.2855    2.8808    0.8797 H   0  0  0  0  0  0  0  0  0  0  0  0
    0.7855    0.2834    0.3895 C   0  0  0  0  0  0  0  0  0  0  0  0
    1.6999   -0.0164   -0.3682 O   0  0  0  0  0  0  0  0  0  0  0  0
    0.9669    0.1416    1.7531 N   0  0  0  0  0  0  0  0  0  0  0  0
    0.0894    0.0689    2.2687 H   0  0  0  0  0  0  0  0  0  0  0  0
    2.1206   -0.5543    2.3087 C   0  0  0  0  0  0  0  0  0  0  0  0
    3.0508   -0.0744    1.9869 H   0  0  0  0  0  0  0  0  0  0  0  0
    2.0835   -0.5312    3.4020 H   0  0  0  0  0  0  0  0  0  0  0  0
    2.1308   -1.5993    1.9819 H   0  0  0  0  0  0  0  0  0  0  0  0
  1  2  1  0  0  0  0
  2  3  1  0  0  0  0
  2  4  1  0  0  0  0
  2  5  1  0  0  0  0
  5  6  2  0  0  0  0
  5  7  1  0  0  0  0
  7  8  1  0  0  0  0
  7  9  1  0  0  0  0
  9 10  1  0  0  0  0
  9 11  1  0  0  0  0
  9 25  1  0  0  0  0
 11 12  1  0  0  0  0
 11 13  1  0  0  0  0
 11 14  1  0  0  0  0
 14 15  1  0  0  0  0
 14 23  2  0  0  0  0
 15 16  1  0  0  0  0
 15 17  2  0  0  0  0
 17 18  1  0  0  0  0
 17 19  1  0  0  0  0
 19 20  1  0  0  0  0
 19 21  2  0  0  0  0
 21 22  1  0  0  0  0
 21 23  1  0  0  0  0
 23 24  1  0  0  0  0
 25 26  2  0  0  0  0
 25 27  1  0  0  0  0
 27 28  1  0  0  0  0
 27 29  1  0  0  0  0
 29 30  1  0  0  0  0
 29 31  1  0  0  0  0
 29 32  1  0  0  0  0
M  END
$$$$

  -OEChem-01062216093D

 32 32  0     1  0  0  0  0  0999 V2000
   -3.7306   -2.3205    0.7428 H   0  0  0  0  0  0  0  0  0  0  0  0
   -3.5394   -1.4369    0.1272 C   0  0  0  0  0  0  0  0  0  0  0  0
   -4.3382   -0.7104    0.2956 H   0  0  0  0  0  0  0  0  0  0  0  0
   -3.5423   -1.7357   -0.9240 H   0  0  0  0  0  0  0  0  0  0  0  0
   -2.1984   -0.8263    0.4892 C   0  0  0  0  0  0  0  0  0  0  0  0
   -1.5849   -1.2779    1.4394 O   0  0  0  0  0  0  0  0  0  0  0  0
   -1.7677    0.2874   -0.2068 N   0  0  0  0  0  0  0  0  0  0  0  0
   -2.4175    0.6156   -0.9167 H   0  0  0  0  0  0  0  0  0  0  0  0
   -0.4512    0.9711   -0.1987 C   0  0  1  0  0  0  0  0  0  0  0  0
   -0.1916    1.1660   -1.2445 H   0  0  0  0  0  0  0  0  0  0  0  0
   -0.6354    2.3202    0.5181 C   0  0  0  0  0  0  0  0  0  0  0  0
   -1.0572    2.1572    1.5156 H   0  0  0  0  0  0  0  0  0  0  0  0
    0.3397    2.8013    0.6548 H   0  0  0  0  0  0  0  0  0  0  0  0
   -1.5207    3.2445   -0.2848 C   0  0  0  0  0  0  0  0  0  0  0  0
   -0.9904    3.9746   -1.3587 C   0  0  0  0  0  0  0  0  0  0  0  0
    0.0620    3.8817   -1.6124 H   0  0  0  0  0  0  0  0  0  0  0  0
   -1.8074    4.8252   -2.1109 C   0  0  0  0  0  0  0  0  0  0  0  0
   -1.3868    5.3870   -2.9399 H   0  0  0  0  0  0  0  0  0  0  0  0
   -3.1627    4.9546   -1.7935 C   0  0  0  0  0  0  0  0  0  0  0  0
   -3.7960    5.6174   -2.3761 H   0  0  0  0  0  0  0  0  0  0  0  0
   -3.6996    4.2343   -0.7220 C   0  0  0  0  0  0  0  0  0  0  0  0
   -4.7509    4.3394   -0.4707 H   0  0  0  0  0  0  0  0  0  0  0  0
   -2.8812    3.3836    0.0296 C   0  0  0  0  0  0  0  0  0  0  0  0
   -3.3053    2.8317    0.8633 H   0  0  0  0  0  0  0  0  0  0  0  0
    0.8033    0.2807    0.3976 C   0  0  0  0  0  0  0  0  0  0  0  0
    1.8194    0.2481   -0.2857 O   0  0  0  0  0  0  0  0  0  0  0  0
    0.8790   -0.1251    1.7163 N   0  0  0  0  0  0  0  0  0  0  0  0
   -0.0276   -0.3636    2.1242 H   0  0  0  0  0  0  0  0  0  0  0  0
    2.0541   -0.7922    2.2623 C   0  0  0  0  0  0  0  0  0  0  0  0
    2.9413   -0.1592    2.1552 H   0  0  0  0  0  0  0  0  0  0  0  0
    1.9076   -1.0003    3.3263 H   0  0  0  0  0  0  0  0  0  0  0  0
    2.2320   -1.7395    1.7429 H   0  0  0  0  0  0  0  0  0  0  0  0
  1  2  1  0  0  0  0
  2  3  1  0  0  0  0
  2  4  1  0  0  0  0
  2  5  1  0  0  0  0
  5  6  2  0  0  0  0
  5  7  1  0  0  0  0
  7  8  1  0  0  0  0
  7  9  1  0  0  0  0
  9 10  1  0  0  0  0
  9 11  1  0  0  0  0
  9 25  1  0  0  0  0
 11 12  1  0  0  0  0
 11 13  1  0  0  0  0
 11 14  1  0  0  0  0
 14 15  1  0  0  0  0
 14 23  2  0  0  0  0
 15 16  1  0  0  0  0
 15 17  2  0  0  0  0
 17 18  1  0  0  0  0
 17 19  1  0  0  0  0
 19 20  1  0  0  0  0
 19 21  2  0  0  0  0
 21 22  1  0  0  0  0
 21 23  1  0  0  0  0
 23 24  1  0  0  0  0
 25 26  2  0  0  0  0
 25 27  1  0  0  0  0
 27 28  1  0  0  0  0
 27 29  1  0  0  0  0
 29 30  1  0  0  0  0
 29 31  1  0  0  0  0
 29 32  1  0  0  0  0
M  END
$$$$

  -OEChem-01062216093D

 32 32  0     1  0  0  0  0  0999 V2000
   -3.8950   -2.2413    0.6859 H   0  0  0  0  0  0  0  0  0  0  0  0
   -3.6508   -1.3554    0.0924 C   0  0  0  0  0  0  0  0  0  0  0  0
   -4.4011   -0.5847    0.2855 H   0  0  0  0  0  0  0  0  0  0  0  0
   -3.6795   -1.6246   -0.9664 H   0  0  0  0  0  0  0  0  0  0  0  0
   -2.2709   -0.8405    0.4588 C   0  0  0  0  0  0  0  0  0  0  0  0
   -1.6713   -1.3763    1.3724 O   0  0  0  0  0  0  0  0  0  0  0  0
   -1.7880    0.2679   -0.2107 N   0  0  0  0  0  0  0  0  0  0  0  0
   -2.4407    0.6547   -0.8878 H   0  0  0  0  0  0  0  0  0  0  0  0
   -0.4624    0.9372   -0.1867 C   0  0  1  0  0  0  0  0  0  0  0  0
   -0.2006    1.1367   -1.2312 H   0  0  0  0  0  0  0  0  0  0  0  0
   -0.6545    2.2824    0.5366 C   0  0  0  0  0  0  0  0  0  0  0  0
   -1.0894    2.1130    1.5273 H   0  0  0  0  0  0  0  0  0  0  0  0
    0.3179    2.7636    0.6900 H   0  0  0  0  0  0  0  0  0  0  0  0
   -1.5271    3.2117   -0.2746 C   0  0  0  0  0  0  0  0  0  0  0  0
   -0.9814    3.9472   -1.3371 C   0  0  0  0  0  0  0  0  0  0  0  0
    0.0745    3.8547   -1.5762 H   0  0  0  0  0  0  0  0  0  0  0  0
   -1.7879    4.8009   -2.0970 C   0  0  0  0  0  0  0  0  0  0  0  0
   -1.3559    5.3664   -2.9177 H   0  0  0  0  0  0  0  0  0  0  0  0
   -3.1477    4.9286   -1.7979 C   0  0  0  0  0  0  0  0  0  0  0  0
   -3.7726    5.5947   -2.3859 H   0  0  0  0  0  0  0  0  0  0  0  0
   -3.6997    4.2030   -0.7378 C   0  0  0  0  0  0  0  0  0  0  0  0
   -4.7547    4.3067   -0.5012 H   0  0  0  0  0  0  0  0  0  0  0  0
   -2.8919    3.3490    0.0210 C   0  0  0  0  0  0  0  0  0  0  0  0
   -3.3277    2.7929    0.8457 H   0  0  0  0  0  0  0  0  0  0  0  0
    0.8097    0.2727    0.4073 C   0  0  0  0  0  0  0  0  0  0  0  0
    1.8691    0.4667   -0.1765 O   0  0  0  0  0  0  0  0  0  0  0  0
    0.8485   -0.4015    1.6116 N   0  0  0  0  0  0  0  0  0  0  0  0
   -0.0583   -0.7272    1.9538 H   0  0  0  0  0  0  0  0  0  0  0  0
    2.0467   -1.0557    2.1218 C   0  0  0  0  0  0  0  0  0  0  0  0
    2.8684   -0.3376    2.2136 H   0  0  0  0  0  0  0  0  0  0  0  0
    1.8507   -1.4801    3.1110 H   0  0  0  0  0  0  0  0  0  0  0  0
    2.3571   -1.8632    1.4506 H   0  0  0  0  0  0  0  0  0  0  0  0
  1  2  1  0  0  0  0
  2  3  1  0  0  0  0
  2  4  1  0  0  0  0
  2  5  1  0  0  0  0
  5  6  2  0  0  0  0
  5  7  1  0  0  0  0
  7  8  1  0  0  0  0
  7  9  1  0  0  0  0
  9 10  1  0  0  0  0
  9 11  1  0  0  0  0
  9 25  1  0  0  0  0
 11 12  1  0  0  0  0
 11 13  1  0  0  0  0
 11 14  1  0  0  0  0
 14 15  1  0  0  0  0
 14 23  2  0  0  0  0
 15 16  1  0  0  0  0
 15 17  2  0  0  0  0
 17 18  1  0  0  0  0
 17 19  1  0  0  0  0
 19 20  1  0  0  0  0
 19 21  2  0  0  0  0
 21 22  1  0  0  0  0
 21 23  1  0  0  0  0
 23 24  1  0  0  0  0
 25 26  2  0  0  0  0
 25 27  1  0  0  0  0
 27 28  1  0  0  0  0
 27 29  1  0  0  0  0
 29 30  1  0  0  0  0
 29 31  1  0  0  0  0
 29 32  1  0  0  0  0
M  END
$$$$

  -OEChem-01062216093D

 32 32  0     1  0  0  0  0  0999 V2000
   -4.0281   -2.1405    0.7844 H   0  0  0  0  0  0  0  0  0  0  0  0
   -3.7649   -1.2547    0.1989 C   0  0  0  0  0  0  0  0  0  0  0  0
   -4.4579   -0.4483    0.4513 H   0  0  0  0  0  0  0  0  0  0  0  0
   -3.8669   -1.4943   -0.8625 H   0  0  0  0  0  0  0  0  0  0  0  0
   -2.3403   -0.8277    0.5019 C   0  0  0  0  0  0  0  0  0  0  0  0
   -1.7393   -1.4039    1.3887 O   0  0  0  0  0  0  0  0  0  0  0  0
   -1.8256    0.2542   -0.1879 N   0  0  0  0  0  0  0  0  0  0  0  0
   -2.4903    0.6744   -0.8329 H   0  0  0  0  0  0  0  0  0  0  0  0
   -0.4814    0.8892   -0.2095 C   0  0  1  0  0  0  0  0  0  0  0  0
   -0.2462    1.0700   -1.2636 H   0  0  0  0  0  0  0  0  0  0  0  0
   -0.6411    2.2464    0.5027 C   0  0  0  0  0  0  0  0  0  0  0  0
   -1.0563    2.0934    1.5046 H   0  0  0  0  0  0  0  0  0  0  0  0
    0.3393    2.7192    0.6304 H   0  0  0  0  0  0  0  0  0  0  0  0
   -1.5180    3.1799   -0.2996 C   0  0  0  0  0  0  0  0  0  0  0  0
   -0.9838    3.8963   -1.3804 C   0  0  0  0  0  0  0  0  0  0  0  0
    0.0661    3.7863   -1.6388 H   0  0  0  0  0  0  0  0  0  0  0  0
   -1.7934    4.7544   -2.1322 C   0  0  0  0  0  0  0  0  0  0  0  0
   -1.3700    5.3052   -2.9672 H   0  0  0  0  0  0  0  0  0  0  0  0
   -3.1448    4.9051   -1.8069 C   0  0  0  0  0  0  0  0  0  0  0  0
   -3.7722    5.5737   -2.3892 H   0  0  0  0  0  0  0  0  0  0  0  0
   -3.6852    4.1994   -0.7274 C   0  0  0  0  0  0  0  0  0  0  0  0
   -4.7331    4.3221   -0.4693 H   0  0  0  0  0  0  0  0  0  0  0  0
   -2.8740    3.3419    0.0240 C   0  0  0  0  0  0  0  0  0  0  0  0
   -3.2997    2.8035    0.8656 H   0  0  0  0  0  0  0  0  0  0  0  0
    0.8094    0.2281    0.3531 C   0  0  0  0  0  0  0  0  0  0  0  0
    1.8731    0.5788   -0.1440 O   0  0  0  0  0  0  0  0  0  0  0  0
    0.8657   -0.6663    1.4024 N   0  0  0  0  0  0  0  0  0  0  0  0
   -0.0294   -1.0311    1.7333 H   0  0  0  0  0  0  0  0  0  0  0  0
    2.0917   -1.3041    1.8643 C   0  0  0  0  0  0  0  0  0  0  0  0
    2.8190   -0.5512    2.1854 H   0  0  0  0  0  0  0  0  0  0  0  0
    1.8770   -1.9600    2.7134 H   0  0  0  0  0  0  0  0  0  0  0  0
    2.5348   -1.9058    1.0641 H   0  0  0  0  0  0  0  0  0  0  0  0
  1  2  1  0  0  0  0
  2  3  1  0  0  0  0
  2  4  1  0  0  0  0
  2  5  1  0  0  0  0
  5  6  2  0  0  0  0
  5  7  1  0  0  0  0
  7  8  1  0  0  0  0
  7  9  1  0  0  0  0
  9 10  1  0  0  0  0
  9 11  1  0  0  0  0
  9 25  1  0  0  0  0
 11 12  1  0  0  0  0
 11 13  1  0  0  0  0
 11 14  1  0  0  0  0
 14 15  1  0  0  0  0
 14 23  2  0  0  0  0
 15 16  1  0  0  0  0
 15 17  2  0  0  0  0
 17 18  1  0  0  0  0
 17 19  1  0  0  0  0
 19 20  1  0  0  0  0
 19 21  2  0  0  0  0
 21 22  1  0  0  0  0
 21 23  1  0  0  0  0
 23 24  1  0  0  0  0
 25 26  2  0  0  0  0
 25 27  1  0  0  0  0
 27 28  1  0  0  0  0
 27 29  1  0  0  0  0
 29 30  1  0  0  0  0
 29 31  1  0  0  0  0
 29 32  1  0  0  0  0
M  END
$$$$

  -OEChem-01062216093D

 32 32  0     1  0  0  0  0  0999 V2000
   -3.3631   -2.3783    1.0320 H   0  0  0  0  0  0  0  0  0  0  0  0
   -3.2029   -1.5379    0.3503 C   0  0  0  0  0  0  0  0  0  0  0  0
   -4.0957   -0.9076    0.3516 H   0  0  0  0  0  0  0  0  0  0  0  0
   -3.0422   -1.9299   -0.6569 H   0  0  0  0  0  0  0  0  0  0  0  0
   -1.9977   -0.7282    0.7908 C   0  0  0  0  0  0  0  0  0  0  0  0
   -1.5249   -0.9332    1.8920 O   0  0  0  0  0  0  0  0  0  0  0  0
   -1.6087    0.3492    0.0220 N   0  0  0  0  0  0  0  0  0  0  0  0
   -2.2323    0.5345   -0.7587 H   0  0  0  0  0  0  0  0  0  0  0  0
   -0.3230    1.0894   -0.0411 C   0  0  1  0  0  0  0  0  0  0  0  0
   -0.1016    1.2311   -1.1033 H   0  0  0  0  0  0  0  0  0  0  0  0
   -0.6381    2.4666    0.5864 C   0  0  0  0  0  0  0  0  0  0  0  0
   -1.0526    2.3262    1.5907 H   0  0  0  0  0  0  0  0  0  0  0  0
    0.2762    3.0579    0.7016 H   0  0  0  0  0  0  0  0  0  0  0  0
   -1.5949    3.2537   -0.2801 C   0  0  0  0  0  0  0  0  0  0  0  0
   -1.1225    3.9581   -1.3971 C   0  0  0  0  0  0  0  0  0  0  0  0
   -0.0627    3.9475   -1.6364 H   0  0  0  0  0  0  0  0  0  0  0  0
   -2.0066    4.6784   -2.2076 C   0  0  0  0  0  0  0  0  0  0  0  0
   -1.6314    5.2211   -3.0703 H   0  0  0  0  0  0  0  0  0  0  0  0
   -3.3712    4.7042   -1.9038 C   0  0  0  0  0  0  0  0  0  0  0  0
   -4.0570    5.2669   -2.5305 H   0  0  0  0  0  0  0  0  0  0  0  0
   -3.8501    4.0107   -0.7880 C   0  0  0  0  0  0  0  0  0  0  0  0
   -4.9085    4.0359   -0.5457 H   0  0  0  0  0  0  0  0  0  0  0  0
   -2.9648    3.2895    0.0204 C   0  0  0  0  0  0  0  0  0  0  0  0
   -3.3426    2.7559    0.8878 H   0  0  0  0  0  0  0  0  0  0  0  0
    1.0349    0.5819    0.5448 C   0  0  0  0  0  0  0  0  0  0  0  0
    2.0253    1.2812    0.3883 O   0  0  0  0  0  0  0  0  0  0  0  0
    1.3077   -0.4335    1.4288 N   0  0  0  0  0  0  0  0  0  0  0  0
    2.1997   -0.2606    1.8839 H   0  0  0  0  0  0  0  0  0  0  0  0
    1.1168   -1.8195    1.0182 C   0  0  0  0  0  0  0  0  0  0  0  0
    2.0774   -2.2585    0.7310 H   0  0  0  0  0  0  0  0  0  0  0  0
    0.7009   -2.4038    1.8453 H   0  0  0  0  0  0  0  0  0  0  0  0
    0.4404   -1.8975    0.1616 H   0  0  0  0  0  0  0  0  0  0  0  0
  1  2  1  0  0  0  0
  2  3  1  0  0  0  0
  2  4  1  0  0  0  0
  2  5  1  0  0  0  0
  5  6  2  0  0  0  0
  5  7  1  0  0  0  0
  7  8  1  0  0  0  0
  7  9  1  0  0  0  0
  9 10  1  0  0  0  0
  9 11  1  0  0  0  0
  9 25  1  0  0  0  0
 11 12  1  0  0  0  0
 11 13  1  0  0  0  0
 11 14  1  0  0  0  0
 14 15  1  0  0  0  0
 14 23  2  0  0  0  0
 15 16  1  0  0  0  0
 15 17  2  0  0  0  0
 17 18  1  0  0  0  0
 17 19  1  0  0  0  0
 19 20  1  0  0  0  0
 19 21  2  0  0  0  0
 21 22  1  0  0  0  0
 21 23  1  0  0  0  0
 23 24  1  0  0  0  0
 25 26  2  0  0  0  0
 25 27  1  0  0  0  0
 27 28  1  0  0  0  0
 27 29  1  0  0  0  0
 29 30  1  0  0  0  0
 29 31  1  0  0  0  0
 29 32  1  0  0  0  0
M  END
$$$$

  -OEChem-01062216093D

 32 32  0     1  0  0  0  0  0999 V2000
   -3.7267   -2.3083    0.9548 H   0  0  0  0  0  0  0  0  0  0  0  0
   -3.5581   -1.4743    0.2676 C   0  0  0  0  0  0  0  0  0  0  0  0
   -4.3274   -0.7173    0.4376 H   0  0  0  0  0  0  0  0  0  0  0  0
   -3.6387   -1.8439   -0.7575 H   0  0  0  0  0  0  0  0  0  0  0  0
   -2.1818   -0.8769    0.4955 C   0  0  0  0  0  0  0  0  0  0  0  0
   -1.5264   -1.2751    1.4369 O   0  0  0  0  0  0  0  0  0  0  0  0
   -1.8116    0.2206   -0.2552 N   0  0  0  0  0  0  0  0  0  0  0  0
   -2.5492    0.5464   -0.8733 H   0  0  0  0  0  0  0  0  0  0  0  0
   -0.4786    0.8020   -0.5551 C   0  0  1  0  0  0  0  0  0  0  0  0
   -0.4796    1.0338   -1.6250 H   0  0  0  0  0  0  0  0  0  0  0  0
   -0.4122    2.1214    0.2390 C   0  0  0  0  0  0  0  0  0  0  0  0
   -0.6006    1.9235    1.2999 H   0  0  0  0  0  0  0  0  0  0  0  0
    0.5918    2.5540    0.1671 H   0  0  0  0  0  0  0  0  0  0  0  0
   -1.4011    3.1309   -0.2957 C   0  0  0  0  0  0  0  0  0  0  0  0
   -1.0904    3.8912   -1.4324 C   0  0  0  0  0  0  0  0  0  0  0  0
   -0.1329    3.7585   -1.9285 H   0  0  0  0  0  0  0  0  0  0  0  0
   -2.0058    4.8223   -1.9343 C   0  0  0  0  0  0  0  0  0  0  0  0
   -1.7555    5.4077   -2.8142 H   0  0  0  0  0  0  0  0  0  0  0  0
   -3.2399    5.0014   -1.3014 C   0  0  0  0  0  0  0  0  0  0  0  0
   -3.9491    5.7271   -1.6890 H   0  0  0  0  0  0  0  0  0  0  0  0
   -3.5569    4.2496   -0.1657 C   0  0  0  0  0  0  0  0  0  0  0  0
   -4.5127    4.3913    0.3303 H   0  0  0  0  0  0  0  0  0  0  0  0
   -2.6401    3.3191    0.3349 C   0  0  0  0  0  0  0  0  0  0  0  0
   -2.8912    2.7408    1.2194 H   0  0  0  0  0  0  0  0  0  0  0  0
    0.8791    0.0711   -0.3321 C   0  0  0  0  0  0  0  0  0  0  0  0
    1.8363    0.4711   -0.9788 O   0  0  0  0  0  0  0  0  0  0  0  0
    1.1184   -1.1877    0.1604 N   0  0  0  0  0  0  0  0  0  0  0  0
    1.8750   -1.6078   -0.3719 H   0  0  0  0  0  0  0  0  0  0  0  0
    1.3415   -1.2983    1.5981 C   0  0  0  0  0  0  0  0  0  0  0  0
    0.8317   -0.4990    2.1471 H   0  0  0  0  0  0  0  0  0  0  0  0
    0.9675   -2.2598    1.9638 H   0  0  0  0  0  0  0  0  0  0  0  0
    2.4115   -1.2323    1.8185 H   0  0  0  0  0  0  0  0  0  0  0  0
  1  2  1  0  0  0  0
  2  3  1  0  0  0  0
  2  4  1  0  0  0  0
  2  5  1  0  0  0  0
  5  6  2  0  0  0  0
  5  7  1  0  0  0  0
  7  8  1  0  0  0  0
  7  9  1  0  0  0  0
  9 10  1  0  0  0  0
  9 11  1  0  0  0  0
  9 25  1  0  0  0  0
 11 12  1  0  0  0  0
 11 13  1  0  0  0  0
 11 14  1  0  0  0  0
 14 15  1  0  0  0  0
 14 23  2  0  0  0  0
 15 16  1  0  0  0  0
 15 17  2  0  0  0  0
 17 18  1  0  0  0  0
 17 19  1  0  0  0  0
 19 20  1  0  0  0  0
 19 21  2  0  0  0  0
 21 22  1  0  0  0  0
 21 23  1  0  0  0  0
 23 24  1  0  0  0  0
 25 26  2  0  0  0  0
 25 27  1  0  0  0  0
 27 28  1  0  0  0  0
 27 29  1  0  0  0  0
 29 30  1  0  0  0  0
 29 31  1  0  0  0  0
 29 32  1  0  0  0  0
M  END
$$$$

  -OEChem-01062216093D

 32 32  0     1  0  0  0  0  0999 V2000
   -3.9771   -2.1349    0.7432 H   0  0  0  0  0  0  0  0  0  0  0  0
   -3.7146   -1.2611    0.1399 C   0  0  0  0  0  0  0  0  0  0  0  0
   -4.4047   -0.4487    0.3803 H   0  0  0  0  0  0  0  0  0  0  0  0
   -3.8202   -1.5199   -0.9164 H   0  0  0  0  0  0  0  0  0  0  0  0
   -2.2878   -0.8325    0.4286 C   0  0  0  0  0  0  0  0  0  0  0  0
   -1.6566   -1.4367    1.2758 O   0  0  0  0  0  0  0  0  0  0  0  0
   -1.7905    0.2747   -0.2323 N   0  0  0  0  0  0  0  0  0  0  0  0
   -2.4718    0.7313   -0.8340 H   0  0  0  0  0  0  0  0  0  0  0  0
   -0.4421    0.9010   -0.2560 C   0  0  1  0  0  0  0  0  0  0  0  0
   -0.2125    1.1123   -1.3049 H   0  0  0  0  0  0  0  0  0  0  0  0
   -0.6166    2.2422    0.4937 C   0  0  0  0  0  0  0  0  0  0  0  0
   -1.0271    2.0572    1.4917 H   0  0  0  0  0  0  0  0  0  0  0  0
    0.3502    2.7363    0.6359 H   0  0  0  0  0  0  0  0  0  0  0  0
   -1.5071    3.1837   -0.2853 C   0  0  0  0  0  0  0  0  0  0  0  0
   -0.9843    3.9324   -1.3497 C   0  0  0  0  0  0  0  0  0  0  0  0
    0.0662    3.8416   -1.6123 H   0  0  0  0  0  0  0  0  0  0  0  0
   -1.8063    4.7975   -2.0797 C   0  0  0  0  0  0  0  0  0  0  0  0
   -1.3923    5.3728   -2.9027 H   0  0  0  0  0  0  0  0  0  0  0  0
   -3.1585    4.9246   -1.7471 C   0  0  0  0  0  0  0  0  0  0  0  0
   -3.7955    5.5989   -2.3123 H   0  0  0  0  0  0  0  0  0  0  0  0
   -3.6867    4.1890   -0.6818 C   0  0  0  0  0  0  0  0  0  0  0  0
   -4.7348    4.2947   -0.4171 H   0  0  0  0  0  0  0  0  0  0  0  0
   -2.8634    3.3238    0.0471 C   0  0  0  0  0  0  0  0  0  0  0  0
   -3.2796    2.7624    0.8784 H   0  0  0  0  0  0  0  0  0  0  0  0
    0.8435    0.1825    0.2591 C   0  0  0  0  0  0  0  0  0  0  0  0
    1.8886    0.8221    0.2985 O   0  0  0  0  0  0  0  0  0  0  0  0
    0.9349   -1.1734    0.5063 N   0  0  0  0  0  0  0  0  0  0  0  0
    0.0436   -1.6395    0.6813 H   0  0  0  0  0  0  0  0  0  0  0  0
    2.1448   -1.8166    1.0041 C   0  0  0  0  0  0  0  0  0  0  0  0
    2.4344   -1.3930    1.9714 H   0  0  0  0  0  0  0  0  0  0  0  0
    1.9742   -2.8898    1.1318 H   0  0  0  0  0  0  0  0  0  0  0  0
    2.9702   -1.6814    0.2975 H   0  0  0  0  0  0  0  0  0  0  0  0
  1  2  1  0  0  0  0
  2  3  1  0  0  0  0
  2  4  1  0  0  0  0
  2  5  1  0  0  0  0
  5  6  2  0  0  0  0
  5  7  1  0  0  0  0
  7  8  1  0  0  0  0
  7  9  1  0  0  0  0
  9 10  1  0  0  0  0
  9 11  1  0  0  0  0
  9 25  1  0  0  0  0
 11 12  1  0  0  0  0
 11 13  1  0  0  0  0
 11 14  1  0  0  0  0
 14 15  1  0  0  0  0
 14 23  2  0  0  0  0
 15 16  1  0  0  0  0
 15 17  2  0  0  0  0
 17 18  1  0  0  0  0
 17 19  1  0  0  0  0
 19 20  1  0  0  0  0
 19 21  2  0  0  0  0
 21 22  1  0  0  0  0
 21 23  1  0  0  0  0
 23 24  1  0  0  0  0
 25 26  2  0  0  0  0
 25 27  1  0  0  0  0
 27 28  1  0  0  0  0
 27 29  1  0  0  0  0
 29 30  1  0  0  0  0
 29 31  1  0  0  0  0
 29 32  1  0  0  0  0
M  END
$$$$

  -OEChem-01062216093D

 32 32  0     1  0  0  0  0  0999 V2000
   -3.8869   -2.1368    0.8094 H   0  0  0  0  0  0  0  0  0  0  0  0
   -3.6527   -1.2569    0.2033 C   0  0  0  0  0  0  0  0  0  0  0  0
   -4.3174   -0.4412    0.4984 H   0  0  0  0  0  0  0  0  0  0  0  0
   -3.8270   -1.4983   -0.8481 H   0  0  0  0  0  0  0  0  0  0  0  0
   -2.2060   -0.8477    0.4087 C   0  0  0  0  0  0  0  0  0  0  0  0
   -1.5129   -1.5040    1.1636 O   0  0  0  0  0  0  0  0  0  0  0  0
   -1.7419    0.2766   -0.2478 N   0  0  0  0  0  0  0  0  0  0  0  0
   -2.4524    0.7619   -0.7906 H   0  0  0  0  0  0  0  0  0  0  0  0
   -0.4059    0.9269   -0.2633 C   0  0  1  0  0  0  0  0  0  0  0  0
   -0.1687    1.1431   -1.3093 H   0  0  0  0  0  0  0  0  0  0  0  0
   -0.6053    2.2660    0.4858 C   0  0  0  0  0  0  0  0  0  0  0  0
   -1.0146    2.0747    1.4832 H   0  0  0  0  0  0  0  0  0  0  0  0
    0.3517    2.7784    0.6281 H   0  0  0  0  0  0  0  0  0  0  0  0
   -1.5076    3.1935   -0.2966 C   0  0  0  0  0  0  0  0  0  0  0  0
   -0.9940    3.9513   -1.3591 C   0  0  0  0  0  0  0  0  0  0  0  0
    0.0579    3.8759   -1.6209 H   0  0  0  0  0  0  0  0  0  0  0  0
   -1.8266    4.8071   -2.0880 C   0  0  0  0  0  0  0  0  0  0  0  0
   -1.4194    5.3896   -2.9094 H   0  0  0  0  0  0  0  0  0  0  0  0
   -3.1801    4.9171   -1.7552 C   0  0  0  0  0  0  0  0  0  0  0  0
   -3.8248    5.5859   -2.3181 H   0  0  0  0  0  0  0  0  0  0  0  0
   -3.6996    4.1728   -0.6916 C   0  0  0  0  0  0  0  0  0  0  0  0
   -4.7488    4.2660   -0.4264 H   0  0  0  0  0  0  0  0  0  0  0  0
   -2.8657    3.3164    0.0355 C   0  0  0  0  0  0  0  0  0  0  0  0
   -3.2751    2.7503    0.8668 H   0  0  0  0  0  0  0  0  0  0  0  0
    0.8690    0.1945    0.2580 C   0  0  0  0  0  0  0  0  0  0  0  0
    1.8636    0.8499    0.5482 O   0  0  0  0  0  0  0  0  0  0  0  0
    1.0171   -1.1782    0.1933 N   0  0  0  0  0  0  0  0  0  0  0  0
    0.1352   -1.6897    0.2449 H   0  0  0  0  0  0  0  0  0  0  0  0
    2.2122   -1.8644    0.6695 C   0  0  0  0  0  0  0  0  0  0  0  0
    2.3710   -1.6632    1.7340 H   0  0  0  0  0  0  0  0  0  0  0  0
    2.1050   -2.9446    0.5317 H   0  0  0  0  0  0  0  0  0  0  0  0
    3.0944   -1.5324    0.1120 H   0  0  0  0  0  0  0  0  0  0  0  0
  1  2  1  0  0  0  0
  2  3  1  0  0  0  0
  2  4  1  0  0  0  0
  2  5  1  0  0  0  0
  5  6  2  0  0  0  0
  5  7  1  0  0  0  0
  7  8  1  0  0  0  0
  7  9  1  0  0  0  0
  9 10  1  0  0  0  0
  9 11  1  0  0  0  0
  9 25  1  0  0  0  0
 11 12  1  0  0  0  0
 11 13  1  0  0  0  0
 11 14  1  0  0  0  0
 14 15  1  0  0  0  0
 14 23  2  0  0  0  0
 15 16  1  0  0  0  0
 15 17  2  0  0  0  0
 17 18  1  0  0  0  0
 17 19  1  0  0  0  0
 19 20  1  0  0  0  0
 19 21  2  0  0  0  0
 21 22  1  0  0  0  0
 21 23  1  0  0  0  0
 23 24  1  0  0  0  0
 25 26  2  0  0  0  0
 25 27  1  0  0  0  0
 27 28  1  0  0  0  0
 27 29  1  0  0  0  0
 29 30  1  0  0  0  0
 29 31  1  0  0  0  0
 29 32  1  0  0  0  0
M  END
$$$$

  -OEChem-01062216093D

 32 32  0     1  0  0  0  0  0999 V2000
   -3.7763   -2.1439    0.8939 H   0  0  0  0  0  0  0  0  0  0  0  0
   -3.5777   -1.2650    0.2738 C   0  0  0  0  0  0  0  0  0  0  0  0
   -4.2126   -0.4444    0.6163 H   0  0  0  0  0  0  0  0  0  0  0  0
   -3.8281   -1.5025   -0.7630 H   0  0  0  0  0  0  0  0  0  0  0  0
   -2.1165   -0.8691    0.3769 C   0  0  0  0  0  0  0  0  0  0  0  0
   -1.3615   -1.5738    1.0202 O   0  0  0  0  0  0  0  0  0  0  0  0
   -1.6942    0.2737   -0.2766 N   0  0  0  0  0  0  0  0  0  0  0  0
   -2.4367    0.7875   -0.7451 H   0  0  0  0  0  0  0  0  0  0  0  0
   -0.3745    0.9533   -0.2740 C   0  0  1  0  0  0  0  0  0  0  0  0
   -0.1227    1.1790   -1.3147 H   0  0  0  0  0  0  0  0  0  0  0  0
   -0.6007    2.2871    0.4762 C   0  0  0  0  0  0  0  0  0  0  0  0
   -1.0131    2.0873    1.4708 H   0  0  0  0  0  0  0  0  0  0  0  0
    0.3485    2.8124    0.6236 H   0  0  0  0  0  0  0  0  0  0  0  0
   -1.5108    3.2042   -0.3089 C   0  0  0  0  0  0  0  0  0  0  0  0
   -1.0011    3.9740   -1.3649 C   0  0  0  0  0  0  0  0  0  0  0  0
    0.0530    3.9136   -1.6212 H   0  0  0  0  0  0  0  0  0  0  0  0
   -1.8401    4.8249   -2.0923 C   0  0  0  0  0  0  0  0  0  0  0  0
   -1.4357    5.4181   -2.9074 H   0  0  0  0  0  0  0  0  0  0  0  0
   -3.1963    4.9175   -1.7653 C   0  0  0  0  0  0  0  0  0  0  0  0
   -3.8460    5.5831   -2.3263 H   0  0  0  0  0  0  0  0  0  0  0  0
   -3.7120    4.1605   -0.7088 C   0  0  0  0  0  0  0  0  0  0  0  0
   -4.7630    4.2413   -0.4471 H   0  0  0  0  0  0  0  0  0  0  0  0
   -2.8720    3.3087    0.0167 C   0  0  0  0  0  0  0  0  0  0  0  0
   -3.2792    2.7343    0.8437 H   0  0  0  0  0  0  0  0  0  0  0  0
    0.8846    0.2085    0.2646 C   0  0  0  0  0  0  0  0  0  0  0  0
    1.7804    0.8271    0.8287 O   0  0  0  0  0  0  0  0  0  0  0  0
    1.1381   -1.1024   -0.0962 N   0  0  0  0  0  0  0  0  0  0  0  0
    0.2901   -1.6488   -0.2421 H   0  0  0  0  0  0  0  0  0  0  0  0
    2.3124   -1.8250    0.3787 C   0  0  0  0  0  0  0  0  0  0  0  0
    2.3095   -1.8836    1.4722 H   0  0  0  0  0  0  0  0  0  0  0  0
    2.3159   -2.8424   -0.0235 H   0  0  0  0  0  0  0  0  0  0  0  0
    3.2305   -1.3242    0.0540 H   0  0  0  0  0  0  0  0  0  0  0  0
  1  2  1  0  0  0  0
  2  3  1  0  0  0  0
  2  4  1  0  0  0  0
  2  5  1  0  0  0  0
  5  6  2  0  0  0  0
  5  7  1  0  0  0  0
  7  8  1  0  0  0  0
  7  9  1  0  0  0  0
  9 10  1  0  0  0  0
  9 11  1  0  0  0  0
  9 25  1  0  0  0  0
 11 12  1  0  0  0  0
 11 13  1  0  0  0  0
 11 14  1  0  0  0  0
 14 15  1  0  0  0  0
 14 23  2  0  0  0  0
 15 16  1  0  0  0  0
 15 17  2  0  0  0  0
 17 18  1  0  0  0  0
 17 19  1  0  0  0  0
 19 20  1  0  0  0  0
 19 21  2  0  0  0  0
 21 22  1  0  0  0  0
 21 23  1  0  0  0  0
 23 24  1  0  0  0  0
 25 26  2  0  0  0  0
 25 27  1  0  0  0  0
 27 28  1  0  0  0  0
 27 29  1  0  0  0  0
 29 30  1  0  0  0  0
 29 31  1  0  0  0  0
 29 32  1  0  0  0  0
M  END
$$$$

  -OEChem-01062216093D

 32 32  0     1  0  0  0  0  0999 V2000
   -3.6590   -2.1673    0.9432 H   0  0  0  0  0  0  0  0  0  0  0  0
   -3.4966   -1.2834    0.3194 C   0  0  0  0  0  0  0  0  0  0  0  0
   -4.1208   -0.4693    0.6959 H   0  0  0  0  0  0  0  0  0  0  0  0
   -3.7933   -1.5171   -0.7062 H   0  0  0  0  0  0  0  0  0  0  0  0
   -2.0351   -0.8767    0.3569 C   0  0  0  0  0  0  0  0  0  0  0  0
   -1.2392   -1.5942    0.9338 O   0  0  0  0  0  0  0  0  0  0  0  0
   -1.6539    0.2782   -0.3016 N   0  0  0  0  0  0  0  0  0  0  0  0
   -2.4209    0.7997   -0.7194 H   0  0  0  0  0  0  0  0  0  0  0  0
   -0.3498    0.9835   -0.2879 C   0  0  1  0  0  0  0  0  0  0  0  0
   -0.0882    1.2178   -1.3240 H   0  0  0  0  0  0  0  0  0  0  0  0
   -0.5872    2.3110    0.4666 C   0  0  0  0  0  0  0  0  0  0  0  0
   -0.9958    2.1050    1.4615 H   0  0  0  0  0  0  0  0  0  0  0  0
    0.3616    2.8384    0.6125 H   0  0  0  0  0  0  0  0  0  0  0  0
   -1.5064    3.2213   -0.3153 C   0  0  0  0  0  0  0  0  0  0  0  0
   -1.0077    4.0001   -1.3699 C   0  0  0  0  0  0  0  0  0  0  0  0
    0.0468    3.9555   -1.6273 H   0  0  0  0  0  0  0  0  0  0  0  0
   -1.8593    4.8390   -2.0969 C   0  0  0  0  0  0  0  0  0  0  0  0
   -1.4643    5.4379   -2.9126 H   0  0  0  0  0  0  0  0  0  0  0  0
   -3.2168    4.9114   -1.7700 C   0  0  0  0  0  0  0  0  0  0  0  0
   -3.8765    5.5669   -2.3314 H   0  0  0  0  0  0  0  0  0  0  0  0
   -3.7213    4.1465   -0.7140 C   0  0  0  0  0  0  0  0  0  0  0  0
   -4.7734    4.2114   -0.4522 H   0  0  0  0  0  0  0  0  0  0  0  0
   -2.8689    3.3065    0.0108 C   0  0  0  0  0  0  0  0  0  0  0  0
   -3.2675    2.7257    0.8375 H   0  0  0  0  0  0  0  0  0  0  0  0
    0.8925    0.2290    0.2669 C   0  0  0  0  0  0  0  0  0  0  0  0
    1.6364    0.7470    1.0929 O   0  0  0  0  0  0  0  0  0  0  0  0
    1.2986   -0.9480   -0.3362 N   0  0  0  0  0  0  0  0  0  0  0  0
    0.5465   -1.4649   -0.7838 H   0  0  0  0  0  0  0  0  0  0  0  0
    2.4302   -1.7193    0.1640 C   0  0  0  0  0  0  0  0  0  0  0  0
    2.2477   -2.0383    1.1957 H   0  0  0  0  0  0  0  0  0  0  0  0
    2.5828   -2.6093   -0.4534 H   0  0  0  0  0  0  0  0  0  0  0  0
    3.3469   -1.1208    0.1362 H   0  0  0  0  0  0  0  0  0  0  0  0
  1  2  1  0  0  0  0
  2  3  1  0  0  0  0
  2  4  1  0  0  0  0
  2  5  1  0  0  0  0
  5  6  2  0  0  0  0
  5  7  1  0  0  0  0
  7  8  1  0  0  0  0
  7  9  1  0  0  0  0
  9 10  1  0  0  0  0
  9 11  1  0  0  0  0
  9 25  1  0  0  0  0
 11 12  1  0  0  0  0
 11 13  1  0  0  0  0
 11 14  1  0  0  0  0
 14 15  1  0  0  0  0
 14 23  2  0  0  0  0
 15 16  1  0  0  0  0
 15 17  2  0  0  0  0
 17 18  1  0  0  0  0
 17 19  1  0  0  0  0
 19 20  1  0  0  0  0
 19 21  2  0  0  0  0
 21 22  1  0  0  0  0
 21 23  1  0  0  0  0
 23 24  1  0  0  0  0
 25 26  2  0  0  0  0
 25 27  1  0  0  0  0
 27 28  1  0  0  0  0
 27 29  1  0  0  0  0
 29 30  1  0  0  0  0
 29 31  1  0  0  0  0
 29 32  1  0  0  0  0
M  END
$$$$

  -OEChem-01062216093D

 32 32  0     1  0  0  0  0  0999 V2000
   -3.5961   -2.1737    0.9857 H   0  0  0  0  0  0  0  0  0  0  0  0
   -3.4568   -1.2913    0.3545 C   0  0  0  0  0  0  0  0  0  0  0  0
   -4.0650   -0.4763    0.7540 H   0  0  0  0  0  0  0  0  0  0  0  0
   -3.7920   -1.5259   -0.6586 H   0  0  0  0  0  0  0  0  0  0  0  0
   -1.9944   -0.8870    0.3361 C   0  0  0  0  0  0  0  0  0  0  0  0
   -1.1749   -1.6215    0.8565 O   0  0  0  0  0  0  0  0  0  0  0  0
   -1.6369    0.2734   -0.3272 N   0  0  0  0  0  0  0  0  0  0  0  0
   -2.4183    0.8032   -0.7053 H   0  0  0  0  0  0  0  0  0  0  0  0
   -0.3429    0.9937   -0.2991 C   0  0  1  0  0  0  0  0  0  0  0  0
   -0.0710    1.2368   -1.3306 H   0  0  0  0  0  0  0  0  0  0  0  0
   -0.5880    2.3145    0.4613 C   0  0  0  0  0  0  0  0  0  0  0  0
   -1.0004    2.1010    1.4532 H   0  0  0  0  0  0  0  0  0  0  0  0
    0.3618    2.8382    0.6153 H   0  0  0  0  0  0  0  0  0  0  0  0
   -1.5083    3.2254   -0.3177 C   0  0  0  0  0  0  0  0  0  0  0  0
   -1.0083    4.0119   -1.3657 C   0  0  0  0  0  0  0  0  0  0  0  0
    0.0475    3.9743   -1.6182 H   0  0  0  0  0  0  0  0  0  0  0  0
   -1.8606    4.8498   -2.0924 C   0  0  0  0  0  0  0  0  0  0  0  0
   -1.4645    5.4557   -2.9021 H   0  0  0  0  0  0  0  0  0  0  0  0
   -3.2204    4.9120   -1.7729 C   0  0  0  0  0  0  0  0  0  0  0  0
   -3.8807    5.5667   -2.3345 H   0  0  0  0  0  0  0  0  0  0  0  0
   -3.7264    4.1378   -0.7243 C   0  0  0  0  0  0  0  0  0  0  0  0
   -4.7807    4.1939   -0.4692 H   0  0  0  0  0  0  0  0  0  0  0  0
   -2.8730    3.2995    0.0010 C   0  0  0  0  0  0  0  0  0  0  0  0
   -3.2725    2.7103    0.8213 H   0  0  0  0  0  0  0  0  0  0  0  0
    0.8883    0.2401    0.2749 C   0  0  0  0  0  0  0  0  0  0  0  0
    1.4613    0.6288    1.2873 O   0  0  0  0  0  0  0  0  0  0  0  0
    1.4889   -0.7446   -0.4893 N   0  0  0  0  0  0  0  0  0  0  0  0
    0.8895   -1.1725   -1.1885 H   0  0  0  0  0  0  0  0  0  0  0  0
    2.6138   -1.5278    0.0073 C   0  0  0  0  0  0  0  0  0  0  0  0
    2.3301   -2.0690    0.9162 H   0  0  0  0  0  0  0  0  0  0  0  0
    2.9307   -2.2548   -0.7464 H   0  0  0  0  0  0  0  0  0  0  0  0
    3.4643   -0.8768    0.2356 H   0  0  0  0  0  0  0  0  0  0  0  0
  1  2  1  0  0  0  0
  2  3  1  0  0  0  0
  2  4  1  0  0  0  0
  2  5  1  0  0  0  0
  5  6  2  0  0  0  0
  5  7  1  0  0  0  0
  7  8  1  0  0  0  0
  7  9  1  0  0  0  0
  9 10  1  0  0  0  0
  9 11  1  0  0  0  0
  9 25  1  0  0  0  0
 11 12  1  0  0  0  0
 11 13  1  0  0  0  0
 11 14  1  0  0  0  0
 14 15  1  0  0  0  0
 14 23  2  0  0  0  0
 15 16  1  0  0  0  0
 15 17  2  0  0  0  0
 17 18  1  0  0  0  0
 17 19  1  0  0  0  0
 19 20  1  0  0  0  0
 19 21  2  0  0  0  0
 21 22  1  0  0  0  0
 21 23  1  0  0  0  0
 23 24  1  0  0  0  0
 25 26  2  0  0  0  0
 25 27  1  0  0  0  0
 27 28  1  0  0  0  0
 27 29  1  0  0  0  0
 29 30  1  0  0  0  0
 29 31  1  0  0  0  0
 29 32  1  0  0  0  0
M  END
$$$$

  -OEChem-01062216093D

 32 32  0     1  0  0  0  0  0999 V2000
   -3.5777   -2.1825    1.0021 H   0  0  0  0  0  0  0  0  0  0  0  0
   -3.4520   -1.2905    0.3817 C   0  0  0  0  0  0  0  0  0  0  0  0
   -4.0329   -0.4749    0.8189 H   0  0  0  0  0  0  0  0  0  0  0  0
   -3.8299   -1.5025   -0.6214 H   0  0  0  0  0  0  0  0  0  0  0  0
   -1.9859   -0.9050    0.3129 C   0  0  0  0  0  0  0  0  0  0  0  0
   -1.1561   -1.6666    0.7750 O   0  0  0  0  0  0  0  0  0  0  0  0
   -1.6376    0.2593   -0.3490 N   0  0  0  0  0  0  0  0  0  0  0  0
   -2.4267    0.8018   -0.6909 H   0  0  0  0  0  0  0  0  0  0  0  0
   -0.3480    0.9851   -0.3046 C   0  0  1  0  0  0  0  0  0  0  0  0
   -0.0705    1.2356   -1.3326 H   0  0  0  0  0  0  0  0  0  0  0  0
   -0.5957    2.3015    0.4613 C   0  0  0  0  0  0  0  0  0  0  0  0
   -1.0177    2.0830    1.4483 H   0  0  0  0  0  0  0  0  0  0  0  0
    0.3565    2.8172    0.6271 H   0  0  0  0  0  0  0  0  0  0  0  0
   -1.5100    3.2187   -0.3178 C   0  0  0  0  0  0  0  0  0  0  0  0
   -1.0025    4.0106   -1.3584 C   0  0  0  0  0  0  0  0  0  0  0  0
    0.0549    3.9744   -1.6040 H   0  0  0  0  0  0  0  0  0  0  0  0
   -1.8493    4.8526   -2.0870 C   0  0  0  0  0  0  0  0  0  0  0  0
   -1.4476    5.4620   -2.8912 H   0  0  0  0  0  0  0  0  0  0  0  0
   -3.2114    4.9133   -1.7778 C   0  0  0  0  0  0  0  0  0  0  0  0
   -3.8678    5.5696   -2.3422 H   0  0  0  0  0  0  0  0  0  0  0  0
   -3.7250    4.1347   -0.7361 C   0  0  0  0  0  0  0  0  0  0  0  0
   -4.7813    4.1901   -0.4887 H   0  0  0  0  0  0  0  0  0  0  0  0
   -2.8768    3.2931   -0.0079 C   0  0  0  0  0  0  0  0  0  0  0  0
   -3.2826    2.7014    0.8075 H   0  0  0  0  0  0  0  0  0  0  0  0
    0.8790    0.2368    0.2823 C   0  0  0  0  0  0  0  0  0  0  0  0
    1.2822    0.4729    1.4163 O   0  0  0  0  0  0  0  0  0  0  0  0
    1.6818   -0.5074   -0.5642 N   0  0  0  0  0  0  0  0  0  0  0  0
    1.2515   -0.8049   -1.4342 H   0  0  0  0  0  0  0  0  0  0  0  0
    2.8348   -1.2571   -0.0800 C   0  0  0  0  0  0  0  0  0  0  0  0
    2.5259   -1.9861    0.6767 H   0  0  0  0  0  0  0  0  0  0  0  0
    3.3106   -1.7938   -0.9061 H   0  0  0  0  0  0  0  0  0  0  0  0
    3.5740   -0.5813    0.3626 H   0  0  0  0  0  0  0  0  0  0  0  0
  1  2  1  0  0  0  0
  2  3  1  0  0  0  0
  2  4  1  0  0  0  0
  2  5  1  0  0  0  0
  5  6  2  0  0  0  0
  5  7  1  0  0  0  0
  7  8  1  0  0  0  0
  7  9  1  0  0  0  0
  9 10  1  0  0  0  0
  9 11  1  0  0  0  0
  9 25  1  0  0  0  0
 11 12  1  0  0  0  0
 11 13  1  0  0  0  0
 11 14  1  0  0  0  0
 14 15  1  0  0  0  0
 14 23  2  0  0  0  0
 15 16  1  0  0  0  0
 15 17  2  0  0  0  0
 17 18  1  0  0  0  0
 17 19  1  0  0  0  0
 19 20  1  0  0  0  0
 19 21  2  0  0  0  0
 21 22  1  0  0  0  0
 21 23  1  0  0  0  0
 23 24  1  0  0  0  0
 25 26  2  0  0  0  0
 25 27  1  0  0  0  0
 27 28  1  0  0  0  0
 27 29  1  0  0  0  0
 29 30  1  0  0  0  0
 29 31  1  0  0  0  0
 29 32  1  0  0  0  0
M  END
$$$$

  -OEChem-01062216093D

 32 32  0     1  0  0  0  0  0999 V2000
   -3.5872   -2.1782    1.0095 H   0  0  0  0  0  0  0  0  0  0  0  0
   -3.4655   -1.2729    0.4079 C   0  0  0  0  0  0  0  0  0  0  0  0
   -4.0012   -0.4547    0.8953 H   0  0  0  0  0  0  0  0  0  0  0  0
   -3.8965   -1.4457   -0.5812 H   0  0  0  0  0  0  0  0  0  0  0  0
   -1.9938   -0.9258    0.2787 C   0  0  0  0  0  0  0  0  0  0  0  0
   -1.1638   -1.7281    0.6655 O   0  0  0  0  0  0  0  0  0  0  0  0
   -1.6438    0.2391   -0.3807 N   0  0  0  0  0  0  0  0  0  0  0  0
   -2.4354    0.8017   -0.6809 H   0  0  0  0  0  0  0  0  0  0  0  0
   -0.3545    0.9629   -0.3201 C   0  0  1  0  0  0  0  0  0  0  0  0
   -0.0713    1.2205   -1.3447 H   0  0  0  0  0  0  0  0  0  0  0  0
   -0.6035    2.2724    0.4551 C   0  0  0  0  0  0  0  0  0  0  0  0
   -1.0343    2.0465    1.4367 H   0  0  0  0  0  0  0  0  0  0  0  0
    0.3495    2.7821    0.6344 H   0  0  0  0  0  0  0  0  0  0  0  0
   -1.5100    3.1992   -0.3213 C   0  0  0  0  0  0  0  0  0  0  0  0
   -0.9935    3.9991   -1.3514 C   0  0  0  0  0  0  0  0  0  0  0  0
    0.0651    3.9615   -1.5918 H   0  0  0  0  0  0  0  0  0  0  0  0
   -1.8332    4.8514   -2.0762 C   0  0  0  0  0  0  0  0  0  0  0  0
   -1.4250    5.4679   -2.8716 H   0  0  0  0  0  0  0  0  0  0  0  0
   -3.1966    4.9145   -1.7730 C   0  0  0  0  0  0  0  0  0  0  0  0
   -3.8475    5.5799   -2.3330 H   0  0  0  0  0  0  0  0  0  0  0  0
   -3.7191    4.1272   -0.7426 C   0  0  0  0  0  0  0  0  0  0  0  0
   -4.7765    4.1837   -0.5004 H   0  0  0  0  0  0  0  0  0  0  0  0
   -2.8784    3.2750   -0.0185 C   0  0  0  0  0  0  0  0  0  0  0  0
   -3.2913    2.6769    0.7885 H   0  0  0  0  0  0  0  0  0  0  0  0
    0.8696    0.2212    0.2798 C   0  0  0  0  0  0  0  0  0  0  0  0
    1.1247    0.3036    1.4767 O   0  0  0  0  0  0  0  0  0  0  0  0
    1.8542   -0.2552   -0.5687 N   0  0  0  0  0  0  0  0  0  0  0  0
    1.5798   -0.4106   -1.5335 H   0  0  0  0  0  0  0  0  0  0  0  0
    3.0508   -0.9280   -0.0769 C   0  0  0  0  0  0  0  0  0  0  0  0
    2.7784   -1.8117    0.5100 H   0  0  0  0  0  0  0  0  0  0  0  0
    3.6766   -1.2473   -0.9158 H   0  0  0  0  0  0  0  0  0  0  0  0
    3.6390   -0.2534    0.5542 H   0  0  0  0  0  0  0  0  0  0  0  0
  1  2  1  0  0  0  0
  2  3  1  0  0  0  0
  2  4  1  0  0  0  0
  2  5  1  0  0  0  0
  5  6  2  0  0  0  0
  5  7  1  0  0  0  0
  7  8  1  0  0  0  0
  7  9  1  0  0  0  0
  9 10  1  0  0  0  0
  9 11  1  0  0  0  0
  9 25  1  0  0  0  0
 11 12  1  0  0  0  0
 11 13  1  0  0  0  0
 11 14  1  0  0  0  0
 14 15  1  0  0  0  0
 14 23  2  0  0  0  0
 15 16  1  0  0  0  0
 15 17  2  0  0  0  0
 17 18  1  0  0  0  0
 17 19  1  0  0  0  0
 19 20  1  0  0  0  0
 19 21  2  0  0  0  0
 21 22  1  0  0  0  0
 21 23  1  0  0  0  0
 23 24  1  0  0  0  0
 25 26  2  0  0  0  0
 25 27  1  0  0  0  0
 27 28  1  0  0  0  0
 27 29  1  0  0  0  0
 29 30  1  0  0  0  0
 29 31  1  0  0  0  0
 29 32  1  0  0  0  0
M  END
$$$$

  -OEChem-01062216093D

 32 32  0     1  0  0  0  0  0999 V2000
   -3.5887   -2.1805    1.0075 H   0  0  0  0  0  0  0  0  0  0  0  0
   -3.4723   -1.2510    0.4427 C   0  0  0  0  0  0  0  0  0  0  0  0
   -3.9426   -0.4399    1.0033 H   0  0  0  0  0  0  0  0  0  0  0  0
   -3.9735   -1.3593   -0.5220 H   0  0  0  0  0  0  0  0  0  0  0  0
   -2.0001   -0.9492    0.2318 C   0  0  0  0  0  0  0  0  0  0  0  0
   -1.1776   -1.7967    0.5273 O   0  0  0  0  0  0  0  0  0  0  0  0
   -1.6482    0.2155   -0.4264 N   0  0  0  0  0  0  0  0  0  0  0  0
   -2.4411    0.7965   -0.6844 H   0  0  0  0  0  0  0  0  0  0  0  0
   -0.3583    0.9370   -0.3487 C   0  0  1  0  0  0  0  0  0  0  0  0
   -0.0687    1.2003   -1.3698 H   0  0  0  0  0  0  0  0  0  0  0  0
   -0.6080    2.2375    0.4398 C   0  0  0  0  0  0  0  0  0  0  0  0
   -1.0453    2.0009    1.4161 H   0  0  0  0  0  0  0  0  0  0  0  0
    0.3460    2.7410    0.6312 H   0  0  0  0  0  0  0  0  0  0  0  0
   -1.5071    3.1771   -0.3289 C   0  0  0  0  0  0  0  0  0  0  0  0
   -0.9843    3.9891   -1.3462 C   0  0  0  0  0  0  0  0  0  0  0  0
    0.0747    3.9515   -1.5836 H   0  0  0  0  0  0  0  0  0  0  0  0
   -1.8185    4.8543   -2.0623 C   0  0  0  0  0  0  0  0  0  0  0  0
   -1.4055    5.4803   -2.8481 H   0  0  0  0  0  0  0  0  0  0  0  0
   -3.1829    4.9176   -1.7634 C   0  0  0  0  0  0  0  0  0  0  0  0
   -3.8296    5.5924   -2.3169 H   0  0  0  0  0  0  0  0  0  0  0  0
   -3.7115    4.1178   -0.7456 C   0  0  0  0  0  0  0  0  0  0  0  0
   -4.7696    4.1739   -0.5065 H   0  0  0  0  0  0  0  0  0  0  0  0
   -2.8762    3.2531   -0.0303 C   0  0  0  0  0  0  0  0  0  0  0  0
   -3.2940    2.6454    0.7669 H   0  0  0  0  0  0  0  0  0  0  0  0
    0.8633    0.2040    0.2656 C   0  0  0  0  0  0  0  0  0  0  0  0
    0.9840    0.1199    1.4832 O   0  0  0  0  0  0  0  0  0  0  0  0
    1.9949    0.0085   -0.5083 N   0  0  0  0  0  0  0  0  0  0  0  0
    1.8693    0.0296   -1.5151 H   0  0  0  0  0  0  0  0  0  0  0  0
    3.2172   -0.5822    0.0240 C   0  0  0  0  0  0  0  0  0  0  0  0
    3.0133   -1.5770    0.4345 H   0  0  0  0  0  0  0  0  0  0  0  0
    3.9660   -0.6800   -0.7676 H   0  0  0  0  0  0  0  0  0  0  0  0
    3.6344    0.0474    0.8168 H   0  0  0  0  0  0  0  0  0  0  0  0
  1  2  1  0  0  0  0
  2  3  1  0  0  0  0
  2  4  1  0  0  0  0
  2  5  1  0  0  0  0
  5  6  2  0  0  0  0
  5  7  1  0  0  0  0
  7  8  1  0  0  0  0
  7  9  1  0  0  0  0
  9 10  1  0  0  0  0
  9 11  1  0  0  0  0
  9 25  1  0  0  0  0
 11 12  1  0  0  0  0
 11 13  1  0  0  0  0
 11 14  1  0  0  0  0
 14 15  1  0  0  0  0
 14 23  2  0  0  0  0
 15 16  1  0  0  0  0
 15 17  2  0  0  0  0
 17 18  1  0  0  0  0
 17 19  1  0  0  0  0
 19 20  1  0  0  0  0
 19 21  2  0  0  0  0
 21 22  1  0  0  0  0
 21 23  1  0  0  0  0
 23 24  1  0  0  0  0
 25 26  2  0  0  0  0
 25 27  1  0  0  0  0
 27 28  1  0  0  0  0
 27 29  1  0  0  0  0
 29 30  1  0  0  0  0
 29 31  1  0  0  0  0
 29 32  1  0  0  0  0
M  END
$$$$

  -OEChem-01062216093D

 32 32  0     1  0  0  0  0  0999 V2000
   -3.5850   -2.1581    1.0407 H   0  0  0  0  0  0  0  0  0  0  0  0
   -3.4702   -1.2253    0.4811 C   0  0  0  0  0  0  0  0  0  0  0  0
   -3.8762   -0.4066    1.0797 H   0  0  0  0  0  0  0  0  0  0  0  0
   -4.0329   -1.3017   -0.4523 H   0  0  0  0  0  0  0  0  0  0  0  0
   -2.0039   -0.9722    0.1840 C   0  0  0  0  0  0  0  0  0  0  0  0
   -1.2017   -1.8702    0.3656 O   0  0  0  0  0  0  0  0  0  0  0  0
   -1.6491    0.1921   -0.4724 N   0  0  0  0  0  0  0  0  0  0  0  0
   -2.4409    0.7935   -0.6824 H   0  0  0  0  0  0  0  0  0  0  0  0
   -0.3578    0.9089   -0.3791 C   0  0  1  0  0  0  0  0  0  0  0  0
   -0.0615    1.1763   -1.3972 H   0  0  0  0  0  0  0  0  0  0  0  0
   -0.6106    2.2004    0.4225 C   0  0  0  0  0  0  0  0  0  0  0  0
   -1.0532    1.9528    1.3936 H   0  0  0  0  0  0  0  0  0  0  0  0
    0.3429    2.6999    0.6261 H   0  0  0  0  0  0  0  0  0  0  0  0
   -1.5034    3.1524   -0.3387 C   0  0  0  0  0  0  0  0  0  0  0  0
   -0.9744    3.9769   -1.3427 C   0  0  0  0  0  0  0  0  0  0  0  0
    0.0851    3.9381   -1.5774 H   0  0  0  0  0  0  0  0  0  0  0  0
   -1.8029    4.8562   -2.0483 C   0  0  0  0  0  0  0  0  0  0  0  0
   -1.3854    5.4921   -2.8237 H   0  0  0  0  0  0  0  0  0  0  0  0
   -3.1676    4.9218   -1.7516 C   0  0  0  0  0  0  0  0  0  0  0  0
   -3.8100    5.6080   -2.2961 H   0  0  0  0  0  0  0  0  0  0  0  0
   -3.7024    4.1104   -0.7466 C   0  0  0  0  0  0  0  0  0  0  0  0
   -4.7607    4.1686   -0.5084 H   0  0  0  0  0  0  0  0  0  0  0  0
   -2.8729    3.2315   -0.0422 C   0  0  0  0  0  0  0  0  0  0  0  0
   -3.2963    2.6159    0.7459 H   0  0  0  0  0  0  0  0  0  0  0  0
    0.8623    0.1834    0.2470 C   0  0  0  0  0  0  0  0  0  0  0  0
    0.8743   -0.0718    1.4462 O   0  0  0  0  0  0  0  0  0  0  0  0
    2.0902    0.2659   -0.3890 N   0  0  0  0  0  0  0  0  0  0  0  0
    2.0819    0.4737   -1.3822 H   0  0  0  0  0  0  0  0  0  0  0  0
    3.3230   -0.2424    0.2025 C   0  0  0  0  0  0  0  0  0  0  0  0
    3.2188   -1.3038    0.4524 H   0  0  0  0  0  0  0  0  0  0  0  0
    4.1538   -0.1324   -0.5009 H   0  0  0  0  0  0  0  0  0  0  0  0
    3.5678    0.3118    1.1147 H   0  0  0  0  0  0  0  0  0  0  0  0
  1  2  1  0  0  0  0
  2  3  1  0  0  0  0
  2  4  1  0  0  0  0
  2  5  1  0  0  0  0
  5  6  2  0  0  0  0
  5  7  1  0  0  0  0
  7  8  1  0  0  0  0
  7  9  1  0  0  0  0
  9 10  1  0  0  0  0
  9 11  1  0  0  0  0
  9 25  1  0  0  0  0
 11 12  1  0  0  0  0
 11 13  1  0  0  0  0
 11 14  1  0  0  0  0
 14 15  1  0  0  0  0
 14 23  2  0  0  0  0
 15 16  1  0  0  0  0
 15 17  2  0  0  0  0
 17 18  1  0  0  0  0
 17 19  1  0  0  0  0
 19 20  1  0  0  0  0
 19 21  2  0  0  0  0
 21 22  1  0  0  0  0
 21 23  1  0  0  0  0
 23 24  1  0  0  0  0
 25 26  2  0  0  0  0
 25 27  1  0  0  0  0
 27 28  1  0  0  0  0
 27 29  1  0  0  0  0
 29 30  1  0  0  0  0
 29 31  1  0  0  0  0
 29 32  1  0  0  0  0
M  END
$$$$

  -OEChem-01062216093D

 32 32  0     1  0  0  0  0  0999 V2000
   -3.5603   -2.1323    1.0859 H   0  0  0  0  0  0  0  0  0  0  0  0
   -3.4531   -1.1899    0.5413 C   0  0  0  0  0  0  0  0  0  0  0  0
   -3.7699   -0.3719    1.1923 H   0  0  0  0  0  0  0  0  0  0  0  0
   -4.0956   -1.2164   -0.3417 H   0  0  0  0  0  0  0  0  0  0  0  0
   -2.0071   -0.9923    0.1264 C   0  0  0  0  0  0  0  0  0  0  0  0
   -1.2449   -1.9414    0.1704 O   0  0  0  0  0  0  0  0  0  0  0  0
   -1.6490    0.1734   -0.5246 N   0  0  0  0  0  0  0  0  0  0  0  0
   -2.4371    0.7947   -0.6827 H   0  0  0  0  0  0  0  0  0  0  0  0
   -0.3538    0.8825   -0.4141 C   0  0  1  0  0  0  0  0  0  0  0  0
   -0.0499    1.1588   -1.4277 H   0  0  0  0  0  0  0  0  0  0  0  0
   -0.6128    2.1618    0.4061 C   0  0  0  0  0  0  0  0  0  0  0  0
   -1.0634    1.8982    1.3694 H   0  0  0  0  0  0  0  0  0  0  0  0
    0.3378    2.6599    0.6263 H   0  0  0  0  0  0  0  0  0  0  0  0
   -1.4987    3.1268   -0.3457 C   0  0  0  0  0  0  0  0  0  0  0  0
   -0.9601    3.9669   -1.3314 C   0  0  0  0  0  0  0  0  0  0  0  0
    0.1015    3.9332   -1.5568 H   0  0  0  0  0  0  0  0  0  0  0  0
   -1.7820    4.8569   -2.0310 C   0  0  0  0  0  0  0  0  0  0  0  0
   -1.3572    5.5050   -2.7921 H   0  0  0  0  0  0  0  0  0  0  0  0
   -3.1498    4.9161   -1.7480 C   0  0  0  0  0  0  0  0  0  0  0  0
   -3.7871    5.6091   -2.2897 H   0  0  0  0  0  0  0  0  0  0  0  0
   -3.6943    4.0891   -0.7610 C   0  0  0  0  0  0  0  0  0  0  0  0
   -4.7555    4.1425   -0.5346 H   0  0  0  0  0  0  0  0  0  0  0  0
   -2.8712    3.2002   -0.0611 C   0  0  0  0  0  0  0  0  0  0  0  0
   -3.3026    2.5720    0.7130 H   0  0  0  0  0  0  0  0  0  0  0  0
    0.8662    0.1622    0.2188 C   0  0  0  0  0  0  0  0  0  0  0  0
    0.7962   -0.2791    1.3598 O   0  0  0  0  0  0  0  0  0  0  0  0
    2.1344    0.5048   -0.2229 N   0  0  0  0  0  0  0  0  0  0  0  0
    2.2089    0.9095   -1.1505 H   0  0  0  0  0  0  0  0  0  0  0  0
    3.3569    0.0769    0.4494 C   0  0  0  0  0  0  0  0  0  0  0  0
    3.3801   -1.0139    0.5451 H   0  0  0  0  0  0  0  0  0  0  0  0
    4.2343    0.3926   -0.1228 H   0  0  0  0  0  0  0  0  0  0  0  0
    3.4194    0.5194    1.4490 H   0  0  0  0  0  0  0  0  0  0  0  0
  1  2  1  0  0  0  0
  2  3  1  0  0  0  0
  2  4  1  0  0  0  0
  2  5  1  0  0  0  0
  5  6  2  0  0  0  0
  5  7  1  0  0  0  0
  7  8  1  0  0  0  0
  7  9  1  0  0  0  0
  9 10  1  0  0  0  0
  9 11  1  0  0  0  0
  9 25  1  0  0  0  0
 11 12  1  0  0  0  0
 11 13  1  0  0  0  0
 11 14  1  0  0  0  0
 14 15  1  0  0  0  0
 14 23  2  0  0  0  0
 15 16  1  0  0  0  0
 15 17  2  0  0  0  0
 17 18  1  0  0  0  0
 17 19  1  0  0  0  0
 19 20  1  0  0  0  0
 19 21  2  0  0  0  0
 21 22  1  0  0  0  0
 21 23  1  0  0  0  0
 23 24  1  0  0  0  0
 25 26  2  0  0  0  0
 25 27  1  0  0  0  0
 27 28  1  0  0  0  0
 27 29  1  0  0  0  0
 29 30  1  0  0  0  0
 29 31  1  0  0  0  0
 29 32  1  0  0  0  0
M  END
$$$$

  -OEChem-01062216093D

 32 32  0     1  0  0  0  0  0999 V2000
   -3.2609   -2.5259    0.9211 H   0  0  0  0  0  0  0  0  0  0  0  0
   -3.1392   -1.7315    0.1793 C   0  0  0  0  0  0  0  0  0  0  0  0
   -4.1126   -1.2756   -0.0160 H   0  0  0  0  0  0  0  0  0  0  0  0
   -2.7553   -2.1721   -0.7438 H   0  0  0  0  0  0  0  0  0  0  0  0
   -2.1700   -0.6854    0.6959 C   0  0  0  0  0  0  0  0  0  0  0  0
   -1.9226   -0.6334    1.8896 O   0  0  0  0  0  0  0  0  0  0  0  0
   -1.8186    0.3817   -0.1080 N   0  0  0  0  0  0  0  0  0  0  0  0
   -2.3067    0.3783   -0.9977 H   0  0  0  0  0  0  0  0  0  0  0  0
   -0.4737    1.0045   -0.1602 C   0  0  1  0  0  0  0  0  0  0  0  0
   -0.2315    1.1588   -1.2156 H   0  0  0  0  0  0  0  0  0  0  0  0
   -0.6020    2.3775    0.5289 C   0  0  0  0  0  0  0  0  0  0  0  0
   -1.0115    2.2403    1.5362 H   0  0  0  0  0  0  0  0  0  0  0  0
    0.3821    2.8410    0.6465 H   0  0  0  0  0  0  0  0  0  0  0  0
   -1.4781    3.3149   -0.2702 C   0  0  0  0  0  0  0  0  0  0  0  0
   -0.9615    4.0125   -1.3731 C   0  0  0  0  0  0  0  0  0  0  0  0
    0.0792    3.8925   -1.6572 H   0  0  0  0  0  0  0  0  0  0  0  0
   -1.7790    4.8726   -2.1151 C   0  0  0  0  0  0  0  0  0  0  0  0
   -1.3714    5.4109   -2.9658 H   0  0  0  0  0  0  0  0  0  0  0  0
   -3.1206    5.0427   -1.7602 C   0  0  0  0  0  0  0  0  0  0  0  0
   -3.7555    5.7115   -2.3341 H   0  0  0  0  0  0  0  0  0  0  0  0
   -3.6434    4.3525   -0.6626 C   0  0  0  0  0  0  0  0  0  0  0  0
   -4.6846    4.4833   -0.3825 H   0  0  0  0  0  0  0  0  0  0  0  0
   -2.8249    3.4933    0.0781 C   0  0  0  0  0  0  0  0  0  0  0  0
   -3.2383    2.9578    0.9287 H   0  0  0  0  0  0  0  0  0  0  0  0
    0.7653    0.2740    0.4372 C   0  0  0  0  0  0  0  0  0  0  0  0
    0.7359   -0.8837    0.8297 O   0  0  0  0  0  0  0  0  0  0  0  0
    2.0206    0.7489    0.0877 N   0  0  0  0  0  0  0  0  0  0  0  0
    2.0737    1.6727   -0.3291 H   0  0  0  0  0  0  0  0  0  0  0  0
    3.2642    0.0471    0.3900 C   0  0  0  0  0  0  0  0  0  0  0  0
    3.3129   -0.8995   -0.1583 H   0  0  0  0  0  0  0  0  0  0  0  0
    4.1240    0.6588    0.1011 H   0  0  0  0  0  0  0  0  0  0  0  0
    3.3351   -0.1627    1.4626 H   0  0  0  0  0  0  0  0  0  0  0  0
  1  2  1  0  0  0  0
  2  3  1  0  0  0  0
  2  4  1  0  0  0  0
  2  5  1  0  0  0  0
  5  6  2  0  0  0  0
  5  7  1  0  0  0  0
  7  8  1  0  0  0  0
  7  9  1  0  0  0  0
  9 10  1  0  0  0  0
  9 11  1  0  0  0  0
  9 25  1  0  0  0  0
 11 12  1  0  0  0  0
 11 13  1  0  0  0  0
 11 14  1  0  0  0  0
 14 15  1  0  0  0  0
 14 23  2  0  0  0  0
 15 16  1  0  0  0  0
 15 17  2  0  0  0  0
 17 18  1  0  0  0  0
 17 19  1  0  0  0  0
 19 20  1  0  0  0  0
 19 21  2  0  0  0  0
 21 22  1  0  0  0  0
 21 23  1  0  0  0  0
 23 24  1  0  0  0  0
 25 26  2  0  0  0  0
 25 27  1  0  0  0  0
 27 28  1  0  0  0  0
 27 29  1  0  0  0  0
 29 30  1  0  0  0  0
 29 31  1  0  0  0  0
 29 32  1  0  0  0  0
M  END
$$$$

  -OEChem-01062216093D

 32 32  0     1  0  0  0  0  0999 V2000
   -3.1882   -2.5364    0.9511 H   0  0  0  0  0  0  0  0  0  0  0  0
   -3.1240   -1.7200    0.2262 C   0  0  0  0  0  0  0  0  0  0  0  0
   -4.0927   -1.2181    0.1703 H   0  0  0  0  0  0  0  0  0  0  0  0
   -2.8785   -2.1398   -0.7522 H   0  0  0  0  0  0  0  0  0  0  0  0
   -2.0514   -0.7337    0.6474 C   0  0  0  0  0  0  0  0  0  0  0  0
   -1.5621   -0.8098    1.7644 O   0  0  0  0  0  0  0  0  0  0  0  0
   -1.7725    0.3605   -0.1513 N   0  0  0  0  0  0  0  0  0  0  0  0
   -2.3018    0.3795   -1.0169 H   0  0  0  0  0  0  0  0  0  0  0  0
   -0.4505    1.0263   -0.2019 C   0  0  1  0  0  0  0  0  0  0  0  0
   -0.3171    1.4360   -1.2074 H   0  0  0  0  0  0  0  0  0  0  0  0
   -0.4849    2.1945    0.8064 C   0  0  0  0  0  0  0  0  0  0  0  0
   -0.7636    1.8174    1.7966 H   0  0  0  0  0  0  0  0  0  0  0  0
    0.5055    2.6467    0.9060 H   0  0  0  0  0  0  0  0  0  0  0  0
   -1.4510    3.2686    0.3634 C   0  0  0  0  0  0  0  0  0  0  0  0
   -1.0731    4.2180   -0.5986 C   0  0  0  0  0  0  0  0  0  0  0  0
   -0.0776    4.1910   -1.0309 H   0  0  0  0  0  0  0  0  0  0  0  0
   -1.9728    5.2078   -1.0101 C   0  0  0  0  0  0  0  0  0  0  0  0
   -1.6730    5.9391   -1.7550 H   0  0  0  0  0  0  0  0  0  0  0  0
   -3.2577    5.2573   -0.4610 C   0  0  0  0  0  0  0  0  0  0  0  0
   -3.9556    6.0267   -0.7778 H   0  0  0  0  0  0  0  0  0  0  0  0
   -3.6423    4.3167    0.4991 C   0  0  0  0  0  0  0  0  0  0  0  0
   -4.6391    4.3534    0.9290 H   0  0  0  0  0  0  0  0  0  0  0  0
   -2.7421    3.3273    0.9086 C   0  0  0  0  0  0  0  0  0  0  0  0
   -3.0477    2.5971    1.6532 H   0  0  0  0  0  0  0  0  0  0  0  0
    0.8015    0.1388    0.0552 C   0  0  0  0  0  0  0  0  0  0  0  0
    0.7606   -1.0730   -0.1234 O   0  0  0  0  0  0  0  0  0  0  0  0
    2.0614    0.7163    0.0233 N   0  0  0  0  0  0  0  0  0  0  0  0
    2.1150    1.7266    0.1006 H   0  0  0  0  0  0  0  0  0  0  0  0
    3.3004   -0.0537    0.0608 C   0  0  0  0  0  0  0  0  0  0  0  0
    3.3936   -0.6737   -0.8371 H   0  0  0  0  0  0  0  0  0  0  0  0
    4.1624    0.6184    0.1082 H   0  0  0  0  0  0  0  0  0  0  0  0
    3.3215   -0.7040    0.9420 H   0  0  0  0  0  0  0  0  0  0  0  0
  1  2  1  0  0  0  0
  2  3  1  0  0  0  0
  2  4  1  0  0  0  0
  2  5  1  0  0  0  0
  5  6  2  0  0  0  0
  5  7  1  0  0  0  0
  7  8  1  0  0  0  0
  7  9  1  0  0  0  0
  9 10  1  0  0  0  0
  9 11  1  0  0  0  0
  9 25  1  0  0  0  0
 11 12  1  0  0  0  0
 11 13  1  0  0  0  0
 11 14  1  0  0  0  0
 14 15  1  0  0  0  0
 14 23  2  0  0  0  0
 15 16  1  0  0  0  0
 15 17  2  0  0  0  0
 17 18  1  0  0  0  0
 17 19  1  0  0  0  0
 19 20  1  0  0  0  0
 19 21  2  0  0  0  0
 21 22  1  0  0  0  0
 21 23  1  0  0  0  0
 23 24  1  0  0  0  0
 25 26  2  0  0  0  0
 25 27  1  0  0  0  0
 27 28  1  0  0  0  0
 27 29  1  0  0  0  0
 29 30  1  0  0  0  0
 29 31  1  0  0  0  0
 29 32  1  0  0  0  0
M  END
$$$$

  -OEChem-01062216093D

 32 32  0     1  0  0  0  0  0999 V2000
   -3.1667   -2.5240    0.9515 H   0  0  0  0  0  0  0  0  0  0  0  0
   -3.1196   -1.6955    0.2391 C   0  0  0  0  0  0  0  0  0  0  0  0
   -4.0820   -1.1784    0.2323 H   0  0  0  0  0  0  0  0  0  0  0  0
   -2.9218   -2.1008   -0.7561 H   0  0  0  0  0  0  0  0  0  0  0  0
   -2.0149   -0.7331    0.6320 C   0  0  0  0  0  0  0  0  0  0  0  0
   -1.4684   -0.8479    1.7189 O   0  0  0  0  0  0  0  0  0  0  0  0
   -1.7534    0.3707   -0.1596 N   0  0  0  0  0  0  0  0  0  0  0  0
   -2.3017    0.4077   -1.0130 H   0  0  0  0  0  0  0  0  0  0  0  0
   -0.4396    1.0509   -0.2126 C   0  0  1  0  0  0  0  0  0  0  0  0
   -0.3051    1.4625   -1.2172 H   0  0  0  0  0  0  0  0  0  0  0  0
   -0.4891    2.2198    0.7959 C   0  0  0  0  0  0  0  0  0  0  0  0
   -0.7603    1.8396    1.7871 H   0  0  0  0  0  0  0  0  0  0  0  0
    0.4928    2.6902    0.8909 H   0  0  0  0  0  0  0  0  0  0  0  0
   -1.4689    3.2818    0.3539 C   0  0  0  0  0  0  0  0  0  0  0  0
   -1.1021    4.2354   -0.6080 C   0  0  0  0  0  0  0  0  0  0  0  0
   -0.1077    4.2175   -1.0432 H   0  0  0  0  0  0  0  0  0  0  0  0
   -2.0115    5.2175   -1.0156 C   0  0  0  0  0  0  0  0  0  0  0  0
   -1.7201    5.9518   -1.7610 H   0  0  0  0  0  0  0  0  0  0  0  0
   -3.2953    5.2555   -0.4626 C   0  0  0  0  0  0  0  0  0  0  0  0
   -4.0010    6.0193   -0.7768 H   0  0  0  0  0  0  0  0  0  0  0  0
   -3.6686    4.3102    0.4976 C   0  0  0  0  0  0  0  0  0  0  0  0
   -4.6640    4.3384    0.9307 H   0  0  0  0  0  0  0  0  0  0  0  0
   -2.7587    3.3282    0.9031 C   0  0  0  0  0  0  0  0  0  0  0  0
   -3.0558    2.5952    1.6482 H   0  0  0  0  0  0  0  0  0  0  0  0
    0.8014    0.1453    0.0355 C   0  0  0  0  0  0  0  0  0  0  0  0
    0.7929   -1.0148   -0.3619 O   0  0  0  0  0  0  0  0  0  0  0  0
    2.0406    0.6975    0.3201 N   0  0  0  0  0  0  0  0  0  0  0  0
    2.0595    1.6630    0.6313 H   0  0  0  0  0  0  0  0  0  0  0  0
    3.2630   -0.0919    0.4240 C   0  0  0  0  0  0  0  0  0  0  0  0
    3.4982   -0.5641   -0.5356 H   0  0  0  0  0  0  0  0  0  0  0  0
    4.1037    0.5481    0.7081 H   0  0  0  0  0  0  0  0  0  0  0  0
    3.1504   -0.8732    1.1830 H   0  0  0  0  0  0  0  0  0  0  0  0
  1  2  1  0  0  0  0
  2  3  1  0  0  0  0
  2  4  1  0  0  0  0
  2  5  1  0  0  0  0
  5  6  2  0  0  0  0
  5  7  1  0  0  0  0
  7  8  1  0  0  0  0
  7  9  1  0  0  0  0
  9 10  1  0  0  0  0
  9 11  1  0  0  0  0
  9 25  1  0  0  0  0
 11 12  1  0  0  0  0
 11 13  1  0  0  0  0
 11 14  1  0  0  0  0
 14 15  1  0  0  0  0
 14 23  2  0  0  0  0
 15 16  1  0  0  0  0
 15 17  2  0  0  0  0
 17 18  1  0  0  0  0
 17 19  1  0  0  0  0
 19 20  1  0  0  0  0
 19 21  2  0  0  0  0
 21 22  1  0  0  0  0
 21 23  1  0  0  0  0
 23 24  1  0  0  0  0
 25 26  2  0  0  0  0
 25 27  1  0  0  0  0
 27 28  1  0  0  0  0
 27 29  1  0  0  0  0
 29 30  1  0  0  0  0
 29 31  1  0  0  0  0
 29 32  1  0  0  0  0
M  END
$$$$

  -OEChem-01062216093D

 32 32  0     1  0  0  0  0  0999 V2000
   -3.1312   -2.5236    0.9435 H   0  0  0  0  0  0  0  0  0  0  0  0
   -3.1000   -1.6848    0.2426 C   0  0  0  0  0  0  0  0  0  0  0  0
   -4.0613   -1.1664    0.2680 H   0  0  0  0  0  0  0  0  0  0  0  0
   -2.9281   -2.0759   -0.7631 H   0  0  0  0  0  0  0  0  0  0  0  0
   -1.9846   -0.7298    0.6224 C   0  0  0  0  0  0  0  0  0  0  0  0
   -1.4001   -0.8715    1.6862 O   0  0  0  0  0  0  0  0  0  0  0  0
   -1.7416    0.3855   -0.1586 N   0  0  0  0  0  0  0  0  0  0  0  0
   -2.3022    0.4334   -1.0038 H   0  0  0  0  0  0  0  0  0  0  0  0
   -0.4359    1.0794   -0.2123 C   0  0  1  0  0  0  0  0  0  0  0  0
   -0.3051    1.4937   -1.2162 H   0  0  0  0  0  0  0  0  0  0  0  0
   -0.4880    2.2486    0.7947 C   0  0  0  0  0  0  0  0  0  0  0  0
   -0.7505    1.8690    1.7884 H   0  0  0  0  0  0  0  0  0  0  0  0
    0.4916    2.7273    0.8770 H   0  0  0  0  0  0  0  0  0  0  0  0
   -1.4773    3.3012    0.3529 C   0  0  0  0  0  0  0  0  0  0  0  0
   -1.1202    4.2540   -0.6132 C   0  0  0  0  0  0  0  0  0  0  0  0
   -0.1251    4.2440   -1.0477 H   0  0  0  0  0  0  0  0  0  0  0  0
   -2.0397    5.2244   -1.0263 C   0  0  0  0  0  0  0  0  0  0  0  0
   -1.7552    5.9583   -1.7747 H   0  0  0  0  0  0  0  0  0  0  0  0
   -3.3241    5.2509   -0.4746 C   0  0  0  0  0  0  0  0  0  0  0  0
   -4.0375    6.0053   -0.7933 H   0  0  0  0  0  0  0  0  0  0  0  0
   -3.6884    4.3058    0.4893 C   0  0  0  0  0  0  0  0  0  0  0  0
   -4.6853    4.3247    0.9201 H   0  0  0  0  0  0  0  0  0  0  0  0
   -2.7681    3.3356    0.9006 C   0  0  0  0  0  0  0  0  0  0  0  0
   -3.0586    2.6024    1.6479 H   0  0  0  0  0  0  0  0  0  0  0  0
    0.7972    0.1614    0.0213 C   0  0  0  0  0  0  0  0  0  0  0  0
    0.8453   -0.9159   -0.5627 O   0  0  0  0  0  0  0  0  0  0  0  0
    1.9657    0.6301    0.6004 N   0  0  0  0  0  0  0  0  0  0  0  0
    1.9000    1.4895    1.1358 H   0  0  0  0  0  0  0  0  0  0  0  0
    3.1555   -0.1972    0.7639 C   0  0  0  0  0  0  0  0  0  0  0  0
    3.5334   -0.5227   -0.2109 H   0  0  0  0  0  0  0  0  0  0  0  0
    3.9446    0.3700    1.2667 H   0  0  0  0  0  0  0  0  0  0  0  0
    2.9258   -1.0821    1.3668 H   0  0  0  0  0  0  0  0  0  0  0  0
  1  2  1  0  0  0  0
  2  3  1  0  0  0  0
  2  4  1  0  0  0  0
  2  5  1  0  0  0  0
  5  6  2  0  0  0  0
  5  7  1  0  0  0  0
  7  8  1  0  0  0  0
  7  9  1  0  0  0  0
  9 10  1  0  0  0  0
  9 11  1  0  0  0  0
  9 25  1  0  0  0  0
 11 12  1  0  0  0  0
 11 13  1  0  0  0  0
 11 14  1  0  0  0  0
 14 15  1  0  0  0  0
 14 23  2  0  0  0  0
 15 16  1  0  0  0  0
 15 17  2  0  0  0  0
 17 18  1  0  0  0  0
 17 19  1  0  0  0  0
 19 20  1  0  0  0  0
 19 21  2  0  0  0  0
 21 22  1  0  0  0  0
 21 23  1  0  0  0  0
 23 24  1  0  0  0  0
 25 26  2  0  0  0  0
 25 27  1  0  0  0  0
 27 28  1  0  0  0  0
 27 29  1  0  0  0  0
 29 30  1  0  0  0  0
 29 31  1  0  0  0  0
 29 32  1  0  0  0  0
M  END
$$$$

  -OEChem-01062216093D

 32 32  0     1  0  0  0  0  0999 V2000
   -3.1270   -2.5222    0.9330 H   0  0  0  0  0  0  0  0  0  0  0  0
   -3.1030   -1.6732    0.2442 C   0  0  0  0  0  0  0  0  0  0  0  0
   -4.0554   -1.1415    0.3041 H   0  0  0  0  0  0  0  0  0  0  0  0
   -2.9653   -2.0508   -0.7719 H   0  0  0  0  0  0  0  0  0  0  0  0
   -1.9639   -0.7397    0.6073 C   0  0  0  0  0  0  0  0  0  0  0  0
   -1.3463   -0.9125    1.6476 O   0  0  0  0  0  0  0  0  0  0  0  0
   -1.7268    0.3822   -0.1656 N   0  0  0  0  0  0  0  0  0  0  0  0
   -2.3060    0.4545   -0.9964 H   0  0  0  0  0  0  0  0  0  0  0  0
   -0.4296    1.0899   -0.2168 C   0  0  1  0  0  0  0  0  0  0  0  0
   -0.3003    1.5041   -1.2212 H   0  0  0  0  0  0  0  0  0  0  0  0
   -0.4854    2.2614    0.7860 C   0  0  0  0  0  0  0  0  0  0  0  0
   -0.7432    1.8847    1.7820 H   0  0  0  0  0  0  0  0  0  0  0  0
    0.4946    2.7422    0.8596 H   0  0  0  0  0  0  0  0  0  0  0  0
   -1.4809    3.3087    0.3453 C   0  0  0  0  0  0  0  0  0  0  0  0
   -1.1318    4.2613   -0.6239 C   0  0  0  0  0  0  0  0  0  0  0  0
   -0.1386    4.2545   -1.0627 H   0  0  0  0  0  0  0  0  0  0  0  0
   -2.0565    5.2276   -1.0345 C   0  0  0  0  0  0  0  0  0  0  0  0
   -1.7777    5.9614   -1.7851 H   0  0  0  0  0  0  0  0  0  0  0  0
   -3.3388    5.2499   -0.4777 C   0  0  0  0  0  0  0  0  0  0  0  0
   -4.0566    6.0009   -0.7951 H   0  0  0  0  0  0  0  0  0  0  0  0
   -3.6953    4.3050    0.4895 C   0  0  0  0  0  0  0  0  0  0  0  0
   -4.6903    4.3207    0.9248 H   0  0  0  0  0  0  0  0  0  0  0  0
   -2.7696    3.3390    0.8983 C   0  0  0  0  0  0  0  0  0  0  0  0
   -3.0537    2.6059    1.6481 H   0  0  0  0  0  0  0  0  0  0  0  0
    0.8036    0.1738    0.0135 C   0  0  0  0  0  0  0  0  0  0  0  0
    0.9445   -0.8007   -0.7170 O   0  0  0  0  0  0  0  0  0  0  0  0
    1.8495    0.5250    0.8512 N   0  0  0  0  0  0  0  0  0  0  0  0
    1.6531    1.2456    1.5385 H   0  0  0  0  0  0  0  0  0  0  0  0
    3.0027   -0.3393    1.0725 C   0  0  0  0  0  0  0  0  0  0  0  0
    3.5340   -0.5199    0.1322 H   0  0  0  0  0  0  0  0  0  0  0  0
    3.6974    0.1307    1.7750 H   0  0  0  0  0  0  0  0  0  0  0  0
    2.6853   -1.3013    1.4884 H   0  0  0  0  0  0  0  0  0  0  0  0
  1  2  1  0  0  0  0
  2  3  1  0  0  0  0
  2  4  1  0  0  0  0
  2  5  1  0  0  0  0
  5  6  2  0  0  0  0
  5  7  1  0  0  0  0
  7  8  1  0  0  0  0
  7  9  1  0  0  0  0
  9 10  1  0  0  0  0
  9 11  1  0  0  0  0
  9 25  1  0  0  0  0
 11 12  1  0  0  0  0
 11 13  1  0  0  0  0
 11 14  1  0  0  0  0
 14 15  1  0  0  0  0
 14 23  2  0  0  0  0
 15 16  1  0  0  0  0
 15 17  2  0  0  0  0
 17 18  1  0  0  0  0
 17 19  1  0  0  0  0
 19 20  1  0  0  0  0
 19 21  2  0  0  0  0
 21 22  1  0  0  0  0
 21 23  1  0  0  0  0
 23 24  1  0  0  0  0
 25 26  2  0  0  0  0
 25 27  1  0  0  0  0
 27 28  1  0  0  0  0
 27 29  1  0  0  0  0
 29 30  1  0  0  0  0
 29 31  1  0  0  0  0
 29 32  1  0  0  0  0
M  END
$$$$

  -OEChem-01062216093D

 32 32  0     1  0  0  0  0  0999 V2000
   -3.1445   -2.5151    0.9233 H   0  0  0  0  0  0  0  0  0  0  0  0
   -3.1208   -1.6561    0.2469 C   0  0  0  0  0  0  0  0  0  0  0  0
   -4.0616   -1.1081    0.3378 H   0  0  0  0  0  0  0  0  0  0  0  0
   -3.0148   -2.0205   -0.7779 H   0  0  0  0  0  0  0  0  0  0  0  0
   -1.9563   -0.7490    0.5964 C   0  0  0  0  0  0  0  0  0  0  0  0
   -1.3134   -0.9540    1.6151 O   0  0  0  0  0  0  0  0  0  0  0  0
   -1.7166    0.3781   -0.1676 N   0  0  0  0  0  0  0  0  0  0  0  0
   -2.3140    0.4794   -0.9827 H   0  0  0  0  0  0  0  0  0  0  0  0
   -0.4242    1.0934   -0.2133 C   0  0  1  0  0  0  0  0  0  0  0  0
   -0.2967    1.5107   -1.2170 H   0  0  0  0  0  0  0  0  0  0  0  0
   -0.4819    2.2642    0.7884 C   0  0  0  0  0  0  0  0  0  0  0  0
   -0.7414    1.8891    1.7845 H   0  0  0  0  0  0  0  0  0  0  0  0
    0.5013    2.7404    0.8617 H   0  0  0  0  0  0  0  0  0  0  0  0
   -1.4796    3.3088    0.3462 C   0  0  0  0  0  0  0  0  0  0  0  0
   -1.1305    4.2605   -0.6238 C   0  0  0  0  0  0  0  0  0  0  0  0
   -0.1358    4.2552   -1.0594 H   0  0  0  0  0  0  0  0  0  0  0  0
   -2.0570    5.2232   -1.0392 C   0  0  0  0  0  0  0  0  0  0  0  0
   -1.7781    5.9569   -1.7901 H   0  0  0  0  0  0  0  0  0  0  0  0
   -3.3416    5.2421   -0.4873 C   0  0  0  0  0  0  0  0  0  0  0  0
   -4.0608    5.9901   -0.8085 H   0  0  0  0  0  0  0  0  0  0  0  0
   -3.6984    4.2976    0.4799 C   0  0  0  0  0  0  0  0  0  0  0  0
   -4.6954    4.3109    0.9104 H   0  0  0  0  0  0  0  0  0  0  0  0
   -2.7706    3.3359    0.8943 C   0  0  0  0  0  0  0  0  0  0  0  0
   -3.0560    2.6036    1.6443 H   0  0  0  0  0  0  0  0  0  0  0  0
    0.8129    0.1852    0.0149 C   0  0  0  0  0  0  0  0  0  0  0  0
    1.0763   -0.6537   -0.8388 O   0  0  0  0  0  0  0  0  0  0  0  0
    1.6993    0.3780    1.0614 N   0  0  0  0  0  0  0  0  0  0  0  0
    1.3452    0.9199    1.8438 H   0  0  0  0  0  0  0  0  0  0  0  0
    2.8193   -0.5216    1.3080 C   0  0  0  0  0  0  0  0  0  0  0  0
    3.4895   -0.5474    0.4424 H   0  0  0  0  0  0  0  0  0  0  0  0
    3.3928   -0.1820    2.1756 H   0  0  0  0  0  0  0  0  0  0  0  0
    2.4580   -1.5365    1.5051 H   0  0  0  0  0  0  0  0  0  0  0  0
  1  2  1  0  0  0  0
  2  3  1  0  0  0  0
  2  4  1  0  0  0  0
  2  5  1  0  0  0  0
  5  6  2  0  0  0  0
  5  7  1  0  0  0  0
  7  8  1  0  0  0  0
  7  9  1  0  0  0  0
  9 10  1  0  0  0  0
  9 11  1  0  0  0  0
  9 25  1  0  0  0  0
 11 12  1  0  0  0  0
 11 13  1  0  0  0  0
 11 14  1  0  0  0  0
 14 15  1  0  0  0  0
 14 23  2  0  0  0  0
 15 16  1  0  0  0  0
 15 17  2  0  0  0  0
 17 18  1  0  0  0  0
 17 19  1  0  0  0  0
 19 20  1  0  0  0  0
 19 21  2  0  0  0  0
 21 22  1  0  0  0  0
 21 23  1  0  0  0  0
 23 24  1  0  0  0  0
 25 26  2  0  0  0  0
 25 27  1  0  0  0  0
 27 28  1  0  0  0  0
 27 29  1  0  0  0  0
 29 30  1  0  0  0  0
 29 31  1  0  0  0  0
 29 32  1  0  0  0  0
M  END
$$$$

  -OEChem-01062216093D

 32 32  0     1  0  0  0  0  0999 V2000
   -3.2074   -2.4946    0.9201 H   0  0  0  0  0  0  0  0  0  0  0  0
   -3.1674   -1.6329    0.2480 C   0  0  0  0  0  0  0  0  0  0  0  0
   -4.0899   -1.0573    0.3555 H   0  0  0  0  0  0  0  0  0  0  0  0
   -3.0879   -1.9940   -0.7803 H   0  0  0  0  0  0  0  0  0  0  0  0
   -1.9713   -0.7629    0.5843 C   0  0  0  0  0  0  0  0  0  0  0  0
   -1.3150   -0.9975    1.5877 O   0  0  0  0  0  0  0  0  0  0  0  0
   -1.7136    0.3625   -0.1753 N   0  0  0  0  0  0  0  0  0  0  0  0
   -2.3281    0.4974   -0.9729 H   0  0  0  0  0  0  0  0  0  0  0  0
   -0.4221    1.0791   -0.2146 C   0  0  1  0  0  0  0  0  0  0  0  0
   -0.2940    1.4970   -1.2182 H   0  0  0  0  0  0  0  0  0  0  0  0
   -0.4794    2.2479    0.7879 C   0  0  0  0  0  0  0  0  0  0  0  0
   -0.7433    1.8732    1.7824 H   0  0  0  0  0  0  0  0  0  0  0  0
    0.5076    2.7162    0.8650 H   0  0  0  0  0  0  0  0  0  0  0  0
   -1.4744    3.2948    0.3458 C   0  0  0  0  0  0  0  0  0  0  0  0
   -1.1212    4.2468   -0.6224 C   0  0  0  0  0  0  0  0  0  0  0  0
   -0.1251    4.2394   -1.0556 H   0  0  0  0  0  0  0  0  0  0  0  0
   -2.0444    5.2126   -1.0378 C   0  0  0  0  0  0  0  0  0  0  0  0
   -1.7616    5.9466   -1.7866 H   0  0  0  0  0  0  0  0  0  0  0  0
   -3.3300    5.2334   -0.4885 C   0  0  0  0  0  0  0  0  0  0  0  0
   -4.0467    5.9837   -0.8099 H   0  0  0  0  0  0  0  0  0  0  0  0
   -3.6910    4.2882    0.4766 C   0  0  0  0  0  0  0  0  0  0  0  0
   -4.6887    4.3035    0.9055 H   0  0  0  0  0  0  0  0  0  0  0  0
   -2.7665    3.3235    0.8915 C   0  0  0  0  0  0  0  0  0  0  0  0
   -3.0546    2.5916    1.6407 H   0  0  0  0  0  0  0  0  0  0  0  0
    0.8225    0.1859    0.0223 C   0  0  0  0  0  0  0  0  0  0  0  0
    1.2506   -0.4714   -0.9187 O   0  0  0  0  0  0  0  0  0  0  0  0
    1.5213    0.1929    1.2172 N   0  0  0  0  0  0  0  0  0  0  0  0
    0.9855    0.5106    2.0205 H   0  0  0  0  0  0  0  0  0  0  0  0
    2.6335   -0.7146    1.4681 C   0  0  0  0  0  0  0  0  0  0  0  0
    3.4280   -0.5626    0.7298 H   0  0  0  0  0  0  0  0  0  0  0  0
    3.0510   -0.5336    2.4633 H   0  0  0  0  0  0  0  0  0  0  0  0
    2.2961   -1.7552    1.4154 H   0  0  0  0  0  0  0  0  0  0  0  0
  1  2  1  0  0  0  0
  2  3  1  0  0  0  0
  2  4  1  0  0  0  0
  2  5  1  0  0  0  0
  5  6  2  0  0  0  0
  5  7  1  0  0  0  0
  7  8  1  0  0  0  0
  7  9  1  0  0  0  0
  9 10  1  0  0  0  0
  9 11  1  0  0  0  0
  9 25  1  0  0  0  0
 11 12  1  0  0  0  0
 11 13  1  0  0  0  0
 11 14  1  0  0  0  0
 14 15  1  0  0  0  0
 14 23  2  0  0  0  0
 15 16  1  0  0  0  0
 15 17  2  0  0  0  0
 17 18  1  0  0  0  0
 17 19  1  0  0  0  0
 19 20  1  0  0  0  0
 19 21  2  0  0  0  0
 21 22  1  0  0  0  0
 21 23  1  0  0  0  0
 23 24  1  0  0  0  0
 25 26  2  0  0  0  0
 25 27  1  0  0  0  0
 27 28  1  0  0  0  0
 27 29  1  0  0  0  0
 29 30  1  0  0  0  0
 29 31  1  0  0  0  0
 29 32  1  0  0  0  0
M  END
$$$$

  -OEChem-01062216093D

 32 32  0     1  0  0  0  0  0999 V2000
   -3.3187   -2.4661    0.9040 H   0  0  0  0  0  0  0  0  0  0  0  0
   -3.2524   -1.5995    0.2402 C   0  0  0  0  0  0  0  0  0  0  0  0
   -4.1508   -0.9902    0.3642 H   0  0  0  0  0  0  0  0  0  0  0  0
   -3.1990   -1.9525   -0.7926 H   0  0  0  0  0  0  0  0  0  0  0  0
   -2.0195   -0.7802    0.5723 C   0  0  0  0  0  0  0  0  0  0  0  0
   -1.3654   -1.0513    1.5675 O   0  0  0  0  0  0  0  0  0  0  0  0
   -1.7268    0.3418   -0.1791 N   0  0  0  0  0  0  0  0  0  0  0  0
   -2.3547    0.5200   -0.9580 H   0  0  0  0  0  0  0  0  0  0  0  0
   -0.4293    1.0500   -0.2101 C   0  0  1  0  0  0  0  0  0  0  0  0
   -0.3006    1.4717   -1.2125 H   0  0  0  0  0  0  0  0  0  0  0  0
   -0.4806    2.2147    0.7966 C   0  0  0  0  0  0  0  0  0  0  0  0
   -0.7514    1.8394    1.7891 H   0  0  0  0  0  0  0  0  0  0  0  0
    0.5113    2.6717    0.8810 H   0  0  0  0  0  0  0  0  0  0  0  0
   -1.4664    3.2694    0.3528 C   0  0  0  0  0  0  0  0  0  0  0  0
   -1.1015    4.2208   -0.6116 C   0  0  0  0  0  0  0  0  0  0  0  0
   -0.1026    4.2087   -1.0382 H   0  0  0  0  0  0  0  0  0  0  0  0
   -2.0174    5.1905   -1.0335 C   0  0  0  0  0  0  0  0  0  0  0  0
   -1.7262    5.9231   -1.7805 H   0  0  0  0  0  0  0  0  0  0  0  0
   -3.3063    5.2181   -0.4925 C   0  0  0  0  0  0  0  0  0  0  0  0
   -4.0166    5.9721   -0.8191 H   0  0  0  0  0  0  0  0  0  0  0  0
   -3.6782    4.2758    0.4713 C   0  0  0  0  0  0  0  0  0  0  0  0
   -4.6780    4.2980    0.8950 H   0  0  0  0  0  0  0  0  0  0  0  0
   -2.7614    3.3060    0.8915 C   0  0  0  0  0  0  0  0  0  0  0  0
   -3.0581    2.5761    1.6391 H   0  0  0  0  0  0  0  0  0  0  0  0
    0.8262    0.1753    0.0348 C   0  0  0  0  0  0  0  0  0  0  0  0
    1.4406   -0.2454   -0.9376 O   0  0  0  0  0  0  0  0  0  0  0  0
    1.3359   -0.0376    1.3032 N   0  0  0  0  0  0  0  0  0  0  0  0
    0.6334    0.0182    2.0395 H   0  0  0  0  0  0  0  0  0  0  0  0
    2.4811   -0.9070    1.5399 C   0  0  0  0  0  0  0  0  0  0  0  0
    3.3546   -0.5526    0.9828 H   0  0  0  0  0  0  0  0  0  0  0  0
    2.7340   -0.9152    2.6044 H   0  0  0  0  0  0  0  0  0  0  0  0
    2.2551   -1.9316    1.2267 H   0  0  0  0  0  0  0  0  0  0  0  0
  1  2  1  0  0  0  0
  2  3  1  0  0  0  0
  2  4  1  0  0  0  0
  2  5  1  0  0  0  0
  5  6  2  0  0  0  0
  5  7  1  0  0  0  0
  7  8  1  0  0  0  0
  7  9  1  0  0  0  0
  9 10  1  0  0  0  0
  9 11  1  0  0  0  0
  9 25  1  0  0  0  0
 11 12  1  0  0  0  0
 11 13  1  0  0  0  0
 11 14  1  0  0  0  0
 14 15  1  0  0  0  0
 14 23  2  0  0  0  0
 15 16  1  0  0  0  0
 15 17  2  0  0  0  0
 17 18  1  0  0  0  0
 17 19  1  0  0  0  0
 19 20  1  0  0  0  0
 19 21  2  0  0  0  0
 21 22  1  0  0  0  0
 21 23  1  0  0  0  0
 23 24  1  0  0  0  0
 25 26  2  0  0  0  0
 25 27  1  0  0  0  0
 27 28  1  0  0  0  0
 27 29  1  0  0  0  0
 29 30  1  0  0  0  0
 29 31  1  0  0  0  0
 29 32  1  0  0  0  0
M  END
$$$$

  -OEChem-01062216093D

 32 32  0     1  0  0  0  0  0999 V2000
   -3.4793   -2.4127    0.8768 H   0  0  0  0  0  0  0  0  0  0  0  0
   -3.3650   -1.5439    0.2221 C   0  0  0  0  0  0  0  0  0  0  0  0
   -4.2236   -0.8825    0.3606 H   0  0  0  0  0  0  0  0  0  0  0  0
   -3.3417   -1.8880   -0.8147 H   0  0  0  0  0  0  0  0  0  0  0  0
   -2.0825   -0.8037    0.5518 C   0  0  0  0  0  0  0  0  0  0  0  0
   -1.4395   -1.1321    1.5354 O   0  0  0  0  0  0  0  0  0  0  0  0
   -1.7364    0.3089   -0.1905 N   0  0  0  0  0  0  0  0  0  0  0  0
   -2.3843    0.5483   -0.9360 H   0  0  0  0  0  0  0  0  0  0  0  0
   -0.4320    1.0088   -0.2172 C   0  0  1  0  0  0  0  0  0  0  0  0
   -0.3048    1.4312   -1.2197 H   0  0  0  0  0  0  0  0  0  0  0  0
   -0.4838    2.1692    0.7928 C   0  0  0  0  0  0  0  0  0  0  0  0
   -0.7567    1.7902    1.7833 H   0  0  0  0  0  0  0  0  0  0  0  0
    0.5097    2.6220    0.8818 H   0  0  0  0  0  0  0  0  0  0  0  0
   -1.4627    3.2312    0.3511 C   0  0  0  0  0  0  0  0  0  0  0  0
   -1.0899    4.1859   -0.6066 C   0  0  0  0  0  0  0  0  0  0  0  0
   -0.0900    4.1692   -1.0309 H   0  0  0  0  0  0  0  0  0  0  0  0
   -1.9977    5.1658   -1.0224 C   0  0  0  0  0  0  0  0  0  0  0  0
   -1.6986    5.9019   -1.7628 H   0  0  0  0  0  0  0  0  0  0  0  0
   -3.2873    5.1989   -0.4827 C   0  0  0  0  0  0  0  0  0  0  0  0
   -3.9912    5.9614   -0.8036 H   0  0  0  0  0  0  0  0  0  0  0  0
   -3.6671    4.2522    0.4738 C   0  0  0  0  0  0  0  0  0  0  0  0
   -4.6668    4.2790    0.8973 H   0  0  0  0  0  0  0  0  0  0  0  0
   -2.7578    3.2732    0.8888 C   0  0  0  0  0  0  0  0  0  0  0  0
   -3.0592    2.5423    1.6335 H   0  0  0  0  0  0  0  0  0  0  0  0
    0.8434    0.1666    0.0411 C   0  0  0  0  0  0  0  0  0  0  0  0
    1.6205   -0.0114   -0.8884 O   0  0  0  0  0  0  0  0  0  0  0  0
    1.1917   -0.2772    1.3030 N   0  0  0  0  0  0  0  0  0  0  0  0
    0.3919   -0.3962    1.9283 H   0  0  0  0  0  0  0  0  0  0  0  0
    2.3578   -1.1181    1.5394 C   0  0  0  0  0  0  0  0  0  0  0  0
    3.2704   -0.6125    1.2065 H   0  0  0  0  0  0  0  0  0  0  0  0
    2.4549   -1.3338    2.6077 H   0  0  0  0  0  0  0  0  0  0  0  0
    2.2620   -2.0660    0.9998 H   0  0  0  0  0  0  0  0  0  0  0  0
  1  2  1  0  0  0  0
  2  3  1  0  0  0  0
  2  4  1  0  0  0  0
  2  5  1  0  0  0  0
  5  6  2  0  0  0  0
  5  7  1  0  0  0  0
  7  8  1  0  0  0  0
  7  9  1  0  0  0  0
  9 10  1  0  0  0  0
  9 11  1  0  0  0  0
  9 25  1  0  0  0  0
 11 12  1  0  0  0  0
 11 13  1  0  0  0  0
 11 14  1  0  0  0  0
 14 15  1  0  0  0  0
 14 23  2  0  0  0  0
 15 16  1  0  0  0  0
 15 17  2  0  0  0  0
 17 18  1  0  0  0  0
 17 19  1  0  0  0  0
 19 20  1  0  0  0  0
 19 21  2  0  0  0  0
 21 22  1  0  0  0  0
 21 23  1  0  0  0  0
 23 24  1  0  0  0  0
 25 26  2  0  0  0  0
 25 27  1  0  0  0  0
 27 28  1  0  0  0  0
 27 29  1  0  0  0  0
 29 30  1  0  0  0  0
 29 31  1  0  0  0  0
 29 32  1  0  0  0  0
M  END
$$$$

  -OEChem-01062216093D

 32 32  0     1  0  0  0  0  0999 V2000
   -3.6281   -2.3655    0.8245 H   0  0  0  0  0  0  0  0  0  0  0  0
   -3.4760   -1.4814    0.1985 C   0  0  0  0  0  0  0  0  0  0  0  0
   -4.2995   -0.7834    0.3672 H   0  0  0  0  0  0  0  0  0  0  0  0
   -3.4784   -1.7900   -0.8498 H   0  0  0  0  0  0  0  0  0  0  0  0
   -2.1556   -0.8175    0.5411 C   0  0  0  0  0  0  0  0  0  0  0  0
   -1.5352   -1.2023    1.5173 O   0  0  0  0  0  0  0  0  0  0  0  0
   -1.7561    0.2871   -0.1861 N   0  0  0  0  0  0  0  0  0  0  0  0
   -2.4092    0.5746   -0.9099 H   0  0  0  0  0  0  0  0  0  0  0  0
   -0.4417    0.9732   -0.2077 C   0  0  1  0  0  0  0  0  0  0  0  0
   -0.3169    1.3978   -1.2094 H   0  0  0  0  0  0  0  0  0  0  0  0
   -0.4955    2.1301    0.8056 C   0  0  0  0  0  0  0  0  0  0  0  0
   -0.7772    1.7484    1.7928 H   0  0  0  0  0  0  0  0  0  0  0  0
    0.4988    2.5791    0.9053 H   0  0  0  0  0  0  0  0  0  0  0  0
   -1.4657    3.1980    0.3572 C   0  0  0  0  0  0  0  0  0  0  0  0
   -1.0788    4.1527   -0.5952 C   0  0  0  0  0  0  0  0  0  0  0  0
   -0.0753    4.1309   -1.0108 H   0  0  0  0  0  0  0  0  0  0  0  0
   -1.9778    5.1379   -1.0179 C   0  0  0  0  0  0  0  0  0  0  0  0
   -1.6688    5.8734   -1.7551 H   0  0  0  0  0  0  0  0  0  0  0  0
   -3.2718    5.1772   -0.4895 C   0  0  0  0  0  0  0  0  0  0  0  0
   -3.9683    5.9444   -0.8148 H   0  0  0  0  0  0  0  0  0  0  0  0
   -3.6658    4.2306    0.4613 C   0  0  0  0  0  0  0  0  0  0  0  0
   -4.6692    4.2624    0.8756 H   0  0  0  0  0  0  0  0  0  0  0  0
   -2.7658    3.2457    0.8825 C   0  0  0  0  0  0  0  0  0  0  0  0
   -3.0781    2.5145    1.6224 H   0  0  0  0  0  0  0  0  0  0  0  0
    0.8546    0.1625    0.0542 C   0  0  0  0  0  0  0  0  0  0  0  0
    1.7417    0.2115   -0.7886 O   0  0  0  0  0  0  0  0  0  0  0  0
    1.0973   -0.5284    1.2252 N   0  0  0  0  0  0  0  0  0  0  0  0
    0.2625   -0.7379    1.7784 H   0  0  0  0  0  0  0  0  0  0  0  0
    2.2782   -1.3570    1.4294 C   0  0  0  0  0  0  0  0  0  0  0  0
    3.1905   -0.7673    1.2930 H   0  0  0  0  0  0  0  0  0  0  0  0
    2.2808   -1.7630    2.4453 H   0  0  0  0  0  0  0  0  0  0  0  0
    2.2876   -2.1913    0.7204 H   0  0  0  0  0  0  0  0  0  0  0  0
  1  2  1  0  0  0  0
  2  3  1  0  0  0  0
  2  4  1  0  0  0  0
  2  5  1  0  0  0  0
  5  6  2  0  0  0  0
  5  7  1  0  0  0  0
  7  8  1  0  0  0  0
  7  9  1  0  0  0  0
  9 10  1  0  0  0  0
  9 11  1  0  0  0  0
  9 25  1  0  0  0  0
 11 12  1  0  0  0  0
 11 13  1  0  0  0  0
 11 14  1  0  0  0  0
 14 15  1  0  0  0  0
 14 23  2  0  0  0  0
 15 16  1  0  0  0  0
 15 17  2  0  0  0  0
 17 18  1  0  0  0  0
 17 19  1  0  0  0  0
 19 20  1  0  0  0  0
 19 21  2  0  0  0  0
 21 22  1  0  0  0  0
 21 23  1  0  0  0  0
 23 24  1  0  0  0  0
 25 26  2  0  0  0  0
 25 27  1  0  0  0  0
 27 28  1  0  0  0  0
 27 29  1  0  0  0  0
 29 30  1  0  0  0  0
 29 31  1  0  0  0  0
 29 32  1  0  0  0  0
M  END
$$$$

  -OEChem-01062216093D

 32 32  0     1  0  0  0  0  0999 V2000
   -3.7830   -2.2983    0.8235 H   0  0  0  0  0  0  0  0  0  0  0  0
   -3.5818   -1.4333    0.1849 C   0  0  0  0  0  0  0  0  0  0  0  0
   -4.3733   -0.6946    0.3332 H   0  0  0  0  0  0  0  0  0  0  0  0
   -3.5877   -1.7597   -0.8578 H   0  0  0  0  0  0  0  0  0  0  0  0
   -2.2345   -0.8266    0.5315 C   0  0  0  0  0  0  0  0  0  0  0  0
   -1.6304   -1.2490    1.5017 O   0  0  0  0  0  0  0  0  0  0  0  0
   -1.7940    0.2667   -0.1894 N   0  0  0  0  0  0  0  0  0  0  0  0
   -2.4494    0.5901   -0.8957 H   0  0  0  0  0  0  0  0  0  0  0  0
   -0.4665    0.9303   -0.2185 C   0  0  1  0  0  0  0  0  0  0  0  0
   -0.3473    1.3543   -1.2211 H   0  0  0  0  0  0  0  0  0  0  0  0
   -0.5060    2.0849    0.7985 C   0  0  0  0  0  0  0  0  0  0  0  0
   -0.7894    1.7021    1.7849 H   0  0  0  0  0  0  0  0  0  0  0  0
    0.4931    2.5235    0.8978 H   0  0  0  0  0  0  0  0  0  0  0  0
   -1.4634    3.1667    0.3566 C   0  0  0  0  0  0  0  0  0  0  0  0
   -1.0647    4.1196   -0.5920 C   0  0  0  0  0  0  0  0  0  0  0  0
   -0.0615    4.0857   -1.0081 H   0  0  0  0  0  0  0  0  0  0  0  0
   -1.9507    5.1184   -1.0095 C   0  0  0  0  0  0  0  0  0  0  0  0
   -1.6322    5.8530   -1.7433 H   0  0  0  0  0  0  0  0  0  0  0  0
   -3.2435    5.1732   -0.4794 C   0  0  0  0  0  0  0  0  0  0  0  0
   -3.9303    5.9506   -0.8014 H   0  0  0  0  0  0  0  0  0  0  0  0
   -3.6484    4.2294    0.4696 C   0  0  0  0  0  0  0  0  0  0  0  0
   -4.6504    4.2739    0.8863 H   0  0  0  0  0  0  0  0  0  0  0  0
   -2.7610    3.2313    0.8862 C   0  0  0  0  0  0  0  0  0  0  0  0
   -3.0811    2.5040    1.6266 H   0  0  0  0  0  0  0  0  0  0  0  0
    0.8419    0.1330    0.0356 C   0  0  0  0  0  0  0  0  0  0  0  0
    1.8028    0.3821   -0.6818 O   0  0  0  0  0  0  0  0  0  0  0  0
    1.0160   -0.7880    1.0488 N   0  0  0  0  0  0  0  0  0  0  0  0
    0.1735   -1.0564    1.5625 H   0  0  0  0  0  0  0  0  0  0  0  0
    2.2335   -1.5644    1.2429 C   0  0  0  0  0  0  0  0  0  0  0  0
    3.0947   -0.9020    1.3808 H   0  0  0  0  0  0  0  0  0  0  0  0
    2.1391   -2.1949    2.1321 H   0  0  0  0  0  0  0  0  0  0  0  0
    2.4176   -2.2086    0.3769 H   0  0  0  0  0  0  0  0  0  0  0  0
  1  2  1  0  0  0  0
  2  3  1  0  0  0  0
  2  4  1  0  0  0  0
  2  5  1  0  0  0  0
  5  6  2  0  0  0  0
  5  7  1  0  0  0  0
  7  8  1  0  0  0  0
  7  9  1  0  0  0  0
  9 10  1  0  0  0  0
  9 11  1  0  0  0  0
  9 25  1  0  0  0  0
 11 12  1  0  0  0  0
 11 13  1  0  0  0  0
 11 14  1  0  0  0  0
 14 15  1  0  0  0  0
 14 23  2  0  0  0  0
 15 16  1  0  0  0  0
 15 17  2  0  0  0  0
 17 18  1  0  0  0  0
 17 19  1  0  0  0  0
 19 20  1  0  0  0  0
 19 21  2  0  0  0  0
 21 22  1  0  0  0  0
 21 23  1  0  0  0  0
 23 24  1  0  0  0  0
 25 26  2  0  0  0  0
 25 27  1  0  0  0  0
 27 28  1  0  0  0  0
 27 29  1  0  0  0  0
 29 30  1  0  0  0  0
 29 31  1  0  0  0  0
 29 32  1  0  0  0  0
M  END
$$$$

  -OEChem-01062216093D

 32 32  0     1  0  0  0  0  0999 V2000
   -3.2248   -2.4504    1.0877 H   0  0  0  0  0  0  0  0  0  0  0  0
   -3.0752   -1.6562    0.3507 C   0  0  0  0  0  0  0  0  0  0  0  0
   -3.9781   -1.0424    0.3070 H   0  0  0  0  0  0  0  0  0  0  0  0
   -2.9040   -2.1125   -0.6271 H   0  0  0  0  0  0  0  0  0  0  0  0
   -1.8844   -0.8000    0.7386 C   0  0  0  0  0  0  0  0  0  0  0  0
   -1.3397   -0.9929    1.8097 O   0  0  0  0  0  0  0  0  0  0  0  0
   -1.5628    0.2921   -0.0403 N   0  0  0  0  0  0  0  0  0  0  0  0
   -2.2044    0.4573   -0.8104 H   0  0  0  0  0  0  0  0  0  0  0  0
   -0.2989    1.0663   -0.0988 C   0  0  1  0  0  0  0  0  0  0  0  0
   -0.2205    1.4563   -1.1184 H   0  0  0  0  0  0  0  0  0  0  0  0
   -0.4858    2.2561    0.8669 C   0  0  0  0  0  0  0  0  0  0  0  0
   -0.7503    1.8836    1.8624 H   0  0  0  0  0  0  0  0  0  0  0  0
    0.4534    2.8090    0.9746 H   0  0  0  0  0  0  0  0  0  0  0  0
   -1.5409    3.2134    0.3619 C   0  0  0  0  0  0  0  0  0  0  0  0
   -1.2219    4.1640   -0.6189 C   0  0  0  0  0  0  0  0  0  0  0  0
   -0.2111    4.2172   -1.0138 H   0  0  0  0  0  0  0  0  0  0  0  0
   -2.1962    5.0498   -1.0918 C   0  0  0  0  0  0  0  0  0  0  0  0
   -1.9387    5.7847   -1.8489 H   0  0  0  0  0  0  0  0  0  0  0  0
   -3.4984    4.9929   -0.5853 C   0  0  0  0  0  0  0  0  0  0  0  0
   -4.2535    5.6838   -0.9487 H   0  0  0  0  0  0  0  0  0  0  0  0
   -3.8249    4.0495    0.3939 C   0  0  0  0  0  0  0  0  0  0  0  0
   -4.8344    4.0065    0.7919 H   0  0  0  0  0  0  0  0  0  0  0  0
   -2.8491    3.1648    0.8658 C   0  0  0  0  0  0  0  0  0  0  0  0
   -3.1070    2.4364    1.6293 H   0  0  0  0  0  0  0  0  0  0  0  0
    1.1082    0.4494    0.1763 C   0  0  0  0  0  0  0  0  0  0  0  0
    2.0836    1.1176   -0.1333 O   0  0  0  0  0  0  0  0  0  0  0  0
    1.4820   -0.5955    0.9874 N   0  0  0  0  0  0  0  0  0  0  0  0
    2.4463   -0.4690    1.2823 H   0  0  0  0  0  0  0  0  0  0  0  0
    1.1637   -1.9659    0.6057 C   0  0  0  0  0  0  0  0  0  0  0  0
    2.0611   -2.4635    0.2251 H   0  0  0  0  0  0  0  0  0  0  0  0
    0.7992   -2.5249    1.4735 H   0  0  0  0  0  0  0  0  0  0  0  0
    0.4022   -2.0009   -0.1793 H   0  0  0  0  0  0  0  0  0  0  0  0
  1  2  1  0  0  0  0
  2  3  1  0  0  0  0
  2  4  1  0  0  0  0
  2  5  1  0  0  0  0
  5  6  2  0  0  0  0
  5  7  1  0  0  0  0
  7  8  1  0  0  0  0
  7  9  1  0  0  0  0
  9 10  1  0  0  0  0
  9 11  1  0  0  0  0
  9 25  1  0  0  0  0
 11 12  1  0  0  0  0
 11 13  1  0  0  0  0
 11 14  1  0  0  0  0
 14 15  1  0  0  0  0
 14 23  2  0  0  0  0
 15 16  1  0  0  0  0
 15 17  2  0  0  0  0
 17 18  1  0  0  0  0
 17 19  1  0  0  0  0
 19 20  1  0  0  0  0
 19 21  2  0  0  0  0
 21 22  1  0  0  0  0
 21 23  1  0  0  0  0
 23 24  1  0  0  0  0
 25 26  2  0  0  0  0
 25 27  1  0  0  0  0
 27 28  1  0  0  0  0
 27 29  1  0  0  0  0
 29 30  1  0  0  0  0
 29 31  1  0  0  0  0
 29 32  1  0  0  0  0
M  END
$$$$

  -OEChem-01062216093D

 32 32  0     1  0  0  0  0  0999 V2000
   -3.5961   -2.4464    0.8647 H   0  0  0  0  0  0  0  0  0  0  0  0
   -3.4876   -1.5849    0.1994 C   0  0  0  0  0  0  0  0  0  0  0  0
   -4.3212   -0.8994    0.3705 H   0  0  0  0  0  0  0  0  0  0  0  0
   -3.5183   -1.9356   -0.8349 H   0  0  0  0  0  0  0  0  0  0  0  0
   -2.1721   -0.8777    0.4671 C   0  0  0  0  0  0  0  0  0  0  0  0
   -1.5319   -1.1805    1.4556 O   0  0  0  0  0  0  0  0  0  0  0  0
   -1.8513    0.2325   -0.2861 N   0  0  0  0  0  0  0  0  0  0  0  0
   -2.5715    0.4843   -0.9566 H   0  0  0  0  0  0  0  0  0  0  0  0
   -0.5288    0.8493   -0.5524 C   0  0  1  0  0  0  0  0  0  0  0  0
   -0.5973    1.3232   -1.5372 H   0  0  0  0  0  0  0  0  0  0  0  0
   -0.3272    1.9487    0.5069 C   0  0  0  0  0  0  0  0  0  0  0  0
   -0.4317    1.5209    1.5097 H   0  0  0  0  0  0  0  0  0  0  0  0
    0.6881    2.3538    0.4335 H   0  0  0  0  0  0  0  0  0  0  0  0
   -1.3086    3.0809    0.3135 C   0  0  0  0  0  0  0  0  0  0  0  0
   -1.0670    4.0746   -0.6465 C   0  0  0  0  0  0  0  0  0  0  0  0
   -0.1654    4.0375   -1.2515 H   0  0  0  0  0  0  0  0  0  0  0  0
   -1.9810    5.1178   -0.8321 C   0  0  0  0  0  0  0  0  0  0  0  0
   -1.7852    5.8833   -1.5772 H   0  0  0  0  0  0  0  0  0  0  0  0
   -3.1437    5.1759   -0.0574 C   0  0  0  0  0  0  0  0  0  0  0  0
   -3.8518    5.9869   -0.2003 H   0  0  0  0  0  0  0  0  0  0  0  0
   -3.3912    4.1910    0.9037 C   0  0  0  0  0  0  0  0  0  0  0  0
   -4.2914    4.2362    1.5095 H   0  0  0  0  0  0  0  0  0  0  0  0
   -2.4769    3.1481    1.0871 C   0  0  0  0  0  0  0  0  0  0  0  0
   -2.6751    2.3846    1.8340 H   0  0  0  0  0  0  0  0  0  0  0  0
    0.7863    0.0178   -0.6031 C   0  0  0  0  0  0  0  0  0  0  0  0
    1.6294    0.3617   -1.4174 O   0  0  0  0  0  0  0  0  0  0  0  0
    1.0260   -1.2612   -0.1625 N   0  0  0  0  0  0  0  0  0  0  0  0
    1.7200   -1.6935   -0.7663 H   0  0  0  0  0  0  0  0  0  0  0  0
    1.3226   -1.4502    1.2530 C   0  0  0  0  0  0  0  0  0  0  0  0
    0.9450   -0.6202    1.8596 H   0  0  0  0  0  0  0  0  0  0  0  0
    0.8677   -2.3782    1.6136 H   0  0  0  0  0  0  0  0  0  0  0  0
    2.4049   -1.5118    1.4026 H   0  0  0  0  0  0  0  0  0  0  0  0
  1  2  1  0  0  0  0
  2  3  1  0  0  0  0
  2  4  1  0  0  0  0
  2  5  1  0  0  0  0
  5  6  2  0  0  0  0
  5  7  1  0  0  0  0
  7  8  1  0  0  0  0
  7  9  1  0  0  0  0
  9 10  1  0  0  0  0
  9 11  1  0  0  0  0
  9 25  1  0  0  0  0
 11 12  1  0  0  0  0
 11 13  1  0  0  0  0
 11 14  1  0  0  0  0
 14 15  1  0  0  0  0
 14 23  2  0  0  0  0
 15 16  1  0  0  0  0
 15 17  2  0  0  0  0
 17 18  1  0  0  0  0
 17 19  1  0  0  0  0
 19 20  1  0  0  0  0
 19 21  2  0  0  0  0
 21 22  1  0  0  0  0
 21 23  1  0  0  0  0
 23 24  1  0  0  0  0
 25 26  2  0  0  0  0
 25 27  1  0  0  0  0
 27 28  1  0  0  0  0
 27 29  1  0  0  0  0
 29 30  1  0  0  0  0
 29 31  1  0  0  0  0
 29 32  1  0  0  0  0
M  END
$$$$

  -OEChem-01062216093D

 32 32  0     1  0  0  0  0  0999 V2000
   -3.8765   -2.1912    0.8882 H   0  0  0  0  0  0  0  0  0  0  0  0
   -3.6673   -1.3309    0.2459 C   0  0  0  0  0  0  0  0  0  0  0  0
   -4.3809   -0.5369    0.4790 H   0  0  0  0  0  0  0  0  0  0  0  0
   -3.7950   -1.6322   -0.7967 H   0  0  0  0  0  0  0  0  0  0  0  0
   -2.2504   -0.8380    0.4732 C   0  0  0  0  0  0  0  0  0  0  0  0
   -1.5690   -1.3735    1.3295 O   0  0  0  0  0  0  0  0  0  0  0  0
   -1.8079    0.2621   -0.2358 N   0  0  0  0  0  0  0  0  0  0  0  0
   -2.5130    0.6876   -0.8319 H   0  0  0  0  0  0  0  0  0  0  0  0
   -0.4672    0.8996   -0.2935 C   0  0  1  0  0  0  0  0  0  0  0  0
   -0.3647    1.3388   -1.2908 H   0  0  0  0  0  0  0  0  0  0  0  0
   -0.4904    2.0365    0.7502 C   0  0  0  0  0  0  0  0  0  0  0  0
   -0.7622    1.6325    1.7313 H   0  0  0  0  0  0  0  0  0  0  0  0
    0.5062    2.4787    0.8534 H   0  0  0  0  0  0  0  0  0  0  0  0
   -1.4508    3.1292    0.3401 C   0  0  0  0  0  0  0  0  0  0  0  0
   -1.0603    4.0990   -0.5949 C   0  0  0  0  0  0  0  0  0  0  0  0
   -0.0609    4.0714   -1.0203 H   0  0  0  0  0  0  0  0  0  0  0  0
   -1.9486    5.1072   -0.9844 C   0  0  0  0  0  0  0  0  0  0  0  0
   -1.6367    5.8546   -1.7082 H   0  0  0  0  0  0  0  0  0  0  0  0
   -3.2353    5.1552   -0.4388 C   0  0  0  0  0  0  0  0  0  0  0  0
   -3.9240    5.9398   -0.7390 H   0  0  0  0  0  0  0  0  0  0  0  0
   -3.6312    4.1961    0.4986 C   0  0  0  0  0  0  0  0  0  0  0  0
   -4.6276    4.2364    0.9288 H   0  0  0  0  0  0  0  0  0  0  0  0
   -2.7417    3.1884    0.8867 C   0  0  0  0  0  0  0  0  0  0  0  0
   -3.0539    2.4502    1.6194 H   0  0  0  0  0  0  0  0  0  0  0  0
    0.8428    0.0807   -0.1022 C   0  0  0  0  0  0  0  0  0  0  0  0
    1.9075    0.6592   -0.2867 O   0  0  0  0  0  0  0  0  0  0  0  0
    0.8912   -1.2797    0.1336 N   0  0  0  0  0  0  0  0  0  0  0  0
    0.0301   -1.6824    0.5056 H   0  0  0  0  0  0  0  0  0  0  0  0
    2.1343   -2.0058    0.3613 C   0  0  0  0  0  0  0  0  0  0  0  0
    2.6534   -1.6099    1.2403 H   0  0  0  0  0  0  0  0  0  0  0  0
    1.9240   -3.0662    0.5297 H   0  0  0  0  0  0  0  0  0  0  0  0
    2.7947   -1.9196   -0.5078 H   0  0  0  0  0  0  0  0  0  0  0  0
  1  2  1  0  0  0  0
  2  3  1  0  0  0  0
  2  4  1  0  0  0  0
  2  5  1  0  0  0  0
  5  6  2  0  0  0  0
  5  7  1  0  0  0  0
  7  8  1  0  0  0  0
  7  9  1  0  0  0  0
  9 10  1  0  0  0  0
  9 11  1  0  0  0  0
  9 25  1  0  0  0  0
 11 12  1  0  0  0  0
 11 13  1  0  0  0  0
 11 14  1  0  0  0  0
 14 15  1  0  0  0  0
 14 23  2  0  0  0  0
 15 16  1  0  0  0  0
 15 17  2  0  0  0  0
 17 18  1  0  0  0  0
 17 19  1  0  0  0  0
 19 20  1  0  0  0  0
 19 21  2  0  0  0  0
 21 22  1  0  0  0  0
 21 23  1  0  0  0  0
 23 24  1  0  0  0  0
 25 26  2  0  0  0  0
 25 27  1  0  0  0  0
 27 28  1  0  0  0  0
 27 29  1  0  0  0  0
 29 30  1  0  0  0  0
 29 31  1  0  0  0  0
 29 32  1  0  0  0  0
M  END
$$$$

  -OEChem-01062216093D

 32 32  0     1  0  0  0  0  0999 V2000
   -3.8194   -2.1697    0.9315 H   0  0  0  0  0  0  0  0  0  0  0  0
   -3.6275   -1.3021    0.2938 C   0  0  0  0  0  0  0  0  0  0  0  0
   -4.3064   -0.4965    0.5838 H   0  0  0  0  0  0  0  0  0  0  0  0
   -3.8246   -1.5793   -0.7447 H   0  0  0  0  0  0  0  0  0  0  0  0
   -2.1880   -0.8473    0.4455 C   0  0  0  0  0  0  0  0  0  0  0  0
   -1.4557   -1.4451    1.2136 O   0  0  0  0  0  0  0  0  0  0  0  0
   -1.7652    0.2661   -0.2549 N   0  0  0  0  0  0  0  0  0  0  0  0
   -2.4954    0.7344   -0.7856 H   0  0  0  0  0  0  0  0  0  0  0  0
   -0.4324    0.9196   -0.2995 C   0  0  1  0  0  0  0  0  0  0  0  0
   -0.3223    1.3645   -1.2931 H   0  0  0  0  0  0  0  0  0  0  0  0
   -0.4832    2.0520    0.7501 C   0  0  0  0  0  0  0  0  0  0  0  0
   -0.7585    1.6393    1.7264 H   0  0  0  0  0  0  0  0  0  0  0  0
    0.5036    2.5122    0.8666 H   0  0  0  0  0  0  0  0  0  0  0  0
   -1.4557    3.1316    0.3342 C   0  0  0  0  0  0  0  0  0  0  0  0
   -1.0711    4.1114   -0.5927 C   0  0  0  0  0  0  0  0  0  0  0  0
   -0.0679    4.0989   -1.0103 H   0  0  0  0  0  0  0  0  0  0  0  0
   -1.9701    5.1093   -0.9843 C   0  0  0  0  0  0  0  0  0  0  0  0
   -1.6625    5.8647   -1.7016 H   0  0  0  0  0  0  0  0  0  0  0  0
   -3.2610    5.1373   -0.4478 C   0  0  0  0  0  0  0  0  0  0  0  0
   -3.9571    5.9149   -0.7484 H   0  0  0  0  0  0  0  0  0  0  0  0
   -3.6511    4.1685    0.4820 C   0  0  0  0  0  0  0  0  0  0  0  0
   -4.6503    4.1951    0.9065 H   0  0  0  0  0  0  0  0  0  0  0  0
   -2.7512    3.1707    0.8716 C   0  0  0  0  0  0  0  0  0  0  0  0
   -3.0585    2.4260    1.6000 H   0  0  0  0  0  0  0  0  0  0  0  0
    0.8723    0.0924   -0.1055 C   0  0  0  0  0  0  0  0  0  0  0  0
    1.9432    0.6879   -0.0713 O   0  0  0  0  0  0  0  0  0  0  0  0
    0.9113   -1.2871   -0.1832 N   0  0  0  0  0  0  0  0  0  0  0  0
    0.0343   -1.7409    0.0751 H   0  0  0  0  0  0  0  0  0  0  0  0
    2.1393   -2.0514   -0.0012 C   0  0  0  0  0  0  0  0  0  0  0  0
    2.5611   -1.8676    0.9923 H   0  0  0  0  0  0  0  0  0  0  0  0
    1.9341   -3.1216   -0.0995 H   0  0  0  0  0  0  0  0  0  0  0  0
    2.8808   -1.7727   -0.7572 H   0  0  0  0  0  0  0  0  0  0  0  0
  1  2  1  0  0  0  0
  2  3  1  0  0  0  0
  2  4  1  0  0  0  0
  2  5  1  0  0  0  0
  5  6  2  0  0  0  0
  5  7  1  0  0  0  0
  7  8  1  0  0  0  0
  7  9  1  0  0  0  0
  9 10  1  0  0  0  0
  9 11  1  0  0  0  0
  9 25  1  0  0  0  0
 11 12  1  0  0  0  0
 11 13  1  0  0  0  0
 11 14  1  0  0  0  0
 14 15  1  0  0  0  0
 14 23  2  0  0  0  0
 15 16  1  0  0  0  0
 15 17  2  0  0  0  0
 17 18  1  0  0  0  0
 17 19  1  0  0  0  0
 19 20  1  0  0  0  0
 19 21  2  0  0  0  0
 21 22  1  0  0  0  0
 21 23  1  0  0  0  0
 23 24  1  0  0  0  0
 25 26  2  0  0  0  0
 25 27  1  0  0  0  0
 27 28  1  0  0  0  0
 27 29  1  0  0  0  0
 29 30  1  0  0  0  0
 29 31  1  0  0  0  0
 29 32  1  0  0  0  0
M  END
$$$$

  -OEChem-01062216093D

 32 32  0     1  0  0  0  0  0999 V2000
   -3.7327   -2.1626    0.9762 H   0  0  0  0  0  0  0  0  0  0  0  0
   -3.5647   -1.2874    0.3419 C   0  0  0  0  0  0  0  0  0  0  0  0
   -4.2114   -0.4766    0.6859 H   0  0  0  0  0  0  0  0  0  0  0  0
   -3.8286   -1.5431   -0.6873 H   0  0  0  0  0  0  0  0  0  0  0  0
   -2.1108   -0.8583    0.4132 C   0  0  0  0  0  0  0  0  0  0  0  0
   -1.3303   -1.5134    1.0795 O   0  0  0  0  0  0  0  0  0  0  0  0
   -1.7156    0.2729   -0.2752 N   0  0  0  0  0  0  0  0  0  0  0  0
   -2.4715    0.7805   -0.7285 H   0  0  0  0  0  0  0  0  0  0  0  0
   -0.3938    0.9474   -0.2999 C   0  0  1  0  0  0  0  0  0  0  0  0
   -0.2727    1.3993   -1.2889 H   0  0  0  0  0  0  0  0  0  0  0  0
   -0.4734    2.0745    0.7552 C   0  0  0  0  0  0  0  0  0  0  0  0
   -0.7506    1.6541    1.7278 H   0  0  0  0  0  0  0  0  0  0  0  0
    0.5033    2.5528    0.8822 H   0  0  0  0  0  0  0  0  0  0  0  0
   -1.4580    3.1403    0.3324 C   0  0  0  0  0  0  0  0  0  0  0  0
   -1.0795    4.1303   -0.5861 C   0  0  0  0  0  0  0  0  0  0  0  0
   -0.0713    4.1375   -0.9913 H   0  0  0  0  0  0  0  0  0  0  0  0
   -1.9910    5.1138   -0.9850 C   0  0  0  0  0  0  0  0  0  0  0  0
   -1.6877    5.8772   -1.6957 H   0  0  0  0  0  0  0  0  0  0  0  0
   -3.2884    5.1177   -0.4636 C   0  0  0  0  0  0  0  0  0  0  0  0
   -3.9941    5.8846   -0.7693 H   0  0  0  0  0  0  0  0  0  0  0  0
   -3.6726    4.1394    0.4585 C   0  0  0  0  0  0  0  0  0  0  0  0
   -4.6768    4.1478    0.8723 H   0  0  0  0  0  0  0  0  0  0  0  0
   -2.7601    3.1560    0.8557 C   0  0  0  0  0  0  0  0  0  0  0  0
   -3.0629    2.4052    1.5797 H   0  0  0  0  0  0  0  0  0  0  0  0
    0.8999    0.1043   -0.1011 C   0  0  0  0  0  0  0  0  0  0  0  0
    1.9506    0.6641    0.1914 O   0  0  0  0  0  0  0  0  0  0  0  0
    0.9642   -1.2190   -0.4979 N   0  0  0  0  0  0  0  0  0  0  0  0
    0.0721   -1.7057   -0.4228 H   0  0  0  0  0  0  0  0  0  0  0  0
    2.1713   -2.0210   -0.3393 C   0  0  0  0  0  0  0  0  0  0  0  0
    2.4546   -2.0817    0.7168 H   0  0  0  0  0  0  0  0  0  0  0  0
    2.0013   -3.0351   -0.7128 H   0  0  0  0  0  0  0  0  0  0  0  0
    3.0013   -1.5822   -0.9027 H   0  0  0  0  0  0  0  0  0  0  0  0
  1  2  1  0  0  0  0
  2  3  1  0  0  0  0
  2  4  1  0  0  0  0
  2  5  1  0  0  0  0
  5  6  2  0  0  0  0
  5  7  1  0  0  0  0
  7  8  1  0  0  0  0
  7  9  1  0  0  0  0
  9 10  1  0  0  0  0
  9 11  1  0  0  0  0
  9 25  1  0  0  0  0
 11 12  1  0  0  0  0
 11 13  1  0  0  0  0
 11 14  1  0  0  0  0
 14 15  1  0  0  0  0
 14 23  2  0  0  0  0
 15 16  1  0  0  0  0
 15 17  2  0  0  0  0
 17 18  1  0  0  0  0
 17 19  1  0  0  0  0
 19 20  1  0  0  0  0
 19 21  2  0  0  0  0
 21 22  1  0  0  0  0
 21 23  1  0  0  0  0
 23 24  1  0  0  0  0
 25 26  2  0  0  0  0
 25 27  1  0  0  0  0
 27 28  1  0  0  0  0
 27 29  1  0  0  0  0
 29 30  1  0  0  0  0
 29 31  1  0  0  0  0
 29 32  1  0  0  0  0
M  END
$$$$

  -OEChem-01062216093D

 32 32  0     1  0  0  0  0  0999 V2000
   -3.6095   -2.1900    1.0067 H   0  0  0  0  0  0  0  0  0  0  0  0
   -3.4765   -1.3087    0.3727 C   0  0  0  0  0  0  0  0  0  0  0  0
   -4.1180   -0.5077    0.7479 H   0  0  0  0  0  0  0  0  0  0  0  0
   -3.7776   -1.5601   -0.6470 H   0  0  0  0  0  0  0  0  0  0  0  0
   -2.0256   -0.8645    0.3916 C   0  0  0  0  0  0  0  0  0  0  0  0
   -1.2114   -1.5269    1.0077 O   0  0  0  0  0  0  0  0  0  0  0  0
   -1.6691    0.2828   -0.2927 N   0  0  0  0  0  0  0  0  0  0  0  0
   -2.4464    0.7991   -0.6972 H   0  0  0  0  0  0  0  0  0  0  0  0
   -0.3614    0.9820   -0.3027 C   0  0  1  0  0  0  0  0  0  0  0  0
   -0.2333    1.4410   -1.2873 H   0  0  0  0  0  0  0  0  0  0  0  0
   -0.4598    2.1050    0.7541 C   0  0  0  0  0  0  0  0  0  0  0  0
   -0.7327    1.6783    1.7252 H   0  0  0  0  0  0  0  0  0  0  0  0
    0.5107    2.5958    0.8823 H   0  0  0  0  0  0  0  0  0  0  0  0
   -1.4581    3.1571    0.3282 C   0  0  0  0  0  0  0  0  0  0  0  0
   -1.0913    4.1539   -0.5878 C   0  0  0  0  0  0  0  0  0  0  0  0
   -0.0830    4.1757   -0.9915 H   0  0  0  0  0  0  0  0  0  0  0  0
   -2.0156    5.1251   -0.9873 C   0  0  0  0  0  0  0  0  0  0  0  0
   -1.7220    5.8928   -1.6973 H   0  0  0  0  0  0  0  0  0  0  0  0
   -3.3142    5.1106   -0.4690 C   0  0  0  0  0  0  0  0  0  0  0  0
   -4.0299    5.8684   -0.7753 H   0  0  0  0  0  0  0  0  0  0  0  0
   -3.6869    4.1251    0.4504 C   0  0  0  0  0  0  0  0  0  0  0  0
   -4.6926    4.1187    0.8606 H   0  0  0  0  0  0  0  0  0  0  0  0
   -2.7616    3.1538    0.8478 C   0  0  0  0  0  0  0  0  0  0  0  0
   -3.0553    2.3976    1.5699 H   0  0  0  0  0  0  0  0  0  0  0  0
    0.9200    0.1240   -0.0998 C   0  0  0  0  0  0  0  0  0  0  0  0
    1.8999    0.5782    0.4802 O   0  0  0  0  0  0  0  0  0  0  0  0
    1.0615   -1.0701   -0.7842 N   0  0  0  0  0  0  0  0  0  0  0  0
    0.1822   -1.5163   -1.0288 H   0  0  0  0  0  0  0  0  0  0  0  0
    2.2240   -1.9321   -0.6076 C   0  0  0  0  0  0  0  0  0  0  0  0
    2.3081   -2.2508    0.4367 H   0  0  0  0  0  0  0  0  0  0  0  0
    2.1323   -2.8223   -1.2369 H   0  0  0  0  0  0  0  0  0  0  0  0
    3.1414   -1.4050   -0.8904 H   0  0  0  0  0  0  0  0  0  0  0  0
  1  2  1  0  0  0  0
  2  3  1  0  0  0  0
  2  4  1  0  0  0  0
  2  5  1  0  0  0  0
  5  6  2  0  0  0  0
  5  7  1  0  0  0  0
  7  8  1  0  0  0  0
  7  9  1  0  0  0  0
  9 10  1  0  0  0  0
  9 11  1  0  0  0  0
  9 25  1  0  0  0  0
 11 12  1  0  0  0  0
 11 13  1  0  0  0  0
 11 14  1  0  0  0  0
 14 15  1  0  0  0  0
 14 23  2  0  0  0  0
 15 16  1  0  0  0  0
 15 17  2  0  0  0  0
 17 18  1  0  0  0  0
 17 19  1  0  0  0  0
 19 20  1  0  0  0  0
 19 21  2  0  0  0  0
 21 22  1  0  0  0  0
 21 23  1  0  0  0  0
 23 24  1  0  0  0  0
 25 26  2  0  0  0  0
 25 27  1  0  0  0  0
 27 28  1  0  0  0  0
 27 29  1  0  0  0  0
 29 30  1  0  0  0  0
 29 31  1  0  0  0  0
 29 32  1  0  0  0  0
M  END
$$$$

  -OEChem-01062216093D

 32 32  0     1  0  0  0  0  0999 V2000
   -3.5488   -2.1968    1.0307 H   0  0  0  0  0  0  0  0  0  0  0  0
   -3.4290   -1.3168    0.3922 C   0  0  0  0  0  0  0  0  0  0  0  0
   -4.0628   -0.5149    0.7782 H   0  0  0  0  0  0  0  0  0  0  0  0
   -3.7499   -1.5708   -0.6209 H   0  0  0  0  0  0  0  0  0  0  0  0
   -1.9785   -0.8717    0.3809 C   0  0  0  0  0  0  0  0  0  0  0  0
   -1.1494   -1.5417    0.9683 O   0  0  0  0  0  0  0  0  0  0  0  0
   -1.6425    0.2817   -0.3047 N   0  0  0  0  0  0  0  0  0  0  0  0
   -2.4321    0.8036   -0.6767 H   0  0  0  0  0  0  0  0  0  0  0  0
   -0.3450    0.9965   -0.3015 C   0  0  1  0  0  0  0  0  0  0  0  0
   -0.2089    1.4582   -1.2838 H   0  0  0  0  0  0  0  0  0  0  0  0
   -0.4562    2.1178    0.7545 C   0  0  0  0  0  0  0  0  0  0  0  0
   -0.7293    1.6897    1.7249 H   0  0  0  0  0  0  0  0  0  0  0  0
    0.5130    2.6111    0.8832 H   0  0  0  0  0  0  0  0  0  0  0  0
   -1.4599    3.1638    0.3268 C   0  0  0  0  0  0  0  0  0  0  0  0
   -1.0963    4.1644   -0.5863 C   0  0  0  0  0  0  0  0  0  0  0  0
   -0.0861    4.1954   -0.9845 H   0  0  0  0  0  0  0  0  0  0  0  0
   -2.0258    5.1295   -0.9883 C   0  0  0  0  0  0  0  0  0  0  0  0
   -1.7347    5.9021   -1.6940 H   0  0  0  0  0  0  0  0  0  0  0  0
   -3.3267    5.1043   -0.4764 C   0  0  0  0  0  0  0  0  0  0  0  0
   -4.0464    5.8576   -0.7841 H   0  0  0  0  0  0  0  0  0  0  0  0
   -3.6963    4.1150    0.4399 C   0  0  0  0  0  0  0  0  0  0  0  0
   -4.7033    4.1013    0.8464 H   0  0  0  0  0  0  0  0  0  0  0  0
   -2.7659    3.1500    0.8404 C   0  0  0  0  0  0  0  0  0  0  0  0
   -3.0580    2.3913    1.5605 H   0  0  0  0  0  0  0  0  0  0  0  0
    0.9278    0.1327   -0.0841 C   0  0  0  0  0  0  0  0  0  0  0  0
    1.7911    0.4510    0.7262 O   0  0  0  0  0  0  0  0  0  0  0  0
    1.2103   -0.8791   -0.9845 N   0  0  0  0  0  0  0  0  0  0  0  0
    0.4146   -1.2249   -1.5114 H   0  0  0  0  0  0  0  0  0  0  0  0
    2.3602   -1.7614   -0.8277 C   0  0  0  0  0  0  0  0  0  0  0  0
    2.2953   -2.3083    0.1190 H   0  0  0  0  0  0  0  0  0  0  0  0
    2.3950   -2.4862   -1.6465 H   0  0  0  0  0  0  0  0  0  0  0  0
    3.2915   -1.1854   -0.8392 H   0  0  0  0  0  0  0  0  0  0  0  0
  1  2  1  0  0  0  0
  2  3  1  0  0  0  0
  2  4  1  0  0  0  0
  2  5  1  0  0  0  0
  5  6  2  0  0  0  0
  5  7  1  0  0  0  0
  7  8  1  0  0  0  0
  7  9  1  0  0  0  0
  9 10  1  0  0  0  0
  9 11  1  0  0  0  0
  9 25  1  0  0  0  0
 11 12  1  0  0  0  0
 11 13  1  0  0  0  0
 11 14  1  0  0  0  0
 14 15  1  0  0  0  0
 14 23  2  0  0  0  0
 15 16  1  0  0  0  0
 15 17  2  0  0  0  0
 17 18  1  0  0  0  0
 17 19  1  0  0  0  0
 19 20  1  0  0  0  0
 19 21  2  0  0  0  0
 21 22  1  0  0  0  0
 21 23  1  0  0  0  0
 23 24  1  0  0  0  0
 25 26  2  0  0  0  0
 25 27  1  0  0  0  0
 27 28  1  0  0  0  0
 27 29  1  0  0  0  0
 29 30  1  0  0  0  0
 29 31  1  0  0  0  0
 29 32  1  0  0  0  0
M  END
$$$$

  -OEChem-01062216093D

 32 32  0     1  0  0  0  0  0999 V2000
   -3.5471   -2.1961    1.0386 H   0  0  0  0  0  0  0  0  0  0  0  0
   -3.4280   -1.3174    0.3979 C   0  0  0  0  0  0  0  0  0  0  0  0
   -4.0551   -0.5121    0.7876 H   0  0  0  0  0  0  0  0  0  0  0  0
   -3.7572   -1.5714   -0.6125 H   0  0  0  0  0  0  0  0  0  0  0  0
   -1.9749   -0.8804    0.3749 C   0  0  0  0  0  0  0  0  0  0  0  0
   -1.1433   -1.5679    0.9374 O   0  0  0  0  0  0  0  0  0  0  0  0
   -1.6397    0.2738   -0.3101 N   0  0  0  0  0  0  0  0  0  0  0  0
   -2.4318    0.8013   -0.6681 H   0  0  0  0  0  0  0  0  0  0  0  0
   -0.3452    0.9921   -0.2975 C   0  0  1  0  0  0  0  0  0  0  0  0
   -0.2038    1.4566   -1.2777 H   0  0  0  0  0  0  0  0  0  0  0  0
   -0.4559    2.1134    0.7572 C   0  0  0  0  0  0  0  0  0  0  0  0
   -0.7320    1.6863    1.7275 H   0  0  0  0  0  0  0  0  0  0  0  0
    0.5166    2.6006    0.8866 H   0  0  0  0  0  0  0  0  0  0  0  0
   -1.4566    3.1609    0.3275 C   0  0  0  0  0  0  0  0  0  0  0  0
   -1.0921    4.1616   -0.5855 C   0  0  0  0  0  0  0  0  0  0  0  0
   -0.0816    4.1939   -0.9826 H   0  0  0  0  0  0  0  0  0  0  0  0
   -2.0221    5.1253   -0.9900 C   0  0  0  0  0  0  0  0  0  0  0  0
   -1.7314    5.8971   -1.6966 H   0  0  0  0  0  0  0  0  0  0  0  0
   -3.3238    5.0992   -0.4797 C   0  0  0  0  0  0  0  0  0  0  0  0
   -4.0442    5.8510   -0.7897 H   0  0  0  0  0  0  0  0  0  0  0  0
   -3.6937    4.1102    0.4370 C   0  0  0  0  0  0  0  0  0  0  0  0
   -4.7013    4.0953    0.8421 H   0  0  0  0  0  0  0  0  0  0  0  0
   -2.7629    3.1465    0.8393 C   0  0  0  0  0  0  0  0  0  0  0  0
   -3.0546    2.3874    1.5591 H   0  0  0  0  0  0  0  0  0  0  0  0
    0.9243    0.1281   -0.0681 C   0  0  0  0  0  0  0  0  0  0  0  0
    1.6576    0.3043    0.8987 O   0  0  0  0  0  0  0  0  0  0  0  0
    1.3857   -0.6616   -1.1063 N   0  0  0  0  0  0  0  0  0  0  0  0
    0.7073   -0.8899   -1.8258 H   0  0  0  0  0  0  0  0  0  0  0  0
    2.5652   -1.5087   -0.9776 C   0  0  0  0  0  0  0  0  0  0  0  0
    2.4287   -2.2325   -0.1670 H   0  0  0  0  0  0  0  0  0  0  0  0
    2.7404   -2.0569   -1.9080 H   0  0  0  0  0  0  0  0  0  0  0  0
    3.4515   -0.9023   -0.7633 H   0  0  0  0  0  0  0  0  0  0  0  0
  1  2  1  0  0  0  0
  2  3  1  0  0  0  0
  2  4  1  0  0  0  0
  2  5  1  0  0  0  0
  5  6  2  0  0  0  0
  5  7  1  0  0  0  0
  7  8  1  0  0  0  0
  7  9  1  0  0  0  0
  9 10  1  0  0  0  0
  9 11  1  0  0  0  0
  9 25  1  0  0  0  0
 11 12  1  0  0  0  0
 11 13  1  0  0  0  0
 11 14  1  0  0  0  0
 14 15  1  0  0  0  0
 14 23  2  0  0  0  0
 15 16  1  0  0  0  0
 15 17  2  0  0  0  0
 17 18  1  0  0  0  0
 17 19  1  0  0  0  0
 19 20  1  0  0  0  0
 19 21  2  0  0  0  0
 21 22  1  0  0  0  0
 21 23  1  0  0  0  0
 23 24  1  0  0  0  0
 25 26  2  0  0  0  0
 25 27  1  0  0  0  0
 27 28  1  0  0  0  0
 27 29  1  0  0  0  0
 29 30  1  0  0  0  0
 29 31  1  0  0  0  0
 29 32  1  0  0  0  0
M  END
$$$$

  -OEChem-01062216093D

 32 32  0     1  0  0  0  0  0999 V2000
   -3.5754   -2.1834    1.0514 H   0  0  0  0  0  0  0  0  0  0  0  0
   -3.4510   -1.3053    0.4111 C   0  0  0  0  0  0  0  0  0  0  0  0
   -4.0565   -0.4898    0.8139 H   0  0  0  0  0  0  0  0  0  0  0  0
   -3.8013   -1.5498   -0.5945 H   0  0  0  0  0  0  0  0  0  0  0  0
   -1.9909   -0.8944    0.3652 C   0  0  0  0  0  0  0  0  0  0  0  0
   -1.1631   -1.6041    0.9043 O   0  0  0  0  0  0  0  0  0  0  0  0
   -1.6484    0.2576   -0.3197 N   0  0  0  0  0  0  0  0  0  0  0  0
   -2.4395    0.7949   -0.6646 H   0  0  0  0  0  0  0  0  0  0  0  0
   -0.3521    0.9715   -0.3015 C   0  0  1  0  0  0  0  0  0  0  0  0
   -0.2120    1.4394   -1.2802 H   0  0  0  0  0  0  0  0  0  0  0  0
   -0.4604    2.0908    0.7550 C   0  0  0  0  0  0  0  0  0  0  0  0
   -0.7432    1.6621    1.7227 H   0  0  0  0  0  0  0  0  0  0  0  0
    0.5162    2.5684    0.8905 H   0  0  0  0  0  0  0  0  0  0  0  0
   -1.4551    3.1454    0.3273 C   0  0  0  0  0  0  0  0  0  0  0  0
   -1.0836    4.1471   -0.5817 C   0  0  0  0  0  0  0  0  0  0  0  0
   -0.0718    4.1759   -0.9755 H   0  0  0  0  0  0  0  0  0  0  0  0
   -2.0080    5.1165   -0.9866 C   0  0  0  0  0  0  0  0  0  0  0  0
   -1.7116    5.8891   -1.6905 H   0  0  0  0  0  0  0  0  0  0  0  0
   -3.3115    5.0946   -0.4810 C   0  0  0  0  0  0  0  0  0  0  0  0
   -4.0281    5.8494   -0.7919 H   0  0  0  0  0  0  0  0  0  0  0  0
   -3.6883    4.1056    0.4324 C   0  0  0  0  0  0  0  0  0  0  0  0
   -4.6977    4.0940    0.8332 H   0  0  0  0  0  0  0  0  0  0  0  0
   -2.7629    3.1370    0.8361 C   0  0  0  0  0  0  0  0  0  0  0  0
   -3.0606    2.3789    1.5548 H   0  0  0  0  0  0  0  0  0  0  0  0
    0.9213    0.1150   -0.0645 C   0  0  0  0  0  0  0  0  0  0  0  0
    1.5209    0.1417    1.0048 O   0  0  0  0  0  0  0  0  0  0  0  0
    1.5733   -0.4235   -1.1604 N   0  0  0  0  0  0  0  0  0  0  0  0
    1.0294   -0.5105   -2.0127 H   0  0  0  0  0  0  0  0  0  0  0  0
    2.8019   -1.1997   -1.0408 C   0  0  0  0  0  0  0  0  0  0  0  0
    2.6427   -2.0707   -0.3960 H   0  0  0  0  0  0  0  0  0  0  0  0
    3.1248   -1.5509   -2.0255 H   0  0  0  0  0  0  0  0  0  0  0  0
    3.6029   -0.5869   -0.6140 H   0  0  0  0  0  0  0  0  0  0  0  0
  1  2  1  0  0  0  0
  2  3  1  0  0  0  0
  2  4  1  0  0  0  0
  2  5  1  0  0  0  0
  5  6  2  0  0  0  0
  5  7  1  0  0  0  0
  7  8  1  0  0  0  0
  7  9  1  0  0  0  0
  9 10  1  0  0  0  0
  9 11  1  0  0  0  0
  9 25  1  0  0  0  0
 11 12  1  0  0  0  0
 11 13  1  0  0  0  0
 11 14  1  0  0  0  0
 14 15  1  0  0  0  0
 14 23  2  0  0  0  0
 15 16  1  0  0  0  0
 15 17  2  0  0  0  0
 17 18  1  0  0  0  0
 17 19  1  0  0  0  0
 19 20  1  0  0  0  0
 19 21  2  0  0  0  0
 21 22  1  0  0  0  0
 21 23  1  0  0  0  0
 23 24  1  0  0  0  0
 25 26  2  0  0  0  0
 25 27  1  0  0  0  0
 27 28  1  0  0  0  0
 27 29  1  0  0  0  0
 29 30  1  0  0  0  0
 29 31  1  0  0  0  0
 29 32  1  0  0  0  0
M  END
$$$$

  -OEChem-01062216093D

 32 32  0     1  0  0  0  0  0999 V2000
   -3.6183   -2.1681    1.0457 H   0  0  0  0  0  0  0  0  0  0  0  0
   -3.4850   -1.2765    0.4261 C   0  0  0  0  0  0  0  0  0  0  0  0
   -4.0534   -0.4549    0.8682 H   0  0  0  0  0  0  0  0  0  0  0  0
   -3.8713   -1.4826   -0.5750 H   0  0  0  0  0  0  0  0  0  0  0  0
   -2.0150   -0.9081    0.3486 C   0  0  0  0  0  0  0  0  0  0  0  0
   -1.1956   -1.6578    0.8434 O   0  0  0  0  0  0  0  0  0  0  0  0
   -1.6582    0.2406   -0.3345 N   0  0  0  0  0  0  0  0  0  0  0  0
   -2.4466    0.7968   -0.6541 H   0  0  0  0  0  0  0  0  0  0  0  0
   -0.3577    0.9465   -0.3122 C   0  0  1  0  0  0  0  0  0  0  0  0
   -0.2190    1.4184   -1.2890 H   0  0  0  0  0  0  0  0  0  0  0  0
   -0.4598    2.0607    0.7486 C   0  0  0  0  0  0  0  0  0  0  0  0
   -0.7471    1.6299    1.7141 H   0  0  0  0  0  0  0  0  0  0  0  0
    0.5209    2.5288    0.8869 H   0  0  0  0  0  0  0  0  0  0  0  0
   -1.4482    3.1220    0.3237 C   0  0  0  0  0  0  0  0  0  0  0  0
   -1.0716    4.1258   -0.5811 C   0  0  0  0  0  0  0  0  0  0  0  0
   -0.0594    4.1524   -0.9744 H   0  0  0  0  0  0  0  0  0  0  0  0
   -1.9920    5.1000   -0.9831 C   0  0  0  0  0  0  0  0  0  0  0  0
   -1.6923    5.8741   -1.6835 H   0  0  0  0  0  0  0  0  0  0  0  0
   -3.2962    5.0808   -0.4792 C   0  0  0  0  0  0  0  0  0  0  0  0
   -4.0095    5.8398   -0.7877 H   0  0  0  0  0  0  0  0  0  0  0  0
   -3.6783    4.0885    0.4287 C   0  0  0  0  0  0  0  0  0  0  0  0
   -4.6883    4.0781    0.8278 H   0  0  0  0  0  0  0  0  0  0  0  0
   -2.7571    3.1148    0.8293 C   0  0  0  0  0  0  0  0  0  0  0  0
   -3.0589    2.3530    1.5422 H   0  0  0  0  0  0  0  0  0  0  0  0
    0.9213    0.1001   -0.0694 C   0  0  0  0  0  0  0  0  0  0  0  0
    1.3944   -0.0264    1.0545 O   0  0  0  0  0  0  0  0  0  0  0  0
    1.7516   -0.1720   -1.1439 N   0  0  0  0  0  0  0  0  0  0  0  0
    1.3389   -0.1061   -2.0686 H   0  0  0  0  0  0  0  0  0  0  0  0
    3.0287   -0.8619   -1.0012 C   0  0  0  0  0  0  0  0  0  0  0  0
    2.8832   -1.8432   -0.5371 H   0  0  0  0  0  0  0  0  0  0  0  0
    3.4921   -1.0068   -1.9816 H   0  0  0  0  0  0  0  0  0  0  0  0
    3.7141   -0.2763   -0.3796 H   0  0  0  0  0  0  0  0  0  0  0  0
  1  2  1  0  0  0  0
  2  3  1  0  0  0  0
  2  4  1  0  0  0  0
  2  5  1  0  0  0  0
  5  6  2  0  0  0  0
  5  7  1  0  0  0  0
  7  8  1  0  0  0  0
  7  9  1  0  0  0  0
  9 10  1  0  0  0  0
  9 11  1  0  0  0  0
  9 25  1  0  0  0  0
 11 12  1  0  0  0  0
 11 13  1  0  0  0  0
 11 14  1  0  0  0  0
 14 15  1  0  0  0  0
 14 23  2  0  0  0  0
 15 16  1  0  0  0  0
 15 17  2  0  0  0  0
 17 18  1  0  0  0  0
 17 19  1  0  0  0  0
 19 20  1  0  0  0  0
 19 21  2  0  0  0  0
 21 22  1  0  0  0  0
 21 23  1  0  0  0  0
 23 24  1  0  0  0  0
 25 26  2  0  0  0  0
 25 27  1  0  0  0  0
 27 28  1  0  0  0  0
 27 29  1  0  0  0  0
 29 30  1  0  0  0  0
 29 31  1  0  0  0  0
 29 32  1  0  0  0  0
M  END
$$$$

  -OEChem-01062216093D

 32 32  0     1  0  0  0  0  0999 V2000
   -3.6644   -2.1344    1.0753 H   0  0  0  0  0  0  0  0  0  0  0  0
   -3.5209   -1.2536    0.4429 C   0  0  0  0  0  0  0  0  0  0  0  0
   -4.0537   -0.4116    0.8905 H   0  0  0  0  0  0  0  0  0  0  0  0
   -3.9388   -1.4581   -0.5458 H   0  0  0  0  0  0  0  0  0  0  0  0
   -2.0426   -0.9309    0.3242 C   0  0  0  0  0  0  0  0  0  0  0  0
   -1.2360   -1.7242    0.7675 O   0  0  0  0  0  0  0  0  0  0  0  0
   -1.6708    0.2148   -0.3562 N   0  0  0  0  0  0  0  0  0  0  0  0
   -2.4555    0.7873   -0.6551 H   0  0  0  0  0  0  0  0  0  0  0  0
   -0.3653    0.9130   -0.3308 C   0  0  1  0  0  0  0  0  0  0  0  0
   -0.2317    1.3859   -1.3075 H   0  0  0  0  0  0  0  0  0  0  0  0
   -0.4600    2.0225    0.7353 C   0  0  0  0  0  0  0  0  0  0  0  0
   -0.7515    1.5882    1.6981 H   0  0  0  0  0  0  0  0  0  0  0  0
    0.5239    2.4824    0.8781 H   0  0  0  0  0  0  0  0  0  0  0  0
   -1.4408    3.0931    0.3178 C   0  0  0  0  0  0  0  0  0  0  0  0
   -1.0562    4.0988   -0.5813 C   0  0  0  0  0  0  0  0  0  0  0  0
   -0.0439    4.1200   -0.9740 H   0  0  0  0  0  0  0  0  0  0  0  0
   -1.9685    5.0833   -0.9765 C   0  0  0  0  0  0  0  0  0  0  0  0
   -1.6624    5.8591   -1.6723 H   0  0  0  0  0  0  0  0  0  0  0  0
   -3.2723    5.0725   -0.4712 C   0  0  0  0  0  0  0  0  0  0  0  0
   -3.9788    5.8402   -0.7737 H   0  0  0  0  0  0  0  0  0  0  0  0
   -3.6622    4.0781    0.4311 C   0  0  0  0  0  0  0  0  0  0  0  0
   -4.6718    4.0747    0.8317 H   0  0  0  0  0  0  0  0  0  0  0  0
   -2.7493    3.0937    0.8242 C   0  0  0  0  0  0  0  0  0  0  0  0
   -3.0576    2.3303    1.5326 H   0  0  0  0  0  0  0  0  0  0  0  0
    0.9241    0.0831   -0.0847 C   0  0  0  0  0  0  0  0  0  0  0  0
    1.2806   -0.2062    1.0514 O   0  0  0  0  0  0  0  0  0  0  0  0
    1.9063    0.0812   -1.0623 N   0  0  0  0  0  0  0  0  0  0  0  0
    1.6225    0.3283   -2.0046 H   0  0  0  0  0  0  0  0  0  0  0  0
    3.2238   -0.5137   -0.8658 C   0  0  0  0  0  0  0  0  0  0  0  0
    3.1298   -1.5647   -0.5725 H   0  0  0  0  0  0  0  0  0  0  0  0
    3.8035   -0.4634   -1.7921 H   0  0  0  0  0  0  0  0  0  0  0  0
    3.7739    0.0218   -0.0848 H   0  0  0  0  0  0  0  0  0  0  0  0
  1  2  1  0  0  0  0
  2  3  1  0  0  0  0
  2  4  1  0  0  0  0
  2  5  1  0  0  0  0
  5  6  2  0  0  0  0
  5  7  1  0  0  0  0
  7  8  1  0  0  0  0
  7  9  1  0  0  0  0
  9 10  1  0  0  0  0
  9 11  1  0  0  0  0
  9 25  1  0  0  0  0
 11 12  1  0  0  0  0
 11 13  1  0  0  0  0
 11 14  1  0  0  0  0
 14 15  1  0  0  0  0
 14 23  2  0  0  0  0
 15 16  1  0  0  0  0
 15 17  2  0  0  0  0
 17 18  1  0  0  0  0
 17 19  1  0  0  0  0
 19 20  1  0  0  0  0
 19 21  2  0  0  0  0
 21 22  1  0  0  0  0
 21 23  1  0  0  0  0
 23 24  1  0  0  0  0
 25 26  2  0  0  0  0
 25 27  1  0  0  0  0
 27 28  1  0  0  0  0
 27 29  1  0  0  0  0
 29 30  1  0  0  0  0
 29 31  1  0  0  0  0
 29 32  1  0  0  0  0
M  END
$$$$

  -OEChem-01062216093D

 32 32  0     1  0  0  0  0  0999 V2000
   -3.7328   -2.0990    1.0669 H   0  0  0  0  0  0  0  0  0  0  0  0
   -3.5627   -1.2160    0.4442 C   0  0  0  0  0  0  0  0  0  0  0  0
   -4.0670   -0.3623    0.9029 H   0  0  0  0  0  0  0  0  0  0  0  0
   -3.9888   -1.3956   -0.5457 H   0  0  0  0  0  0  0  0  0  0  0  0
   -2.0752   -0.9391    0.3251 C   0  0  0  0  0  0  0  0  0  0  0  0
   -1.2971   -1.7627    0.7618 O   0  0  0  0  0  0  0  0  0  0  0  0
   -1.6753    0.1946   -0.3595 N   0  0  0  0  0  0  0  0  0  0  0  0
   -2.4513    0.7763   -0.6628 H   0  0  0  0  0  0  0  0  0  0  0  0
   -0.3620    0.8806   -0.3458 C   0  0  1  0  0  0  0  0  0  0  0  0
   -0.2371    1.3502   -1.3253 H   0  0  0  0  0  0  0  0  0  0  0  0
   -0.4441    1.9866    0.7242 C   0  0  0  0  0  0  0  0  0  0  0  0
   -0.7314    1.5500    1.6872 H   0  0  0  0  0  0  0  0  0  0  0  0
    0.5429    2.4413    0.8634 H   0  0  0  0  0  0  0  0  0  0  0  0
   -1.4216    3.0636    0.3155 C   0  0  0  0  0  0  0  0  0  0  0  0
   -1.0387    4.0709   -0.5826 C   0  0  0  0  0  0  0  0  0  0  0  0
   -0.0280    4.0918   -0.9790 H   0  0  0  0  0  0  0  0  0  0  0  0
   -1.9510    5.0575   -0.9727 C   0  0  0  0  0  0  0  0  0  0  0  0
   -1.6465    5.8357   -1.6665 H   0  0  0  0  0  0  0  0  0  0  0  0
   -3.2539    5.0453   -0.4657 C   0  0  0  0  0  0  0  0  0  0  0  0
   -3.9616    5.8127   -0.7661 H   0  0  0  0  0  0  0  0  0  0  0  0
   -3.6424    4.0490    0.4350 C   0  0  0  0  0  0  0  0  0  0  0  0
   -4.6518    4.0439    0.8361 H   0  0  0  0  0  0  0  0  0  0  0  0
   -2.7288    3.0643    0.8254 C   0  0  0  0  0  0  0  0  0  0  0  0
   -3.0359    2.2998    1.5333 H   0  0  0  0  0  0  0  0  0  0  0  0
    0.9389    0.0695   -0.0985 C   0  0  0  0  0  0  0  0  0  0  0  0
    1.2044   -0.3893    1.0048 O   0  0  0  0  0  0  0  0  0  0  0  0
    2.0252    0.3189   -0.9226 N   0  0  0  0  0  0  0  0  0  0  0  0
    1.8397    0.7525   -1.8208 H   0  0  0  0  0  0  0  0  0  0  0  0
    3.3671   -0.1885   -0.6565 C   0  0  0  0  0  0  0  0  0  0  0  0
    3.3500   -1.2779   -0.5448 H   0  0  0  0  0  0  0  0  0  0  0  0
    4.0381    0.0636   -1.4831 H   0  0  0  0  0  0  0  0  0  0  0  0
    3.7682    0.2536    0.2615 H   0  0  0  0  0  0  0  0  0  0  0  0
  1  2  1  0  0  0  0
  2  3  1  0  0  0  0
  2  4  1  0  0  0  0
  2  5  1  0  0  0  0
  5  6  2  0  0  0  0
  5  7  1  0  0  0  0
  7  8  1  0  0  0  0
  7  9  1  0  0  0  0
  9 10  1  0  0  0  0
  9 11  1  0  0  0  0
  9 25  1  0  0  0  0
 11 12  1  0  0  0  0
 11 13  1  0  0  0  0
 11 14  1  0  0  0  0
 14 15  1  0  0  0  0
 14 23  2  0  0  0  0
 15 16  1  0  0  0  0
 15 17  2  0  0  0  0
 17 18  1  0  0  0  0
 17 19  1  0  0  0  0
 19 20  1  0  0  0  0
 19 21  2  0  0  0  0
 21 22  1  0  0  0  0
 21 23  1  0  0  0  0
 23 24  1  0  0  0  0
 25 26  2  0  0  0  0
 25 27  1  0  0  0  0
 27 28  1  0  0  0  0
 27 29  1  0  0  0  0
 29 30  1  0  0  0  0
 29 31  1  0  0  0  0
 29 32  1  0  0  0  0
M  END
$$$$

  -OEChem-01062216093D

 32 32  0     1  0  0  0  0  0999 V2000
   -3.2410   -2.5418    0.9512 H   0  0  0  0  0  0  0  0  0  0  0  0
   -3.1181   -1.7594    0.1971 C   0  0  0  0  0  0  0  0  0  0  0  0
   -4.0830   -1.2762    0.0269 H   0  0  0  0  0  0  0  0  0  0  0  0
   -2.7766   -2.2206   -0.7326 H   0  0  0  0  0  0  0  0  0  0  0  0
   -2.1015   -0.7380    0.6700 C   0  0  0  0  0  0  0  0  0  0  0  0
   -1.7489   -0.7381    1.8383 O   0  0  0  0  0  0  0  0  0  0  0  0
   -1.7919    0.3408   -0.1371 N   0  0  0  0  0  0  0  0  0  0  0  0
   -2.3068    0.3407   -1.0112 H   0  0  0  0  0  0  0  0  0  0  0  0
   -0.4639    0.9951   -0.2039 C   0  0  1  0  0  0  0  0  0  0  0  0
   -0.3583    1.3983   -1.2150 H   0  0  0  0  0  0  0  0  0  0  0  0
   -0.4645    2.1677    0.7948 C   0  0  0  0  0  0  0  0  0  0  0  0
   -0.7308    1.8014    1.7925 H   0  0  0  0  0  0  0  0  0  0  0  0
    0.5402    2.5958    0.8711 H   0  0  0  0  0  0  0  0  0  0  0  0
   -1.4197    3.2560    0.3635 C   0  0  0  0  0  0  0  0  0  0  0  0
   -1.0451    4.1964   -0.6083 C   0  0  0  0  0  0  0  0  0  0  0  0
   -0.0555    4.1585   -1.0521 H   0  0  0  0  0  0  0  0  0  0  0  0
   -1.9385    5.1961   -1.0093 C   0  0  0  0  0  0  0  0  0  0  0  0
   -1.6406    5.9238   -1.7584 H   0  0  0  0  0  0  0  0  0  0  0  0
   -3.2150    5.2626   -0.4424 C   0  0  0  0  0  0  0  0  0  0  0  0
   -3.9083    6.0398   -0.7502 H   0  0  0  0  0  0  0  0  0  0  0  0
   -3.5973    4.3280    0.5244 C   0  0  0  0  0  0  0  0  0  0  0  0
   -4.5876    4.3765    0.9675 H   0  0  0  0  0  0  0  0  0  0  0  0
   -2.7029    3.3296    0.9241 C   0  0  0  0  0  0  0  0  0  0  0  0
   -3.0063    2.6029    1.6731 H   0  0  0  0  0  0  0  0  0  0  0  0
    0.8202    0.1539    0.0511 C   0  0  0  0  0  0  0  0  0  0  0  0
    0.8164   -0.9789    0.5096 O   0  0  0  0  0  0  0  0  0  0  0  0
    1.9830    0.5467   -0.5931 N   0  0  0  0  0  0  0  0  0  0  0  0
    1.9909    1.4600   -1.0354 H   0  0  0  0  0  0  0  0  0  0  0  0
    3.2144   -0.2365   -0.5835 C   0  0  0  0  0  0  0  0  0  0  0  0
    3.0592   -1.2010   -1.0783 H   0  0  0  0  0  0  0  0  0  0  0  0
    4.0082    0.2988   -1.1129 H   0  0  0  0  0  0  0  0  0  0  0  0
    3.5460   -0.4170    0.4446 H   0  0  0  0  0  0  0  0  0  0  0  0
  1  2  1  0  0  0  0
  2  3  1  0  0  0  0
  2  4  1  0  0  0  0
  2  5  1  0  0  0  0
  5  6  2  0  0  0  0
  5  7  1  0  0  0  0
  7  8  1  0  0  0  0
  7  9  1  0  0  0  0
  9 10  1  0  0  0  0
  9 11  1  0  0  0  0
  9 25  1  0  0  0  0
 11 12  1  0  0  0  0
 11 13  1  0  0  0  0
 11 14  1  0  0  0  0
 14 15  1  0  0  0  0
 14 23  2  0  0  0  0
 15 16  1  0  0  0  0
 15 17  2  0  0  0  0
 17 18  1  0  0  0  0
 17 19  1  0  0  0  0
 19 20  1  0  0  0  0
 19 21  2  0  0  0  0
 21 22  1  0  0  0  0
 21 23  1  0  0  0  0
 23 24  1  0  0  0  0
 25 26  2  0  0  0  0
 25 27  1  0  0  0  0
 27 28  1  0  0  0  0
 27 29  1  0  0  0  0
 29 30  1  0  0  0  0
 29 31  1  0  0  0  0
 29 32  1  0  0  0  0
M  END
$$$$

  -OEChem-01062216093D

 32 32  0     1  0  0  0  0  0999 V2000
   -3.2082   -2.5504    0.9510 H   0  0  0  0  0  0  0  0  0  0  0  0
   -3.1237   -1.7467    0.2141 C   0  0  0  0  0  0  0  0  0  0  0  0
   -4.0962   -1.2611    0.1058 H   0  0  0  0  0  0  0  0  0  0  0  0
   -2.8282   -2.1808   -0.7441 H   0  0  0  0  0  0  0  0  0  0  0  0
   -2.0851   -0.7370    0.6645 C   0  0  0  0  0  0  0  0  0  0  0  0
   -1.6638   -0.7723    1.8103 O   0  0  0  0  0  0  0  0  0  0  0  0
   -1.7888    0.3491   -0.1383 N   0  0  0  0  0  0  0  0  0  0  0  0
   -2.3068    0.3576   -1.0107 H   0  0  0  0  0  0  0  0  0  0  0  0
   -0.4612    1.0048   -0.1916 C   0  0  1  0  0  0  0  0  0  0  0  0
   -0.3379    1.4099   -1.2001 H   0  0  0  0  0  0  0  0  0  0  0  0
   -0.4765    2.1757    0.8118 C   0  0  0  0  0  0  0  0  0  0  0  0
   -0.7545    1.8065    1.8052 H   0  0  0  0  0  0  0  0  0  0  0  0
    0.5232    2.6108    0.9034 H   0  0  0  0  0  0  0  0  0  0  0  0
   -1.4310    3.2600    0.3704 C   0  0  0  0  0  0  0  0  0  0  0  0
   -1.0463    4.2020   -0.5960 C   0  0  0  0  0  0  0  0  0  0  0  0
   -0.0509    4.1671   -1.0274 H   0  0  0  0  0  0  0  0  0  0  0  0
   -1.9381    5.1979   -1.0094 C   0  0  0  0  0  0  0  0  0  0  0  0
   -1.6328    5.9256   -1.7556 H   0  0  0  0  0  0  0  0  0  0  0  0
   -3.2225    5.2589   -0.4598 C   0  0  0  0  0  0  0  0  0  0  0  0
   -3.9151    6.0326   -0.7786 H   0  0  0  0  0  0  0  0  0  0  0  0
   -3.6146    4.3229    0.5021 C   0  0  0  0  0  0  0  0  0  0  0  0
   -4.6111    4.3670    0.9316 H   0  0  0  0  0  0  0  0  0  0  0  0
   -2.7219    3.3281    0.9141 C   0  0  0  0  0  0  0  0  0  0  0  0
   -3.0332    2.5997    1.6581 H   0  0  0  0  0  0  0  0  0  0  0  0
    0.8071    0.1419    0.0675 C   0  0  0  0  0  0  0  0  0  0  0  0
    0.7644   -1.0774    0.1677 O   0  0  0  0  0  0  0  0  0  0  0  0
    2.0372    0.6749   -0.2850 N   0  0  0  0  0  0  0  0  0  0  0  0
    2.0838    1.6745   -0.4540 H   0  0  0  0  0  0  0  0  0  0  0  0
    3.2775   -0.0939   -0.2928 C   0  0  0  0  0  0  0  0  0  0  0  0
    3.2320   -0.8882   -1.0454 H   0  0  0  0  0  0  0  0  0  0  0  0
    4.1250    0.5568   -0.5282 H   0  0  0  0  0  0  0  0  0  0  0  0
    3.4522   -0.5475    0.6887 H   0  0  0  0  0  0  0  0  0  0  0  0
  1  2  1  0  0  0  0
  2  3  1  0  0  0  0
  2  4  1  0  0  0  0
  2  5  1  0  0  0  0
  5  6  2  0  0  0  0
  5  7  1  0  0  0  0
  7  8  1  0  0  0  0
  7  9  1  0  0  0  0
  9 10  1  0  0  0  0
  9 11  1  0  0  0  0
  9 25  1  0  0  0  0
 11 12  1  0  0  0  0
 11 13  1  0  0  0  0
 11 14  1  0  0  0  0
 14 15  1  0  0  0  0
 14 23  2  0  0  0  0
 15 16  1  0  0  0  0
 15 17  2  0  0  0  0
 17 18  1  0  0  0  0
 17 19  1  0  0  0  0
 19 20  1  0  0  0  0
 19 21  2  0  0  0  0
 21 22  1  0  0  0  0
 21 23  1  0  0  0  0
 23 24  1  0  0  0  0
 25 26  2  0  0  0  0
 25 27  1  0  0  0  0
 27 28  1  0  0  0  0
 27 29  1  0  0  0  0
 29 30  1  0  0  0  0
 29 31  1  0  0  0  0
 29 32  1  0  0  0  0
M  END
$$$$

  -OEChem-01062216093D

 32 32  0     1  0  0  0  0  0999 V2000
   -3.1645   -2.5744    0.8987 H   0  0  0  0  0  0  0  0  0  0  0  0
   -3.1232   -1.7242    0.2121 C   0  0  0  0  0  0  0  0  0  0  0  0
   -4.0722   -1.1852    0.2588 H   0  0  0  0  0  0  0  0  0  0  0  0
   -2.9722   -2.1010   -0.8024 H   0  0  0  0  0  0  0  0  0  0  0  0
   -1.9817   -0.8005    0.5928 C   0  0  0  0  0  0  0  0  0  0  0  0
   -1.3550   -1.0085    1.6208 O   0  0  0  0  0  0  0  0  0  0  0  0
   -1.7377    0.3286   -0.1699 N   0  0  0  0  0  0  0  0  0  0  0  0
   -2.3046    0.3971   -1.0090 H   0  0  0  0  0  0  0  0  0  0  0  0
   -0.4366    1.0324   -0.2030 C   0  0  1  0  0  0  0  0  0  0  0  0
   -0.4259    1.6683   -1.0928 H   0  0  0  0  0  0  0  0  0  0  0  0
   -0.3126    1.9445    1.0377 C   0  0  0  0  0  0  0  0  0  0  0  0
   -0.4509    1.3625    1.9543 H   0  0  0  0  0  0  0  0  0  0  0  0
    0.6893    2.3793    1.0901 H   0  0  0  0  0  0  0  0  0  0  0  0
   -1.3131    3.0741    0.9792 C   0  0  0  0  0  0  0  0  0  0  0  0
   -1.0571    4.2205    0.2113 C   0  0  0  0  0  0  0  0  0  0  0  0
   -0.1292    4.3093   -0.3450 H   0  0  0  0  0  0  0  0  0  0  0  0
   -1.9921    5.2604    0.1562 C   0  0  0  0  0  0  0  0  0  0  0  0
   -1.7866    6.1459   -0.4381 H   0  0  0  0  0  0  0  0  0  0  0  0
   -3.1916    5.1612    0.8680 C   0  0  0  0  0  0  0  0  0  0  0  0
   -3.9176    5.9679    0.8269 H   0  0  0  0  0  0  0  0  0  0  0  0
   -3.4556    4.0213    1.6334 C   0  0  0  0  0  0  0  0  0  0  0  0
   -4.3862    3.9411    2.1873 H   0  0  0  0  0  0  0  0  0  0  0  0
   -2.5201    2.9827    1.6869 C   0  0  0  0  0  0  0  0  0  0  0  0
   -2.7325    2.0963    2.2787 H   0  0  0  0  0  0  0  0  0  0  0  0
    0.8049    0.1088   -0.3388 C   0  0  0  0  0  0  0  0  0  0  0  0
    0.6899   -1.0417   -0.7464 O   0  0  0  0  0  0  0  0  0  0  0  0
    2.0738    0.6642   -0.3760 N   0  0  0  0  0  0  0  0  0  0  0  0
    2.1717    1.6279   -0.0733 H   0  0  0  0  0  0  0  0  0  0  0  0
    3.2807   -0.1112   -0.6406 C   0  0  0  0  0  0  0  0  0  0  0  0
    3.2489   -0.5395   -1.6479 H   0  0  0  0  0  0  0  0  0  0  0  0
    4.1653    0.5284   -0.5656 H   0  0  0  0  0  0  0  0  0  0  0  0
    3.3792   -0.9248    0.0858 H   0  0  0  0  0  0  0  0  0  0  0  0
  1  2  1  0  0  0  0
  2  3  1  0  0  0  0
  2  4  1  0  0  0  0
  2  5  1  0  0  0  0
  5  6  2  0  0  0  0
  5  7  1  0  0  0  0
  7  8  1  0  0  0  0
  7  9  1  0  0  0  0
  9 10  1  0  0  0  0
  9 11  1  0  0  0  0
  9 25  1  0  0  0  0
 11 12  1  0  0  0  0
 11 13  1  0  0  0  0
 11 14  1  0  0  0  0
 14 15  1  0  0  0  0
 14 23  2  0  0  0  0
 15 16  1  0  0  0  0
 15 17  2  0  0  0  0
 17 18  1  0  0  0  0
 17 19  1  0  0  0  0
 19 20  1  0  0  0  0
 19 21  2  0  0  0  0
 21 22  1  0  0  0  0
 21 23  1  0  0  0  0
 23 24  1  0  0  0  0
 25 26  2  0  0  0  0
 25 27  1  0  0  0  0
 27 28  1  0  0  0  0
 27 29  1  0  0  0  0
 29 30  1  0  0  0  0
 29 31  1  0  0  0  0
 29 32  1  0  0  0  0
M  END
$$$$

  -OEChem-01062216093D

 32 32  0     1  0  0  0  0  0999 V2000
   -3.1196   -2.5763    0.8929 H   0  0  0  0  0  0  0  0  0  0  0  0
   -3.0970   -1.7164    0.2176 C   0  0  0  0  0  0  0  0  0  0  0  0
   -4.0453   -1.1797    0.2956 H   0  0  0  0  0  0  0  0  0  0  0  0
   -2.9709   -2.0782   -0.8057 H   0  0  0  0  0  0  0  0  0  0  0  0
   -1.9476   -0.7960    0.5819 C   0  0  0  0  0  0  0  0  0  0  0  0
   -1.2812   -1.0271    1.5798 O   0  0  0  0  0  0  0  0  0  0  0  0
   -1.7227    0.3428   -0.1714 N   0  0  0  0  0  0  0  0  0  0  0  0
   -2.3003    0.4213   -1.0023 H   0  0  0  0  0  0  0  0  0  0  0  0
   -0.4293    1.0591   -0.2001 C   0  0  1  0  0  0  0  0  0  0  0  0
   -0.4164    1.6982   -1.0878 H   0  0  0  0  0  0  0  0  0  0  0  0
   -0.3215    1.9716    1.0430 C   0  0  0  0  0  0  0  0  0  0  0  0
   -0.4567    1.3863    1.9580 H   0  0  0  0  0  0  0  0  0  0  0  0
    0.6724    2.4228    1.0992 H   0  0  0  0  0  0  0  0  0  0  0  0
   -1.3340    3.0902    0.9811 C   0  0  0  0  0  0  0  0  0  0  0  0
   -1.0830    4.2385    0.2145 C   0  0  0  0  0  0  0  0  0  0  0  0
   -0.1539    4.3329   -0.3390 H   0  0  0  0  0  0  0  0  0  0  0  0
   -2.0238    5.2728    0.1573 C   0  0  0  0  0  0  0  0  0  0  0  0
   -1.8210    6.1599   -0.4356 H   0  0  0  0  0  0  0  0  0  0  0  0
   -3.2248    5.1660    0.8655 C   0  0  0  0  0  0  0  0  0  0  0  0
   -3.9546    5.9692    0.8235 H   0  0  0  0  0  0  0  0  0  0  0  0
   -3.4846    4.0239    1.6289 C   0  0  0  0  0  0  0  0  0  0  0  0
   -4.4166    3.9380    2.1797 H   0  0  0  0  0  0  0  0  0  0  0  0
   -2.5429    2.9907    1.6851 C   0  0  0  0  0  0  0  0  0  0  0  0
   -2.7516    2.1038    2.2771 H   0  0  0  0  0  0  0  0  0  0  0  0
    0.8020    0.1231   -0.3479 C   0  0  0  0  0  0  0  0  0  0  0  0
    0.6936   -0.9304   -0.9665 O   0  0  0  0  0  0  0  0  0  0  0  0
    2.0832    0.5794   -0.0842 N   0  0  0  0  0  0  0  0  0  0  0  0
    2.1703    1.4419    0.4429 H   0  0  0  0  0  0  0  0  0  0  0  0
    3.2780   -0.2282   -0.3009 C   0  0  0  0  0  0  0  0  0  0  0  0
    3.3800   -0.4872   -1.3601 H   0  0  0  0  0  0  0  0  0  0  0  0
    4.1700    0.3267    0.0051 H   0  0  0  0  0  0  0  0  0  0  0  0
    3.2267   -1.1523    0.2847 H   0  0  0  0  0  0  0  0  0  0  0  0
  1  2  1  0  0  0  0
  2  3  1  0  0  0  0
  2  4  1  0  0  0  0
  2  5  1  0  0  0  0
  5  6  2  0  0  0  0
  5  7  1  0  0  0  0
  7  8  1  0  0  0  0
  7  9  1  0  0  0  0
  9 10  1  0  0  0  0
  9 11  1  0  0  0  0
  9 25  1  0  0  0  0
 11 12  1  0  0  0  0
 11 13  1  0  0  0  0
 11 14  1  0  0  0  0
 14 15  1  0  0  0  0
 14 23  2  0  0  0  0
 15 16  1  0  0  0  0
 15 17  2  0  0  0  0
 17 18  1  0  0  0  0
 17 19  1  0  0  0  0
 19 20  1  0  0  0  0
 19 21  2  0  0  0  0
 21 22  1  0  0  0  0
 21 23  1  0  0  0  0
 23 24  1  0  0  0  0
 25 26  2  0  0  0  0
 25 27  1  0  0  0  0
 27 28  1  0  0  0  0
 27 29  1  0  0  0  0
 29 30  1  0  0  0  0
 29 31  1  0  0  0  0
 29 32  1  0  0  0  0
M  END
$$$$

  -OEChem-01062216093D

 32 32  0     1  0  0  0  0  0999 V2000
   -3.0940   -2.5637    0.8875 H   0  0  0  0  0  0  0  0  0  0  0  0
   -3.0873   -1.6905    0.2291 C   0  0  0  0  0  0  0  0  0  0  0  0
   -4.0261   -1.1457    0.3537 H   0  0  0  0  0  0  0  0  0  0  0  0
   -3.0047   -2.0324   -0.8056 H   0  0  0  0  0  0  0  0  0  0  0  0
   -1.9154   -0.7893    0.5690 C   0  0  0  0  0  0  0  0  0  0  0  0
   -1.2168   -1.0451    1.5386 O   0  0  0  0  0  0  0  0  0  0  0  0
   -1.6995    0.3567   -0.1748 N   0  0  0  0  0  0  0  0  0  0  0  0
   -2.2912    0.4533   -0.9941 H   0  0  0  0  0  0  0  0  0  0  0  0
   -0.4143    1.0859   -0.1981 C   0  0  1  0  0  0  0  0  0  0  0  0
   -0.4006    1.7267   -1.0846 H   0  0  0  0  0  0  0  0  0  0  0  0
   -0.3178    1.9979    1.0458 C   0  0  0  0  0  0  0  0  0  0  0  0
   -0.4479    1.4107    1.9605 H   0  0  0  0  0  0  0  0  0  0  0  0
    0.6711    2.4612    1.0983 H   0  0  0  0  0  0  0  0  0  0  0  0
   -1.3421    3.1060    0.9811 C   0  0  0  0  0  0  0  0  0  0  0  0
   -1.1030    4.2578    0.2160 C   0  0  0  0  0  0  0  0  0  0  0  0
   -0.1723    4.3655   -0.3327 H   0  0  0  0  0  0  0  0  0  0  0  0
   -2.0579    5.2787    0.1545 C   0  0  0  0  0  0  0  0  0  0  0  0
   -1.8640    6.1687   -0.4370 H   0  0  0  0  0  0  0  0  0  0  0  0
   -3.2614    5.1548    0.8555 C   0  0  0  0  0  0  0  0  0  0  0  0
   -4.0020    5.9481    0.8099 H   0  0  0  0  0  0  0  0  0  0  0  0
   -3.5095    4.0086    1.6168 C   0  0  0  0  0  0  0  0  0  0  0  0
   -4.4434    3.9086    2.1620 H   0  0  0  0  0  0  0  0  0  0  0  0
   -2.5532    2.9896    1.6785 C   0  0  0  0  0  0  0  0  0  0  0  0
   -2.7530    2.0994    2.2686 H   0  0  0  0  0  0  0  0  0  0  0  0
    0.8099    0.1430   -0.3522 C   0  0  0  0  0  0  0  0  0  0  0  0
    0.7425   -0.7865   -1.1493 O   0  0  0  0  0  0  0  0  0  0  0  0
    2.0493    0.4500    0.1848 N   0  0  0  0  0  0  0  0  0  0  0  0
    2.0709    1.1575    0.9119 H   0  0  0  0  0  0  0  0  0  0  0  0
    3.2163   -0.4086    0.0193 C   0  0  0  0  0  0  0  0  0  0  0  0
    3.4576   -0.5280   -1.0423 H   0  0  0  0  0  0  0  0  0  0  0  0
    4.0839    0.0307    0.5209 H   0  0  0  0  0  0  0  0  0  0  0  0
    3.0279   -1.3971    0.4515 H   0  0  0  0  0  0  0  0  0  0  0  0
  1  2  1  0  0  0  0
  2  3  1  0  0  0  0
  2  4  1  0  0  0  0
  2  5  1  0  0  0  0
  5  6  2  0  0  0  0
  5  7  1  0  0  0  0
  7  8  1  0  0  0  0
  7  9  1  0  0  0  0
  9 10  1  0  0  0  0
  9 11  1  0  0  0  0
  9 25  1  0  0  0  0
 11 12  1  0  0  0  0
 11 13  1  0  0  0  0
 11 14  1  0  0  0  0
 14 15  1  0  0  0  0
 14 23  2  0  0  0  0
 15 16  1  0  0  0  0
 15 17  2  0  0  0  0
 17 18  1  0  0  0  0
 17 19  1  0  0  0  0
 19 20  1  0  0  0  0
 19 21  2  0  0  0  0
 21 22  1  0  0  0  0
 21 23  1  0  0  0  0
 23 24  1  0  0  0  0
 25 26  2  0  0  0  0
 25 27  1  0  0  0  0
 27 28  1  0  0  0  0
 27 29  1  0  0  0  0
 29 30  1  0  0  0  0
 29 31  1  0  0  0  0
 29 32  1  0  0  0  0
M  END
$$$$

  -OEChem-01062216093D

 32 32  0     1  0  0  0  0  0999 V2000
   -3.0984   -2.5464    0.8946 H   0  0  0  0  0  0  0  0  0  0  0  0
   -3.0911   -1.6716    0.2383 C   0  0  0  0  0  0  0  0  0  0  0  0
   -4.0164   -1.1102    0.3879 H   0  0  0  0  0  0  0  0  0  0  0  0
   -3.0408   -2.0117   -0.7989 H   0  0  0  0  0  0  0  0  0  0  0  0
   -1.8951   -0.7929    0.5521 C   0  0  0  0  0  0  0  0  0  0  0  0
   -1.1716   -1.0694    1.4975 O   0  0  0  0  0  0  0  0  0  0  0  0
   -1.6825    0.3568   -0.1858 N   0  0  0  0  0  0  0  0  0  0  0  0
   -2.2916    0.4763   -0.9895 H   0  0  0  0  0  0  0  0  0  0  0  0
   -0.4044    1.0965   -0.2035 C   0  0  1  0  0  0  0  0  0  0  0  0
   -0.3914    1.7392   -1.0888 H   0  0  0  0  0  0  0  0  0  0  0  0
   -0.3150    2.0075    1.0401 C   0  0  0  0  0  0  0  0  0  0  0  0
   -0.4432    1.4183    1.9539 H   0  0  0  0  0  0  0  0  0  0  0  0
    0.6730    2.4748    1.0895 H   0  0  0  0  0  0  0  0  0  0  0  0
   -1.3461    3.1091    0.9769 C   0  0  0  0  0  0  0  0  0  0  0  0
   -1.1128    4.2627    0.2129 C   0  0  0  0  0  0  0  0  0  0  0  0
   -0.1827    4.3743   -0.3360 H   0  0  0  0  0  0  0  0  0  0  0  0
   -2.0730    5.2784    0.1508 C   0  0  0  0  0  0  0  0  0  0  0  0
   -1.8840    6.1688   -0.4417 H   0  0  0  0  0  0  0  0  0  0  0  0
   -3.2755    5.1480    0.8525 C   0  0  0  0  0  0  0  0  0  0  0  0
   -4.0207    5.9368    0.8060 H   0  0  0  0  0  0  0  0  0  0  0  0
   -3.5170    4.0012    1.6152 C   0  0  0  0  0  0  0  0  0  0  0  0
   -4.4503    3.8973    2.1608 H   0  0  0  0  0  0  0  0  0  0  0  0
   -2.5557    2.9867    1.6761 C   0  0  0  0  0  0  0  0  0  0  0  0
   -2.7503    2.0965    2.2675 H   0  0  0  0  0  0  0  0  0  0  0  0
    0.8214    0.1581   -0.3566 C   0  0  0  0  0  0  0  0  0  0  0  0
    0.8348   -0.6368   -1.2899 O   0  0  0  0  0  0  0  0  0  0  0  0
    1.9628    0.2934    0.4161 N   0  0  0  0  0  0  0  0  0  0  0  0
    1.8664    0.8350    1.2693 H   0  0  0  0  0  0  0  0  0  0  0  0
    3.0986   -0.6134    0.3037 C   0  0  0  0  0  0  0  0  0  0  0  0
    3.5065   -0.5948   -0.7124 H   0  0  0  0  0  0  0  0  0  0  0  0
    3.8905   -0.3146    0.9970 H   0  0  0  0  0  0  0  0  0  0  0  0
    2.7947   -1.6379    0.5430 H   0  0  0  0  0  0  0  0  0  0  0  0
  1  2  1  0  0  0  0
  2  3  1  0  0  0  0
  2  4  1  0  0  0  0
  2  5  1  0  0  0  0
  5  6  2  0  0  0  0
  5  7  1  0  0  0  0
  7  8  1  0  0  0  0
  7  9  1  0  0  0  0
  9 10  1  0  0  0  0
  9 11  1  0  0  0  0
  9 25  1  0  0  0  0
 11 12  1  0  0  0  0
 11 13  1  0  0  0  0
 11 14  1  0  0  0  0
 14 15  1  0  0  0  0
 14 23  2  0  0  0  0
 15 16  1  0  0  0  0
 15 17  2  0  0  0  0
 17 18  1  0  0  0  0
 17 19  1  0  0  0  0
 19 20  1  0  0  0  0
 19 21  2  0  0  0  0
 21 22  1  0  0  0  0
 21 23  1  0  0  0  0
 23 24  1  0  0  0  0
 25 26  2  0  0  0  0
 25 27  1  0  0  0  0
 27 28  1  0  0  0  0
 27 29  1  0  0  0  0
 29 30  1  0  0  0  0
 29 31  1  0  0  0  0
 29 32  1  0  0  0  0
M  END
$$$$

  -OEChem-01062216093D

 32 32  0     1  0  0  0  0  0999 V2000
   -3.1038   -2.5424    0.8998 H   0  0  0  0  0  0  0  0  0  0  0  0
   -3.0924   -1.6706    0.2395 C   0  0  0  0  0  0  0  0  0  0  0  0
   -4.0146   -1.1035    0.3864 H   0  0  0  0  0  0  0  0  0  0  0  0
   -3.0447   -2.0157   -0.7962 H   0  0  0  0  0  0  0  0  0  0  0  0
   -1.8916   -0.7970    0.5489 C   0  0  0  0  0  0  0  0  0  0  0  0
   -1.1577   -1.0834    1.4834 O   0  0  0  0  0  0  0  0  0  0  0  0
   -1.6773    0.3528   -0.1879 N   0  0  0  0  0  0  0  0  0  0  0  0
   -2.2985    0.4896   -0.9797 H   0  0  0  0  0  0  0  0  0  0  0  0
   -0.4030    1.0978   -0.2014 C   0  0  1  0  0  0  0  0  0  0  0  0
   -0.3909    1.7391   -1.0882 H   0  0  0  0  0  0  0  0  0  0  0  0
   -0.3120    2.0111    1.0394 C   0  0  0  0  0  0  0  0  0  0  0  0
   -0.4407    1.4240    1.9543 H   0  0  0  0  0  0  0  0  0  0  0  0
    0.6797    2.4730    1.0860 H   0  0  0  0  0  0  0  0  0  0  0  0
   -1.3438    3.1118    0.9764 C   0  0  0  0  0  0  0  0  0  0  0  0
   -1.1115    4.2634    0.2094 C   0  0  0  0  0  0  0  0  0  0  0  0
   -0.1818    4.3736   -0.3410 H   0  0  0  0  0  0  0  0  0  0  0  0
   -2.0724    5.2783    0.1452 C   0  0  0  0  0  0  0  0  0  0  0  0
   -1.8839    6.1667   -0.4504 H   0  0  0  0  0  0  0  0  0  0  0  0
   -3.2744    5.1498    0.8479 C   0  0  0  0  0  0  0  0  0  0  0  0
   -4.0198    5.9383    0.7989 H   0  0  0  0  0  0  0  0  0  0  0  0
   -3.5144    4.0053    1.6144 C   0  0  0  0  0  0  0  0  0  0  0  0
   -4.4470    3.9034    2.1616 H   0  0  0  0  0  0  0  0  0  0  0  0
   -2.5526    2.9912    1.6777 C   0  0  0  0  0  0  0  0  0  0  0  0
   -2.7465    2.1031    2.2727 H   0  0  0  0  0  0  0  0  0  0  0  0
    0.8253    0.1647   -0.3483 C   0  0  0  0  0  0  0  0  0  0  0  0
    0.9545   -0.4664   -1.3906 O   0  0  0  0  0  0  0  0  0  0  0  0
    1.8254    0.0990    0.6066 N   0  0  0  0  0  0  0  0  0  0  0  0
    1.5733    0.4433    1.5285 H   0  0  0  0  0  0  0  0  0  0  0  0
    2.9327   -0.8438    0.5120 C   0  0  0  0  0  0  0  0  0  0  0  0
    3.5032   -0.6756   -0.4075 H   0  0  0  0  0  0  0  0  0  0  0  0
    3.6086   -0.7181    1.3631 H   0  0  0  0  0  0  0  0  0  0  0  0
    2.5595   -1.8734    0.5126 H   0  0  0  0  0  0  0  0  0  0  0  0
  1  2  1  0  0  0  0
  2  3  1  0  0  0  0
  2  4  1  0  0  0  0
  2  5  1  0  0  0  0
  5  6  2  0  0  0  0
  5  7  1  0  0  0  0
  7  8  1  0  0  0  0
  7  9  1  0  0  0  0
  9 10  1  0  0  0  0
  9 11  1  0  0  0  0
  9 25  1  0  0  0  0
 11 12  1  0  0  0  0
 11 13  1  0  0  0  0
 11 14  1  0  0  0  0
 14 15  1  0  0  0  0
 14 23  2  0  0  0  0
 15 16  1  0  0  0  0
 15 17  2  0  0  0  0
 17 18  1  0  0  0  0
 17 19  1  0  0  0  0
 19 20  1  0  0  0  0
 19 21  2  0  0  0  0
 21 22  1  0  0  0  0
 21 23  1  0  0  0  0
 23 24  1  0  0  0  0
 25 26  2  0  0  0  0
 25 27  1  0  0  0  0
 27 28  1  0  0  0  0
 27 29  1  0  0  0  0
 29 30  1  0  0  0  0
 29 31  1  0  0  0  0
 29 32  1  0  0  0  0
M  END
$$$$

  -OEChem-01062216093D

 32 32  0     1  0  0  0  0  0999 V2000
   -3.1610   -2.5233    0.9074 H   0  0  0  0  0  0  0  0  0  0  0  0
   -3.1392   -1.6459    0.2546 C   0  0  0  0  0  0  0  0  0  0  0  0
   -4.0411   -1.0540    0.4281 H   0  0  0  0  0  0  0  0  0  0  0  0
   -3.1259   -1.9826   -0.7849 H   0  0  0  0  0  0  0  0  0  0  0  0
   -1.9070   -0.8095    0.5426 C   0  0  0  0  0  0  0  0  0  0  0  0
   -1.1634   -1.1222    1.4608 O   0  0  0  0  0  0  0  0  0  0  0  0
   -1.6740    0.3381   -0.1917 N   0  0  0  0  0  0  0  0  0  0  0  0
   -2.3169    0.5142   -0.9581 H   0  0  0  0  0  0  0  0  0  0  0  0
   -0.3987    1.0814   -0.1997 C   0  0  1  0  0  0  0  0  0  0  0  0
   -0.3848    1.7226   -1.0868 H   0  0  0  0  0  0  0  0  0  0  0  0
   -0.3100    1.9944    1.0405 C   0  0  0  0  0  0  0  0  0  0  0  0
   -0.4460    1.4088    1.9553 H   0  0  0  0  0  0  0  0  0  0  0  0
    0.6854    2.4481    1.0909 H   0  0  0  0  0  0  0  0  0  0  0  0
   -1.3385    3.0982    0.9748 C   0  0  0  0  0  0  0  0  0  0  0  0
   -1.1002    4.2493    0.2087 C   0  0  0  0  0  0  0  0  0  0  0  0
   -0.1668    4.3585   -0.3360 H   0  0  0  0  0  0  0  0  0  0  0  0
   -2.0582    5.2668    0.1408 C   0  0  0  0  0  0  0  0  0  0  0  0
   -1.8648    6.1561   -0.4519 H   0  0  0  0  0  0  0  0  0  0  0  0
   -3.2639    5.1403    0.8374 C   0  0  0  0  0  0  0  0  0  0  0  0
   -4.0071    5.9307    0.7863 H   0  0  0  0  0  0  0  0  0  0  0  0
   -3.5105    3.9957    1.6016 C   0  0  0  0  0  0  0  0  0  0  0  0
   -4.4459    3.8954    2.1441 H   0  0  0  0  0  0  0  0  0  0  0  0
   -2.5513    2.9797    1.6695 C   0  0  0  0  0  0  0  0  0  0  0  0
   -2.7502    2.0924    2.2637 H   0  0  0  0  0  0  0  0  0  0  0  0
    0.8378    0.1598   -0.3354 C   0  0  0  0  0  0  0  0  0  0  0  0
    1.1286   -0.2669   -1.4461 O   0  0  0  0  0  0  0  0  0  0  0  0
    1.6629   -0.1242    0.7384 N   0  0  0  0  0  0  0  0  0  0  0  0
    1.2242   -0.0094    1.6494 H   0  0  0  0  0  0  0  0  0  0  0  0
    2.7690   -1.0679    0.6380 C   0  0  0  0  0  0  0  0  0  0  0  0
    3.4804   -0.7461   -0.1298 H   0  0  0  0  0  0  0  0  0  0  0  0
    3.2992   -1.1295    1.5931 H   0  0  0  0  0  0  0  0  0  0  0  0
    2.3983   -2.0655    0.3799 H   0  0  0  0  0  0  0  0  0  0  0  0
  1  2  1  0  0  0  0
  2  3  1  0  0  0  0
  2  4  1  0  0  0  0
  2  5  1  0  0  0  0
  5  6  2  0  0  0  0
  5  7  1  0  0  0  0
  7  8  1  0  0  0  0
  7  9  1  0  0  0  0
  9 10  1  0  0  0  0
  9 11  1  0  0  0  0
  9 25  1  0  0  0  0
 11 12  1  0  0  0  0
 11 13  1  0  0  0  0
 11 14  1  0  0  0  0
 14 15  1  0  0  0  0
 14 23  2  0  0  0  0
 15 16  1  0  0  0  0
 15 17  2  0  0  0  0
 17 18  1  0  0  0  0
 17 19  1  0  0  0  0
 19 20  1  0  0  0  0
 19 21  2  0  0  0  0
 21 22  1  0  0  0  0
 21 23  1  0  0  0  0
 23 24  1  0  0  0  0
 25 26  2  0  0  0  0
 25 27  1  0  0  0  0
 27 28  1  0  0  0  0
 27 29  1  0  0  0  0
 29 30  1  0  0  0  0
 29 31  1  0  0  0  0
 29 32  1  0  0  0  0
M  END
$$$$

  -OEChem-01062216093D

 32 32  0     1  0  0  0  0  0999 V2000
   -3.2716   -2.4833    0.9097 H   0  0  0  0  0  0  0  0  0  0  0  0
   -3.2221   -1.6018    0.2640 C   0  0  0  0  0  0  0  0  0  0  0  0
   -4.0937   -0.9722    0.4587 H   0  0  0  0  0  0  0  0  0  0  0  0
   -3.2422   -1.9286   -0.7785 H   0  0  0  0  0  0  0  0  0  0  0  0
   -1.9492   -0.8231    0.5370 C   0  0  0  0  0  0  0  0  0  0  0  0
   -1.2124   -1.1666    1.4496 O   0  0  0  0  0  0  0  0  0  0  0  0
   -1.6813    0.3175   -0.1959 N   0  0  0  0  0  0  0  0  0  0  0  0
   -2.3443    0.5390   -0.9332 H   0  0  0  0  0  0  0  0  0  0  0  0
   -0.3999    1.0519   -0.2037 C   0  0  1  0  0  0  0  0  0  0  0  0
   -0.3860    1.6951   -1.0895 H   0  0  0  0  0  0  0  0  0  0  0  0
   -0.3078    1.9598    1.0387 C   0  0  0  0  0  0  0  0  0  0  0  0
   -0.4488    1.3725    1.9514 H   0  0  0  0  0  0  0  0  0  0  0  0
    0.6915    2.4045    1.0925 H   0  0  0  0  0  0  0  0  0  0  0  0
   -1.3308    3.0683    0.9726 C   0  0  0  0  0  0  0  0  0  0  0  0
   -1.0839    4.2189    0.2089 C   0  0  0  0  0  0  0  0  0  0  0  0
   -0.1487    4.3218   -0.3338 H   0  0  0  0  0  0  0  0  0  0  0  0
   -2.0364    5.2414    0.1391 C   0  0  0  0  0  0  0  0  0  0  0  0
   -1.8362    6.1297   -0.4529 H   0  0  0  0  0  0  0  0  0  0  0  0
   -3.2448    5.1207    0.8322 C   0  0  0  0  0  0  0  0  0  0  0  0
   -3.9832    5.9155    0.7798 H   0  0  0  0  0  0  0  0  0  0  0  0
   -3.4998    3.9768    1.5949 C   0  0  0  0  0  0  0  0  0  0  0  0
   -4.4370    3.8820    2.1353 H   0  0  0  0  0  0  0  0  0  0  0  0
   -2.5461    2.9555    1.6640 C   0  0  0  0  0  0  0  0  0  0  0  0
   -2.7513    2.0692    2.2573 H   0  0  0  0  0  0  0  0  0  0  0  0
    0.8492    0.1466   -0.3260 C   0  0  0  0  0  0  0  0  0  0  0  0
    1.3238   -0.0517   -1.4373 O   0  0  0  0  0  0  0  0  0  0  0  0
    1.4894   -0.3638    0.7882 N   0  0  0  0  0  0  0  0  0  0  0  0
    0.8830   -0.4550    1.6040 H   0  0  0  0  0  0  0  0  0  0  0  0
    2.6173   -1.2805    0.6835 C   0  0  0  0  0  0  0  0  0  0  0  0
    3.4338   -0.8223    0.1153 H   0  0  0  0  0  0  0  0  0  0  0  0
    2.9919   -1.5320    1.6803 H   0  0  0  0  0  0  0  0  0  0  0  0
    2.3133   -2.2049    0.1815 H   0  0  0  0  0  0  0  0  0  0  0  0
  1  2  1  0  0  0  0
  2  3  1  0  0  0  0
  2  4  1  0  0  0  0
  2  5  1  0  0  0  0
  5  6  2  0  0  0  0
  5  7  1  0  0  0  0
  7  8  1  0  0  0  0
  7  9  1  0  0  0  0
  9 10  1  0  0  0  0
  9 11  1  0  0  0  0
  9 25  1  0  0  0  0
 11 12  1  0  0  0  0
 11 13  1  0  0  0  0
 11 14  1  0  0  0  0
 14 15  1  0  0  0  0
 14 23  2  0  0  0  0
 15 16  1  0  0  0  0
 15 17  2  0  0  0  0
 17 18  1  0  0  0  0
 17 19  1  0  0  0  0
 19 20  1  0  0  0  0
 19 21  2  0  0  0  0
 21 22  1  0  0  0  0
 21 23  1  0  0  0  0
 23 24  1  0  0  0  0
 25 26  2  0  0  0  0
 25 27  1  0  0  0  0
 27 28  1  0  0  0  0
 27 29  1  0  0  0  0
 29 30  1  0  0  0  0
 29 31  1  0  0  0  0
 29 32  1  0  0  0  0
M  END
$$$$

  -OEChem-01062216093D

 32 32  0     1  0  0  0  0  0999 V2000
   -3.4031   -2.4370    0.8990 H   0  0  0  0  0  0  0  0  0  0  0  0
   -3.3202   -1.5497    0.2648 C   0  0  0  0  0  0  0  0  0  0  0  0
   -4.1581   -0.8822    0.4805 H   0  0  0  0  0  0  0  0  0  0  0  0
   -3.3703   -1.8602   -0.7816 H   0  0  0  0  0  0  0  0  0  0  0  0
   -2.0084   -0.8361    0.5308 C   0  0  0  0  0  0  0  0  0  0  0  0
   -1.2907   -1.2176    1.4424 O   0  0  0  0  0  0  0  0  0  0  0  0
   -1.6950    0.2938   -0.2004 N   0  0  0  0  0  0  0  0  0  0  0  0
   -2.3720    0.5605   -0.9097 H   0  0  0  0  0  0  0  0  0  0  0  0
   -0.4049    1.0171   -0.2120 C   0  0  1  0  0  0  0  0  0  0  0  0
   -0.3936    1.6610   -1.0975 H   0  0  0  0  0  0  0  0  0  0  0  0
   -0.3109    1.9198    1.0332 C   0  0  0  0  0  0  0  0  0  0  0  0
   -0.4560    1.3281    1.9428 H   0  0  0  0  0  0  0  0  0  0  0  0
    0.6912    2.3579    1.0916 H   0  0  0  0  0  0  0  0  0  0  0  0
   -1.3275    3.0353    0.9698 C   0  0  0  0  0  0  0  0  0  0  0  0
   -1.0714    4.1873    0.2110 C   0  0  0  0  0  0  0  0  0  0  0  0
   -0.1333    4.2870   -0.3277 H   0  0  0  0  0  0  0  0  0  0  0  0
   -2.0176    5.2158    0.1414 C   0  0  0  0  0  0  0  0  0  0  0  0
   -1.8101    6.1047   -0.4472 H   0  0  0  0  0  0  0  0  0  0  0  0
   -3.2289    5.1001    0.8302 C   0  0  0  0  0  0  0  0  0  0  0  0
   -3.9630    5.8989    0.7769 H   0  0  0  0  0  0  0  0  0  0  0  0
   -3.4921    3.9561    1.5900 C   0  0  0  0  0  0  0  0  0  0  0  0
   -4.4307    3.8662    2.1286 H   0  0  0  0  0  0  0  0  0  0  0  0
   -2.5447    2.9288    1.6593 C   0  0  0  0  0  0  0  0  0  0  0  0
   -2.7557    2.0431    2.2514 H   0  0  0  0  0  0  0  0  0  0  0  0
    0.8643    0.1367   -0.3192 C   0  0  0  0  0  0  0  0  0  0  0  0
    1.4987    0.1489   -1.3663 O   0  0  0  0  0  0  0  0  0  0  0  0
    1.3425   -0.5990    0.7484 N   0  0  0  0  0  0  0  0  0  0  0  0
    0.6415   -0.8001    1.4657 H   0  0  0  0  0  0  0  0  0  0  0  0
    2.4808   -1.5017    0.6368 C   0  0  0  0  0  0  0  0  0  0  0  0
    3.3635   -0.9658    0.2721 H   0  0  0  0  0  0  0  0  0  0  0  0
    2.7191   -1.9286    1.6156 H   0  0  0  0  0  0  0  0  0  0  0  0
    2.2539   -2.3198   -0.0545 H   0  0  0  0  0  0  0  0  0  0  0  0
  1  2  1  0  0  0  0
  2  3  1  0  0  0  0
  2  4  1  0  0  0  0
  2  5  1  0  0  0  0
  5  6  2  0  0  0  0
  5  7  1  0  0  0  0
  7  8  1  0  0  0  0
  7  9  1  0  0  0  0
  9 10  1  0  0  0  0
  9 11  1  0  0  0  0
  9 25  1  0  0  0  0
 11 12  1  0  0  0  0
 11 13  1  0  0  0  0
 11 14  1  0  0  0  0
 14 15  1  0  0  0  0
 14 23  2  0  0  0  0
 15 16  1  0  0  0  0
 15 17  2  0  0  0  0
 17 18  1  0  0  0  0
 17 19  1  0  0  0  0
 19 20  1  0  0  0  0
 19 21  2  0  0  0  0
 21 22  1  0  0  0  0
 21 23  1  0  0  0  0
 23 24  1  0  0  0  0
 25 26  2  0  0  0  0
 25 27  1  0  0  0  0
 27 28  1  0  0  0  0
 27 29  1  0  0  0  0
 29 30  1  0  0  0  0
 29 31  1  0  0  0  0
 29 32  1  0  0  0  0
M  END
$$$$

  -OEChem-01062216093D

 32 32  0     1  0  0  0  0  0999 V2000
   -3.5220   -2.4045    0.8799 H   0  0  0  0  0  0  0  0  0  0  0  0
   -3.4072   -1.5167    0.2516 C   0  0  0  0  0  0  0  0  0  0  0  0
   -4.2287   -0.8275    0.4618 H   0  0  0  0  0  0  0  0  0  0  0  0
   -3.4545   -1.8209   -0.7968 H   0  0  0  0  0  0  0  0  0  0  0  0
   -2.0789   -0.8414    0.5361 C   0  0  0  0  0  0  0  0  0  0  0  0
   -1.3900   -1.2444    1.4596 O   0  0  0  0  0  0  0  0  0  0  0  0
   -1.7237    0.2755   -0.1960 N   0  0  0  0  0  0  0  0  0  0  0  0
   -2.4022    0.5672   -0.8941 H   0  0  0  0  0  0  0  0  0  0  0  0
   -0.4227    0.9841   -0.2176 C   0  0  1  0  0  0  0  0  0  0  0  0
   -0.4152    1.6270   -1.1041 H   0  0  0  0  0  0  0  0  0  0  0  0
   -0.3181    1.8845    1.0271 C   0  0  0  0  0  0  0  0  0  0  0  0
   -0.4643    1.2919    1.9360 H   0  0  0  0  0  0  0  0  0  0  0  0
    0.6874    2.3155    1.0834 H   0  0  0  0  0  0  0  0  0  0  0  0
   -1.3246    3.0088    0.9660 C   0  0  0  0  0  0  0  0  0  0  0  0
   -1.0601    4.1586    0.2074 C   0  0  0  0  0  0  0  0  0  0  0  0
   -0.1223    4.2493   -0.3331 H   0  0  0  0  0  0  0  0  0  0  0  0
   -1.9971    5.1953    0.1404 C   0  0  0  0  0  0  0  0  0  0  0  0
   -1.7822    6.0824   -0.4483 H   0  0  0  0  0  0  0  0  0  0  0  0
   -3.2073    5.0906    0.8330 C   0  0  0  0  0  0  0  0  0  0  0  0
   -3.9338    5.8964    0.7825 H   0  0  0  0  0  0  0  0  0  0  0  0
   -3.4786    3.9489    1.5936 C   0  0  0  0  0  0  0  0  0  0  0  0
   -4.4163    3.8671    2.1351 H   0  0  0  0  0  0  0  0  0  0  0  0
   -2.5403    2.9132    1.6596 C   0  0  0  0  0  0  0  0  0  0  0  0
   -2.7572    2.0292    2.2523 H   0  0  0  0  0  0  0  0  0  0  0  0
    0.8618    0.1232   -0.3160 C   0  0  0  0  0  0  0  0  0  0  0  0
    1.6232    0.3229   -1.2539 O   0  0  0  0  0  0  0  0  0  0  0  0
    1.2076   -0.8250    0.6267 N   0  0  0  0  0  0  0  0  0  0  0  0
    0.4680   -1.0788    1.2867 H   0  0  0  0  0  0  0  0  0  0  0  0
    2.3569   -1.7103    0.4945 C   0  0  0  0  0  0  0  0  0  0  0  0
    3.2764   -1.1301    0.3651 H   0  0  0  0  0  0  0  0  0  0  0  0
    2.4629   -2.3255    1.3932 H   0  0  0  0  0  0  0  0  0  0  0  0
    2.2320   -2.3720   -0.3686 H   0  0  0  0  0  0  0  0  0  0  0  0
  1  2  1  0  0  0  0
  2  3  1  0  0  0  0
  2  4  1  0  0  0  0
  2  5  1  0  0  0  0
  5  6  2  0  0  0  0
  5  7  1  0  0  0  0
  7  8  1  0  0  0  0
  7  9  1  0  0  0  0
  9 10  1  0  0  0  0
  9 11  1  0  0  0  0
  9 25  1  0  0  0  0
 11 12  1  0  0  0  0
 11 13  1  0  0  0  0
 11 14  1  0  0  0  0
 14 15  1  0  0  0  0
 14 23  2  0  0  0  0
 15 16  1  0  0  0  0
 15 17  2  0  0  0  0
 17 18  1  0  0  0  0
 17 19  1  0  0  0  0
 19 20  1  0  0  0  0
 19 21  2  0  0  0  0
 21 22  1  0  0  0  0
 21 23  1  0  0  0  0
 23 24  1  0  0  0  0
 25 26  2  0  0  0  0
 25 27  1  0  0  0  0
 27 28  1  0  0  0  0
 27 29  1  0  0  0  0
 29 30  1  0  0  0  0
 29 31  1  0  0  0  0
 29 32  1  0  0  0  0
M  END
$$$$

  -OEChem-01062216093D

 32 32  0     1  0  0  0  0  0999 V2000
   -3.6735   -2.3328    0.9225 H   0  0  0  0  0  0  0  0  0  0  0  0
   -3.5163   -1.4748    0.2628 C   0  0  0  0  0  0  0  0  0  0  0  0
   -4.3030   -0.7395    0.4488 H   0  0  0  0  0  0  0  0  0  0  0  0
   -3.5805   -1.8131   -0.7742 H   0  0  0  0  0  0  0  0  0  0  0  0
   -2.1558   -0.8555    0.5224 C   0  0  0  0  0  0  0  0  0  0  0  0
   -1.4657   -1.2931    1.4283 O   0  0  0  0  0  0  0  0  0  0  0  0
   -1.7743    0.2515   -0.2114 N   0  0  0  0  0  0  0  0  0  0  0  0
   -2.4650    0.5791   -0.8809 H   0  0  0  0  0  0  0  0  0  0  0  0
   -0.4605    0.9384   -0.2517 C   0  0  1  0  0  0  0  0  0  0  0  0
   -0.4600    1.5823   -1.1375 H   0  0  0  0  0  0  0  0  0  0  0  0
   -0.3302    1.8329    0.9948 C   0  0  0  0  0  0  0  0  0  0  0  0
   -0.4738    1.2372    1.9024 H   0  0  0  0  0  0  0  0  0  0  0  0
    0.6815    2.2505    1.0425 H   0  0  0  0  0  0  0  0  0  0  0  0
   -1.3205    2.9721    0.9504 C   0  0  0  0  0  0  0  0  0  0  0  0
   -1.0462    4.1205    0.1933 C   0  0  0  0  0  0  0  0  0  0  0  0
   -0.1148    4.1959   -0.3609 H   0  0  0  0  0  0  0  0  0  0  0  0
   -1.9653    5.1741    0.1442 C   0  0  0  0  0  0  0  0  0  0  0  0
   -1.7438    6.0595   -0.4446 H   0  0  0  0  0  0  0  0  0  0  0  0
   -3.1659    5.0884    0.8558 C   0  0  0  0  0  0  0  0  0  0  0  0
   -3.8779    5.9080    0.8209 H   0  0  0  0  0  0  0  0  0  0  0  0
   -3.4459    3.9486    1.6160 C   0  0  0  0  0  0  0  0  0  0  0  0
   -4.3755    3.8825    2.1733 H   0  0  0  0  0  0  0  0  0  0  0  0
   -2.5263    2.8954    1.6628 C   0  0  0  0  0  0  0  0  0  0  0  0
   -2.7489    2.0135    2.2566 H   0  0  0  0  0  0  0  0  0  0  0  0
    0.8300    0.0855   -0.3626 C   0  0  0  0  0  0  0  0  0  0  0  0
    1.7008    0.4623   -1.1365 O   0  0  0  0  0  0  0  0  0  0  0  0
    1.0694   -1.0509    0.3834 N   0  0  0  0  0  0  0  0  0  0  0  0
    0.3226   -1.3463    1.0168 H   0  0  0  0  0  0  0  0  0  0  0  0
    2.2861   -1.8472    0.2987 C   0  0  0  0  0  0  0  0  0  0  0  0
    3.1638   -1.2321    0.5229 H   0  0  0  0  0  0  0  0  0  0  0  0
    2.2480   -2.6696    1.0194 H   0  0  0  0  0  0  0  0  0  0  0  0
    2.3979   -2.2701   -0.7050 H   0  0  0  0  0  0  0  0  0  0  0  0
  1  2  1  0  0  0  0
  2  3  1  0  0  0  0
  2  4  1  0  0  0  0
  2  5  1  0  0  0  0
  5  6  2  0  0  0  0
  5  7  1  0  0  0  0
  7  8  1  0  0  0  0
  7  9  1  0  0  0  0
  9 10  1  0  0  0  0
  9 11  1  0  0  0  0
  9 25  1  0  0  0  0
 11 12  1  0  0  0  0
 11 13  1  0  0  0  0
 11 14  1  0  0  0  0
 14 15  1  0  0  0  0
 14 23  2  0  0  0  0
 15 16  1  0  0  0  0
 15 17  2  0  0  0  0
 17 18  1  0  0  0  0
 17 19  1  0  0  0  0
 19 20  1  0  0  0  0
 19 21  2  0  0  0  0
 21 22  1  0  0  0  0
 21 23  1  0  0  0  0
 23 24  1  0  0  0  0
 25 26  2  0  0  0  0
 25 27  1  0  0  0  0
 27 28  1  0  0  0  0
 27 29  1  0  0  0  0
 29 30  1  0  0  0  0
 29 31  1  0  0  0  0
 29 32  1  0  0  0  0
M  END
$$$$

  -OEChem-01062216093D

 32 32  0     1  0  0  0  0  0999 V2000
   -3.7341   -2.3104    0.8564 H   0  0  0  0  0  0  0  0  0  0  0  0
   -3.5652   -1.4409    0.2148 C   0  0  0  0  0  0  0  0  0  0  0  0
   -4.3293   -0.6902    0.4316 H   0  0  0  0  0  0  0  0  0  0  0  0
   -3.6551   -1.7528   -0.8287 H   0  0  0  0  0  0  0  0  0  0  0  0
   -2.1851   -0.8632    0.4669 C   0  0  0  0  0  0  0  0  0  0  0  0
   -1.4892   -1.3465    1.3446 O   0  0  0  0  0  0  0  0  0  0  0  0
   -1.7860    0.2527   -0.2438 N   0  0  0  0  0  0  0  0  0  0  0  0
   -2.4851    0.6279   -0.8788 H   0  0  0  0  0  0  0  0  0  0  0  0
   -0.4649    0.9279   -0.2663 C   0  0  1  0  0  0  0  0  0  0  0  0
   -0.4548    1.5856   -1.1416 H   0  0  0  0  0  0  0  0  0  0  0  0
   -0.3446    1.8001    0.9972 C   0  0  0  0  0  0  0  0  0  0  0  0
   -0.5012    1.1891    1.8923 H   0  0  0  0  0  0  0  0  0  0  0  0
    0.6680    2.2129    1.0649 H   0  0  0  0  0  0  0  0  0  0  0  0
   -1.3287    2.9454    0.9589 C   0  0  0  0  0  0  0  0  0  0  0  0
   -1.0381    4.1043    0.2242 C   0  0  0  0  0  0  0  0  0  0  0  0
   -0.0972    4.1845   -0.3133 H   0  0  0  0  0  0  0  0  0  0  0  0
   -1.9519    5.1627    0.1776 C   0  0  0  0  0  0  0  0  0  0  0  0
   -1.7170    6.0571   -0.3922 H   0  0  0  0  0  0  0  0  0  0  0  0
   -3.1646    5.0708    0.8675 C   0  0  0  0  0  0  0  0  0  0  0  0
   -3.8724    5.8940    0.8343 H   0  0  0  0  0  0  0  0  0  0  0  0
   -3.4622    3.9198    1.6037 C   0  0  0  0  0  0  0  0  0  0  0  0
   -4.4020    3.8487    2.1434 H   0  0  0  0  0  0  0  0  0  0  0  0
   -2.5470    2.8623    1.6494 C   0  0  0  0  0  0  0  0  0  0  0  0
   -2.7827    1.9720    2.2251 H   0  0  0  0  0  0  0  0  0  0  0  0
    0.8289    0.0793   -0.3864 C   0  0  0  0  0  0  0  0  0  0  0  0
    1.7922    0.5885   -0.9458 O   0  0  0  0  0  0  0  0  0  0  0  0
    0.9644   -1.2075    0.0951 N   0  0  0  0  0  0  0  0  0  0  0  0
    0.1978   -1.5517    0.6773 H   0  0  0  0  0  0  0  0  0  0  0  0
    2.2114   -1.9597    0.0603 C   0  0  0  0  0  0  0  0  0  0  0  0
    2.9857   -1.4439    0.6376 H   0  0  0  0  0  0  0  0  0  0  0  0
    2.0624   -2.9547    0.4900 H   0  0  0  0  0  0  0  0  0  0  0  0
    2.5587   -2.0785   -0.9712 H   0  0  0  0  0  0  0  0  0  0  0  0
  1  2  1  0  0  0  0
  2  3  1  0  0  0  0
  2  4  1  0  0  0  0
  2  5  1  0  0  0  0
  5  6  2  0  0  0  0
  5  7  1  0  0  0  0
  7  8  1  0  0  0  0
  7  9  1  0  0  0  0
  9 10  1  0  0  0  0
  9 11  1  0  0  0  0
  9 25  1  0  0  0  0
 11 12  1  0  0  0  0
 11 13  1  0  0  0  0
 11 14  1  0  0  0  0
 14 15  1  0  0  0  0
 14 23  2  0  0  0  0
 15 16  1  0  0  0  0
 15 17  2  0  0  0  0
 17 18  1  0  0  0  0
 17 19  1  0  0  0  0
 19 20  1  0  0  0  0
 19 21  2  0  0  0  0
 21 22  1  0  0  0  0
 21 23  1  0  0  0  0
 23 24  1  0  0  0  0
 25 26  2  0  0  0  0
 25 27  1  0  0  0  0
 27 28  1  0  0  0  0
 27 29  1  0  0  0  0
 29 30  1  0  0  0  0
 29 31  1  0  0  0  0
 29 32  1  0  0  0  0
M  END
$$$$

  -OEChem-01062216093D

 32 32  0     1  0  0  0  0  0999 V2000
   -3.7534   -2.2492    0.9763 H   0  0  0  0  0  0  0  0  0  0  0  0
   -3.5950   -1.3876    0.3215 C   0  0  0  0  0  0  0  0  0  0  0  0
   -4.3145   -0.6085    0.5856 H   0  0  0  0  0  0  0  0  0  0  0  0
   -3.7657   -1.6966   -0.7126 H   0  0  0  0  0  0  0  0  0  0  0  0
   -2.1805   -0.8616    0.4788 C   0  0  0  0  0  0  0  0  0  0  0  0
   -1.4344   -1.3882    1.2870 O   0  0  0  0  0  0  0  0  0  0  0  0
   -1.7939    0.2466   -0.2501 N   0  0  0  0  0  0  0  0  0  0  0  0
   -2.5250    0.6583   -0.8238 H   0  0  0  0  0  0  0  0  0  0  0  0
   -0.4714    0.9172   -0.3074 C   0  0  1  0  0  0  0  0  0  0  0  0
   -0.4757    1.5687   -1.1871 H   0  0  0  0  0  0  0  0  0  0  0  0
   -0.3308    1.7943    0.9528 C   0  0  0  0  0  0  0  0  0  0  0  0
   -0.4715    1.1846    1.8516 H   0  0  0  0  0  0  0  0  0  0  0  0
    0.6814    2.2103    1.0051 H   0  0  0  0  0  0  0  0  0  0  0  0
   -1.3164    2.9391    0.9293 C   0  0  0  0  0  0  0  0  0  0  0  0
   -1.0414    4.0976    0.1877 C   0  0  0  0  0  0  0  0  0  0  0  0
   -0.1121    4.1778   -0.3695 H   0  0  0  0  0  0  0  0  0  0  0  0
   -1.9569    5.1554    0.1590 C   0  0  0  0  0  0  0  0  0  0  0  0
   -1.7350    6.0488   -0.4175 H   0  0  0  0  0  0  0  0  0  0  0  0
   -3.1546    5.0638    0.8750 C   0  0  0  0  0  0  0  0  0  0  0  0
   -3.8638    5.8863    0.8553 H   0  0  0  0  0  0  0  0  0  0  0  0
   -3.4347    3.9149    1.6212 C   0  0  0  0  0  0  0  0  0  0  0  0
   -4.3611    3.8451    2.1835 H   0  0  0  0  0  0  0  0  0  0  0  0
   -2.5183    2.8581    1.6483 C   0  0  0  0  0  0  0  0  0  0  0  0
   -2.7398    1.9706    2.2338 H   0  0  0  0  0  0  0  0  0  0  0  0
    0.8193    0.0655   -0.4482 C   0  0  0  0  0  0  0  0  0  0  0  0
    1.8343    0.6299   -0.8382 O   0  0  0  0  0  0  0  0  0  0  0  0
    0.8771   -1.2976   -0.2314 N   0  0  0  0  0  0  0  0  0  0  0  0
    0.0935   -1.6861    0.2966 H   0  0  0  0  0  0  0  0  0  0  0  0
    2.1151   -2.0641   -0.2875 C   0  0  0  0  0  0  0  0  0  0  0  0
    2.8248   -1.7018    0.4633 H   0  0  0  0  0  0  0  0  0  0  0  0
    1.9113   -3.1212   -0.0925 H   0  0  0  0  0  0  0  0  0  0  0  0
    2.5745   -1.9795   -1.2778 H   0  0  0  0  0  0  0  0  0  0  0  0
  1  2  1  0  0  0  0
  2  3  1  0  0  0  0
  2  4  1  0  0  0  0
  2  5  1  0  0  0  0
  5  6  2  0  0  0  0
  5  7  1  0  0  0  0
  7  8  1  0  0  0  0
  7  9  1  0  0  0  0
  9 10  1  0  0  0  0
  9 11  1  0  0  0  0
  9 25  1  0  0  0  0
 11 12  1  0  0  0  0
 11 13  1  0  0  0  0
 11 14  1  0  0  0  0
 14 15  1  0  0  0  0
 14 23  2  0  0  0  0
 15 16  1  0  0  0  0
 15 17  2  0  0  0  0
 17 18  1  0  0  0  0
 17 19  1  0  0  0  0
 19 20  1  0  0  0  0
 19 21  2  0  0  0  0
 21 22  1  0  0  0  0
 21 23  1  0  0  0  0
 23 24  1  0  0  0  0
 25 26  2  0  0  0  0
 25 27  1  0  0  0  0
 27 28  1  0  0  0  0
 27 29  1  0  0  0  0
 29 30  1  0  0  0  0
 29 31  1  0  0  0  0
 29 32  1  0  0  0  0
M  END
$$$$

  -OEChem-01062216093D

 32 32  0     1  0  0  0  0  0999 V2000
   -3.7296   -2.2067    1.0275 H   0  0  0  0  0  0  0  0  0  0  0  0
   -3.5824   -1.3432    0.3723 C   0  0  0  0  0  0  0  0  0  0  0  0
   -4.2554   -0.5431    0.6908 H   0  0  0  0  0  0  0  0  0  0  0  0
   -3.8301   -1.6328   -0.6520 H   0  0  0  0  0  0  0  0  0  0  0  0
   -2.1429   -0.8693    0.4438 C   0  0  0  0  0  0  0  0  0  0  0  0
   -1.3528   -1.4630    1.1575 O   0  0  0  0  0  0  0  0  0  0  0  0
   -1.7687    0.2504   -0.2737 N   0  0  0  0  0  0  0  0  0  0  0  0
   -2.5257    0.7211   -0.7623 H   0  0  0  0  0  0  0  0  0  0  0  0
   -0.4488    0.9267   -0.3181 C   0  0  1  0  0  0  0  0  0  0  0  0
   -0.4478    1.5851   -1.1923 H   0  0  0  0  0  0  0  0  0  0  0  0
   -0.3303    1.7943    0.9526 C   0  0  0  0  0  0  0  0  0  0  0  0
   -0.4775    1.1749    1.8435 H   0  0  0  0  0  0  0  0  0  0  0  0
    0.6765    2.2198    1.0246 H   0  0  0  0  0  0  0  0  0  0  0  0
   -1.3247    2.9316    0.9261 C   0  0  0  0  0  0  0  0  0  0  0  0
   -1.0474    4.0973    0.1970 C   0  0  0  0  0  0  0  0  0  0  0  0
   -0.1105    4.1876   -0.3460 H   0  0  0  0  0  0  0  0  0  0  0  0
   -1.9685    5.1500    0.1648 C   0  0  0  0  0  0  0  0  0  0  0  0
   -1.7443    6.0495   -0.4014 H   0  0  0  0  0  0  0  0  0  0  0  0
   -3.1744    5.0459    0.8653 C   0  0  0  0  0  0  0  0  0  0  0  0
   -3.8879    5.8647    0.8438 H   0  0  0  0  0  0  0  0  0  0  0  0
   -3.4570    3.8894    1.5990 C   0  0  0  0  0  0  0  0  0  0  0  0
   -4.3901    3.8101    2.1491 H   0  0  0  0  0  0  0  0  0  0  0  0
   -2.5347    2.8377    1.6299 C   0  0  0  0  0  0  0  0  0  0  0  0
   -2.7578    1.9452    2.2071 H   0  0  0  0  0  0  0  0  0  0  0  0
    0.8413    0.0739   -0.4650 C   0  0  0  0  0  0  0  0  0  0  0  0
    1.9032    0.6586   -0.6434 O   0  0  0  0  0  0  0  0  0  0  0  0
    0.8352   -1.3050   -0.5574 N   0  0  0  0  0  0  0  0  0  0  0  0
    0.0172   -1.7479   -0.1371 H   0  0  0  0  0  0  0  0  0  0  0  0
    2.0577   -2.0935   -0.6502 C   0  0  0  0  0  0  0  0  0  0  0  0
    2.6837   -1.9352    0.2342 H   0  0  0  0  0  0  0  0  0  0  0  0
    1.8146   -3.1581   -0.7181 H   0  0  0  0  0  0  0  0  0  0  0  0
    2.6288   -1.8135   -1.5416 H   0  0  0  0  0  0  0  0  0  0  0  0
  1  2  1  0  0  0  0
  2  3  1  0  0  0  0
  2  4  1  0  0  0  0
  2  5  1  0  0  0  0
  5  6  2  0  0  0  0
  5  7  1  0  0  0  0
  7  8  1  0  0  0  0
  7  9  1  0  0  0  0
  9 10  1  0  0  0  0
  9 11  1  0  0  0  0
  9 25  1  0  0  0  0
 11 12  1  0  0  0  0
 11 13  1  0  0  0  0
 11 14  1  0  0  0  0
 14 15  1  0  0  0  0
 14 23  2  0  0  0  0
 15 16  1  0  0  0  0
 15 17  2  0  0  0  0
 17 18  1  0  0  0  0
 17 19  1  0  0  0  0
 19 20  1  0  0  0  0
 19 21  2  0  0  0  0
 21 22  1  0  0  0  0
 21 23  1  0  0  0  0
 23 24  1  0  0  0  0
 25 26  2  0  0  0  0
 25 27  1  0  0  0  0
 27 28  1  0  0  0  0
 27 29  1  0  0  0  0
 29 30  1  0  0  0  0
 29 31  1  0  0  0  0
 29 32  1  0  0  0  0
M  END
$$$$

  -OEChem-01062216093D

 32 32  0     1  0  0  0  0  0999 V2000
   -3.6596   -2.1906    1.0599 H   0  0  0  0  0  0  0  0  0  0  0  0
   -3.5340   -1.3182    0.4120 C   0  0  0  0  0  0  0  0  0  0  0  0
   -4.1755   -0.5133    0.7793 H   0  0  0  0  0  0  0  0  0  0  0  0
   -3.8411   -1.5860   -0.6020 H   0  0  0  0  0  0  0  0  0  0  0  0
   -2.0849   -0.8687    0.4136 C   0  0  0  0  0  0  0  0  0  0  0  0
   -1.2585   -1.5093    1.0390 O   0  0  0  0  0  0  0  0  0  0  0  0
   -1.7302    0.2622   -0.2958 N   0  0  0  0  0  0  0  0  0  0  0  0
   -2.5064    0.7719   -0.7098 H   0  0  0  0  0  0  0  0  0  0  0  0
   -0.4158    0.9491   -0.3227 C   0  0  1  0  0  0  0  0  0  0  0  0
   -0.4047    1.6128   -1.1926 H   0  0  0  0  0  0  0  0  0  0  0  0
   -0.3214    1.8075    0.9578 C   0  0  0  0  0  0  0  0  0  0  0  0
   -0.4720    1.1784    1.8414 H   0  0  0  0  0  0  0  0  0  0  0  0
    0.6779    2.2464    1.0481 H   0  0  0  0  0  0  0  0  0  0  0  0
   -1.3282    2.9335    0.9251 C   0  0  0  0  0  0  0  0  0  0  0  0
   -1.0554    4.1076    0.2078 C   0  0  0  0  0  0  0  0  0  0  0  0
   -0.1130    4.2128   -0.3225 H   0  0  0  0  0  0  0  0  0  0  0  0
   -1.9892    5.1487    0.1697 C   0  0  0  0  0  0  0  0  0  0  0  0
   -1.7689    6.0539   -0.3886 H   0  0  0  0  0  0  0  0  0  0  0  0
   -3.2024    5.0256    0.8539 C   0  0  0  0  0  0  0  0  0  0  0  0
   -3.9256    5.8356    0.8273 H   0  0  0  0  0  0  0  0  0  0  0  0
   -3.4801    3.8615    1.5772 C   0  0  0  0  0  0  0  0  0  0  0  0
   -4.4187    3.7683    2.1156 H   0  0  0  0  0  0  0  0  0  0  0  0
   -2.5456    2.8209    1.6134 C   0  0  0  0  0  0  0  0  0  0  0  0
   -2.7647    1.9231    2.1837 H   0  0  0  0  0  0  0  0  0  0  0  0
    0.8666    0.0840   -0.4676 C   0  0  0  0  0  0  0  0  0  0  0  0
    1.9615    0.6331   -0.4242 O   0  0  0  0  0  0  0  0  0  0  0  0
    0.8166   -1.2379   -0.8695 N   0  0  0  0  0  0  0  0  0  0  0  0
   -0.0448   -1.7122   -0.6015 H   0  0  0  0  0  0  0  0  0  0  0  0
    2.0150   -2.0563   -1.0068 C   0  0  0  0  0  0  0  0  0  0  0  0
    2.5402   -2.1294   -0.0487 H   0  0  0  0  0  0  0  0  0  0  0  0
    1.7464   -3.0650   -1.3345 H   0  0  0  0  0  0  0  0  0  0  0  0
    2.6934   -1.6231   -1.7493 H   0  0  0  0  0  0  0  0  0  0  0  0
  1  2  1  0  0  0  0
  2  3  1  0  0  0  0
  2  4  1  0  0  0  0
  2  5  1  0  0  0  0
  5  6  2  0  0  0  0
  5  7  1  0  0  0  0
  7  8  1  0  0  0  0
  7  9  1  0  0  0  0
  9 10  1  0  0  0  0
  9 11  1  0  0  0  0
  9 25  1  0  0  0  0
 11 12  1  0  0  0  0
 11 13  1  0  0  0  0
 11 14  1  0  0  0  0
 14 15  1  0  0  0  0
 14 23  2  0  0  0  0
 15 16  1  0  0  0  0
 15 17  2  0  0  0  0
 17 18  1  0  0  0  0
 17 19  1  0  0  0  0
 19 20  1  0  0  0  0
 19 21  2  0  0  0  0
 21 22  1  0  0  0  0
 21 23  1  0  0  0  0
 23 24  1  0  0  0  0
 25 26  2  0  0  0  0
 25 27  1  0  0  0  0
 27 28  1  0  0  0  0
 27 29  1  0  0  0  0
 29 30  1  0  0  0  0
 29 31  1  0  0  0  0
 29 32  1  0  0  0  0
M  END
$$$$

  -OEChem-01062216093D

 32 32  0     1  0  0  0  0  0999 V2000
   -3.5460   -2.2106    1.0819 H   0  0  0  0  0  0  0  0  0  0  0  0
   -3.4513   -1.3330    0.4360 C   0  0  0  0  0  0  0  0  0  0  0  0
   -4.0876   -0.5369    0.8303 H   0  0  0  0  0  0  0  0  0  0  0  0
   -3.7898   -1.5971   -0.5688 H   0  0  0  0  0  0  0  0  0  0  0  0
   -2.0073   -0.8697    0.3920 C   0  0  0  0  0  0  0  0  0  0  0  0
   -1.1530   -1.5140    0.9732 O   0  0  0  0  0  0  0  0  0  0  0  0
   -1.6874    0.2762   -0.3107 N   0  0  0  0  0  0  0  0  0  0  0  0
   -2.4819    0.8004   -0.6683 H   0  0  0  0  0  0  0  0  0  0  0  0
   -0.3830    0.9799   -0.3233 C   0  0  1  0  0  0  0  0  0  0  0  0
   -0.3681    1.6476   -1.1898 H   0  0  0  0  0  0  0  0  0  0  0  0
   -0.3092    1.8341    0.9622 C   0  0  0  0  0  0  0  0  0  0  0  0
   -0.4568    1.1997    1.8425 H   0  0  0  0  0  0  0  0  0  0  0  0
    0.6824    2.2877    1.0603 H   0  0  0  0  0  0  0  0  0  0  0  0
   -1.3301    2.9475    0.9269 C   0  0  0  0  0  0  0  0  0  0  0  0
   -1.0656    4.1277    0.2168 C   0  0  0  0  0  0  0  0  0  0  0  0
   -0.1190    4.2479   -0.3029 H   0  0  0  0  0  0  0  0  0  0  0  0
   -2.0117    5.1574    0.1749 C   0  0  0  0  0  0  0  0  0  0  0  0
   -1.7968    6.0693   -0.3746 H   0  0  0  0  0  0  0  0  0  0  0  0
   -3.2302    5.0157    0.8460 C   0  0  0  0  0  0  0  0  0  0  0  0
   -3.9630    5.8170    0.8164 H   0  0  0  0  0  0  0  0  0  0  0  0
   -3.4996    3.8456    1.5624 C   0  0  0  0  0  0  0  0  0  0  0  0
   -4.4413    3.7396    2.0931 H   0  0  0  0  0  0  0  0  0  0  0  0
   -2.5524    2.8167    1.6037 C   0  0  0  0  0  0  0  0  0  0  0  0
   -2.7655    1.9146    2.1698 H   0  0  0  0  0  0  0  0  0  0  0  0
    0.8880    0.0995   -0.4755 C   0  0  0  0  0  0  0  0  0  0  0  0
    1.9884    0.5428   -0.1677 O   0  0  0  0  0  0  0  0  0  0  0  0
    0.8359   -1.0918   -1.1767 N   0  0  0  0  0  0  0  0  0  0  0  0
   -0.0829   -1.5248   -1.1958 H   0  0  0  0  0  0  0  0  0  0  0  0
    1.9954   -1.9643   -1.3156 C   0  0  0  0  0  0  0  0  0  0  0  0
    2.3486   -2.2903   -0.3315 H   0  0  0  0  0  0  0  0  0  0  0  0
    1.7318   -2.8497   -1.9016 H   0  0  0  0  0  0  0  0  0  0  0  0
    2.8108   -1.4429   -1.8279 H   0  0  0  0  0  0  0  0  0  0  0  0
  1  2  1  0  0  0  0
  2  3  1  0  0  0  0
  2  4  1  0  0  0  0
  2  5  1  0  0  0  0
  5  6  2  0  0  0  0
  5  7  1  0  0  0  0
  7  8  1  0  0  0  0
  7  9  1  0  0  0  0
  9 10  1  0  0  0  0
  9 11  1  0  0  0  0
  9 25  1  0  0  0  0
 11 12  1  0  0  0  0
 11 13  1  0  0  0  0
 11 14  1  0  0  0  0
 14 15  1  0  0  0  0
 14 23  2  0  0  0  0
 15 16  1  0  0  0  0
 15 17  2  0  0  0  0
 17 18  1  0  0  0  0
 17 19  1  0  0  0  0
 19 20  1  0  0  0  0
 19 21  2  0  0  0  0
 21 22  1  0  0  0  0
 21 23  1  0  0  0  0
 23 24  1  0  0  0  0
 25 26  2  0  0  0  0
 25 27  1  0  0  0  0
 27 28  1  0  0  0  0
 27 29  1  0  0  0  0
 29 30  1  0  0  0  0
 29 31  1  0  0  0  0
 29 32  1  0  0  0  0
M  END
$$$$

  -OEChem-01062216093D

 32 32  0     1  0  0  0  0  0999 V2000
   -3.4651   -2.2408    1.0702 H   0  0  0  0  0  0  0  0  0  0  0  0
   -3.3830   -1.3615    0.4249 C   0  0  0  0  0  0  0  0  0  0  0  0
   -4.0355   -0.5772    0.8161 H   0  0  0  0  0  0  0  0  0  0  0  0
   -3.7117   -1.6320   -0.5814 H   0  0  0  0  0  0  0  0  0  0  0  0
   -1.9476   -0.8714    0.3873 C   0  0  0  0  0  0  0  0  0  0  0  0
   -1.0864   -1.4960    0.9794 O   0  0  0  0  0  0  0  0  0  0  0  0
   -1.6491    0.2820   -0.3145 N   0  0  0  0  0  0  0  0  0  0  0  0
   -2.4529    0.7989   -0.6613 H   0  0  0  0  0  0  0  0  0  0  0  0
   -0.3559    1.0033   -0.3142 C   0  0  1  0  0  0  0  0  0  0  0  0
   -0.3355    1.6715   -1.1800 H   0  0  0  0  0  0  0  0  0  0  0  0
   -0.2973    1.8614    0.9693 C   0  0  0  0  0  0  0  0  0  0  0  0
   -0.4399    1.2269    1.8503 H   0  0  0  0  0  0  0  0  0  0  0  0
    0.6897    2.3255    1.0677 H   0  0  0  0  0  0  0  0  0  0  0  0
   -1.3297    2.9646    0.9286 C   0  0  0  0  0  0  0  0  0  0  0  0
   -1.0770    4.1474    0.2184 C   0  0  0  0  0  0  0  0  0  0  0  0
   -0.1310    4.2782   -0.2994 H   0  0  0  0  0  0  0  0  0  0  0  0
   -2.0335    5.1677    0.1753 C   0  0  0  0  0  0  0  0  0  0  0  0
   -1.8267    6.0818   -0.3739 H   0  0  0  0  0  0  0  0  0  0  0  0
   -3.2515    5.0138    0.8446 C   0  0  0  0  0  0  0  0  0  0  0  0
   -3.9923    5.8077    0.8143 H   0  0  0  0  0  0  0  0  0  0  0  0
   -3.5099    3.8405    1.5602 C   0  0  0  0  0  0  0  0  0  0  0  0
   -4.4516    3.7241    2.0888 H   0  0  0  0  0  0  0  0  0  0  0  0
   -2.5520    2.8213    1.6026 C   0  0  0  0  0  0  0  0  0  0  0  0
   -2.7558    1.9167    2.1682 H   0  0  0  0  0  0  0  0  0  0  0  0
    0.9041    0.1079   -0.4596 C   0  0  0  0  0  0  0  0  0  0  0  0
    1.9613    0.3990    0.0880 O   0  0  0  0  0  0  0  0  0  0  0  0
    0.9103   -0.8990   -1.4088 N   0  0  0  0  0  0  0  0  0  0  0  0
   -0.0050   -1.2078   -1.7199 H   0  0  0  0  0  0  0  0  0  0  0  0
    2.0362   -1.8096   -1.5756 C   0  0  0  0  0  0  0  0  0  0  0  0
    2.2203   -2.3624   -0.6482 H   0  0  0  0  0  0  0  0  0  0  0  0
    1.8270   -2.5284   -2.3732 H   0  0  0  0  0  0  0  0  0  0  0  0
    2.9421   -1.2552   -1.8421 H   0  0  0  0  0  0  0  0  0  0  0  0
  1  2  1  0  0  0  0
  2  3  1  0  0  0  0
  2  4  1  0  0  0  0
  2  5  1  0  0  0  0
  5  6  2  0  0  0  0
  5  7  1  0  0  0  0
  7  8  1  0  0  0  0
  7  9  1  0  0  0  0
  9 10  1  0  0  0  0
  9 11  1  0  0  0  0
  9 25  1  0  0  0  0
 11 12  1  0  0  0  0
 11 13  1  0  0  0  0
 11 14  1  0  0  0  0
 14 15  1  0  0  0  0
 14 23  2  0  0  0  0
 15 16  1  0  0  0  0
 15 17  2  0  0  0  0
 17 18  1  0  0  0  0
 17 19  1  0  0  0  0
 19 20  1  0  0  0  0
 19 21  2  0  0  0  0
 21 22  1  0  0  0  0
 21 23  1  0  0  0  0
 23 24  1  0  0  0  0
 25 26  2  0  0  0  0
 25 27  1  0  0  0  0
 27 28  1  0  0  0  0
 27 29  1  0  0  0  0
 29 30  1  0  0  0  0
 29 31  1  0  0  0  0
 29 32  1  0  0  0  0
M  END
$$$$

  -OEChem-01062216093D

 32 32  0     1  0  0  0  0  0999 V2000
   -3.4425   -2.2500    1.0679 H   0  0  0  0  0  0  0  0  0  0  0  0
   -3.3640   -1.3658    0.4287 C   0  0  0  0  0  0  0  0  0  0  0  0
   -4.0167   -0.5855    0.8274 H   0  0  0  0  0  0  0  0  0  0  0  0
   -3.6946   -1.6291   -0.5788 H   0  0  0  0  0  0  0  0  0  0  0  0
   -1.9294   -0.8732    0.3911 C   0  0  0  0  0  0  0  0  0  0  0  0
   -1.0687   -1.4990    0.9821 O   0  0  0  0  0  0  0  0  0  0  0  0
   -1.6344    0.2824   -0.3089 N   0  0  0  0  0  0  0  0  0  0  0  0
   -2.4403    0.7995   -0.6498 H   0  0  0  0  0  0  0  0  0  0  0  0
   -0.3444    1.0071   -0.3000 C   0  0  1  0  0  0  0  0  0  0  0  0
   -0.3182    1.6776   -1.1638 H   0  0  0  0  0  0  0  0  0  0  0  0
   -0.2920    1.8654    0.9826 C   0  0  0  0  0  0  0  0  0  0  0  0
   -0.4385    1.2315    1.8638 H   0  0  0  0  0  0  0  0  0  0  0  0
    0.6956    2.3281    1.0830 H   0  0  0  0  0  0  0  0  0  0  0  0
   -1.3264    2.9658    0.9346 C   0  0  0  0  0  0  0  0  0  0  0  0
   -1.0728    4.1478    0.2236 C   0  0  0  0  0  0  0  0  0  0  0  0
   -0.1230    4.2814   -0.2861 H   0  0  0  0  0  0  0  0  0  0  0  0
   -2.0337    5.1631    0.1691 C   0  0  0  0  0  0  0  0  0  0  0  0
   -1.8272    6.0765   -0.3812 H   0  0  0  0  0  0  0  0  0  0  0  0
   -3.2566    5.0047    0.8283 C   0  0  0  0  0  0  0  0  0  0  0  0
   -4.0005    5.7951    0.7906 H   0  0  0  0  0  0  0  0  0  0  0  0
   -3.5166    3.8317    1.5435 C   0  0  0  0  0  0  0  0  0  0  0  0
   -4.4626    3.7113    2.0633 H   0  0  0  0  0  0  0  0  0  0  0  0
   -2.5541    2.8177    1.5973 C   0  0  0  0  0  0  0  0  0  0  0  0
   -2.7595    1.9129    2.1620 H   0  0  0  0  0  0  0  0  0  0  0  0
    0.9096    0.1041   -0.4392 C   0  0  0  0  0  0  0  0  0  0  0  0
    1.8838    0.2309    0.2936 O   0  0  0  0  0  0  0  0  0  0  0  0
    1.0382   -0.6779   -1.5735 N   0  0  0  0  0  0  0  0  0  0  0  0
    0.1842   -0.8494   -2.0939 H   0  0  0  0  0  0  0  0  0  0  0  0
    2.1713   -1.5696   -1.7885 C   0  0  0  0  0  0  0  0  0  0  0  0
    2.2326   -2.3098   -0.9835 H   0  0  0  0  0  0  0  0  0  0  0  0
    2.0608   -2.0986   -2.7396 H   0  0  0  0  0  0  0  0  0  0  0  0
    3.1071   -1.0017   -1.8175 H   0  0  0  0  0  0  0  0  0  0  0  0
  1  2  1  0  0  0  0
  2  3  1  0  0  0  0
  2  4  1  0  0  0  0
  2  5  1  0  0  0  0
  5  6  2  0  0  0  0
  5  7  1  0  0  0  0
  7  8  1  0  0  0  0
  7  9  1  0  0  0  0
  9 10  1  0  0  0  0
  9 11  1  0  0  0  0
  9 25  1  0  0  0  0
 11 12  1  0  0  0  0
 11 13  1  0  0  0  0
 11 14  1  0  0  0  0
 14 15  1  0  0  0  0
 14 23  2  0  0  0  0
 15 16  1  0  0  0  0
 15 17  2  0  0  0  0
 17 18  1  0  0  0  0
 17 19  1  0  0  0  0
 19 20  1  0  0  0  0
 19 21  2  0  0  0  0
 21 22  1  0  0  0  0
 21 23  1  0  0  0  0
 23 24  1  0  0  0  0
 25 26  2  0  0  0  0
 25 27  1  0  0  0  0
 27 28  1  0  0  0  0
 27 29  1  0  0  0  0
 29 30  1  0  0  0  0
 29 31  1  0  0  0  0
 29 32  1  0  0  0  0
M  END
$$$$

  -OEChem-01062216093D

 32 32  0     1  0  0  0  0  0999 V2000
   -3.4693   -2.2450    1.0829 H   0  0  0  0  0  0  0  0  0  0  0  0
   -3.3826   -1.3700    0.4321 C   0  0  0  0  0  0  0  0  0  0  0  0
   -4.0329   -0.5810    0.8171 H   0  0  0  0  0  0  0  0  0  0  0  0
   -3.7096   -1.6459   -0.5732 H   0  0  0  0  0  0  0  0  0  0  0  0
   -1.9452   -0.8859    0.3954 C   0  0  0  0  0  0  0  0  0  0  0  0
   -1.0921   -1.5155    0.9922 O   0  0  0  0  0  0  0  0  0  0  0  0
   -1.6435    0.2663   -0.3074 N   0  0  0  0  0  0  0  0  0  0  0  0
   -2.4472    0.7833   -0.6532 H   0  0  0  0  0  0  0  0  0  0  0  0
   -0.3525    0.9883   -0.2979 C   0  0  1  0  0  0  0  0  0  0  0  0
   -0.3261    1.6576   -1.1628 H   0  0  0  0  0  0  0  0  0  0  0  0
   -0.2965    1.8525    0.9802 C   0  0  0  0  0  0  0  0  0  0  0  0
   -0.4460    1.2229    1.8642 H   0  0  0  0  0  0  0  0  0  0  0  0
    0.6950    2.3077    1.0765 H   0  0  0  0  0  0  0  0  0  0  0  0
   -1.3252    2.9583    0.9313 C   0  0  0  0  0  0  0  0  0  0  0  0
   -1.0673    4.1376    0.2166 C   0  0  0  0  0  0  0  0  0  0  0  0
   -0.1183    4.2650   -0.2964 H   0  0  0  0  0  0  0  0  0  0  0  0
   -2.0226    5.1587    0.1646 C   0  0  0  0  0  0  0  0  0  0  0  0
   -1.8125    6.0705   -0.3869 H   0  0  0  0  0  0  0  0  0  0  0  0
   -3.2443    5.0087    0.8283 C   0  0  0  0  0  0  0  0  0  0  0  0
   -3.9839    5.8035    0.7925 H   0  0  0  0  0  0  0  0  0  0  0  0
   -3.5085    3.8382    1.5460 C   0  0  0  0  0  0  0  0  0  0  0  0
   -4.4535    3.7237    2.0689 H   0  0  0  0  0  0  0  0  0  0  0  0
   -2.5516    2.8188    1.5983 C   0  0  0  0  0  0  0  0  0  0  0  0
   -2.7598    1.9165    2.1659 H   0  0  0  0  0  0  0  0  0  0  0  0
    0.9044    0.0875   -0.4296 C   0  0  0  0  0  0  0  0  0  0  0  0
    1.7730    0.0539    0.4345 O   0  0  0  0  0  0  0  0  0  0  0  0
    1.2018   -0.4504   -1.6698 N   0  0  0  0  0  0  0  0  0  0  0  0
    0.4446   -0.4797   -2.3448 H   0  0  0  0  0  0  0  0  0  0  0  0
    2.3844   -1.2685   -1.9131 C   0  0  0  0  0  0  0  0  0  0  0  0
    2.3723   -2.1575   -1.2737 H   0  0  0  0  0  0  0  0  0  0  0  0
    2.4131   -1.5918   -2.9579 H   0  0  0  0  0  0  0  0  0  0  0  0
    3.2954   -0.6976   -1.7051 H   0  0  0  0  0  0  0  0  0  0  0  0
  1  2  1  0  0  0  0
  2  3  1  0  0  0  0
  2  4  1  0  0  0  0
  2  5  1  0  0  0  0
  5  6  2  0  0  0  0
  5  7  1  0  0  0  0
  7  8  1  0  0  0  0
  7  9  1  0  0  0  0
  9 10  1  0  0  0  0
  9 11  1  0  0  0  0
  9 25  1  0  0  0  0
 11 12  1  0  0  0  0
 11 13  1  0  0  0  0
 11 14  1  0  0  0  0
 14 15  1  0  0  0  0
 14 23  2  0  0  0  0
 15 16  1  0  0  0  0
 15 17  2  0  0  0  0
 17 18  1  0  0  0  0
 17 19  1  0  0  0  0
 19 20  1  0  0  0  0
 19 21  2  0  0  0  0
 21 22  1  0  0  0  0
 21 23  1  0  0  0  0
 23 24  1  0  0  0  0
 25 26  2  0  0  0  0
 25 27  1  0  0  0  0
 27 28  1  0  0  0  0
 27 29  1  0  0  0  0
 29 30  1  0  0  0  0
 29 31  1  0  0  0  0
 29 32  1  0  0  0  0
M  END
$$$$

  -OEChem-01062216093D

 32 32  0     1  0  0  0  0  0999 V2000
   -3.5105   -2.2389    1.0761 H   0  0  0  0  0  0  0  0  0  0  0  0
   -3.4127   -1.3594    0.4333 C   0  0  0  0  0  0  0  0  0  0  0  0
   -4.0530   -0.5656    0.8251 H   0  0  0  0  0  0  0  0  0  0  0  0
   -3.7425   -1.6220   -0.5746 H   0  0  0  0  0  0  0  0  0  0  0  0
   -1.9690   -0.8938    0.4017 C   0  0  0  0  0  0  0  0  0  0  0  0
   -1.1277   -1.5332    1.0035 O   0  0  0  0  0  0  0  0  0  0  0  0
   -1.6546    0.2538   -0.3026 N   0  0  0  0  0  0  0  0  0  0  0  0
   -2.4540    0.7710   -0.6574 H   0  0  0  0  0  0  0  0  0  0  0  0
   -0.3604    0.9693   -0.3001 C   0  0  1  0  0  0  0  0  0  0  0  0
   -0.3402    1.6407   -1.1633 H   0  0  0  0  0  0  0  0  0  0  0  0
   -0.2924    1.8335    0.9769 C   0  0  0  0  0  0  0  0  0  0  0  0
   -0.4428    1.2051    1.8618 H   0  0  0  0  0  0  0  0  0  0  0  0
    0.7036    2.2798    1.0686 H   0  0  0  0  0  0  0  0  0  0  0  0
   -1.3164    2.9437    0.9305 C   0  0  0  0  0  0  0  0  0  0  0  0
   -1.0568    4.1203    0.2124 C   0  0  0  0  0  0  0  0  0  0  0  0
   -0.1089    4.2442   -0.3029 H   0  0  0  0  0  0  0  0  0  0  0  0
   -2.0107    5.1422    0.1563 C   0  0  0  0  0  0  0  0  0  0  0  0
   -1.8007    6.0503   -0.4011 H   0  0  0  0  0  0  0  0  0  0  0  0
   -3.2312    4.9973    0.8231 C   0  0  0  0  0  0  0  0  0  0  0  0
   -3.9699    5.7925    0.7838 H   0  0  0  0  0  0  0  0  0  0  0  0
   -3.4955    3.8313    1.5481 C   0  0  0  0  0  0  0  0  0  0  0  0
   -4.4389    3.7215    2.0748 H   0  0  0  0  0  0  0  0  0  0  0  0
   -2.5410    2.8098    1.6020 C   0  0  0  0  0  0  0  0  0  0  0  0
   -2.7496    1.9095    2.1730 H   0  0  0  0  0  0  0  0  0  0  0  0
    0.9015    0.0750   -0.4311 C   0  0  0  0  0  0  0  0  0  0  0  0
    1.6545   -0.1269    0.5143 O   0  0  0  0  0  0  0  0  0  0  0  0
    1.3793   -0.2059   -1.7000 N   0  0  0  0  0  0  0  0  0  0  0  0
    0.7379   -0.0679   -2.4741 H   0  0  0  0  0  0  0  0  0  0  0  0
    2.6130   -0.9462   -1.9380 C   0  0  0  0  0  0  0  0  0  0  0  0
    2.5595   -1.9379   -1.4766 H   0  0  0  0  0  0  0  0  0  0  0  0
    2.7780   -1.0713   -3.0123 H   0  0  0  0  0  0  0  0  0  0  0  0
    3.4695   -0.4082   -1.5182 H   0  0  0  0  0  0  0  0  0  0  0  0
  1  2  1  0  0  0  0
  2  3  1  0  0  0  0
  2  4  1  0  0  0  0
  2  5  1  0  0  0  0
  5  6  2  0  0  0  0
  5  7  1  0  0  0  0
  7  8  1  0  0  0  0
  7  9  1  0  0  0  0
  9 10  1  0  0  0  0
  9 11  1  0  0  0  0
  9 25  1  0  0  0  0
 11 12  1  0  0  0  0
 11 13  1  0  0  0  0
 11 14  1  0  0  0  0
 14 15  1  0  0  0  0
 14 23  2  0  0  0  0
 15 16  1  0  0  0  0
 15 17  2  0  0  0  0
 17 18  1  0  0  0  0
 17 19  1  0  0  0  0
 19 20  1  0  0  0  0
 19 21  2  0  0  0  0
 21 22  1  0  0  0  0
 21 23  1  0  0  0  0
 23 24  1  0  0  0  0
 25 26  2  0  0  0  0
 25 27  1  0  0  0  0
 27 28  1  0  0  0  0
 27 29  1  0  0  0  0
 29 30  1  0  0  0  0
 29 31  1  0  0  0  0
 29 32  1  0  0  0  0
M  END
$$$$

  -OEChem-01062216093D

 32 32  0     1  0  0  0  0  0999 V2000
   -3.5608   -2.2443    1.0681 H   0  0  0  0  0  0  0  0  0  0  0  0
   -3.4468   -1.3735    0.4159 C   0  0  0  0  0  0  0  0  0  0  0  0
   -4.1013   -0.5768    0.7772 H   0  0  0  0  0  0  0  0  0  0  0  0
   -3.7448   -1.6520   -0.5976 H   0  0  0  0  0  0  0  0  0  0  0  0
   -2.0041   -0.9030    0.4198 C   0  0  0  0  0  0  0  0  0  0  0  0
   -1.1846   -1.5274    1.0640 O   0  0  0  0  0  0  0  0  0  0  0  0
   -1.6746    0.2348   -0.2936 N   0  0  0  0  0  0  0  0  0  0  0  0
   -2.4658    0.7355   -0.6876 H   0  0  0  0  0  0  0  0  0  0  0  0
   -0.3763    0.9440   -0.3089 C   0  0  1  0  0  0  0  0  0  0  0  0
   -0.3710    1.6111   -1.1754 H   0  0  0  0  0  0  0  0  0  0  0  0
   -0.2874    1.8143    0.9612 C   0  0  0  0  0  0  0  0  0  0  0  0
   -0.4320    1.1920    1.8514 H   0  0  0  0  0  0  0  0  0  0  0  0
    0.7137    2.2518    1.0380 H   0  0  0  0  0  0  0  0  0  0  0  0
   -1.3040    2.9313    0.9232 C   0  0  0  0  0  0  0  0  0  0  0  0
   -1.0464    4.1034    0.1966 C   0  0  0  0  0  0  0  0  0  0  0  0
   -0.1052    4.2197   -0.3324 H   0  0  0  0  0  0  0  0  0  0  0  0
   -1.9927    5.1328    0.1520 C   0  0  0  0  0  0  0  0  0  0  0  0
   -1.7836    6.0388   -0.4093 H   0  0  0  0  0  0  0  0  0  0  0  0
   -3.2050    4.9984    0.8355 C   0  0  0  0  0  0  0  0  0  0  0  0
   -3.9379    5.7994    0.8044 H   0  0  0  0  0  0  0  0  0  0  0  0
   -3.4688    3.8354    1.5657 C   0  0  0  0  0  0  0  0  0  0  0  0
   -4.4064    3.7333    2.1042 H   0  0  0  0  0  0  0  0  0  0  0  0
   -2.5209    2.8073    1.6100 C   0  0  0  0  0  0  0  0  0  0  0  0
   -2.7281    1.9093    2.1854 H   0  0  0  0  0  0  0  0  0  0  0  0
    0.8969    0.0649   -0.4394 C   0  0  0  0  0  0  0  0  0  0  0  0
    1.5308   -0.3105    0.5388 O   0  0  0  0  0  0  0  0  0  0  0  0
    1.5522    0.0342   -1.6597 N   0  0  0  0  0  0  0  0  0  0  0  0
    1.0396    0.3596   -2.4725 H   0  0  0  0  0  0  0  0  0  0  0  0
    2.8401   -0.6215   -1.8595 C   0  0  0  0  0  0  0  0  0  0  0  0
    2.7774   -1.6796   -1.5841 H   0  0  0  0  0  0  0  0  0  0  0  0
    3.1412   -0.5539   -2.9092 H   0  0  0  0  0  0  0  0  0  0  0  0
    3.6129   -0.1439   -1.2478 H   0  0  0  0  0  0  0  0  0  0  0  0
  1  2  1  0  0  0  0
  2  3  1  0  0  0  0
  2  4  1  0  0  0  0
  2  5  1  0  0  0  0
  5  6  2  0  0  0  0
  5  7  1  0  0  0  0
  7  8  1  0  0  0  0
  7  9  1  0  0  0  0
  9 10  1  0  0  0  0
  9 11  1  0  0  0  0
  9 25  1  0  0  0  0
 11 12  1  0  0  0  0
 11 13  1  0  0  0  0
 11 14  1  0  0  0  0
 14 15  1  0  0  0  0
 14 23  2  0  0  0  0
 15 16  1  0  0  0  0
 15 17  2  0  0  0  0
 17 18  1  0  0  0  0
 17 19  1  0  0  0  0
 19 20  1  0  0  0  0
 19 21  2  0  0  0  0
 21 22  1  0  0  0  0
 21 23  1  0  0  0  0
 23 24  1  0  0  0  0
 25 26  2  0  0  0  0
 25 27  1  0  0  0  0
 27 28  1  0  0  0  0
 27 29  1  0  0  0  0
 29 30  1  0  0  0  0
 29 31  1  0  0  0  0
 29 32  1  0  0  0  0
M  END
$$$$

  -OEChem-01062216093D

 32 32  0     1  0  0  0  0  0999 V2000
   -3.5183   -2.3825    0.9404 H   0  0  0  0  0  0  0  0  0  0  0  0
   -3.4043   -1.5045    0.2983 C   0  0  0  0  0  0  0  0  0  0  0  0
   -4.1916   -0.7867    0.5403 H   0  0  0  0  0  0  0  0  0  0  0  0
   -3.5097   -1.8170   -0.7430 H   0  0  0  0  0  0  0  0  0  0  0  0
   -2.0419   -0.8723    0.5148 C   0  0  0  0  0  0  0  0  0  0  0  0
   -1.3269   -1.3118    1.3935 O   0  0  0  0  0  0  0  0  0  0  0  0
   -1.7055    0.2429   -0.2311 N   0  0  0  0  0  0  0  0  0  0  0  0
   -2.4370    0.5827   -0.8475 H   0  0  0  0  0  0  0  0  0  0  0  0
   -0.4045    0.9475   -0.2932 C   0  0  1  0  0  0  0  0  0  0  0  0
   -0.4259    1.5967   -1.1725 H   0  0  0  0  0  0  0  0  0  0  0  0
   -0.2688    1.8407    0.9554 C   0  0  0  0  0  0  0  0  0  0  0  0
   -0.3912    1.2363    1.8611 H   0  0  0  0  0  0  0  0  0  0  0  0
    0.7382    2.2693    0.9940 H   0  0  0  0  0  0  0  0  0  0  0  0
   -1.2772    2.9654    0.9310 C   0  0  0  0  0  0  0  0  0  0  0  0
   -1.0371    4.1233    0.1762 C   0  0  0  0  0  0  0  0  0  0  0  0
   -0.1128    4.2255   -0.3841 H   0  0  0  0  0  0  0  0  0  0  0  0
   -1.9797    5.1570    0.1446 C   0  0  0  0  0  0  0  0  0  0  0  0
   -1.7847    6.0522   -0.4384 H   0  0  0  0  0  0  0  0  0  0  0  0
   -3.1703    5.0408    0.8688 C   0  0  0  0  0  0  0  0  0  0  0  0
   -3.9009    5.8443    0.8475 H   0  0  0  0  0  0  0  0  0  0  0  0
   -3.4160    3.8916    1.6266 C   0  0  0  0  0  0  0  0  0  0  0  0
   -4.3370    3.8009    2.1952 H   0  0  0  0  0  0  0  0  0  0  0  0
   -2.4722    2.8594    1.6574 C   0  0  0  0  0  0  0  0  0  0  0  0
   -2.6658    1.9694    2.2502 H   0  0  0  0  0  0  0  0  0  0  0  0
    0.8743    0.0770   -0.4269 C   0  0  0  0  0  0  0  0  0  0  0  0
    1.3543   -0.5560    0.5016 O   0  0  0  0  0  0  0  0  0  0  0  0
    1.6788    0.2611   -1.5401 N   0  0  0  0  0  0  0  0  0  0  0  0
    1.3152    0.8318   -2.2959 H   0  0  0  0  0  0  0  0  0  0  0  0
    2.9801   -0.3771   -1.7072 C   0  0  0  0  0  0  0  0  0  0  0  0
    2.8763   -1.4672   -1.6928 H   0  0  0  0  0  0  0  0  0  0  0  0
    3.4258   -0.0843   -2.6627 H   0  0  0  0  0  0  0  0  0  0  0  0
    3.6608   -0.0771   -0.9034 H   0  0  0  0  0  0  0  0  0  0  0  0
  1  2  1  0  0  0  0
  2  3  1  0  0  0  0
  2  4  1  0  0  0  0
  2  5  1  0  0  0  0
  5  6  2  0  0  0  0
  5  7  1  0  0  0  0
  7  8  1  0  0  0  0
  7  9  1  0  0  0  0
  9 10  1  0  0  0  0
  9 11  1  0  0  0  0
  9 25  1  0  0  0  0
 11 12  1  0  0  0  0
 11 13  1  0  0  0  0
 11 14  1  0  0  0  0
 14 15  1  0  0  0  0
 14 23  2  0  0  0  0
 15 16  1  0  0  0  0
 15 17  2  0  0  0  0
 17 18  1  0  0  0  0
 17 19  1  0  0  0  0
 19 20  1  0  0  0  0
 19 21  2  0  0  0  0
 21 22  1  0  0  0  0
 21 23  1  0  0  0  0
 23 24  1  0  0  0  0
 25 26  2  0  0  0  0
 25 27  1  0  0  0  0
 27 28  1  0  0  0  0
 27 29  1  0  0  0  0
 29 30  1  0  0  0  0
 29 31  1  0  0  0  0
 29 32  1  0  0  0  0
M  END
$$$$

  -OEChem-01062216093D

 32 32  0     1  0  0  0  0  0999 V2000
   -3.2146   -2.6045    0.8511 H   0  0  0  0  0  0  0  0  0  0  0  0
   -3.1511   -1.7572    0.1624 C   0  0  0  0  0  0  0  0  0  0  0  0
   -4.1104   -1.2346    0.1549 H   0  0  0  0  0  0  0  0  0  0  0  0
   -2.9400   -2.1372   -0.8399 H   0  0  0  0  0  0  0  0  0  0  0  0
   -2.0484   -0.8120    0.6022 C   0  0  0  0  0  0  0  0  0  0  0  0
   -1.5607   -0.9471    1.7116 O   0  0  0  0  0  0  0  0  0  0  0  0
   -1.7657    0.2995   -0.1728 N   0  0  0  0  0  0  0  0  0  0  0  0
   -2.3351    0.3646   -1.0099 H   0  0  0  0  0  0  0  0  0  0  0  0
   -0.4601    0.9972   -0.2355 C   0  0  1  0  0  0  0  0  0  0  0  0
   -0.4840    1.6312   -1.1259 H   0  0  0  0  0  0  0  0  0  0  0  0
   -0.2887    1.9131    0.9920 C   0  0  0  0  0  0  0  0  0  0  0  0
   -0.4019    1.3360    1.9152 H   0  0  0  0  0  0  0  0  0  0  0  0
    0.7245    2.3276    1.0030 H   0  0  0  0  0  0  0  0  0  0  0  0
   -1.2760    3.0555    0.9615 C   0  0  0  0  0  0  0  0  0  0  0  0
   -1.0319    4.1965    0.1819 C   0  0  0  0  0  0  0  0  0  0  0  0
   -0.1180    4.2754   -0.3982 H   0  0  0  0  0  0  0  0  0  0  0  0
   -1.9588    5.2446    0.1503 C   0  0  0  0  0  0  0  0  0  0  0  0
   -1.7625    6.1263   -0.4525 H   0  0  0  0  0  0  0  0  0  0  0  0
   -3.1374    5.1596    0.8983 C   0  0  0  0  0  0  0  0  0  0  0  0
   -3.8560    5.9737    0.8771 H   0  0  0  0  0  0  0  0  0  0  0  0
   -3.3885    4.0258    1.6772 C   0  0  0  0  0  0  0  0  0  0  0  0
   -4.3017    3.9563    2.2610 H   0  0  0  0  0  0  0  0  0  0  0  0
   -2.4614    2.9787    1.7066 C   0  0  0  0  0  0  0  0  0  0  0  0
   -2.6615    2.0964    2.3092 H   0  0  0  0  0  0  0  0  0  0  0  0
    0.8119    0.1157   -0.3667 C   0  0  0  0  0  0  0  0  0  0  0  0
    0.9517   -0.9672    0.1804 O   0  0  0  0  0  0  0  0  0  0  0  0
    1.7808    0.4918   -1.2828 N   0  0  0  0  0  0  0  0  0  0  0  0
    1.6666    1.3842   -1.7525 H   0  0  0  0  0  0  0  0  0  0  0  0
    2.9924   -0.2816   -1.5328 C   0  0  0  0  0  0  0  0  0  0  0  0
    2.7402   -1.2858   -1.8896 H   0  0  0  0  0  0  0  0  0  0  0  0
    3.6053    0.2108   -2.2936 H   0  0  0  0  0  0  0  0  0  0  0  0
    3.5844   -0.3720   -0.6160 H   0  0  0  0  0  0  0  0  0  0  0  0
  1  2  1  0  0  0  0
  2  3  1  0  0  0  0
  2  4  1  0  0  0  0
  2  5  1  0  0  0  0
  5  6  2  0  0  0  0
  5  7  1  0  0  0  0
  7  8  1  0  0  0  0
  7  9  1  0  0  0  0
  9 10  1  0  0  0  0
  9 11  1  0  0  0  0
  9 25  1  0  0  0  0
 11 12  1  0  0  0  0
 11 13  1  0  0  0  0
 11 14  1  0  0  0  0
 14 15  1  0  0  0  0
 14 23  2  0  0  0  0
 15 16  1  0  0  0  0
 15 17  2  0  0  0  0
 17 18  1  0  0  0  0
 17 19  1  0  0  0  0
 19 20  1  0  0  0  0
 19 21  2  0  0  0  0
 21 22  1  0  0  0  0
 21 23  1  0  0  0  0
 23 24  1  0  0  0  0
 25 26  2  0  0  0  0
 25 27  1  0  0  0  0
 27 28  1  0  0  0  0
 27 29  1  0  0  0  0
 29 30  1  0  0  0  0
 29 31  1  0  0  0  0
 29 32  1  0  0  0  0
M  END
$$$$

  -OEChem-01062216093D

 32 32  0     1  0  0  0  0  0999 V2000
   -3.1763   -2.6199    0.8637 H   0  0  0  0  0  0  0  0  0  0  0  0
   -3.1242   -1.7711    0.1761 C   0  0  0  0  0  0  0  0  0  0  0  0
   -4.0906   -1.2615    0.1674 H   0  0  0  0  0  0  0  0  0  0  0  0
   -2.9053   -2.1474   -0.8260 H   0  0  0  0  0  0  0  0  0  0  0  0
   -2.0348   -0.8115    0.6159 C   0  0  0  0  0  0  0  0  0  0  0  0
   -1.5216   -0.9509    1.7148 O   0  0  0  0  0  0  0  0  0  0  0  0
   -1.7633    0.3047   -0.1566 N   0  0  0  0  0  0  0  0  0  0  0  0
   -2.3108    0.3513   -1.0094 H   0  0  0  0  0  0  0  0  0  0  0  0
   -0.4554    0.9985   -0.1991 C   0  0  1  0  0  0  0  0  0  0  0  0
   -0.4630    1.6285   -1.0931 H   0  0  0  0  0  0  0  0  0  0  0  0
   -0.3005    1.9187    1.0284 C   0  0  0  0  0  0  0  0  0  0  0  0
   -0.4314    1.3471    1.9524 H   0  0  0  0  0  0  0  0  0  0  0  0
    0.7127    2.3320    1.0563 H   0  0  0  0  0  0  0  0  0  0  0  0
   -1.2840    3.0632    0.9760 C   0  0  0  0  0  0  0  0  0  0  0  0
   -1.0236    4.1999    0.1953 C   0  0  0  0  0  0  0  0  0  0  0  0
   -0.1000    4.2745   -0.3698 H   0  0  0  0  0  0  0  0  0  0  0  0
   -1.9474    5.2498    0.1417 C   0  0  0  0  0  0  0  0  0  0  0  0
   -1.7384    6.1281   -0.4620 H   0  0  0  0  0  0  0  0  0  0  0  0
   -3.1397    5.1701    0.8680 C   0  0  0  0  0  0  0  0  0  0  0  0
   -3.8566    5.9849    0.8289 H   0  0  0  0  0  0  0  0  0  0  0  0
   -3.4075    4.0401    1.6468 C   0  0  0  0  0  0  0  0  0  0  0  0
   -4.3324    3.9747    2.2123 H   0  0  0  0  0  0  0  0  0  0  0  0
   -2.4829    2.9918    1.6993 C   0  0  0  0  0  0  0  0  0  0  0  0
   -2.6966    2.1130    2.3024 H   0  0  0  0  0  0  0  0  0  0  0  0
    0.8128    0.1098   -0.3224 C   0  0  0  0  0  0  0  0  0  0  0  0
    0.7972   -1.1039   -0.1706 O   0  0  0  0  0  0  0  0  0  0  0  0
    1.9174    0.6388   -0.9705 N   0  0  0  0  0  0  0  0  0  0  0  0
    1.9235    1.6376   -1.1504 H   0  0  0  0  0  0  0  0  0  0  0  0
    3.1072   -0.1393   -1.2996 C   0  0  0  0  0  0  0  0  0  0  0  0
    2.8551   -0.9525   -1.9885 H   0  0  0  0  0  0  0  0  0  0  0  0
    3.8561    0.4987   -1.7785 H   0  0  0  0  0  0  0  0  0  0  0  0
    3.5470   -0.5692   -0.3934 H   0  0  0  0  0  0  0  0  0  0  0  0
  1  2  1  0  0  0  0
  2  3  1  0  0  0  0
  2  4  1  0  0  0  0
  2  5  1  0  0  0  0
  5  6  2  0  0  0  0
  5  7  1  0  0  0  0
  7  8  1  0  0  0  0
  7  9  1  0  0  0  0
  9 10  1  0  0  0  0
  9 11  1  0  0  0  0
  9 25  1  0  0  0  0
 11 12  1  0  0  0  0
 11 13  1  0  0  0  0
 11 14  1  0  0  0  0
 14 15  1  0  0  0  0
 14 23  2  0  0  0  0
 15 16  1  0  0  0  0
 15 17  2  0  0  0  0
 17 18  1  0  0  0  0
 17 19  1  0  0  0  0
 19 20  1  0  0  0  0
 19 21  2  0  0  0  0
 21 22  1  0  0  0  0
 21 23  1  0  0  0  0
 23 24  1  0  0  0  0
 25 26  2  0  0  0  0
 25 27  1  0  0  0  0
 27 28  1  0  0  0  0
 27 29  1  0  0  0  0
 29 30  1  0  0  0  0
 29 31  1  0  0  0  0
 29 32  1  0  0  0  0
M  END
$$$$

  -OEChem-01062216093D

 32 32  0     1  0  0  0  0  0999 V2000
   -3.1737   -2.6034    0.8742 H   0  0  0  0  0  0  0  0  0  0  0  0
   -3.1344   -1.7456    0.1970 C   0  0  0  0  0  0  0  0  0  0  0  0
   -4.0920   -1.2211    0.2332 H   0  0  0  0  0  0  0  0  0  0  0  0
   -2.9605   -2.1099   -0.8183 H   0  0  0  0  0  0  0  0  0  0  0  0
   -2.0136   -0.8093    0.6070 C   0  0  0  0  0  0  0  0  0  0  0  0
   -1.4418   -0.9853    1.6718 O   0  0  0  0  0  0  0  0  0  0  0  0
   -1.7515    0.3122   -0.1609 N   0  0  0  0  0  0  0  0  0  0  0  0
   -2.3044    0.3683   -1.0100 H   0  0  0  0  0  0  0  0  0  0  0  0
   -0.4449    1.0077   -0.1940 C   0  0  1  0  0  0  0  0  0  0  0  0
   -0.4391    1.6401   -1.0861 H   0  0  0  0  0  0  0  0  0  0  0  0
   -0.3068    1.9241    1.0402 C   0  0  0  0  0  0  0  0  0  0  0  0
   -0.4469    1.3485    1.9606 H   0  0  0  0  0  0  0  0  0  0  0  0
    0.7027    2.3438    1.0840 H   0  0  0  0  0  0  0  0  0  0  0  0
   -1.2955    3.0639    0.9802 C   0  0  0  0  0  0  0  0  0  0  0  0
   -1.0320    4.2044    0.2061 C   0  0  0  0  0  0  0  0  0  0  0  0
   -0.1041    4.2841   -0.3511 H   0  0  0  0  0  0  0  0  0  0  0  0
   -1.9593    5.2509    0.1464 C   0  0  0  0  0  0  0  0  0  0  0  0
   -1.7477    6.1317   -0.4531 H   0  0  0  0  0  0  0  0  0  0  0  0
   -3.1587    5.1642    0.8602 C   0  0  0  0  0  0  0  0  0  0  0  0
   -3.8789    5.9760    0.8157 H   0  0  0  0  0  0  0  0  0  0  0  0
   -3.4296    4.0305    1.6325 C   0  0  0  0  0  0  0  0  0  0  0  0
   -4.3597    3.9592    2.1884 H   0  0  0  0  0  0  0  0  0  0  0  0
   -2.5017    2.9854    1.6906 C   0  0  0  0  0  0  0  0  0  0  0  0
   -2.7192    2.1038    2.2879 H   0  0  0  0  0  0  0  0  0  0  0  0
    0.8113    0.1026   -0.3179 C   0  0  0  0  0  0  0  0  0  0  0  0
    0.7258   -1.1091   -0.4752 O   0  0  0  0  0  0  0  0  0  0  0  0
    2.0182    0.6892   -0.6633 N   0  0  0  0  0  0  0  0  0  0  0  0
    2.0856    1.6997   -0.5954 H   0  0  0  0  0  0  0  0  0  0  0  0
    3.2188   -0.0728   -0.9900 C   0  0  0  0  0  0  0  0  0  0  0  0
    3.0480   -0.6980   -1.8728 H   0  0  0  0  0  0  0  0  0  0  0  0
    4.0508    0.6050   -1.2035 H   0  0  0  0  0  0  0  0  0  0  0  0
    3.5031   -0.7174   -0.1515 H   0  0  0  0  0  0  0  0  0  0  0  0
  1  2  1  0  0  0  0
  2  3  1  0  0  0  0
  2  4  1  0  0  0  0
  2  5  1  0  0  0  0
  5  6  2  0  0  0  0
  5  7  1  0  0  0  0
  7  8  1  0  0  0  0
  7  9  1  0  0  0  0
  9 10  1  0  0  0  0
  9 11  1  0  0  0  0
  9 25  1  0  0  0  0
 11 12  1  0  0  0  0
 11 13  1  0  0  0  0
 11 14  1  0  0  0  0
 14 15  1  0  0  0  0
 14 23  2  0  0  0  0
 15 16  1  0  0  0  0
 15 17  2  0  0  0  0
 17 18  1  0  0  0  0
 17 19  1  0  0  0  0
 19 20  1  0  0  0  0
 19 21  2  0  0  0  0
 21 22  1  0  0  0  0
 21 23  1  0  0  0  0
 23 24  1  0  0  0  0
 25 26  2  0  0  0  0
 25 27  1  0  0  0  0
 27 28  1  0  0  0  0
 27 29  1  0  0  0  0
 29 30  1  0  0  0  0
 29 31  1  0  0  0  0
 29 32  1  0  0  0  0
M  END
$$$$

  -OEChem-01062216093D

 32 32  0     1  0  0  0  0  0999 V2000
   -3.2068   -2.6024    0.7961 H   0  0  0  0  0  0  0  0  0  0  0  0
   -3.1656   -1.7069    0.1700 C   0  0  0  0  0  0  0  0  0  0  0  0
   -4.0724   -1.1199    0.3326 H   0  0  0  0  0  0  0  0  0  0  0  0
   -3.1184   -2.0142   -0.8775 H   0  0  0  0  0  0  0  0  0  0  0  0
   -1.9427   -0.8801    0.5199 C   0  0  0  0  0  0  0  0  0  0  0  0
   -1.2218   -1.2403    1.4373 O   0  0  0  0  0  0  0  0  0  0  0  0
   -1.6979    0.2870   -0.1827 N   0  0  0  0  0  0  0  0  0  0  0  0
   -2.3061    0.4378   -0.9811 H   0  0  0  0  0  0  0  0  0  0  0  0
   -0.4122    1.0187   -0.1792 C   0  0  1  0  0  0  0  0  0  0  0  0
   -0.5116    1.8446   -0.8895 H   0  0  0  0  0  0  0  0  0  0  0  0
   -0.1050    1.6428    1.2025 C   0  0  0  0  0  0  0  0  0  0  0  0
   -0.1113    0.8840    1.9892 H   0  0  0  0  0  0  0  0  0  0  0  0
    0.8983    2.0777    1.2026 H   0  0  0  0  0  0  0  0  0  0  0  0
   -1.0917    2.7395    1.5232 C   0  0  0  0  0  0  0  0  0  0  0  0
   -0.9313    4.0287    0.9922 C   0  0  0  0  0  0  0  0  0  0  0  0
   -0.0849    4.2542    0.3511 H   0  0  0  0  0  0  0  0  0  0  0  0
   -1.8579    5.0358    1.2846 C   0  0  0  0  0  0  0  0  0  0  0  0
   -1.7262    6.0317    0.8721 H   0  0  0  0  0  0  0  0  0  0  0  0
   -2.9533    4.7610    2.1093 C   0  0  0  0  0  0  0  0  0  0  0  0
   -3.6719    5.5426    2.3381 H   0  0  0  0  0  0  0  0  0  0  0  0
   -3.1216    3.4785    2.6404 C   0  0  0  0  0  0  0  0  0  0  0  0
   -3.9712    3.2611    3.2809 H   0  0  0  0  0  0  0  0  0  0  0  0
   -2.1938    2.4734    2.3481 C   0  0  0  0  0  0  0  0  0  0  0  0
   -2.3305    1.4774    2.7607 H   0  0  0  0  0  0  0  0  0  0  0  0
    0.7738    0.1704   -0.7080 C   0  0  0  0  0  0  0  0  0  0  0  0
    0.5749   -0.8732   -1.3199 O   0  0  0  0  0  0  0  0  0  0  0  0
    2.0468    0.7139   -0.7652 N   0  0  0  0  0  0  0  0  0  0  0  0
    2.2079    1.5827   -0.2662 H   0  0  0  0  0  0  0  0  0  0  0  0
    3.1896    0.0169   -1.3444 C   0  0  0  0  0  0  0  0  0  0  0  0
    3.0069   -0.2080   -2.4005 H   0  0  0  0  0  0  0  0  0  0  0  0
    4.0873    0.6387   -1.2752 H   0  0  0  0  0  0  0  0  0  0  0  0
    3.3759   -0.9214   -0.8112 H   0  0  0  0  0  0  0  0  0  0  0  0
  1  2  1  0  0  0  0
  2  3  1  0  0  0  0
  2  4  1  0  0  0  0
  2  5  1  0  0  0  0
  5  6  2  0  0  0  0
  5  7  1  0  0  0  0
  7  8  1  0  0  0  0
  7  9  1  0  0  0  0
  9 10  1  0  0  0  0
  9 11  1  0  0  0  0
  9 25  1  0  0  0  0
 11 12  1  0  0  0  0
 11 13  1  0  0  0  0
 11 14  1  0  0  0  0
 14 15  1  0  0  0  0
 14 23  2  0  0  0  0
 15 16  1  0  0  0  0
 15 17  2  0  0  0  0
 17 18  1  0  0  0  0
 17 19  1  0  0  0  0
 19 20  1  0  0  0  0
 19 21  2  0  0  0  0
 21 22  1  0  0  0  0
 21 23  1  0  0  0  0
 23 24  1  0  0  0  0
 25 26  2  0  0  0  0
 25 27  1  0  0  0  0
 27 28  1  0  0  0  0
 27 29  1  0  0  0  0
 29 30  1  0  0  0  0
 29 31  1  0  0  0  0
 29 32  1  0  0  0  0
M  END
$$$$

  -OEChem-01062216093D

 32 32  0     1  0  0  0  0  0999 V2000
   -3.1794   -2.5842    0.8047 H   0  0  0  0  0  0  0  0  0  0  0  0
   -3.1466   -1.6846    0.1837 C   0  0  0  0  0  0  0  0  0  0  0  0
   -4.0441   -1.0913    0.3737 H   0  0  0  0  0  0  0  0  0  0  0  0
   -3.1296   -1.9841   -0.8671 H   0  0  0  0  0  0  0  0  0  0  0  0
   -1.9082   -0.8705    0.5076 C   0  0  0  0  0  0  0  0  0  0  0  0
   -1.1542   -1.2524    1.3894 O   0  0  0  0  0  0  0  0  0  0  0  0
   -1.6756    0.3039   -0.1854 N   0  0  0  0  0  0  0  0  0  0  0  0
   -2.2948    0.4684   -0.9728 H   0  0  0  0  0  0  0  0  0  0  0  0
   -0.3976    1.0464   -0.1752 C   0  0  1  0  0  0  0  0  0  0  0  0
   -0.4948    1.8752   -0.8823 H   0  0  0  0  0  0  0  0  0  0  0  0
   -0.1081    1.6670    1.2128 C   0  0  0  0  0  0  0  0  0  0  0  0
   -0.1106    0.9042    1.9960 H   0  0  0  0  0  0  0  0  0  0  0  0
    0.8872    2.1190    1.2215 H   0  0  0  0  0  0  0  0  0  0  0  0
   -1.1098    2.7512    1.5295 C   0  0  0  0  0  0  0  0  0  0  0  0
   -0.9571    4.0433    1.0042 C   0  0  0  0  0  0  0  0  0  0  0  0
   -0.1088    4.2773    0.3684 H   0  0  0  0  0  0  0  0  0  0  0  0
   -1.8943    5.0412    1.2932 C   0  0  0  0  0  0  0  0  0  0  0  0
   -1.7683    6.0392    0.8840 H   0  0  0  0  0  0  0  0  0  0  0  0
   -2.9930    4.7546    2.1093 C   0  0  0  0  0  0  0  0  0  0  0  0
   -3.7202    5.5293    2.3349 H   0  0  0  0  0  0  0  0  0  0  0  0
   -3.1535    3.4691    2.6357 C   0  0  0  0  0  0  0  0  0  0  0  0
   -4.0056    3.2428    3.2699 H   0  0  0  0  0  0  0  0  0  0  0  0
   -2.2152    2.4726    2.3464 C   0  0  0  0  0  0  0  0  0  0  0  0
   -2.3464    1.4741    2.7549 H   0  0  0  0  0  0  0  0  0  0  0  0
    0.7799    0.1918   -0.7139 C   0  0  0  0  0  0  0  0  0  0  0  0
    0.5630   -0.7080   -1.5184 O   0  0  0  0  0  0  0  0  0  0  0  0
    2.0966    0.5702   -0.5084 N   0  0  0  0  0  0  0  0  0  0  0  0
    2.2711    1.2864    0.1889 H   0  0  0  0  0  0  0  0  0  0  0  0
    3.2321   -0.1744   -1.0407 C   0  0  0  0  0  0  0  0  0  0  0  0
    3.1843   -0.2188   -2.1339 H   0  0  0  0  0  0  0  0  0  0  0  0
    4.1703    0.3124   -0.7574 H   0  0  0  0  0  0  0  0  0  0  0  0
    3.2382   -1.1960   -0.6461 H   0  0  0  0  0  0  0  0  0  0  0  0
  1  2  1  0  0  0  0
  2  3  1  0  0  0  0
  2  4  1  0  0  0  0
  2  5  1  0  0  0  0
  5  6  2  0  0  0  0
  5  7  1  0  0  0  0
  7  8  1  0  0  0  0
  7  9  1  0  0  0  0
  9 10  1  0  0  0  0
  9 11  1  0  0  0  0
  9 25  1  0  0  0  0
 11 12  1  0  0  0  0
 11 13  1  0  0  0  0
 11 14  1  0  0  0  0
 14 15  1  0  0  0  0
 14 23  2  0  0  0  0
 15 16  1  0  0  0  0
 15 17  2  0  0  0  0
 17 18  1  0  0  0  0
 17 19  1  0  0  0  0
 19 20  1  0  0  0  0
 19 21  2  0  0  0  0
 21 22  1  0  0  0  0
 21 23  1  0  0  0  0
 23 24  1  0  0  0  0
 25 26  2  0  0  0  0
 25 27  1  0  0  0  0
 27 28  1  0  0  0  0
 27 29  1  0  0  0  0
 29 30  1  0  0  0  0
 29 31  1  0  0  0  0
 29 32  1  0  0  0  0
M  END
$$$$

  -OEChem-01062216093D

 32 32  0     1  0  0  0  0  0999 V2000
   -3.1487   -2.5817    0.8087 H   0  0  0  0  0  0  0  0  0  0  0  0
   -3.1259   -1.6795    0.1911 C   0  0  0  0  0  0  0  0  0  0  0  0
   -4.0189   -1.0860    0.4006 H   0  0  0  0  0  0  0  0  0  0  0  0
   -3.1297   -1.9741   -0.8613 H   0  0  0  0  0  0  0  0  0  0  0  0
   -1.8803   -0.8686    0.4959 C   0  0  0  0  0  0  0  0  0  0  0  0
   -1.1003   -1.2634    1.3492 O   0  0  0  0  0  0  0  0  0  0  0  0
   -1.6583    0.3117   -0.1892 N   0  0  0  0  0  0  0  0  0  0  0  0
   -2.2887    0.4910   -0.9646 H   0  0  0  0  0  0  0  0  0  0  0  0
   -0.3878    1.0651   -0.1688 C   0  0  1  0  0  0  0  0  0  0  0  0
   -0.4849    1.8945   -0.8754 H   0  0  0  0  0  0  0  0  0  0  0  0
   -0.1113    1.6886    1.2203 C   0  0  0  0  0  0  0  0  0  0  0  0
   -0.1113    0.9253    2.0033 H   0  0  0  0  0  0  0  0  0  0  0  0
    0.8795    2.1514    1.2295 H   0  0  0  0  0  0  0  0  0  0  0  0
   -1.1224    2.7654    1.5338 C   0  0  0  0  0  0  0  0  0  0  0  0
   -0.9754    4.0586    1.0096 C   0  0  0  0  0  0  0  0  0  0  0  0
   -0.1256    4.2976    0.3777 H   0  0  0  0  0  0  0  0  0  0  0  0
   -1.9182    5.0516    1.2964 C   0  0  0  0  0  0  0  0  0  0  0  0
   -1.7952    6.0510    0.8895 H   0  0  0  0  0  0  0  0  0  0  0  0
   -3.0189    4.7580    2.1072 C   0  0  0  0  0  0  0  0  0  0  0  0
   -3.7513    5.5285    2.3298 H   0  0  0  0  0  0  0  0  0  0  0  0
   -3.1751    3.4711    2.6315 C   0  0  0  0  0  0  0  0  0  0  0  0
   -4.0293    3.2401    3.2612 H   0  0  0  0  0  0  0  0  0  0  0  0
   -2.2304    2.4798    2.3448 C   0  0  0  0  0  0  0  0  0  0  0  0
   -2.3584    1.4805    2.7518 H   0  0  0  0  0  0  0  0  0  0  0  0
    0.7865    0.2095   -0.7104 C   0  0  0  0  0  0  0  0  0  0  0  0
    0.5951   -0.5247   -1.6738 O   0  0  0  0  0  0  0  0  0  0  0  0
    2.0877    0.3839   -0.2687 N   0  0  0  0  0  0  0  0  0  0  0  0
    2.2137    0.9097    0.5902 H   0  0  0  0  0  0  0  0  0  0  0  0
    3.2050   -0.4121   -0.7630 C   0  0  0  0  0  0  0  0  0  0  0  0
    3.3184   -0.2844   -1.8446 H   0  0  0  0  0  0  0  0  0  0  0  0
    4.1354   -0.0983   -0.2804 H   0  0  0  0  0  0  0  0  0  0  0  0
    3.0431   -1.4737   -0.5482 H   0  0  0  0  0  0  0  0  0  0  0  0
  1  2  1  0  0  0  0
  2  3  1  0  0  0  0
  2  4  1  0  0  0  0
  2  5  1  0  0  0  0
  5  6  2  0  0  0  0
  5  7  1  0  0  0  0
  7  8  1  0  0  0  0
  7  9  1  0  0  0  0
  9 10  1  0  0  0  0
  9 11  1  0  0  0  0
  9 25  1  0  0  0  0
 11 12  1  0  0  0  0
 11 13  1  0  0  0  0
 11 14  1  0  0  0  0
 14 15  1  0  0  0  0
 14 23  2  0  0  0  0
 15 16  1  0  0  0  0
 15 17  2  0  0  0  0
 17 18  1  0  0  0  0
 17 19  1  0  0  0  0
 19 20  1  0  0  0  0
 19 21  2  0  0  0  0
 21 22  1  0  0  0  0
 21 23  1  0  0  0  0
 23 24  1  0  0  0  0
 25 26  2  0  0  0  0
 25 27  1  0  0  0  0
 27 28  1  0  0  0  0
 27 29  1  0  0  0  0
 29 30  1  0  0  0  0
 29 31  1  0  0  0  0
 29 32  1  0  0  0  0
M  END
$$$$

  -OEChem-01062216093D

 32 32  0     1  0  0  0  0  0999 V2000
   -3.1457   -2.5651    0.8203 H   0  0  0  0  0  0  0  0  0  0  0  0
   -3.1247   -1.6605    0.2064 C   0  0  0  0  0  0  0  0  0  0  0  0
   -4.0052   -1.0567    0.4382 H   0  0  0  0  0  0  0  0  0  0  0  0
   -3.1554   -1.9503   -0.8468 H   0  0  0  0  0  0  0  0  0  0  0  0
   -1.8628   -0.8665    0.4867 C   0  0  0  0  0  0  0  0  0  0  0  0
   -1.0638   -1.2762    1.3152 O   0  0  0  0  0  0  0  0  0  0  0  0
   -1.6402    0.3148   -0.1958 N   0  0  0  0  0  0  0  0  0  0  0  0
   -2.2894    0.5201   -0.9493 H   0  0  0  0  0  0  0  0  0  0  0  0
   -0.3751    1.0753   -0.1674 C   0  0  1  0  0  0  0  0  0  0  0  0
   -0.4697    1.9036   -0.8762 H   0  0  0  0  0  0  0  0  0  0  0  0
   -0.1083    1.6997    1.2220 C   0  0  0  0  0  0  0  0  0  0  0  0
   -0.1096    0.9359    2.0046 H   0  0  0  0  0  0  0  0  0  0  0  0
    0.8819    2.1658    1.2320 H   0  0  0  0  0  0  0  0  0  0  0  0
   -1.1257    2.7710    1.5324 C   0  0  0  0  0  0  0  0  0  0  0  0
   -0.9837    4.0655    1.0102 C   0  0  0  0  0  0  0  0  0  0  0  0
   -0.1318    4.3102    0.3830 H   0  0  0  0  0  0  0  0  0  0  0  0
   -1.9340    5.0526    1.2939 C   0  0  0  0  0  0  0  0  0  0  0  0
   -1.8144    6.0533    0.8894 H   0  0  0  0  0  0  0  0  0  0  0  0
   -3.0367    4.7517    2.0995 C   0  0  0  0  0  0  0  0  0  0  0  0
   -3.7741    5.5178    2.3207 H   0  0  0  0  0  0  0  0  0  0  0  0
   -3.1881    3.4629    2.6205 C   0  0  0  0  0  0  0  0  0  0  0  0
   -4.0439    3.2261    3.2459 H   0  0  0  0  0  0  0  0  0  0  0  0
   -2.2361    2.4777    2.3373 C   0  0  0  0  0  0  0  0  0  0  0  0
   -2.3610    1.4774    2.7427 H   0  0  0  0  0  0  0  0  0  0  0  0
    0.8000    0.2197   -0.7019 C   0  0  0  0  0  0  0  0  0  0  0  0
    0.6777   -0.3364   -1.7875 O   0  0  0  0  0  0  0  0  0  0  0  0
    2.0272    0.1672   -0.0627 N   0  0  0  0  0  0  0  0  0  0  0  0
    2.0480    0.4917    0.8992 H   0  0  0  0  0  0  0  0  0  0  0  0
    3.1207   -0.6770   -0.5285 C   0  0  0  0  0  0  0  0  0  0  0  0
    3.4036   -0.4093   -1.5521 H   0  0  0  0  0  0  0  0  0  0  0  0
    3.9968   -0.5494    0.1144 H   0  0  0  0  0  0  0  0  0  0  0  0
    2.8251   -1.7312   -0.5091 H   0  0  0  0  0  0  0  0  0  0  0  0
  1  2  1  0  0  0  0
  2  3  1  0  0  0  0
  2  4  1  0  0  0  0
  2  5  1  0  0  0  0
  5  6  2  0  0  0  0
  5  7  1  0  0  0  0
  7  8  1  0  0  0  0
  7  9  1  0  0  0  0
  9 10  1  0  0  0  0
  9 11  1  0  0  0  0
  9 25  1  0  0  0  0
 11 12  1  0  0  0  0
 11 13  1  0  0  0  0
 11 14  1  0  0  0  0
 14 15  1  0  0  0  0
 14 23  2  0  0  0  0
 15 16  1  0  0  0  0
 15 17  2  0  0  0  0
 17 18  1  0  0  0  0
 17 19  1  0  0  0  0
 19 20  1  0  0  0  0
 19 21  2  0  0  0  0
 21 22  1  0  0  0  0
 21 23  1  0  0  0  0
 23 24  1  0  0  0  0
 25 26  2  0  0  0  0
 25 27  1  0  0  0  0
 27 28  1  0  0  0  0
 27 29  1  0  0  0  0
 29 30  1  0  0  0  0
 29 31  1  0  0  0  0
 29 32  1  0  0  0  0
M  END
$$$$

  -OEChem-01062216093D

 32 32  0     1  0  0  0  0  0999 V2000
   -3.1611   -2.5432    0.8389 H   0  0  0  0  0  0  0  0  0  0  0  0
   -3.1375   -1.6376    0.2262 C   0  0  0  0  0  0  0  0  0  0  0  0
   -4.0008   -1.0176    0.4793 H   0  0  0  0  0  0  0  0  0  0  0  0
   -3.1984   -1.9238   -0.8267 H   0  0  0  0  0  0  0  0  0  0  0  0
   -1.8548   -0.8680    0.4785 C   0  0  0  0  0  0  0  0  0  0  0  0
   -1.0398   -1.2972    1.2815 O   0  0  0  0  0  0  0  0  0  0  0  0
   -1.6270    0.3134   -0.2012 N   0  0  0  0  0  0  0  0  0  0  0  0
   -2.3034    0.5599   -0.9177 H   0  0  0  0  0  0  0  0  0  0  0  0
   -0.3644    1.0753   -0.1647 C   0  0  1  0  0  0  0  0  0  0  0  0
   -0.4560    1.9048   -0.8728 H   0  0  0  0  0  0  0  0  0  0  0  0
   -0.1019    1.6968    1.2256 C   0  0  0  0  0  0  0  0  0  0  0  0
   -0.1085    0.9321    2.0072 H   0  0  0  0  0  0  0  0  0  0  0  0
    0.8912    2.1574    1.2368 H   0  0  0  0  0  0  0  0  0  0  0  0
   -1.1227    2.7662    1.5324 C   0  0  0  0  0  0  0  0  0  0  0  0
   -0.9802    4.0608    1.0107 C   0  0  0  0  0  0  0  0  0  0  0  0
   -0.1241    4.3070    0.3895 H   0  0  0  0  0  0  0  0  0  0  0  0
   -1.9367    5.0446    1.2845 C   0  0  0  0  0  0  0  0  0  0  0  0
   -1.8178    6.0445    0.8778 H   0  0  0  0  0  0  0  0  0  0  0  0
   -3.0446    4.7416    2.0821 C   0  0  0  0  0  0  0  0  0  0  0  0
   -3.7866    5.5059    2.2954 H   0  0  0  0  0  0  0  0  0  0  0  0
   -3.1946    3.4540    2.6060 C   0  0  0  0  0  0  0  0  0  0  0  0
   -4.0533    3.2166    3.2269 H   0  0  0  0  0  0  0  0  0  0  0  0
   -2.2374    2.4712    2.3314 C   0  0  0  0  0  0  0  0  0  0  0  0
   -2.3623    1.4718    2.7388 H   0  0  0  0  0  0  0  0  0  0  0  0
    0.8142    0.2229   -0.6909 C   0  0  0  0  0  0  0  0  0  0  0  0
    0.8041   -0.1336   -1.8632 O   0  0  0  0  0  0  0  0  0  0  0  0
    1.9153   -0.0723    0.0939 N   0  0  0  0  0  0  0  0  0  0  0  0
    1.7823    0.0367    1.0956 H   0  0  0  0  0  0  0  0  0  0  0  0
    2.9880   -0.9479   -0.3615 C   0  0  0  0  0  0  0  0  0  0  0  0
    3.4417   -0.5556   -1.2776 H   0  0  0  0  0  0  0  0  0  0  0  0
    3.7671   -1.0193    0.4033 H   0  0  0  0  0  0  0  0  0  0  0  0
    2.6024   -1.9531   -0.5614 H   0  0  0  0  0  0  0  0  0  0  0  0
  1  2  1  0  0  0  0
  2  3  1  0  0  0  0
  2  4  1  0  0  0  0
  2  5  1  0  0  0  0
  5  6  2  0  0  0  0
  5  7  1  0  0  0  0
  7  8  1  0  0  0  0
  7  9  1  0  0  0  0
  9 10  1  0  0  0  0
  9 11  1  0  0  0  0
  9 25  1  0  0  0  0
 11 12  1  0  0  0  0
 11 13  1  0  0  0  0
 11 14  1  0  0  0  0
 14 15  1  0  0  0  0
 14 23  2  0  0  0  0
 15 16  1  0  0  0  0
 15 17  2  0  0  0  0
 17 18  1  0  0  0  0
 17 19  1  0  0  0  0
 19 20  1  0  0  0  0
 19 21  2  0  0  0  0
 21 22  1  0  0  0  0
 21 23  1  0  0  0  0
 23 24  1  0  0  0  0
 25 26  2  0  0  0  0
 25 27  1  0  0  0  0
 27 28  1  0  0  0  0
 27 29  1  0  0  0  0
 29 30  1  0  0  0  0
 29 31  1  0  0  0  0
 29 32  1  0  0  0  0
M  END
$$$$

  -OEChem-01062216093D

 32 32  0     1  0  0  0  0  0999 V2000
   -3.1937   -2.5217    0.8645 H   0  0  0  0  0  0  0  0  0  0  0  0
   -3.1640   -1.6177    0.2497 C   0  0  0  0  0  0  0  0  0  0  0  0
   -4.0072   -0.9784    0.5219 H   0  0  0  0  0  0  0  0  0  0  0  0
   -3.2561   -1.9038   -0.8009 H   0  0  0  0  0  0  0  0  0  0  0  0
   -1.8596   -0.8759    0.4707 C   0  0  0  0  0  0  0  0  0  0  0  0
   -1.0348   -1.3200    1.2560 O   0  0  0  0  0  0  0  0  0  0  0  0
   -1.6230    0.3011   -0.2137 N   0  0  0  0  0  0  0  0  0  0  0  0
   -2.3194    0.5782   -0.8995 H   0  0  0  0  0  0  0  0  0  0  0  0
   -0.3607    1.0625   -0.1716 C   0  0  1  0  0  0  0  0  0  0  0  0
   -0.4490    1.8910   -0.8816 H   0  0  0  0  0  0  0  0  0  0  0  0
   -0.1017    1.6841    1.2186 C   0  0  0  0  0  0  0  0  0  0  0  0
   -0.1143    0.9199    2.0007 H   0  0  0  0  0  0  0  0  0  0  0  0
    0.8951    2.1370    1.2317 H   0  0  0  0  0  0  0  0  0  0  0  0
   -1.1206    2.7552    1.5247 C   0  0  0  0  0  0  0  0  0  0  0  0
   -0.9739    4.0497    1.0041 C   0  0  0  0  0  0  0  0  0  0  0  0
   -0.1166    4.2933    0.3835 H   0  0  0  0  0  0  0  0  0  0  0  0
   -1.9267    5.0368    1.2792 C   0  0  0  0  0  0  0  0  0  0  0  0
   -1.8041    6.0369    0.8738 H   0  0  0  0  0  0  0  0  0  0  0  0
   -3.0356    4.7365    2.0762 C   0  0  0  0  0  0  0  0  0  0  0  0
   -3.7750    5.5028    2.2902 H   0  0  0  0  0  0  0  0  0  0  0  0
   -3.1902    3.4487    2.5983 C   0  0  0  0  0  0  0  0  0  0  0  0
   -4.0499    3.2135    3.2187 H   0  0  0  0  0  0  0  0  0  0  0  0
   -2.2366    2.4629    2.3225 C   0  0  0  0  0  0  0  0  0  0  0  0
   -2.3643    1.4637    2.7290 H   0  0  0  0  0  0  0  0  0  0  0  0
    0.8254    0.2136   -0.6810 C   0  0  0  0  0  0  0  0  0  0  0  0
    0.9743    0.0708   -1.8884 O   0  0  0  0  0  0  0  0  0  0  0  0
    1.7571   -0.3235    0.1888 N   0  0  0  0  0  0  0  0  0  0  0  0
    1.4327   -0.4266    1.1484 H   0  0  0  0  0  0  0  0  0  0  0  0
    2.8242   -1.2066   -0.2643 C   0  0  0  0  0  0  0  0  0  0  0  0
    3.4504   -0.7022   -1.0077 H   0  0  0  0  0  0  0  0  0  0  0  0
    3.4585   -1.4951    0.5793 H   0  0  0  0  0  0  0  0  0  0  0  0
    2.4056   -2.1138   -0.7127 H   0  0  0  0  0  0  0  0  0  0  0  0
  1  2  1  0  0  0  0
  2  3  1  0  0  0  0
  2  4  1  0  0  0  0
  2  5  1  0  0  0  0
  5  6  2  0  0  0  0
  5  7  1  0  0  0  0
  7  8  1  0  0  0  0
  7  9  1  0  0  0  0
  9 10  1  0  0  0  0
  9 11  1  0  0  0  0
  9 25  1  0  0  0  0
 11 12  1  0  0  0  0
 11 13  1  0  0  0  0
 11 14  1  0  0  0  0
 14 15  1  0  0  0  0
 14 23  2  0  0  0  0
 15 16  1  0  0  0  0
 15 17  2  0  0  0  0
 17 18  1  0  0  0  0
 17 19  1  0  0  0  0
 19 20  1  0  0  0  0
 19 21  2  0  0  0  0
 21 22  1  0  0  0  0
 21 23  1  0  0  0  0
 23 24  1  0  0  0  0
 25 26  2  0  0  0  0
 25 27  1  0  0  0  0
 27 28  1  0  0  0  0
 27 29  1  0  0  0  0
 29 30  1  0  0  0  0
 29 31  1  0  0  0  0
 29 32  1  0  0  0  0
M  END
$$$$

  -OEChem-01062216093D

 32 32  0     1  0  0  0  0  0999 V2000
   -3.2844   -2.4652    0.9060 H   0  0  0  0  0  0  0  0  0  0  0  0
   -3.2313   -1.5696    0.2807 C   0  0  0  0  0  0  0  0  0  0  0  0
   -4.0369   -0.8902    0.5697 H   0  0  0  0  0  0  0  0  0  0  0  0
   -3.3661   -1.8611   -0.7638 H   0  0  0  0  0  0  0  0  0  0  0  0
   -1.8890   -0.8860    0.4579 C   0  0  0  0  0  0  0  0  0  0  0  0
   -1.0629   -1.3625    1.2229 O   0  0  0  0  0  0  0  0  0  0  0  0
   -1.6276    0.2840   -0.2297 N   0  0  0  0  0  0  0  0  0  0  0  0
   -2.3549    0.6185   -0.8556 H   0  0  0  0  0  0  0  0  0  0  0  0
   -0.3601    1.0386   -0.1875 C   0  0  1  0  0  0  0  0  0  0  0  0
   -0.4464    1.8693   -0.8954 H   0  0  0  0  0  0  0  0  0  0  0  0
   -0.1000    1.6519    1.2047 C   0  0  0  0  0  0  0  0  0  0  0  0
   -0.1177    0.8832    1.9826 H   0  0  0  0  0  0  0  0  0  0  0  0
    0.9001    2.0973    1.2211 H   0  0  0  0  0  0  0  0  0  0  0  0
   -1.1149    2.7258    1.5132 C   0  0  0  0  0  0  0  0  0  0  0  0
   -0.9609    4.0212    0.9975 C   0  0  0  0  0  0  0  0  0  0  0  0
   -0.1016    4.2627    0.3785 H   0  0  0  0  0  0  0  0  0  0  0  0
   -1.9097    5.0117    1.2738 C   0  0  0  0  0  0  0  0  0  0  0  0
   -1.7824    6.0127    0.8718 H   0  0  0  0  0  0  0  0  0  0  0  0
   -3.0212    4.7136    2.0681 C   0  0  0  0  0  0  0  0  0  0  0  0
   -3.7573    5.4825    2.2835 H   0  0  0  0  0  0  0  0  0  0  0  0
   -3.1823    3.4249    2.5865 C   0  0  0  0  0  0  0  0  0  0  0  0
   -4.0439    3.1920    3.2051 H   0  0  0  0  0  0  0  0  0  0  0  0
   -2.2325    2.4358    2.3095 C   0  0  0  0  0  0  0  0  0  0  0  0
   -2.3643    1.4363    2.7139 H   0  0  0  0  0  0  0  0  0  0  0  0
    0.8399    0.1995   -0.6790 C   0  0  0  0  0  0  0  0  0  0  0  0
    1.1779    0.2740   -1.8536 O   0  0  0  0  0  0  0  0  0  0  0  0
    1.5808   -0.5688    0.1995 N   0  0  0  0  0  0  0  0  0  0  0  0
    1.0782   -0.8307    1.0489 H   0  0  0  0  0  0  0  0  0  0  0  0
    2.6631   -1.4379   -0.2437 C   0  0  0  0  0  0  0  0  0  0  0  0
    3.4071   -0.8677   -0.8098 H   0  0  0  0  0  0  0  0  0  0  0  0
    3.1612   -1.8882    0.6200 H   0  0  0  0  0  0  0  0  0  0  0  0
    2.2741   -2.2393   -0.8801 H   0  0  0  0  0  0  0  0  0  0  0  0
  1  2  1  0  0  0  0
  2  3  1  0  0  0  0
  2  4  1  0  0  0  0
  2  5  1  0  0  0  0
  5  6  2  0  0  0  0
  5  7  1  0  0  0  0
  7  8  1  0  0  0  0
  7  9  1  0  0  0  0
  9 10  1  0  0  0  0
  9 11  1  0  0  0  0
  9 25  1  0  0  0  0
 11 12  1  0  0  0  0
 11 13  1  0  0  0  0
 11 14  1  0  0  0  0
 14 15  1  0  0  0  0
 14 23  2  0  0  0  0
 15 16  1  0  0  0  0
 15 17  2  0  0  0  0
 17 18  1  0  0  0  0
 17 19  1  0  0  0  0
 19 20  1  0  0  0  0
 19 21  2  0  0  0  0
 21 22  1  0  0  0  0
 21 23  1  0  0  0  0
 23 24  1  0  0  0  0
 25 26  2  0  0  0  0
 25 27  1  0  0  0  0
 27 28  1  0  0  0  0
 27 29  1  0  0  0  0
 29 30  1  0  0  0  0
 29 31  1  0  0  0  0
 29 32  1  0  0  0  0
M  END
$$$$

  -OEChem-01062216093D

 32 32  0     1  0  0  0  0  0999 V2000
   -3.3783   -2.4381    0.9084 H   0  0  0  0  0  0  0  0  0  0  0  0
   -3.2984   -1.5457    0.2811 C   0  0  0  0  0  0  0  0  0  0  0  0
   -4.0872   -0.8445    0.5642 H   0  0  0  0  0  0  0  0  0  0  0  0
   -3.4355   -1.8370   -0.7631 H   0  0  0  0  0  0  0  0  0  0  0  0
   -1.9397   -0.8964    0.4638 C   0  0  0  0  0  0  0  0  0  0  0  0
   -1.1349   -1.3915    1.2389 O   0  0  0  0  0  0  0  0  0  0  0  0
   -1.6463    0.2630   -0.2292 N   0  0  0  0  0  0  0  0  0  0  0  0
   -2.3777    0.6187   -0.8385 H   0  0  0  0  0  0  0  0  0  0  0  0
   -0.3721    1.0116   -0.1975 C   0  0  1  0  0  0  0  0  0  0  0  0
   -0.4616    1.8402   -0.9073 H   0  0  0  0  0  0  0  0  0  0  0  0
   -0.1043    1.6246    1.1920 C   0  0  0  0  0  0  0  0  0  0  0  0
   -0.1216    0.8545    1.9687 H   0  0  0  0  0  0  0  0  0  0  0  0
    0.8982    2.0653    1.2049 H   0  0  0  0  0  0  0  0  0  0  0  0
   -1.1125    2.7040    1.5041 C   0  0  0  0  0  0  0  0  0  0  0  0
   -0.9533    3.9980    0.9862 C   0  0  0  0  0  0  0  0  0  0  0  0
   -0.0962    4.2325    0.3613 H   0  0  0  0  0  0  0  0  0  0  0  0
   -1.8940    4.9950    1.2671 C   0  0  0  0  0  0  0  0  0  0  0  0
   -1.7629    5.9941    0.8617 H   0  0  0  0  0  0  0  0  0  0  0  0
   -3.0008    4.7056    2.0710 C   0  0  0  0  0  0  0  0  0  0  0  0
   -3.7297    5.4798    2.2915 H   0  0  0  0  0  0  0  0  0  0  0  0
   -3.1662    3.4191    2.5935 C   0  0  0  0  0  0  0  0  0  0  0  0
   -4.0231    3.1937    3.2215 H   0  0  0  0  0  0  0  0  0  0  0  0
   -2.2253    2.4230    2.3106 C   0  0  0  0  0  0  0  0  0  0  0  0
   -2.3590    1.4260    2.7208 H   0  0  0  0  0  0  0  0  0  0  0  0
    0.8448    0.1868   -0.6728 C   0  0  0  0  0  0  0  0  0  0  0  0
    1.3499    0.4411   -1.7586 O   0  0  0  0  0  0  0  0  0  0  0  0
    1.4076   -0.7898    0.1263 N   0  0  0  0  0  0  0  0  0  0  0  0
    0.8055   -1.1196    0.8850 H   0  0  0  0  0  0  0  0  0  0  0  0
    2.4901   -1.6557   -0.3214 C   0  0  0  0  0  0  0  0  0  0  0  0
    3.3411   -1.0597   -0.6676 H   0  0  0  0  0  0  0  0  0  0  0  0
    2.8289   -2.2906    0.5028 H   0  0  0  0  0  0  0  0  0  0  0  0
    2.1523   -2.2980   -1.1411 H   0  0  0  0  0  0  0  0  0  0  0  0
  1  2  1  0  0  0  0
  2  3  1  0  0  0  0
  2  4  1  0  0  0  0
  2  5  1  0  0  0  0
  5  6  2  0  0  0  0
  5  7  1  0  0  0  0
  7  8  1  0  0  0  0
  7  9  1  0  0  0  0
  9 10  1  0  0  0  0
  9 11  1  0  0  0  0
  9 25  1  0  0  0  0
 11 12  1  0  0  0  0
 11 13  1  0  0  0  0
 11 14  1  0  0  0  0
 14 15  1  0  0  0  0
 14 23  2  0  0  0  0
 15 16  1  0  0  0  0
 15 17  2  0  0  0  0
 17 18  1  0  0  0  0
 17 19  1  0  0  0  0
 19 20  1  0  0  0  0
 19 21  2  0  0  0  0
 21 22  1  0  0  0  0
 21 23  1  0  0  0  0
 23 24  1  0  0  0  0
 25 26  2  0  0  0  0
 25 27  1  0  0  0  0
 27 28  1  0  0  0  0
 27 29  1  0  0  0  0
 29 30  1  0  0  0  0
 29 31  1  0  0  0  0
 29 32  1  0  0  0  0
M  END
$$$$

  -OEChem-01062216093D

 32 32  0     1  0  0  0  0  0999 V2000
   -3.4762   -2.4084    0.9117 H   0  0  0  0  0  0  0  0  0  0  0  0
   -3.3719   -1.5191    0.2835 C   0  0  0  0  0  0  0  0  0  0  0  0
   -4.1472   -0.8001    0.5594 H   0  0  0  0  0  0  0  0  0  0  0  0
   -3.5084   -1.8096   -0.7611 H   0  0  0  0  0  0  0  0  0  0  0  0
   -2.0000   -0.9002    0.4742 C   0  0  0  0  0  0  0  0  0  0  0  0
   -1.2171   -1.4097    1.2610 O   0  0  0  0  0  0  0  0  0  0  0  0
   -1.6753    0.2455   -0.2277 N   0  0  0  0  0  0  0  0  0  0  0  0
   -2.4057    0.6140   -0.8304 H   0  0  0  0  0  0  0  0  0  0  0  0
   -0.3919    0.9834   -0.2125 C   0  0  1  0  0  0  0  0  0  0  0  0
   -0.4841    1.8095   -0.9254 H   0  0  0  0  0  0  0  0  0  0  0  0
   -0.1130    1.5949    1.1745 C   0  0  0  0  0  0  0  0  0  0  0  0
   -0.1284    0.8241    1.9507 H   0  0  0  0  0  0  0  0  0  0  0  0
    0.8921    2.0301    1.1807 H   0  0  0  0  0  0  0  0  0  0  0  0
   -1.1110    2.6820    1.4929 C   0  0  0  0  0  0  0  0  0  0  0  0
   -0.9450    3.9747    0.9746 C   0  0  0  0  0  0  0  0  0  0  0  0
   -0.0910    4.2018    0.3429 H   0  0  0  0  0  0  0  0  0  0  0  0
   -1.8737    4.9800    1.2653 C   0  0  0  0  0  0  0  0  0  0  0  0
   -1.7361    5.9787    0.8612 H   0  0  0  0  0  0  0  0  0  0  0  0
   -2.9764    4.7001    2.0783 C   0  0  0  0  0  0  0  0  0  0  0  0
   -3.6951    5.4815    2.3075 H   0  0  0  0  0  0  0  0  0  0  0  0
   -3.1497    3.4142    2.5992 C   0  0  0  0  0  0  0  0  0  0  0  0
   -4.0039    3.1956    3.2331 H   0  0  0  0  0  0  0  0  0  0  0  0
   -2.2201    2.4100    2.3076 C   0  0  0  0  0  0  0  0  0  0  0  0
   -2.3590    1.4139    2.7181 H   0  0  0  0  0  0  0  0  0  0  0  0
    0.8377    0.1681   -0.6757 C   0  0  0  0  0  0  0  0  0  0  0  0
    1.4885    0.5704   -1.6313 O   0  0  0  0  0  0  0  0  0  0  0  0
    1.2379   -0.9842   -0.0283 N   0  0  0  0  0  0  0  0  0  0  0  0
    0.5920   -1.3458    0.6783 H   0  0  0  0  0  0  0  0  0  0  0  0
    2.3304   -1.8321   -0.4846 C   0  0  0  0  0  0  0  0  0  0  0  0
    3.2515   -1.2493   -0.5892 H   0  0  0  0  0  0  0  0  0  0  0  0
    2.5112   -2.6333    0.2385 H   0  0  0  0  0  0  0  0  0  0  0  0
    2.0863   -2.2834   -1.4518 H   0  0  0  0  0  0  0  0  0  0  0  0
  1  2  1  0  0  0  0
  2  3  1  0  0  0  0
  2  4  1  0  0  0  0
  2  5  1  0  0  0  0
  5  6  2  0  0  0  0
  5  7  1  0  0  0  0
  7  8  1  0  0  0  0
  7  9  1  0  0  0  0
  9 10  1  0  0  0  0
  9 11  1  0  0  0  0
  9 25  1  0  0  0  0
 11 12  1  0  0  0  0
 11 13  1  0  0  0  0
 11 14  1  0  0  0  0
 14 15  1  0  0  0  0
 14 23  2  0  0  0  0
 15 16  1  0  0  0  0
 15 17  2  0  0  0  0
 17 18  1  0  0  0  0
 17 19  1  0  0  0  0
 19 20  1  0  0  0  0
 19 21  2  0  0  0  0
 21 22  1  0  0  0  0
 21 23  1  0  0  0  0
 23 24  1  0  0  0  0
 25 26  2  0  0  0  0
 25 27  1  0  0  0  0
 27 28  1  0  0  0  0
 27 29  1  0  0  0  0
 29 30  1  0  0  0  0
 29 31  1  0  0  0  0
 29 32  1  0  0  0  0
M  END
$$$$

  -OEChem-01062216093D

 32 32  0     1  0  0  0  0  0999 V2000
   -3.5961   -2.3397    0.9717 H   0  0  0  0  0  0  0  0  0  0  0  0
   -3.4754   -1.4598    0.3335 C   0  0  0  0  0  0  0  0  0  0  0  0
   -4.2034   -0.7032    0.6364 H   0  0  0  0  0  0  0  0  0  0  0  0
   -3.6686   -1.7479   -0.7027 H   0  0  0  0  0  0  0  0  0  0  0  0
   -2.0692   -0.9064    0.4636 C   0  0  0  0  0  0  0  0  0  0  0  0
   -1.2769   -1.4562    1.2122 O   0  0  0  0  0  0  0  0  0  0  0  0
   -1.7278    0.2304   -0.2447 N   0  0  0  0  0  0  0  0  0  0  0  0
   -2.4762    0.6412   -0.7959 H   0  0  0  0  0  0  0  0  0  0  0  0
   -0.4312    0.9476   -0.2566 C   0  0  1  0  0  0  0  0  0  0  0  0
   -0.5273    1.7766   -0.9651 H   0  0  0  0  0  0  0  0  0  0  0  0
   -0.1248    1.5462    1.1299 C   0  0  0  0  0  0  0  0  0  0  0  0
   -0.1417    0.7689    1.8998 H   0  0  0  0  0  0  0  0  0  0  0  0
    0.8865    1.9673    1.1274 H   0  0  0  0  0  0  0  0  0  0  0  0
   -1.1039    2.6445    1.4675 C   0  0  0  0  0  0  0  0  0  0  0  0
   -0.9288    3.9382    0.9550 C   0  0  0  0  0  0  0  0  0  0  0  0
   -0.0791    4.1597    0.3156 H   0  0  0  0  0  0  0  0  0  0  0  0
   -1.8437    4.9515    1.2615 C   0  0  0  0  0  0  0  0  0  0  0  0
   -1.6999    5.9509    0.8618 H   0  0  0  0  0  0  0  0  0  0  0  0
   -2.9409    4.6789    2.0846 C   0  0  0  0  0  0  0  0  0  0  0  0
   -3.6494    5.4664    2.3252 H   0  0  0  0  0  0  0  0  0  0  0  0
   -3.1214    3.3923    2.6016 C   0  0  0  0  0  0  0  0  0  0  0  0
   -3.9702    3.1791    3.2444 H   0  0  0  0  0  0  0  0  0  0  0  0
   -2.2057    2.3803    2.2943 C   0  0  0  0  0  0  0  0  0  0  0  0
   -2.3500    1.3838    2.7016 H   0  0  0  0  0  0  0  0  0  0  0  0
    0.7970    0.1367   -0.7348 C   0  0  0  0  0  0  0  0  0  0  0  0
    1.5897    0.6708   -1.4998 O   0  0  0  0  0  0  0  0  0  0  0  0
    1.0502   -1.1526   -0.3107 N   0  0  0  0  0  0  0  0  0  0  0  0
    0.3943   -1.5437    0.3702 H   0  0  0  0  0  0  0  0  0  0  0  0
    2.2303   -1.9198   -0.6842 C   0  0  0  0  0  0  0  0  0  0  0  0
    3.1407   -1.4030   -0.3631 H   0  0  0  0  0  0  0  0  0  0  0  0
    2.2044   -2.9045   -0.2079 H   0  0  0  0  0  0  0  0  0  0  0  0
    2.2677   -2.0611   -1.7692 H   0  0  0  0  0  0  0  0  0  0  0  0
  1  2  1  0  0  0  0
  2  3  1  0  0  0  0
  2  4  1  0  0  0  0
  2  5  1  0  0  0  0
  5  6  2  0  0  0  0
  5  7  1  0  0  0  0
  7  8  1  0  0  0  0
  7  9  1  0  0  0  0
  9 10  1  0  0  0  0
  9 11  1  0  0  0  0
  9 25  1  0  0  0  0
 11 12  1  0  0  0  0
 11 13  1  0  0  0  0
 11 14  1  0  0  0  0
 14 15  1  0  0  0  0
 14 23  2  0  0  0  0
 15 16  1  0  0  0  0
 15 17  2  0  0  0  0
 17 18  1  0  0  0  0
 17 19  1  0  0  0  0
 19 20  1  0  0  0  0
 19 21  2  0  0  0  0
 21 22  1  0  0  0  0
 21 23  1  0  0  0  0
 23 24  1  0  0  0  0
 25 26  2  0  0  0  0
 25 27  1  0  0  0  0
 27 28  1  0  0  0  0
 27 29  1  0  0  0  0
 29 30  1  0  0  0  0
 29 31  1  0  0  0  0
 29 32  1  0  0  0  0
M  END
$$$$

  -OEChem-01062216093D

 32 32  0     1  0  0  0  0  0999 V2000
   -3.6384   -2.3000    1.0195 H   0  0  0  0  0  0  0  0  0  0  0  0
   -3.5214   -1.4226    0.3772 C   0  0  0  0  0  0  0  0  0  0  0  0
   -4.2111   -0.6453    0.7155 H   0  0  0  0  0  0  0  0  0  0  0  0
   -3.7728   -1.7020   -0.6489 H   0  0  0  0  0  0  0  0  0  0  0  0
   -2.0939   -0.9130    0.4414 C   0  0  0  0  0  0  0  0  0  0  0  0
   -1.2776   -1.5056    1.1285 O   0  0  0  0  0  0  0  0  0  0  0  0
   -1.7523    0.2245   -0.2655 N   0  0  0  0  0  0  0  0  0  0  0  0
   -2.5192    0.6784   -0.7540 H   0  0  0  0  0  0  0  0  0  0  0  0
   -0.4499    0.9326   -0.2862 C   0  0  1  0  0  0  0  0  0  0  0  0
   -0.5475    1.7658   -0.9897 H   0  0  0  0  0  0  0  0  0  0  0  0
   -0.1371    1.5205    1.1040 C   0  0  0  0  0  0  0  0  0  0  0  0
   -0.1566    0.7366    1.8672 H   0  0  0  0  0  0  0  0  0  0  0  0
    0.8763    1.9367    1.1037 H   0  0  0  0  0  0  0  0  0  0  0  0
   -1.1088    2.6224    1.4523 C   0  0  0  0  0  0  0  0  0  0  0  0
   -0.9246    3.9177    0.9469 C   0  0  0  0  0  0  0  0  0  0  0  0
   -0.0752    4.1345    0.3051 H   0  0  0  0  0  0  0  0  0  0  0  0
   -1.8291    4.9374    1.2624 C   0  0  0  0  0  0  0  0  0  0  0  0
   -1.6780    5.9375    0.8669 H   0  0  0  0  0  0  0  0  0  0  0  0
   -2.9244    4.6701    2.0895 C   0  0  0  0  0  0  0  0  0  0  0  0
   -3.6246    5.4626    2.3371 H   0  0  0  0  0  0  0  0  0  0  0  0
   -3.1135    3.3825    2.6010 C   0  0  0  0  0  0  0  0  0  0  0  0
   -3.9604    3.1748    3.2482 H   0  0  0  0  0  0  0  0  0  0  0  0
   -2.2085    2.3639    2.2840 C   0  0  0  0  0  0  0  0  0  0  0  0
   -2.3585    1.3674    2.6890 H   0  0  0  0  0  0  0  0  0  0  0  0
    0.7809    0.1308   -0.7764 C   0  0  0  0  0  0  0  0  0  0  0  0
    1.6842    0.7383   -1.3371 O   0  0  0  0  0  0  0  0  0  0  0  0
    0.9002   -1.2359   -0.6176 N   0  0  0  0  0  0  0  0  0  0  0  0
    0.2177   -1.6675    0.0094 H   0  0  0  0  0  0  0  0  0  0  0  0
    2.1029   -1.9827   -0.9604 C   0  0  0  0  0  0  0  0  0  0  0  0
    2.9550   -1.6269   -0.3720 H   0  0  0  0  0  0  0  0  0  0  0  0
    1.9566   -3.0469   -0.7524 H   0  0  0  0  0  0  0  0  0  0  0  0
    2.3355   -1.8686   -2.0243 H   0  0  0  0  0  0  0  0  0  0  0  0
  1  2  1  0  0  0  0
  2  3  1  0  0  0  0
  2  4  1  0  0  0  0
  2  5  1  0  0  0  0
  5  6  2  0  0  0  0
  5  7  1  0  0  0  0
  7  8  1  0  0  0  0
  7  9  1  0  0  0  0
  9 10  1  0  0  0  0
  9 11  1  0  0  0  0
  9 25  1  0  0  0  0
 11 12  1  0  0  0  0
 11 13  1  0  0  0  0
 11 14  1  0  0  0  0
 14 15  1  0  0  0  0
 14 23  2  0  0  0  0
 15 16  1  0  0  0  0
 15 17  2  0  0  0  0
 17 18  1  0  0  0  0
 17 19  1  0  0  0  0
 19 20  1  0  0  0  0
 19 21  2  0  0  0  0
 21 22  1  0  0  0  0
 21 23  1  0  0  0  0
 23 24  1  0  0  0  0
 25 26  2  0  0  0  0
 25 27  1  0  0  0  0
 27 28  1  0  0  0  0
 27 29  1  0  0  0  0
 29 30  1  0  0  0  0
 29 31  1  0  0  0  0
 29 32  1  0  0  0  0
M  END
$$$$

  -OEChem-01062216093D

 32 32  0     1  0  0  0  0  0999 V2000
   -3.6321   -2.2588    1.0679 H   0  0  0  0  0  0  0  0  0  0  0  0
   -3.5233   -1.3813    0.4243 C   0  0  0  0  0  0  0  0  0  0  0  0
   -4.1731   -0.5873    0.8006 H   0  0  0  0  0  0  0  0  0  0  0  0
   -3.8340   -1.6478   -0.5890 H   0  0  0  0  0  0  0  0  0  0  0  0
   -2.0811   -0.9115    0.4171 C   0  0  0  0  0  0  0  0  0  0  0  0
   -1.2380   -1.5486    1.0267 O   0  0  0  0  0  0  0  0  0  0  0  0
   -1.7473    0.2293   -0.2871 N   0  0  0  0  0  0  0  0  0  0  0  0
   -2.5302    0.7222   -0.7079 H   0  0  0  0  0  0  0  0  0  0  0  0
   -0.4439    0.9357   -0.3031 C   0  0  1  0  0  0  0  0  0  0  0  0
   -0.5367    1.7719   -1.0033 H   0  0  0  0  0  0  0  0  0  0  0  0
   -0.1411    1.5134    1.0947 C   0  0  0  0  0  0  0  0  0  0  0  0
   -0.1677    0.7218    1.8500 H   0  0  0  0  0  0  0  0  0  0  0  0
    0.8721    1.9298    1.1089 H   0  0  0  0  0  0  0  0  0  0  0  0
   -1.1158    2.6122    1.4448 C   0  0  0  0  0  0  0  0  0  0  0  0
   -0.9281    3.9112    0.9504 C   0  0  0  0  0  0  0  0  0  0  0  0
   -0.0732    4.1327    0.3174 H   0  0  0  0  0  0  0  0  0  0  0  0
   -1.8359    4.9279    1.2660 C   0  0  0  0  0  0  0  0  0  0  0  0
   -1.6835    5.9306    0.8775 H   0  0  0  0  0  0  0  0  0  0  0  0
   -2.9362    4.6541    2.0844 C   0  0  0  0  0  0  0  0  0  0  0  0
   -3.6382    5.4446    2.3331 H   0  0  0  0  0  0  0  0  0  0  0  0
   -3.1266    3.3638    2.5883 C   0  0  0  0  0  0  0  0  0  0  0  0
   -3.9762    3.1518    3.2306 H   0  0  0  0  0  0  0  0  0  0  0  0
   -2.2189    2.3480    2.2701 C   0  0  0  0  0  0  0  0  0  0  0  0
   -2.3690    1.3496    2.6701 H   0  0  0  0  0  0  0  0  0  0  0  0
    0.7876    0.1358   -0.7960 C   0  0  0  0  0  0  0  0  0  0  0  0
    1.7789    0.7582   -1.1570 O   0  0  0  0  0  0  0  0  0  0  0  0
    0.7864   -1.2402   -0.9209 N   0  0  0  0  0  0  0  0  0  0  0  0
    0.0600   -1.7152   -0.3820 H   0  0  0  0  0  0  0  0  0  0  0  0
    1.9718   -2.0012   -1.2929 C   0  0  0  0  0  0  0  0  0  0  0  0
    2.7707   -1.8476   -0.5600 H   0  0  0  0  0  0  0  0  0  0  0  0
    1.7366   -3.0690   -1.3330 H   0  0  0  0  0  0  0  0  0  0  0  0
    2.3328   -1.6911   -2.2789 H   0  0  0  0  0  0  0  0  0  0  0  0
  1  2  1  0  0  0  0
  2  3  1  0  0  0  0
  2  4  1  0  0  0  0
  2  5  1  0  0  0  0
  5  6  2  0  0  0  0
  5  7  1  0  0  0  0
  7  8  1  0  0  0  0
  7  9  1  0  0  0  0
  9 10  1  0  0  0  0
  9 11  1  0  0  0  0
  9 25  1  0  0  0  0
 11 12  1  0  0  0  0
 11 13  1  0  0  0  0
 11 14  1  0  0  0  0
 14 15  1  0  0  0  0
 14 23  2  0  0  0  0
 15 16  1  0  0  0  0
 15 17  2  0  0  0  0
 17 18  1  0  0  0  0
 17 19  1  0  0  0  0
 19 20  1  0  0  0  0
 19 21  2  0  0  0  0
 21 22  1  0  0  0  0
 21 23  1  0  0  0  0
 23 24  1  0  0  0  0
 25 26  2  0  0  0  0
 25 27  1  0  0  0  0
 27 28  1  0  0  0  0
 27 29  1  0  0  0  0
 29 30  1  0  0  0  0
 29 31  1  0  0  0  0
 29 32  1  0  0  0  0
M  END
$$$$

  -OEChem-01062216093D

 32 32  0     1  0  0  0  0  0999 V2000
   -3.5820   -2.2252    1.1200 H   0  0  0  0  0  0  0  0  0  0  0  0
   -3.4940   -1.3441    0.4781 C   0  0  0  0  0  0  0  0  0  0  0  0
   -4.1025   -0.5407    0.9006 H   0  0  0  0  0  0  0  0  0  0  0  0
   -3.8715   -1.5938   -0.5163 H   0  0  0  0  0  0  0  0  0  0  0  0
   -2.0446   -0.9057    0.3874 C   0  0  0  0  0  0  0  0  0  0  0  0
   -1.1751   -1.5856    0.9054 O   0  0  0  0  0  0  0  0  0  0  0  0
   -1.7253    0.2421   -0.3113 N   0  0  0  0  0  0  0  0  0  0  0  0
   -2.5218    0.7733   -0.6527 H   0  0  0  0  0  0  0  0  0  0  0  0
   -0.4222    0.9490   -0.3141 C   0  0  1  0  0  0  0  0  0  0  0  0
   -0.5063    1.7903   -1.0089 H   0  0  0  0  0  0  0  0  0  0  0  0
   -0.1392    1.5132    1.0954 C   0  0  0  0  0  0  0  0  0  0  0  0
   -0.1735    0.7130    1.8415 H   0  0  0  0  0  0  0  0  0  0  0  0
    0.8715    1.9339    1.1303 H   0  0  0  0  0  0  0  0  0  0  0  0
   -1.1227    2.6060    1.4423 C   0  0  0  0  0  0  0  0  0  0  0  0
   -0.9326    3.9105    0.9634 C   0  0  0  0  0  0  0  0  0  0  0  0
   -0.0684    4.1415    0.3467 H   0  0  0  0  0  0  0  0  0  0  0  0
   -1.8499    4.9204    1.2734 C   0  0  0  0  0  0  0  0  0  0  0  0
   -1.6954    5.9273    0.8967 H   0  0  0  0  0  0  0  0  0  0  0  0
   -2.9620    4.6347    2.0714 C   0  0  0  0  0  0  0  0  0  0  0  0
   -3.6719    5.4196    2.3149 H   0  0  0  0  0  0  0  0  0  0  0  0
   -3.1540    3.3397    2.5622 C   0  0  0  0  0  0  0  0  0  0  0  0
   -4.0121    3.1188    3.1903 H   0  0  0  0  0  0  0  0  0  0  0  0
   -2.2368    2.3305    2.2495 C   0  0  0  0  0  0  0  0  0  0  0  0
   -2.3878    1.3287    2.6408 H   0  0  0  0  0  0  0  0  0  0  0  0
    0.8060    0.1435   -0.8093 C   0  0  0  0  0  0  0  0  0  0  0  0
    1.8707    0.7292   -0.9662 O   0  0  0  0  0  0  0  0  0  0  0  0
    0.7034   -1.1701   -1.2272 N   0  0  0  0  0  0  0  0  0  0  0  0
   -0.0843   -1.6722   -0.8175 H   0  0  0  0  0  0  0  0  0  0  0  0
    1.8615   -1.9521   -1.6416 C   0  0  0  0  0  0  0  0  0  0  0  0
    2.5808   -2.0354   -0.8203 H   0  0  0  0  0  0  0  0  0  0  0  0
    1.5506   -2.9592   -1.9353 H   0  0  0  0  0  0  0  0  0  0  0  0
    2.3565   -1.4820   -2.4979 H   0  0  0  0  0  0  0  0  0  0  0  0
  1  2  1  0  0  0  0
  2  3  1  0  0  0  0
  2  4  1  0  0  0  0
  2  5  1  0  0  0  0
  5  6  2  0  0  0  0
  5  7  1  0  0  0  0
  7  8  1  0  0  0  0
  7  9  1  0  0  0  0
  9 10  1  0  0  0  0
  9 11  1  0  0  0  0
  9 25  1  0  0  0  0
 11 12  1  0  0  0  0
 11 13  1  0  0  0  0
 11 14  1  0  0  0  0
 14 15  1  0  0  0  0
 14 23  2  0  0  0  0
 15 16  1  0  0  0  0
 15 17  2  0  0  0  0
 17 18  1  0  0  0  0
 17 19  1  0  0  0  0
 19 20  1  0  0  0  0
 19 21  2  0  0  0  0
 21 22  1  0  0  0  0
 21 23  1  0  0  0  0
 23 24  1  0  0  0  0
 25 26  2  0  0  0  0
 25 27  1  0  0  0  0
 27 28  1  0  0  0  0
 27 29  1  0  0  0  0
 29 30  1  0  0  0  0
 29 31  1  0  0  0  0
 29 32  1  0  0  0  0
M  END
$$$$

  -OEChem-01062216093D

 32 32  0     1  0  0  0  0  0999 V2000
   -3.4996   -2.2307    1.1382 H   0  0  0  0  0  0  0  0  0  0  0  0
   -3.4348   -1.3434    0.5019 C   0  0  0  0  0  0  0  0  0  0  0  0
   -4.0310   -0.5452    0.9511 H   0  0  0  0  0  0  0  0  0  0  0  0
   -3.8436   -1.5848   -0.4823 H   0  0  0  0  0  0  0  0  0  0  0  0
   -1.9899   -0.9008    0.3694 C   0  0  0  0  0  0  0  0  0  0  0  0
   -1.1016   -1.5873    0.8429 O   0  0  0  0  0  0  0  0  0  0  0  0
   -1.6936    0.2567   -0.3236 N   0  0  0  0  0  0  0  0  0  0  0  0
   -2.5008    0.8037   -0.6116 H   0  0  0  0  0  0  0  0  0  0  0  0
   -0.3945    0.9700   -0.3128 C   0  0  1  0  0  0  0  0  0  0  0  0
   -0.4724    1.8143   -1.0040 H   0  0  0  0  0  0  0  0  0  0  0  0
   -0.1295    1.5275    1.1038 C   0  0  0  0  0  0  0  0  0  0  0  0
   -0.1652    0.7224    1.8446 H   0  0  0  0  0  0  0  0  0  0  0  0
    0.8767    1.9567    1.1544 H   0  0  0  0  0  0  0  0  0  0  0  0
   -1.1238    2.6120    1.4456 C   0  0  0  0  0  0  0  0  0  0  0  0
   -0.9377    3.9206    0.9766 C   0  0  0  0  0  0  0  0  0  0  0  0
   -0.0672    4.1621    0.3731 H   0  0  0  0  0  0  0  0  0  0  0  0
   -1.8658    4.9221    1.2823 C   0  0  0  0  0  0  0  0  0  0  0  0
   -1.7128    5.9331    0.9161 H   0  0  0  0  0  0  0  0  0  0  0  0
   -2.9868    4.6227    2.0628 C   0  0  0  0  0  0  0  0  0  0  0  0
   -3.7055    5.4011    2.3025 H   0  0  0  0  0  0  0  0  0  0  0  0
   -3.1765    3.3226    2.5409 C   0  0  0  0  0  0  0  0  0  0  0  0
   -4.0419    3.0913    3.1550 H   0  0  0  0  0  0  0  0  0  0  0  0
   -2.2472    2.3227    2.2348 C   0  0  0  0  0  0  0  0  0  0  0  0
   -2.3966    1.3174    2.6174 H   0  0  0  0  0  0  0  0  0  0  0  0
    0.8237    0.1533   -0.8153 C   0  0  0  0  0  0  0  0  0  0  0  0
    1.9467    0.6395   -0.7532 O   0  0  0  0  0  0  0  0  0  0  0  0
    0.6505   -1.0255   -1.5172 N   0  0  0  0  0  0  0  0  0  0  0  0
   -0.2292   -1.4978   -1.3250 H   0  0  0  0  0  0  0  0  0  0  0  0
    1.7723   -1.8391   -1.9687 C   0  0  0  0  0  0  0  0  0  0  0  0
    2.3717   -2.1713   -1.1146 H   0  0  0  0  0  0  0  0  0  0  0  0
    1.4067   -2.7218   -2.5019 H   0  0  0  0  0  0  0  0  0  0  0  0
    2.4126   -1.2675   -2.6487 H   0  0  0  0  0  0  0  0  0  0  0  0
  1  2  1  0  0  0  0
  2  3  1  0  0  0  0
  2  4  1  0  0  0  0
  2  5  1  0  0  0  0
  5  6  2  0  0  0  0
  5  7  1  0  0  0  0
  7  8  1  0  0  0  0
  7  9  1  0  0  0  0
  9 10  1  0  0  0  0
  9 11  1  0  0  0  0
  9 25  1  0  0  0  0
 11 12  1  0  0  0  0
 11 13  1  0  0  0  0
 11 14  1  0  0  0  0
 14 15  1  0  0  0  0
 14 23  2  0  0  0  0
 15 16  1  0  0  0  0
 15 17  2  0  0  0  0
 17 18  1  0  0  0  0
 17 19  1  0  0  0  0
 19 20  1  0  0  0  0
 19 21  2  0  0  0  0
 21 22  1  0  0  0  0
 21 23  1  0  0  0  0
 23 24  1  0  0  0  0
 25 26  2  0  0  0  0
 25 27  1  0  0  0  0
 27 28  1  0  0  0  0
 27 29  1  0  0  0  0
 29 30  1  0  0  0  0
 29 31  1  0  0  0  0
 29 32  1  0  0  0  0
M  END
$$$$

  -OEChem-01062216093D

 32 32  0     1  0  0  0  0  0999 V2000
   -3.4272   -2.2603    1.1207 H   0  0  0  0  0  0  0  0  0  0  0  0
   -3.3755   -1.3679    0.4903 C   0  0  0  0  0  0  0  0  0  0  0  0
   -3.9843   -0.5823    0.9448 H   0  0  0  0  0  0  0  0  0  0  0  0
   -3.7804   -1.6093   -0.4955 H   0  0  0  0  0  0  0  0  0  0  0  0
   -1.9373   -0.9023    0.3612 C   0  0  0  0  0  0  0  0  0  0  0  0
   -1.0414   -1.5715    0.8440 O   0  0  0  0  0  0  0  0  0  0  0  0
   -1.6602    0.2647   -0.3252 N   0  0  0  0  0  0  0  0  0  0  0  0
   -2.4751    0.8109   -0.5919 H   0  0  0  0  0  0  0  0  0  0  0  0
   -0.3680    0.9884   -0.3007 C   0  0  1  0  0  0  0  0  0  0  0  0
   -0.4424    1.8339   -0.9906 H   0  0  0  0  0  0  0  0  0  0  0  0
   -0.1160    1.5476    1.1185 C   0  0  0  0  0  0  0  0  0  0  0  0
   -0.1488    0.7420    1.8588 H   0  0  0  0  0  0  0  0  0  0  0  0
    0.8852    1.9870    1.1762 H   0  0  0  0  0  0  0  0  0  0  0  0
   -1.1222    2.6239    1.4518 C   0  0  0  0  0  0  0  0  0  0  0  0
   -0.9446    3.9340    0.9835 C   0  0  0  0  0  0  0  0  0  0  0  0
   -0.0726    4.1832    0.3855 H   0  0  0  0  0  0  0  0  0  0  0  0
   -1.8835    4.9273    1.2820 C   0  0  0  0  0  0  0  0  0  0  0  0
   -1.7380    5.9392    0.9152 H   0  0  0  0  0  0  0  0  0  0  0  0
   -3.0060    4.6186    2.0565 C   0  0  0  0  0  0  0  0  0  0  0  0
   -3.7327    5.3908    2.2919 H   0  0  0  0  0  0  0  0  0  0  0  0
   -3.1868    3.3173    2.5352 C   0  0  0  0  0  0  0  0  0  0  0  0
   -4.0532    3.0790    3.1453 H   0  0  0  0  0  0  0  0  0  0  0  0
   -2.2470    2.3255    2.2353 C   0  0  0  0  0  0  0  0  0  0  0  0
   -2.3886    1.3194    2.6187 H   0  0  0  0  0  0  0  0  0  0  0  0
    0.8391    0.1595   -0.8100 C   0  0  0  0  0  0  0  0  0  0  0  0
    1.9862    0.4851   -0.5282 O   0  0  0  0  0  0  0  0  0  0  0  0
    0.6480   -0.8223   -1.7654 N   0  0  0  0  0  0  0  0  0  0  0  0
   -0.3022   -1.1715   -1.8399 H   0  0  0  0  0  0  0  0  0  0  0  0
    1.7327   -1.6651   -2.2530 C   0  0  0  0  0  0  0  0  0  0  0  0
    2.1713   -2.2374   -1.4288 H   0  0  0  0  0  0  0  0  0  0  0  0
    1.3576   -2.3671   -3.0036 H   0  0  0  0  0  0  0  0  0  0  0  0
    2.5160   -1.0546   -2.7145 H   0  0  0  0  0  0  0  0  0  0  0  0
  1  2  1  0  0  0  0
  2  3  1  0  0  0  0
  2  4  1  0  0  0  0
  2  5  1  0  0  0  0
  5  6  2  0  0  0  0
  5  7  1  0  0  0  0
  7  8  1  0  0  0  0
  7  9  1  0  0  0  0
  9 10  1  0  0  0  0
  9 11  1  0  0  0  0
  9 25  1  0  0  0  0
 11 12  1  0  0  0  0
 11 13  1  0  0  0  0
 11 14  1  0  0  0  0
 14 15  1  0  0  0  0
 14 23  2  0  0  0  0
 15 16  1  0  0  0  0
 15 17  2  0  0  0  0
 17 18  1  0  0  0  0
 17 19  1  0  0  0  0
 19 20  1  0  0  0  0
 19 21  2  0  0  0  0
 21 22  1  0  0  0  0
 21 23  1  0  0  0  0
 23 24  1  0  0  0  0
 25 26  2  0  0  0  0
 25 27  1  0  0  0  0
 27 28  1  0  0  0  0
 27 29  1  0  0  0  0
 29 30  1  0  0  0  0
 29 31  1  0  0  0  0
 29 32  1  0  0  0  0
M  END
$$$$

  -OEChem-01062216093D

 32 32  0     1  0  0  0  0  0999 V2000
   -3.3923   -2.2765    1.1082 H   0  0  0  0  0  0  0  0  0  0  0  0
   -3.3425   -1.3786    0.4855 C   0  0  0  0  0  0  0  0  0  0  0  0
   -3.9526   -0.5980    0.9466 H   0  0  0  0  0  0  0  0  0  0  0  0
   -3.7463   -1.6123   -0.5024 H   0  0  0  0  0  0  0  0  0  0  0  0
   -1.9055   -0.9082    0.3605 C   0  0  0  0  0  0  0  0  0  0  0  0
   -1.0103   -1.5701    0.8542 O   0  0  0  0  0  0  0  0  0  0  0  0
   -1.6348    0.2635   -0.3211 N   0  0  0  0  0  0  0  0  0  0  0  0
   -2.4533    0.8083   -0.5785 H   0  0  0  0  0  0  0  0  0  0  0  0
   -0.3472    0.9924   -0.2844 C   0  0  1  0  0  0  0  0  0  0  0  0
   -0.4166    1.8385   -0.9743 H   0  0  0  0  0  0  0  0  0  0  0  0
   -0.1062    1.5552    1.1350 C   0  0  0  0  0  0  0  0  0  0  0  0
   -0.1402    0.7512    1.8772 H   0  0  0  0  0  0  0  0  0  0  0  0
    0.8930    1.9993    1.1960 H   0  0  0  0  0  0  0  0  0  0  0  0
   -1.1192    2.6282    1.4580 C   0  0  0  0  0  0  0  0  0  0  0  0
   -0.9441    3.9381    0.9875 C   0  0  0  0  0  0  0  0  0  0  0  0
   -0.0676    4.1907    0.3976 H   0  0  0  0  0  0  0  0  0  0  0  0
   -1.8916    4.9267    1.2742 C   0  0  0  0  0  0  0  0  0  0  0  0
   -1.7483    5.9386    0.9064 H   0  0  0  0  0  0  0  0  0  0  0  0
   -3.0196    4.6139    2.0392 C   0  0  0  0  0  0  0  0  0  0  0  0
   -3.7528    5.3825    2.2658 H   0  0  0  0  0  0  0  0  0  0  0  0
   -3.1973    3.3131    2.5202 C   0  0  0  0  0  0  0  0  0  0  0  0
   -4.0677    3.0714    3.1231 H   0  0  0  0  0  0  0  0  0  0  0  0
   -2.2495    2.3256    2.2318 C   0  0  0  0  0  0  0  0  0  0  0  0
   -2.3889    1.3195    2.6167 H   0  0  0  0  0  0  0  0  0  0  0  0
    0.8517    0.1521   -0.7928 C   0  0  0  0  0  0  0  0  0  0  0  0
    1.9754    0.2894   -0.3240 O   0  0  0  0  0  0  0  0  0  0  0  0
    0.7071   -0.5904   -1.9512 N   0  0  0  0  0  0  0  0  0  0  0  0
   -0.2479   -0.7802   -2.2377 H   0  0  0  0  0  0  0  0  0  0  0  0
    1.7749   -1.4203   -2.4950 C   0  0  0  0  0  0  0  0  0  0  0  0
    2.0598   -2.1957   -1.7761 H   0  0  0  0  0  0  0  0  0  0  0  0
    1.4436   -1.9057   -3.4178 H   0  0  0  0  0  0  0  0  0  0  0  0
    2.6554   -0.8109   -2.7242 H   0  0  0  0  0  0  0  0  0  0  0  0
  1  2  1  0  0  0  0
  2  3  1  0  0  0  0
  2  4  1  0  0  0  0
  2  5  1  0  0  0  0
  5  6  2  0  0  0  0
  5  7  1  0  0  0  0
  7  8  1  0  0  0  0
  7  9  1  0  0  0  0
  9 10  1  0  0  0  0
  9 11  1  0  0  0  0
  9 25  1  0  0  0  0
 11 12  1  0  0  0  0
 11 13  1  0  0  0  0
 11 14  1  0  0  0  0
 14 15  1  0  0  0  0
 14 23  2  0  0  0  0
 15 16  1  0  0  0  0
 15 17  2  0  0  0  0
 17 18  1  0  0  0  0
 17 19  1  0  0  0  0
 19 20  1  0  0  0  0
 19 21  2  0  0  0  0
 21 22  1  0  0  0  0
 21 23  1  0  0  0  0
 23 24  1  0  0  0  0
 25 26  2  0  0  0  0
 25 27  1  0  0  0  0
 27 28  1  0  0  0  0
 27 29  1  0  0  0  0
 29 30  1  0  0  0  0
 29 31  1  0  0  0  0
 29 32  1  0  0  0  0
M  END
$$$$

  -OEChem-01062216093D

 32 32  0     1  0  0  0  0  0999 V2000
   -3.3885   -2.2962    1.0807 H   0  0  0  0  0  0  0  0  0  0  0  0
   -3.3337   -1.3970    0.4606 C   0  0  0  0  0  0  0  0  0  0  0  0
   -3.9626   -0.6236    0.9079 H   0  0  0  0  0  0  0  0  0  0  0  0
   -3.7114   -1.6340   -0.5369 H   0  0  0  0  0  0  0  0  0  0  0  0
   -1.8991   -0.9114    0.3697 C   0  0  0  0  0  0  0  0  0  0  0  0
   -1.0126   -1.5591    0.8959 O   0  0  0  0  0  0  0  0  0  0  0  0
   -1.6257    0.2589   -0.3136 N   0  0  0  0  0  0  0  0  0  0  0  0
   -2.4435    0.7927   -0.5942 H   0  0  0  0  0  0  0  0  0  0  0  0
   -0.3411    0.9910   -0.2770 C   0  0  1  0  0  0  0  0  0  0  0  0
   -0.4098    1.8363   -0.9677 H   0  0  0  0  0  0  0  0  0  0  0  0
   -0.1005    1.5602    1.1396 C   0  0  0  0  0  0  0  0  0  0  0  0
   -0.1332    0.7596    1.8856 H   0  0  0  0  0  0  0  0  0  0  0  0
    0.8991    2.0039    1.1961 H   0  0  0  0  0  0  0  0  0  0  0  0
   -1.1148    2.6326    1.4594 C   0  0  0  0  0  0  0  0  0  0  0  0
   -0.9435    3.9412    0.9844 C   0  0  0  0  0  0  0  0  0  0  0  0
   -0.0685    4.1941    0.3924 H   0  0  0  0  0  0  0  0  0  0  0  0
   -1.8922    4.9292    1.2706 C   0  0  0  0  0  0  0  0  0  0  0  0
   -1.7514    5.9402    0.8995 H   0  0  0  0  0  0  0  0  0  0  0  0
   -3.0175    4.6165    2.0398 C   0  0  0  0  0  0  0  0  0  0  0  0
   -3.7512    5.3843    2.2669 H   0  0  0  0  0  0  0  0  0  0  0  0
   -3.1919    3.3164    2.5242 C   0  0  0  0  0  0  0  0  0  0  0  0
   -4.0598    3.0740    3.1305 H   0  0  0  0  0  0  0  0  0  0  0  0
   -2.2434    2.3297    2.2354 C   0  0  0  0  0  0  0  0  0  0  0  0
   -2.3801    1.3237    2.6217 H   0  0  0  0  0  0  0  0  0  0  0  0
    0.8538    0.1435   -0.7819 C   0  0  0  0  0  0  0  0  0  0  0  0
    1.9140    0.0867   -0.1704 O   0  0  0  0  0  0  0  0  0  0  0  0
    0.8165   -0.3430   -2.0766 N   0  0  0  0  0  0  0  0  0  0  0  0
   -0.0937   -0.3585   -2.5246 H   0  0  0  0  0  0  0  0  0  0  0  0
    1.8930   -1.1377   -2.6550 C   0  0  0  0  0  0  0  0  0  0  0  0
    2.0531   -2.0494   -2.0695 H   0  0  0  0  0  0  0  0  0  0  0  0
    1.6428   -1.4235   -3.6810 H   0  0  0  0  0  0  0  0  0  0  0  0
    2.8252   -0.5633   -2.6749 H   0  0  0  0  0  0  0  0  0  0  0  0
  1  2  1  0  0  0  0
  2  3  1  0  0  0  0
  2  4  1  0  0  0  0
  2  5  1  0  0  0  0
  5  6  2  0  0  0  0
  5  7  1  0  0  0  0
  7  8  1  0  0  0  0
  7  9  1  0  0  0  0
  9 10  1  0  0  0  0
  9 11  1  0  0  0  0
  9 25  1  0  0  0  0
 11 12  1  0  0  0  0
 11 13  1  0  0  0  0
 11 14  1  0  0  0  0
 14 15  1  0  0  0  0
 14 23  2  0  0  0  0
 15 16  1  0  0  0  0
 15 17  2  0  0  0  0
 17 18  1  0  0  0  0
 17 19  1  0  0  0  0
 19 20  1  0  0  0  0
 19 21  2  0  0  0  0
 21 22  1  0  0  0  0
 21 23  1  0  0  0  0
 23 24  1  0  0  0  0
 25 26  2  0  0  0  0
 25 27  1  0  0  0  0
 27 28  1  0  0  0  0
 27 29  1  0  0  0  0
 29 30  1  0  0  0  0
 29 31  1  0  0  0  0
 29 32  1  0  0  0  0
M  END
$$$$

  -OEChem-01062216093D

 32 32  0     1  0  0  0  0  0999 V2000
   -3.4152   -2.3037    1.0758 H   0  0  0  0  0  0  0  0  0  0  0  0
   -3.3500   -1.4090    0.4498 C   0  0  0  0  0  0  0  0  0  0  0  0
   -3.9896   -0.6337    0.8785 H   0  0  0  0  0  0  0  0  0  0  0  0
   -3.7066   -1.6550   -0.5532 H   0  0  0  0  0  0  0  0  0  0  0  0
   -1.9153   -0.9203    0.3835 C   0  0  0  0  0  0  0  0  0  0  0  0
   -1.0404   -1.5604    0.9363 O   0  0  0  0  0  0  0  0  0  0  0  0
   -1.6351    0.2454   -0.3048 N   0  0  0  0  0  0  0  0  0  0  0  0
   -2.4499    0.7686   -0.6114 H   0  0  0  0  0  0  0  0  0  0  0  0
   -0.3507    0.9767   -0.2783 C   0  0  1  0  0  0  0  0  0  0  0  0
   -0.4253    1.8206   -0.9698 H   0  0  0  0  0  0  0  0  0  0  0  0
   -0.1003    1.5532    1.1330 C   0  0  0  0  0  0  0  0  0  0  0  0
   -0.1286    0.7561    1.8831 H   0  0  0  0  0  0  0  0  0  0  0  0
    0.9020    1.9924    1.1773 H   0  0  0  0  0  0  0  0  0  0  0  0
   -1.1099    2.6293    1.4568 C   0  0  0  0  0  0  0  0  0  0  0  0
   -0.9391    3.9354    0.9748 C   0  0  0  0  0  0  0  0  0  0  0  0
   -0.0686    4.1834    0.3748 H   0  0  0  0  0  0  0  0  0  0  0  0
   -1.8820    4.9273    1.2651 C   0  0  0  0  0  0  0  0  0  0  0  0
   -1.7405    5.9369    0.8904 H   0  0  0  0  0  0  0  0  0  0  0  0
   -3.0027    4.6209    2.0432 C   0  0  0  0  0  0  0  0  0  0  0  0
   -3.7320    5.3921    2.2734 H   0  0  0  0  0  0  0  0  0  0  0  0
   -3.1786    3.3229    2.5323 C   0  0  0  0  0  0  0  0  0  0  0  0
   -4.0441    3.0850    3.1437 H   0  0  0  0  0  0  0  0  0  0  0  0
   -2.2345    2.3325    2.2409 C   0  0  0  0  0  0  0  0  0  0  0  0
   -2.3716    1.3282    2.6310 H   0  0  0  0  0  0  0  0  0  0  0  0
    0.8465    0.1312   -0.7815 C   0  0  0  0  0  0  0  0  0  0  0  0
    1.8132   -0.1163   -0.0712 O   0  0  0  0  0  0  0  0  0  0  0  0
    0.9657   -0.0960   -2.1415 N   0  0  0  0  0  0  0  0  0  0  0  0
    0.1374    0.0630   -2.7055 H   0  0  0  0  0  0  0  0  0  0  0  0
    2.0856   -0.8201   -2.7312 C   0  0  0  0  0  0  0  0  0  0  0  0
    2.1421   -1.8349   -2.3234 H   0  0  0  0  0  0  0  0  0  0  0  0
    1.9633   -0.8881   -3.8163 H   0  0  0  0  0  0  0  0  0  0  0  0
    3.0289   -0.3041   -2.5230 H   0  0  0  0  0  0  0  0  0  0  0  0
  1  2  1  0  0  0  0
  2  3  1  0  0  0  0
  2  4  1  0  0  0  0
  2  5  1  0  0  0  0
  5  6  2  0  0  0  0
  5  7  1  0  0  0  0
  7  8  1  0  0  0  0
  7  9  1  0  0  0  0
  9 10  1  0  0  0  0
  9 11  1  0  0  0  0
  9 25  1  0  0  0  0
 11 12  1  0  0  0  0
 11 13  1  0  0  0  0
 11 14  1  0  0  0  0
 14 15  1  0  0  0  0
 14 23  2  0  0  0  0
 15 16  1  0  0  0  0
 15 17  2  0  0  0  0
 17 18  1  0  0  0  0
 17 19  1  0  0  0  0
 19 20  1  0  0  0  0
 19 21  2  0  0  0  0
 21 22  1  0  0  0  0
 21 23  1  0  0  0  0
 23 24  1  0  0  0  0
 25 26  2  0  0  0  0
 25 27  1  0  0  0  0
 27 28  1  0  0  0  0
 27 29  1  0  0  0  0
 29 30  1  0  0  0  0
 29 31  1  0  0  0  0
 29 32  1  0  0  0  0
M  END
$$$$

  -OEChem-01062216093D

 32 32  0     1  0  0  0  0  0999 V2000
   -3.4474   -2.3259    1.0557 H   0  0  0  0  0  0  0  0  0  0  0  0
   -3.3731   -1.4344    0.4261 C   0  0  0  0  0  0  0  0  0  0  0  0
   -4.0349   -0.6641    0.8291 H   0  0  0  0  0  0  0  0  0  0  0  0
   -3.6949   -1.6909   -0.5860 H   0  0  0  0  0  0  0  0  0  0  0  0
   -1.9424   -0.9292    0.4017 C   0  0  0  0  0  0  0  0  0  0  0  0
   -1.0853   -1.5474    1.0040 O   0  0  0  0  0  0  0  0  0  0  0  0
   -1.6537    0.2308   -0.2937 N   0  0  0  0  0  0  0  0  0  0  0  0
   -2.4624    0.7323   -0.6481 H   0  0  0  0  0  0  0  0  0  0  0  0
   -0.3684    0.9617   -0.2843 C   0  0  1  0  0  0  0  0  0  0  0  0
   -0.4557    1.8036   -0.9765 H   0  0  0  0  0  0  0  0  0  0  0  0
   -0.0989    1.5472    1.1188 C   0  0  0  0  0  0  0  0  0  0  0  0
   -0.1212    0.7556    1.8751 H   0  0  0  0  0  0  0  0  0  0  0  0
    0.9066    1.9806    1.1467 H   0  0  0  0  0  0  0  0  0  0  0  0
   -1.1008    2.6277    1.4508 C   0  0  0  0  0  0  0  0  0  0  0  0
   -0.9333    3.9307    0.9591 C   0  0  0  0  0  0  0  0  0  0  0  0
   -0.0706    4.1733    0.3457 H   0  0  0  0  0  0  0  0  0  0  0  0
   -1.8687    4.9273    1.2586 C   0  0  0  0  0  0  0  0  0  0  0  0
   -1.7291    5.9347    0.8775 H   0  0  0  0  0  0  0  0  0  0  0  0
   -2.9790    4.6283    2.0544 C   0  0  0  0  0  0  0  0  0  0  0  0
   -3.7024    5.4031    2.2915 H   0  0  0  0  0  0  0  0  0  0  0  0
   -3.1519    3.3329    2.5518 C   0  0  0  0  0  0  0  0  0  0  0  0
   -4.0092    3.1003    3.1768 H   0  0  0  0  0  0  0  0  0  0  0  0
   -2.2156    2.3378    2.2510 C   0  0  0  0  0  0  0  0  0  0  0  0
   -2.3510    1.3344    2.6452 H   0  0  0  0  0  0  0  0  0  0  0  0
    0.8357    0.1258   -0.7881 C   0  0  0  0  0  0  0  0  0  0  0  0
    1.6836   -0.3215   -0.0266 O   0  0  0  0  0  0  0  0  0  0  0  0
    1.1366    0.1493   -2.1397 N   0  0  0  0  0  0  0  0  0  0  0  0
    0.4229    0.5035   -2.7679 H   0  0  0  0  0  0  0  0  0  0  0  0
    2.3083   -0.5076   -2.7081 C   0  0  0  0  0  0  0  0  0  0  0  0
    2.2843   -1.5818   -2.4963 H   0  0  0  0  0  0  0  0  0  0  0  0
    2.3319   -0.3681   -3.7932 H   0  0  0  0  0  0  0  0  0  0  0  0
    3.2269   -0.0857   -2.2866 H   0  0  0  0  0  0  0  0  0  0  0  0
  1  2  1  0  0  0  0
  2  3  1  0  0  0  0
  2  4  1  0  0  0  0
  2  5  1  0  0  0  0
  5  6  2  0  0  0  0
  5  7  1  0  0  0  0
  7  8  1  0  0  0  0
  7  9  1  0  0  0  0
  9 10  1  0  0  0  0
  9 11  1  0  0  0  0
  9 25  1  0  0  0  0
 11 12  1  0  0  0  0
 11 13  1  0  0  0  0
 11 14  1  0  0  0  0
 14 15  1  0  0  0  0
 14 23  2  0  0  0  0
 15 16  1  0  0  0  0
 15 17  2  0  0  0  0
 17 18  1  0  0  0  0
 17 19  1  0  0  0  0
 19 20  1  0  0  0  0
 19 21  2  0  0  0  0
 21 22  1  0  0  0  0
 21 23  1  0  0  0  0
 23 24  1  0  0  0  0
 25 26  2  0  0  0  0
 25 27  1  0  0  0  0
 27 28  1  0  0  0  0
 27 29  1  0  0  0  0
 29 30  1  0  0  0  0
 29 31  1  0  0  0  0
 29 32  1  0  0  0  0
M  END
$$$$

  -OEChem-01062216093D

 32 32  0     1  0  0  0  0  0999 V2000
   -3.4516   -2.4049    0.9566 H   0  0  0  0  0  0  0  0  0  0  0  0
   -3.3629   -1.5171    0.3239 C   0  0  0  0  0  0  0  0  0  0  0  0
   -4.1126   -0.7865    0.6364 H   0  0  0  0  0  0  0  0  0  0  0  0
   -3.5525   -1.8057   -0.7127 H   0  0  0  0  0  0  0  0  0  0  0  0
   -1.9726   -0.9218    0.4505 C   0  0  0  0  0  0  0  0  0  0  0  0
   -1.1741   -1.4480    1.2020 O   0  0  0  0  0  0  0  0  0  0  0  0
   -1.6758    0.2279   -0.2593 N   0  0  0  0  0  0  0  0  0  0  0  0
   -2.4513    0.6323   -0.7747 H   0  0  0  0  0  0  0  0  0  0  0  0
   -0.3935    0.9659   -0.2788 C   0  0  1  0  0  0  0  0  0  0  0  0
   -0.5040    1.7999   -0.9772 H   0  0  0  0  0  0  0  0  0  0  0  0
   -0.0873    1.5701    1.1078 C   0  0  0  0  0  0  0  0  0  0  0  0
   -0.0874    0.7901    1.8760 H   0  0  0  0  0  0  0  0  0  0  0  0
    0.9187    2.0027    1.1017 H   0  0  0  0  0  0  0  0  0  0  0  0
   -1.0807    2.6531    1.4553 C   0  0  0  0  0  0  0  0  0  0  0  0
   -0.9310    3.9510    0.9445 C   0  0  0  0  0  0  0  0  0  0  0  0
   -0.0871    4.1892    0.3044 H   0  0  0  0  0  0  0  0  0  0  0  0
   -1.8607    4.9481    1.2594 C   0  0  0  0  0  0  0  0  0  0  0  0
   -1.7362    5.9513    0.8625 H   0  0  0  0  0  0  0  0  0  0  0  0
   -2.9466    4.6550    2.0905 C   0  0  0  0  0  0  0  0  0  0  0  0
   -3.6660    5.4297    2.3388 H   0  0  0  0  0  0  0  0  0  0  0  0
   -3.1012    3.3649    2.6071 C   0  0  0  0  0  0  0  0  0  0  0  0
   -3.9397    3.1357    3.2581 H   0  0  0  0  0  0  0  0  0  0  0  0
   -2.1708    2.3692    2.2906 C   0  0  0  0  0  0  0  0  0  0  0  0
   -2.2913    1.3689    2.6978 H   0  0  0  0  0  0  0  0  0  0  0  0
    0.8154    0.1379   -0.7840 C   0  0  0  0  0  0  0  0  0  0  0  0
    1.5023   -0.5473   -0.0396 O   0  0  0  0  0  0  0  0  0  0  0  0
    1.3015    0.3798   -2.0583 N   0  0  0  0  0  0  0  0  0  0  0  0
    0.7433    0.9633   -2.6727 H   0  0  0  0  0  0  0  0  0  0  0  0
    2.4995   -0.2587   -2.5922 C   0  0  0  0  0  0  0  0  0  0  0  0
    2.3830   -1.3476   -2.5976 H   0  0  0  0  0  0  0  0  0  0  0  0
    2.6814    0.0754   -3.6180 H   0  0  0  0  0  0  0  0  0  0  0  0
    3.3739   -0.0015   -1.9850 H   0  0  0  0  0  0  0  0  0  0  0  0
  1  2  1  0  0  0  0
  2  3  1  0  0  0  0
  2  4  1  0  0  0  0
  2  5  1  0  0  0  0
  5  6  2  0  0  0  0
  5  7  1  0  0  0  0
  7  8  1  0  0  0  0
  7  9  1  0  0  0  0
  9 10  1  0  0  0  0
  9 11  1  0  0  0  0
  9 25  1  0  0  0  0
 11 12  1  0  0  0  0
 11 13  1  0  0  0  0
 11 14  1  0  0  0  0
 14 15  1  0  0  0  0
 14 23  2  0  0  0  0
 15 16  1  0  0  0  0
 15 17  2  0  0  0  0
 17 18  1  0  0  0  0
 17 19  1  0  0  0  0
 19 20  1  0  0  0  0
 19 21  2  0  0  0  0
 21 22  1  0  0  0  0
 21 23  1  0  0  0  0
 23 24  1  0  0  0  0
 25 26  2  0  0  0  0
 25 27  1  0  0  0  0
 27 28  1  0  0  0  0
 27 29  1  0  0  0  0
 29 30  1  0  0  0  0
 29 31  1  0  0  0  0
 29 32  1  0  0  0  0
M  END
$$$$

  -OEChem-01062216093D

 32 32  0     1  0  0  0  0  0999 V2000
   -3.3499   -2.5478    0.8173 H   0  0  0  0  0  0  0  0  0  0  0  0
   -3.2683   -1.6633    0.1790 C   0  0  0  0  0  0  0  0  0  0  0  0
   -4.1423   -1.0285    0.3429 H   0  0  0  0  0  0  0  0  0  0  0  0
   -3.2478   -1.9859   -0.8646 H   0  0  0  0  0  0  0  0  0  0  0  0
   -2.0013   -0.8961    0.5085 C   0  0  0  0  0  0  0  0  0  0  0  0
   -1.3322   -1.2543    1.4606 O   0  0  0  0  0  0  0  0  0  0  0  0
   -1.7146    0.2481   -0.2169 N   0  0  0  0  0  0  0  0  0  0  0  0
   -2.3879    0.4686   -0.9431 H   0  0  0  0  0  0  0  0  0  0  0  0
   -0.4322    0.9874   -0.2529 C   0  0  1  0  0  0  0  0  0  0  0  0
   -0.5601    1.8119   -0.9596 H   0  0  0  0  0  0  0  0  0  0  0  0
   -0.0860    1.6107    1.1147 C   0  0  0  0  0  0  0  0  0  0  0  0
   -0.0612    0.8465    1.8970 H   0  0  0  0  0  0  0  0  0  0  0  0
    0.9196    2.0411    1.0721 H   0  0  0  0  0  0  0  0  0  0  0  0
   -1.0644    2.7033    1.4734 C   0  0  0  0  0  0  0  0  0  0  0  0
   -0.9271    3.9948    0.9420 C   0  0  0  0  0  0  0  0  0  0  0  0
   -0.1022    4.2241    0.2748 H   0  0  0  0  0  0  0  0  0  0  0  0
   -1.8450    4.9984    1.2720 C   0  0  0  0  0  0  0  0  0  0  0  0
   -1.7304    5.9968    0.8601 H   0  0  0  0  0  0  0  0  0  0  0  0
   -2.9069    4.7177    2.1375 C   0  0  0  0  0  0  0  0  0  0  0  0
   -3.6172    5.4967    2.3983 H   0  0  0  0  0  0  0  0  0  0  0  0
   -3.0500    3.4337    2.6724 C   0  0  0  0  0  0  0  0  0  0  0  0
   -3.8700    3.2133    3.3493 H   0  0  0  0  0  0  0  0  0  0  0  0
   -2.1326    2.4314    2.3399 C   0  0  0  0  0  0  0  0  0  0  0  0
   -2.2469    1.4339    2.7569 H   0  0  0  0  0  0  0  0  0  0  0  0
    0.7766    0.1618   -0.7604 C   0  0  0  0  0  0  0  0  0  0  0  0
    1.1870   -0.8375   -0.1905 O   0  0  0  0  0  0  0  0  0  0  0  0
    1.4588    0.5890   -1.8878 N   0  0  0  0  0  0  0  0  0  0  0  0
    1.1347    1.4336   -2.3477 H   0  0  0  0  0  0  0  0  0  0  0  0
    2.6368   -0.0911   -2.4151 C   0  0  0  0  0  0  0  0  0  0  0  0
    2.3973   -1.1280   -2.6739 H   0  0  0  0  0  0  0  0  0  0  0  0
    2.9960    0.4150   -3.3162 H   0  0  0  0  0  0  0  0  0  0  0  0
    3.4426   -0.0907   -1.6735 H   0  0  0  0  0  0  0  0  0  0  0  0
  1  2  1  0  0  0  0
  2  3  1  0  0  0  0
  2  4  1  0  0  0  0
  2  5  1  0  0  0  0
  5  6  2  0  0  0  0
  5  7  1  0  0  0  0
  7  8  1  0  0  0  0
  7  9  1  0  0  0  0
  9 10  1  0  0  0  0
  9 11  1  0  0  0  0
  9 25  1  0  0  0  0
 11 12  1  0  0  0  0
 11 13  1  0  0  0  0
 11 14  1  0  0  0  0
 14 15  1  0  0  0  0
 14 23  2  0  0  0  0
 15 16  1  0  0  0  0
 15 17  2  0  0  0  0
 17 18  1  0  0  0  0
 17 19  1  0  0  0  0
 19 20  1  0  0  0  0
 19 21  2  0  0  0  0
 21 22  1  0  0  0  0
 21 23  1  0  0  0  0
 23 24  1  0  0  0  0
 25 26  2  0  0  0  0
 25 27  1  0  0  0  0
 27 28  1  0  0  0  0
 27 29  1  0  0  0  0
 29 30  1  0  0  0  0
 29 31  1  0  0  0  0
 29 32  1  0  0  0  0
M  END
$$$$

  -OEChem-01062216093D

 32 32  0     1  0  0  0  0  0999 V2000
   -3.2481   -2.6267    0.7717 H   0  0  0  0  0  0  0  0  0  0  0  0
   -3.1841   -1.7446    0.1282 C   0  0  0  0  0  0  0  0  0  0  0  0
   -4.1102   -1.1725    0.2206 H   0  0  0  0  0  0  0  0  0  0  0  0
   -3.0661   -2.0749   -0.9065 H   0  0  0  0  0  0  0  0  0  0  0  0
   -2.0008   -0.8866    0.5359 C   0  0  0  0  0  0  0  0  0  0  0  0
   -1.3935   -1.1694    1.5549 O   0  0  0  0  0  0  0  0  0  0  0  0
   -1.7289    0.2612   -0.1905 N   0  0  0  0  0  0  0  0  0  0  0  0
   -2.3308    0.3919   -0.9967 H   0  0  0  0  0  0  0  0  0  0  0  0
   -0.4411    0.9927   -0.2116 C   0  0  1  0  0  0  0  0  0  0  0  0
   -0.5652    1.8122   -0.9245 H   0  0  0  0  0  0  0  0  0  0  0  0
   -0.0925    1.6254    1.1513 C   0  0  0  0  0  0  0  0  0  0  0  0
   -0.0723    0.8716    1.9428 H   0  0  0  0  0  0  0  0  0  0  0  0
    0.9152    2.0503    1.1051 H   0  0  0  0  0  0  0  0  0  0  0  0
   -1.0615    2.7301    1.4967 C   0  0  0  0  0  0  0  0  0  0  0  0
   -0.9118    4.0159    0.9549 C   0  0  0  0  0  0  0  0  0  0  0  0
   -0.0824    4.2346    0.2902 H   0  0  0  0  0  0  0  0  0  0  0  0
   -1.8232    5.0291    1.2728 C   0  0  0  0  0  0  0  0  0  0  0  0
   -1.6979    6.0239    0.8555 H   0  0  0  0  0  0  0  0  0  0  0  0
   -2.8946    4.7626    2.1313 C   0  0  0  0  0  0  0  0  0  0  0  0
   -3.6013    5.5488    2.3807 H   0  0  0  0  0  0  0  0  0  0  0  0
   -3.0538    3.4825    2.6710 C   0  0  0  0  0  0  0  0  0  0  0  0
   -3.8844    3.2710    3.3379 H   0  0  0  0  0  0  0  0  0  0  0  0
   -2.1405    2.4716    2.3536 C   0  0  0  0  0  0  0  0  0  0  0  0
   -2.2689    1.4762    2.7713 H   0  0  0  0  0  0  0  0  0  0  0  0
    0.7695    0.1671   -0.7161 C   0  0  0  0  0  0  0  0  0  0  0  0
    0.8974   -1.0284   -0.4959 O   0  0  0  0  0  0  0  0  0  0  0  0
    1.6442    0.7503   -1.6178 N   0  0  0  0  0  0  0  0  0  0  0  0
    1.5295    1.7391   -1.8157 H   0  0  0  0  0  0  0  0  0  0  0  0
    2.7706    0.0412   -2.2150 C   0  0  0  0  0  0  0  0  0  0  0  0
    2.4195   -0.8198   -2.7936 H   0  0  0  0  0  0  0  0  0  0  0  0
    3.3232    0.7053   -2.8863 H   0  0  0  0  0  0  0  0  0  0  0  0
    3.4557   -0.3130   -1.4374 H   0  0  0  0  0  0  0  0  0  0  0  0
  1  2  1  0  0  0  0
  2  3  1  0  0  0  0
  2  4  1  0  0  0  0
  2  5  1  0  0  0  0
  5  6  2  0  0  0  0
  5  7  1  0  0  0  0
  7  8  1  0  0  0  0
  7  9  1  0  0  0  0
  9 10  1  0  0  0  0
  9 11  1  0  0  0  0
  9 25  1  0  0  0  0
 11 12  1  0  0  0  0
 11 13  1  0  0  0  0
 11 14  1  0  0  0  0
 14 15  1  0  0  0  0
 14 23  2  0  0  0  0
 15 16  1  0  0  0  0
 15 17  2  0  0  0  0
 17 18  1  0  0  0  0
 17 19  1  0  0  0  0
 19 20  1  0  0  0  0
 19 21  2  0  0  0  0
 21 22  1  0  0  0  0
 21 23  1  0  0  0  0
 23 24  1  0  0  0  0
 25 26  2  0  0  0  0
 25 27  1  0  0  0  0
 27 28  1  0  0  0  0
 27 29  1  0  0  0  0
 29 30  1  0  0  0  0
 29 31  1  0  0  0  0
 29 32  1  0  0  0  0
M  END
$$$$

  -OEChem-01062216093D

 32 32  0     1  0  0  0  0  0999 V2000
   -3.2293   -2.6378    0.7711 H   0  0  0  0  0  0  0  0  0  0  0  0
   -3.1754   -1.7491    0.1358 C   0  0  0  0  0  0  0  0  0  0  0  0
   -4.1016   -1.1801    0.2445 H   0  0  0  0  0  0  0  0  0  0  0  0
   -3.0688   -2.0687   -0.9036 H   0  0  0  0  0  0  0  0  0  0  0  0
   -1.9893   -0.8918    0.5364 C   0  0  0  0  0  0  0  0  0  0  0  0
   -1.3533   -1.1920    1.5336 O   0  0  0  0  0  0  0  0  0  0  0  0
   -1.7238    0.2616   -0.1832 N   0  0  0  0  0  0  0  0  0  0  0  0
   -2.3137    0.3865   -0.9992 H   0  0  0  0  0  0  0  0  0  0  0  0
   -0.4337    0.9881   -0.1903 C   0  0  1  0  0  0  0  0  0  0  0  0
   -0.5468    1.8072   -0.9060 H   0  0  0  0  0  0  0  0  0  0  0  0
   -0.0983    1.6231    1.1765 C   0  0  0  0  0  0  0  0  0  0  0  0
   -0.0925    0.8718    1.9704 H   0  0  0  0  0  0  0  0  0  0  0  0
    0.9113    2.0439    1.1453 H   0  0  0  0  0  0  0  0  0  0  0  0
   -1.0676    2.7325    1.5076 C   0  0  0  0  0  0  0  0  0  0  0  0
   -0.9073    4.0167    0.9644 C   0  0  0  0  0  0  0  0  0  0  0  0
   -0.0707    4.2314    0.3072 H   0  0  0  0  0  0  0  0  0  0  0  0
   -1.8191    5.0338    1.2688 C   0  0  0  0  0  0  0  0  0  0  0  0
   -1.6869    6.0264    0.8489 H   0  0  0  0  0  0  0  0  0  0  0  0
   -2.9004    4.7739    2.1167 C   0  0  0  0  0  0  0  0  0  0  0  0
   -3.6073    5.5631    2.3556 H   0  0  0  0  0  0  0  0  0  0  0  0
   -3.0695    3.4963    2.6588 C   0  0  0  0  0  0  0  0  0  0  0  0
   -3.9082    3.2898    3.3168 H   0  0  0  0  0  0  0  0  0  0  0  0
   -2.1564    2.4813    2.3546 C   0  0  0  0  0  0  0  0  0  0  0  0
   -2.2931    1.4884    2.7753 H   0  0  0  0  0  0  0  0  0  0  0  0
    0.7744    0.1582   -0.6961 C   0  0  0  0  0  0  0  0  0  0  0  0
    0.7337   -1.0604   -0.8037 O   0  0  0  0  0  0  0  0  0  0  0  0
    1.8187    0.8167   -1.3249 N   0  0  0  0  0  0  0  0  0  0  0  0
    1.8372    1.8301   -1.2713 H   0  0  0  0  0  0  0  0  0  0  0  0
    2.9377    0.1271   -1.9583 C   0  0  0  0  0  0  0  0  0  0  0  0
    2.5820   -0.5179   -2.7687 H   0  0  0  0  0  0  0  0  0  0  0  0
    3.6408    0.8524   -2.3791 H   0  0  0  0  0  0  0  0  0  0  0  0
    3.4714   -0.4884   -1.2265 H   0  0  0  0  0  0  0  0  0  0  0  0
  1  2  1  0  0  0  0
  2  3  1  0  0  0  0
  2  4  1  0  0  0  0
  2  5  1  0  0  0  0
  5  6  2  0  0  0  0
  5  7  1  0  0  0  0
  7  8  1  0  0  0  0
  7  9  1  0  0  0  0
  9 10  1  0  0  0  0
  9 11  1  0  0  0  0
  9 25  1  0  0  0  0
 11 12  1  0  0  0  0
 11 13  1  0  0  0  0
 11 14  1  0  0  0  0
 14 15  1  0  0  0  0
 14 23  2  0  0  0  0
 15 16  1  0  0  0  0
 15 17  2  0  0  0  0
 17 18  1  0  0  0  0
 17 19  1  0  0  0  0
 19 20  1  0  0  0  0
 19 21  2  0  0  0  0
 21 22  1  0  0  0  0
 21 23  1  0  0  0  0
 23 24  1  0  0  0  0
 25 26  2  0  0  0  0
 25 27  1  0  0  0  0
 27 28  1  0  0  0  0
 27 29  1  0  0  0  0
 29 30  1  0  0  0  0
 29 31  1  0  0  0  0
 29 32  1  0  0  0  0
M  END
$$$$

  -OEChem-01062216093D

 32 32  0     1  0  0  0  0  0999 V2000
   -3.2222   -2.6229    0.7836 H   0  0  0  0  0  0  0  0  0  0  0  0
   -3.1717   -1.7324    0.1507 C   0  0  0  0  0  0  0  0  0  0  0  0
   -4.0903   -1.1551    0.2783 H   0  0  0  0  0  0  0  0  0  0  0  0
   -3.0873   -2.0484   -0.8918 H   0  0  0  0  0  0  0  0  0  0  0  0
   -1.9702   -0.8876    0.5314 C   0  0  0  0  0  0  0  0  0  0  0  0
   -1.2905   -1.2183    1.4901 O   0  0  0  0  0  0  0  0  0  0  0  0
   -1.7141    0.2719   -0.1811 N   0  0  0  0  0  0  0  0  0  0  0  0
   -2.3103    0.4074   -0.9910 H   0  0  0  0  0  0  0  0  0  0  0  0
   -0.4249    0.9985   -0.1819 C   0  0  1  0  0  0  0  0  0  0  0  0
   -0.5289    1.8200   -0.8965 H   0  0  0  0  0  0  0  0  0  0  0  0
   -0.1013    1.6291    1.1914 C   0  0  0  0  0  0  0  0  0  0  0  0
   -0.1026    0.8755    1.9829 H   0  0  0  0  0  0  0  0  0  0  0  0
    0.9065    2.0542    1.1746 H   0  0  0  0  0  0  0  0  0  0  0  0
   -1.0767    2.7347    1.5157 C   0  0  0  0  0  0  0  0  0  0  0  0
   -0.9141    4.0202    0.9767 C   0  0  0  0  0  0  0  0  0  0  0  0
   -0.0730    4.2382    0.3261 H   0  0  0  0  0  0  0  0  0  0  0  0
   -1.8316    5.0344    1.2743 C   0  0  0  0  0  0  0  0  0  0  0  0
   -1.6982    6.0281    0.8570 H   0  0  0  0  0  0  0  0  0  0  0  0
   -2.9204    4.7700    2.1109 C   0  0  0  0  0  0  0  0  0  0  0  0
   -3.6319    5.5567    2.3442 H   0  0  0  0  0  0  0  0  0  0  0  0
   -3.0913    3.4910    2.6492 C   0  0  0  0  0  0  0  0  0  0  0  0
   -3.9357    3.2810    3.2988 H   0  0  0  0  0  0  0  0  0  0  0  0
   -2.1728    2.4789    2.3518 C   0  0  0  0  0  0  0  0  0  0  0  0
   -2.3110    1.4847    2.7689 H   0  0  0  0  0  0  0  0  0  0  0  0
    0.7719    0.1579   -0.6969 C   0  0  0  0  0  0  0  0  0  0  0  0
    0.6286   -0.9971   -1.0801 O   0  0  0  0  0  0  0  0  0  0  0  0
    1.9514    0.7994   -1.0378 N   0  0  0  0  0  0  0  0  0  0  0  0
    2.0596    1.7676   -0.7532 H   0  0  0  0  0  0  0  0  0  0  0  0
    3.0836    0.1194   -1.6574 C   0  0  0  0  0  0  0  0  0  0  0  0
    2.7940   -0.3037   -2.6251 H   0  0  0  0  0  0  0  0  0  0  0  0
    3.9051    0.8232   -1.8213 H   0  0  0  0  0  0  0  0  0  0  0  0
    3.4438   -0.6893   -1.0127 H   0  0  0  0  0  0  0  0  0  0  0  0
  1  2  1  0  0  0  0
  2  3  1  0  0  0  0
  2  4  1  0  0  0  0
  2  5  1  0  0  0  0
  5  6  2  0  0  0  0
  5  7  1  0  0  0  0
  7  8  1  0  0  0  0
  7  9  1  0  0  0  0
  9 10  1  0  0  0  0
  9 11  1  0  0  0  0
  9 25  1  0  0  0  0
 11 12  1  0  0  0  0
 11 13  1  0  0  0  0
 11 14  1  0  0  0  0
 14 15  1  0  0  0  0
 14 23  2  0  0  0  0
 15 16  1  0  0  0  0
 15 17  2  0  0  0  0
 17 18  1  0  0  0  0
 17 19  1  0  0  0  0
 19 20  1  0  0  0  0
 19 21  2  0  0  0  0
 21 22  1  0  0  0  0
 21 23  1  0  0  0  0
 23 24  1  0  0  0  0
 25 26  2  0  0  0  0
 25 27  1  0  0  0  0
 27 28  1  0  0  0  0
 27 29  1  0  0  0  0
 29 30  1  0  0  0  0
 29 31  1  0  0  0  0
 29 32  1  0  0  0  0
M  END
$$$$

  -OEChem-01062216093D

 32 32  0     1  0  0  0  0  0999 V2000
   -3.3056   -2.5978    0.7002 H   0  0  0  0  0  0  0  0  0  0  0  0
   -3.2298   -1.6773    0.1148 C   0  0  0  0  0  0  0  0  0  0  0  0
   -4.0891   -1.0425    0.3433 H   0  0  0  0  0  0  0  0  0  0  0  0
   -3.2452   -1.9349   -0.9471 H   0  0  0  0  0  0  0  0  0  0  0  0
   -1.9420   -0.9483    0.4493 C   0  0  0  0  0  0  0  0  0  0  0  0
   -1.1887   -1.4318    1.2788 O   0  0  0  0  0  0  0  0  0  0  0  0
   -1.6656    0.2410   -0.2013 N   0  0  0  0  0  0  0  0  0  0  0  0
   -2.3017    0.4656   -0.9600 H   0  0  0  0  0  0  0  0  0  0  0  0
   -0.3879    0.9880   -0.1690 C   0  0  1  0  0  0  0  0  0  0  0  0
   -0.5783    1.9489   -0.6554 H   0  0  0  0  0  0  0  0  0  0  0  0
    0.1224    1.3152    1.2562 C   0  0  0  0  0  0  0  0  0  0  0  0
    0.2463    0.4141    1.8605 H   0  0  0  0  0  0  0  0  0  0  0  0
    1.1118    1.7764    1.1977 H   0  0  0  0  0  0  0  0  0  0  0  0
   -0.8013    2.2944    1.9394 C   0  0  0  0  0  0  0  0  0  0  0  0
   -0.7154    3.6708    1.6773 C   0  0  0  0  0  0  0  0  0  0  0  0
    0.0273    4.0502    0.9827 H   0  0  0  0  0  0  0  0  0  0  0  0
   -1.5842    4.5681    2.3085 C   0  0  0  0  0  0  0  0  0  0  0  0
   -1.5118    5.6319    2.1024 H   0  0  0  0  0  0  0  0  0  0  0  0
   -2.5465    4.0958    3.2063 C   0  0  0  0  0  0  0  0  0  0  0  0
   -3.2208    4.7913    3.6973 H   0  0  0  0  0  0  0  0  0  0  0  0
   -2.6392    2.7264    3.4727 C   0  0  0  0  0  0  0  0  0  0  0  0
   -3.3850    2.3558    4.1698 H   0  0  0  0  0  0  0  0  0  0  0  0
   -1.7695    1.8311    2.8415 C   0  0  0  0  0  0  0  0  0  0  0  0
   -1.8464    0.7671    3.0504 H   0  0  0  0  0  0  0  0  0  0  0  0
    0.6997    0.3098   -1.0399 C   0  0  0  0  0  0  0  0  0  0  0  0
    0.4100   -0.5986   -1.8106 O   0  0  0  0  0  0  0  0  0  0  0  0
    1.9673    0.8595   -1.1368 N   0  0  0  0  0  0  0  0  0  0  0  0
    2.2030    1.6123   -0.4982 H   0  0  0  0  0  0  0  0  0  0  0  0
    3.0172    0.3034   -1.9828 C   0  0  0  0  0  0  0  0  0  0  0  0
    2.7045    0.3026   -3.0323 H   0  0  0  0  0  0  0  0  0  0  0  0
    3.9297    0.9008   -1.8956 H   0  0  0  0  0  0  0  0  0  0  0  0
    3.2458   -0.7246   -1.6825 H   0  0  0  0  0  0  0  0  0  0  0  0
  1  2  1  0  0  0  0
  2  3  1  0  0  0  0
  2  4  1  0  0  0  0
  2  5  1  0  0  0  0
  5  6  2  0  0  0  0
  5  7  1  0  0  0  0
  7  8  1  0  0  0  0
  7  9  1  0  0  0  0
  9 10  1  0  0  0  0
  9 11  1  0  0  0  0
  9 25  1  0  0  0  0
 11 12  1  0  0  0  0
 11 13  1  0  0  0  0
 11 14  1  0  0  0  0
 14 15  1  0  0  0  0
 14 23  2  0  0  0  0
 15 16  1  0  0  0  0
 15 17  2  0  0  0  0
 17 18  1  0  0  0  0
 17 19  1  0  0  0  0
 19 20  1  0  0  0  0
 19 21  2  0  0  0  0
 21 22  1  0  0  0  0
 21 23  1  0  0  0  0
 23 24  1  0  0  0  0
 25 26  2  0  0  0  0
 25 27  1  0  0  0  0
 27 28  1  0  0  0  0
 27 29  1  0  0  0  0
 29 30  1  0  0  0  0
 29 31  1  0  0  0  0
 29 32  1  0  0  0  0
M  END
$$$$

  -OEChem-01062216093D

 32 32  0     1  0  0  0  0  0999 V2000
   -3.2778   -2.5962    0.6950 H   0  0  0  0  0  0  0  0  0  0  0  0
   -3.2088   -1.6691    0.1188 C   0  0  0  0  0  0  0  0  0  0  0  0
   -4.0626   -1.0346    0.3682 H   0  0  0  0  0  0  0  0  0  0  0  0
   -3.2422   -1.9141   -0.9456 H   0  0  0  0  0  0  0  0  0  0  0  0
   -1.9144   -0.9463    0.4406 C   0  0  0  0  0  0  0  0  0  0  0  0
   -1.1394   -1.4454    1.2405 O   0  0  0  0  0  0  0  0  0  0  0  0
   -1.6454    0.2504   -0.1975 N   0  0  0  0  0  0  0  0  0  0  0  0
   -2.2805    0.4805   -0.9557 H   0  0  0  0  0  0  0  0  0  0  0  0
   -0.3729    1.0037   -0.1520 C   0  0  1  0  0  0  0  0  0  0  0  0
   -0.5607    1.9661   -0.6364 H   0  0  0  0  0  0  0  0  0  0  0  0
    0.1186    1.3315    1.2806 C   0  0  0  0  0  0  0  0  0  0  0  0
    0.2406    0.4296    1.8844 H   0  0  0  0  0  0  0  0  0  0  0  0
    1.1035    1.8034    1.2350 H   0  0  0  0  0  0  0  0  0  0  0  0
   -0.8187    2.3044    1.9542 C   0  0  0  0  0  0  0  0  0  0  0  0
   -0.7350    3.6808    1.6932 C   0  0  0  0  0  0  0  0  0  0  0  0
    0.0120    4.0618    1.0038 H   0  0  0  0  0  0  0  0  0  0  0  0
   -1.6126    4.5752    2.3162 C   0  0  0  0  0  0  0  0  0  0  0  0
   -1.5422    5.6391    2.1091 H   0  0  0  0  0  0  0  0  0  0  0  0
   -2.5804    4.1003    3.2068 C   0  0  0  0  0  0  0  0  0  0  0  0
   -3.2613    4.7939    3.6915 H   0  0  0  0  0  0  0  0  0  0  0  0
   -2.6698    2.7306    3.4735 C   0  0  0  0  0  0  0  0  0  0  0  0
   -3.4193    2.3583    4.1656 H   0  0  0  0  0  0  0  0  0  0  0  0
   -1.7923    1.8377    2.8490 C   0  0  0  0  0  0  0  0  0  0  0  0
   -1.8678    0.7737    3.0580 H   0  0  0  0  0  0  0  0  0  0  0  0
    0.7087    0.3244   -1.0307 C   0  0  0  0  0  0  0  0  0  0  0  0
    0.3736   -0.3866   -1.9719 O   0  0  0  0  0  0  0  0  0  0  0  0
    2.0487    0.6547   -0.9134 N   0  0  0  0  0  0  0  0  0  0  0  0
    2.3245    1.2053   -0.1068 H   0  0  0  0  0  0  0  0  0  0  0  0
    3.0915    0.0651   -1.7452 C   0  0  0  0  0  0  0  0  0  0  0  0
    2.9066    0.2807   -2.8029 H   0  0  0  0  0  0  0  0  0  0  0  0
    4.0685    0.4778   -1.4760 H   0  0  0  0  0  0  0  0  0  0  0  0
    3.1234   -1.0208   -1.6068 H   0  0  0  0  0  0  0  0  0  0  0  0
  1  2  1  0  0  0  0
  2  3  1  0  0  0  0
  2  4  1  0  0  0  0
  2  5  1  0  0  0  0
  5  6  2  0  0  0  0
  5  7  1  0  0  0  0
  7  8  1  0  0  0  0
  7  9  1  0  0  0  0
  9 10  1  0  0  0  0
  9 11  1  0  0  0  0
  9 25  1  0  0  0  0
 11 12  1  0  0  0  0
 11 13  1  0  0  0  0
 11 14  1  0  0  0  0
 14 15  1  0  0  0  0
 14 23  2  0  0  0  0
 15 16  1  0  0  0  0
 15 17  2  0  0  0  0
 17 18  1  0  0  0  0
 17 19  1  0  0  0  0
 19 20  1  0  0  0  0
 19 21  2  0  0  0  0
 21 22  1  0  0  0  0
 21 23  1  0  0  0  0
 23 24  1  0  0  0  0
 25 26  2  0  0  0  0
 25 27  1  0  0  0  0
 27 28  1  0  0  0  0
 27 29  1  0  0  0  0
 29 30  1  0  0  0  0
 29 31  1  0  0  0  0
 29 32  1  0  0  0  0
M  END
$$$$

  -OEChem-01062216093D

 32 32  0     1  0  0  0  0  0999 V2000
   -3.2628   -2.5772    0.7149 H   0  0  0  0  0  0  0  0  0  0  0  0
   -3.2002   -1.6485    0.1409 C   0  0  0  0  0  0  0  0  0  0  0  0
   -4.0378   -1.0047    0.4198 H   0  0  0  0  0  0  0  0  0  0  0  0
   -3.2695   -1.8873   -0.9233 H   0  0  0  0  0  0  0  0  0  0  0  0
   -1.8879   -0.9431    0.4270 C   0  0  0  0  0  0  0  0  0  0  0  0
   -1.0878   -1.4604    1.1900 O   0  0  0  0  0  0  0  0  0  0  0  0
   -1.6231    0.2578   -0.2035 N   0  0  0  0  0  0  0  0  0  0  0  0
   -2.2807    0.5206   -0.9315 H   0  0  0  0  0  0  0  0  0  0  0  0
   -0.3565    1.0178   -0.1460 C   0  0  1  0  0  0  0  0  0  0  0  0
   -0.5421    1.9807   -0.6308 H   0  0  0  0  0  0  0  0  0  0  0  0
    0.1194    1.3453    1.2913 C   0  0  0  0  0  0  0  0  0  0  0  0
    0.2406    0.4428    1.8950 H   0  0  0  0  0  0  0  0  0  0  0  0
    1.1010    1.8262    1.2523 H   0  0  0  0  0  0  0  0  0  0  0  0
   -0.8294    2.3111    1.9586 C   0  0  0  0  0  0  0  0  0  0  0  0
   -0.7513    3.6885    1.7017 C   0  0  0  0  0  0  0  0  0  0  0  0
   -0.0004    4.0751    1.0195 H   0  0  0  0  0  0  0  0  0  0  0  0
   -1.6384    4.5763    2.3203 C   0  0  0  0  0  0  0  0  0  0  0  0
   -1.5710    5.6410    2.1172 H   0  0  0  0  0  0  0  0  0  0  0  0
   -2.6112    4.0934    3.2010 C   0  0  0  0  0  0  0  0  0  0  0  0
   -3.2987    4.7822    3.6831 H   0  0  0  0  0  0  0  0  0  0  0  0
   -2.6967    2.7224    3.4616 C   0  0  0  0  0  0  0  0  0  0  0  0
   -3.4507    2.3443    4.1456 H   0  0  0  0  0  0  0  0  0  0  0  0
   -1.8089    1.8360    2.8426 C   0  0  0  0  0  0  0  0  0  0  0  0
   -1.8803    0.7712    3.0486 H   0  0  0  0  0  0  0  0  0  0  0  0
    0.7240    0.3385   -1.0238 C   0  0  0  0  0  0  0  0  0  0  0  0
    0.3977   -0.1685   -2.0915 O   0  0  0  0  0  0  0  0  0  0  0  0
    2.0732    0.4186   -0.7214 N   0  0  0  0  0  0  0  0  0  0  0  0
    2.3175    0.7438    0.2086 H   0  0  0  0  0  0  0  0  0  0  0  0
    3.1069   -0.2209   -1.5268 C   0  0  0  0  0  0  0  0  0  0  0  0
    3.0782    0.1529   -2.5557 H   0  0  0  0  0  0  0  0  0  0  0  0
    4.0961   -0.0070   -1.1113 H   0  0  0  0  0  0  0  0  0  0  0  0
    2.9635   -1.3065   -1.5418 H   0  0  0  0  0  0  0  0  0  0  0  0
  1  2  1  0  0  0  0
  2  3  1  0  0  0  0
  2  4  1  0  0  0  0
  2  5  1  0  0  0  0
  5  6  2  0  0  0  0
  5  7  1  0  0  0  0
  7  8  1  0  0  0  0
  7  9  1  0  0  0  0
  9 10  1  0  0  0  0
  9 11  1  0  0  0  0
  9 25  1  0  0  0  0
 11 12  1  0  0  0  0
 11 13  1  0  0  0  0
 11 14  1  0  0  0  0
 14 15  1  0  0  0  0
 14 23  2  0  0  0  0
 15 16  1  0  0  0  0
 15 17  2  0  0  0  0
 17 18  1  0  0  0  0
 17 19  1  0  0  0  0
 19 20  1  0  0  0  0
 19 21  2  0  0  0  0
 21 22  1  0  0  0  0
 21 23  1  0  0  0  0
 23 24  1  0  0  0  0
 25 26  2  0  0  0  0
 25 27  1  0  0  0  0
 27 28  1  0  0  0  0
 27 29  1  0  0  0  0
 29 30  1  0  0  0  0
 29 31  1  0  0  0  0
 29 32  1  0  0  0  0
M  END
$$$$

  -OEChem-01062216093D

 32 32  0     1  0  0  0  0  0999 V2000
   -3.2539   -2.5628    0.7301 H   0  0  0  0  0  0  0  0  0  0  0  0
   -3.1949   -1.6311    0.1606 C   0  0  0  0  0  0  0  0  0  0  0  0
   -4.0191   -0.9807    0.4629 H   0  0  0  0  0  0  0  0  0  0  0  0
   -3.2916   -1.8624   -0.9030 H   0  0  0  0  0  0  0  0  0  0  0  0
   -1.8691   -0.9414    0.4203 C   0  0  0  0  0  0  0  0  0  0  0  0
   -1.0492   -1.4756    1.1504 O   0  0  0  0  0  0  0  0  0  0  0  0
   -1.6053    0.2619   -0.2053 N   0  0  0  0  0  0  0  0  0  0  0  0
   -2.2845    0.5572   -0.9004 H   0  0  0  0  0  0  0  0  0  0  0  0
   -0.3424    1.0242   -0.1369 C   0  0  1  0  0  0  0  0  0  0  0  0
   -0.5248    1.9876   -0.6221 H   0  0  0  0  0  0  0  0  0  0  0  0
    0.1242    1.3511    1.3027 C   0  0  0  0  0  0  0  0  0  0  0  0
    0.2395    0.4485    1.9075 H   0  0  0  0  0  0  0  0  0  0  0  0
    1.1072    1.8305    1.2657 H   0  0  0  0  0  0  0  0  0  0  0  0
   -0.8316    2.3142    1.9639 C   0  0  0  0  0  0  0  0  0  0  0  0
   -0.7551    3.6918    1.7077 C   0  0  0  0  0  0  0  0  0  0  0  0
    0.0026    4.0808    1.0343 H   0  0  0  0  0  0  0  0  0  0  0  0
   -1.6524    4.5764    2.3159 C   0  0  0  0  0  0  0  0  0  0  0  0
   -1.5869    5.6413    2.1133 H   0  0  0  0  0  0  0  0  0  0  0  0
   -2.6336    4.0901    3.1853 C   0  0  0  0  0  0  0  0  0  0  0  0
   -3.3300    4.7764    3.6582 H   0  0  0  0  0  0  0  0  0  0  0  0
   -2.7166    2.7190    3.4463 C   0  0  0  0  0  0  0  0  0  0  0  0
   -3.4773    2.3385    4.1216 H   0  0  0  0  0  0  0  0  0  0  0  0
   -1.8187    1.8358    2.8377 C   0  0  0  0  0  0  0  0  0  0  0  0
   -1.8886    0.7710    3.0432 H   0  0  0  0  0  0  0  0  0  0  0  0
    0.7382    0.3450   -1.0103 C   0  0  0  0  0  0  0  0  0  0  0  0
    0.4663    0.0534   -2.1693 O   0  0  0  0  0  0  0  0  0  0  0  0
    2.0345    0.1543   -0.5633 N   0  0  0  0  0  0  0  0  0  0  0  0
    2.1887    0.2525    0.4358 H   0  0  0  0  0  0  0  0  0  0  0  0
    3.0502   -0.5282   -1.3559 C   0  0  0  0  0  0  0  0  0  0  0  0
    3.1980   -0.0165   -2.3127 H   0  0  0  0  0  0  0  0  0  0  0  0
    4.0048   -0.5377   -0.8211 H   0  0  0  0  0  0  0  0  0  0  0  0
    2.7508   -1.5630   -1.5519 H   0  0  0  0  0  0  0  0  0  0  0  0
  1  2  1  0  0  0  0
  2  3  1  0  0  0  0
  2  4  1  0  0  0  0
  2  5  1  0  0  0  0
  5  6  2  0  0  0  0
  5  7  1  0  0  0  0
  7  8  1  0  0  0  0
  7  9  1  0  0  0  0
  9 10  1  0  0  0  0
  9 11  1  0  0  0  0
  9 25  1  0  0  0  0
 11 12  1  0  0  0  0
 11 13  1  0  0  0  0
 11 14  1  0  0  0  0
 14 15  1  0  0  0  0
 14 23  2  0  0  0  0
 15 16  1  0  0  0  0
 15 17  2  0  0  0  0
 17 18  1  0  0  0  0
 17 19  1  0  0  0  0
 19 20  1  0  0  0  0
 19 21  2  0  0  0  0
 21 22  1  0  0  0  0
 21 23  1  0  0  0  0
 23 24  1  0  0  0  0
 25 26  2  0  0  0  0
 25 27  1  0  0  0  0
 27 28  1  0  0  0  0
 27 29  1  0  0  0  0
 29 30  1  0  0  0  0
 29 31  1  0  0  0  0
 29 32  1  0  0  0  0
M  END
$$$$

  -OEChem-01062216093D

 32 32  0     1  0  0  0  0  0999 V2000
   -3.2676   -2.5305    0.7724 H   0  0  0  0  0  0  0  0  0  0  0  0
   -3.2091   -1.6019    0.1976 C   0  0  0  0  0  0  0  0  0  0  0  0
   -4.0056   -0.9316    0.5295 H   0  0  0  0  0  0  0  0  0  0  0  0
   -3.3532   -1.8333   -0.8606 H   0  0  0  0  0  0  0  0  0  0  0  0
   -1.8582   -0.9427    0.4027 C   0  0  0  0  0  0  0  0  0  0  0  0
   -1.0174   -1.4967    1.0938 O   0  0  0  0  0  0  0  0  0  0  0  0
   -1.5919    0.2581   -0.2258 N   0  0  0  0  0  0  0  0  0  0  0  0
   -2.3029    0.5968   -0.8677 H   0  0  0  0  0  0  0  0  0  0  0  0
   -0.3319    1.0227   -0.1475 C   0  0  1  0  0  0  0  0  0  0  0  0
   -0.5111    1.9859   -0.6349 H   0  0  0  0  0  0  0  0  0  0  0  0
    0.1253    1.3486    1.2942 C   0  0  0  0  0  0  0  0  0  0  0  0
    0.2354    0.4453    1.8987 H   0  0  0  0  0  0  0  0  0  0  0  0
    1.1104    1.8250    1.2594 H   0  0  0  0  0  0  0  0  0  0  0  0
   -0.8344    2.3088    1.9534 C   0  0  0  0  0  0  0  0  0  0  0  0
   -0.7595    3.6873    1.7015 C   0  0  0  0  0  0  0  0  0  0  0  0
   -0.0004    4.0795    1.0313 H   0  0  0  0  0  0  0  0  0  0  0  0
   -1.6599    4.5685    2.3104 C   0  0  0  0  0  0  0  0  0  0  0  0
   -1.5946    5.6343    2.1121 H   0  0  0  0  0  0  0  0  0  0  0  0
   -2.6425    4.0779    3.1759 C   0  0  0  0  0  0  0  0  0  0  0  0
   -3.3404    4.7616    3.6505 H   0  0  0  0  0  0  0  0  0  0  0  0
   -2.7238    2.7058    3.4321 C   0  0  0  0  0  0  0  0  0  0  0  0
   -3.4844    2.3218    4.1052 H   0  0  0  0  0  0  0  0  0  0  0  0
   -1.8229    1.8263    2.8231 C   0  0  0  0  0  0  0  0  0  0  0  0
   -1.8908    0.7610    3.0262 H   0  0  0  0  0  0  0  0  0  0  0  0
    0.7585    0.3438   -1.0051 C   0  0  0  0  0  0  0  0  0  0  0  0
    0.5952    0.2652   -2.2168 O   0  0  0  0  0  0  0  0  0  0  0  0
    1.9417   -0.1142   -0.4527 N   0  0  0  0  0  0  0  0  0  0  0  0
    1.9495   -0.2190    0.5582 H   0  0  0  0  0  0  0  0  0  0  0  0
    2.9438   -0.8353   -1.2272 C   0  0  0  0  0  0  0  0  0  0  0  0
    3.2859   -0.2283   -2.0722 H   0  0  0  0  0  0  0  0  0  0  0  0
    3.8096   -1.0693   -0.6003 H   0  0  0  0  0  0  0  0  0  0  0  0
    2.5281   -1.7726   -1.6116 H   0  0  0  0  0  0  0  0  0  0  0  0
  1  2  1  0  0  0  0
  2  3  1  0  0  0  0
  2  4  1  0  0  0  0
  2  5  1  0  0  0  0
  5  6  2  0  0  0  0
  5  7  1  0  0  0  0
  7  8  1  0  0  0  0
  7  9  1  0  0  0  0
  9 10  1  0  0  0  0
  9 11  1  0  0  0  0
  9 25  1  0  0  0  0
 11 12  1  0  0  0  0
 11 13  1  0  0  0  0
 11 14  1  0  0  0  0
 14 15  1  0  0  0  0
 14 23  2  0  0  0  0
 15 16  1  0  0  0  0
 15 17  2  0  0  0  0
 17 18  1  0  0  0  0
 17 19  1  0  0  0  0
 19 20  1  0  0  0  0
 19 21  2  0  0  0  0
 21 22  1  0  0  0  0
 21 23  1  0  0  0  0
 23 24  1  0  0  0  0
 25 26  2  0  0  0  0
 25 27  1  0  0  0  0
 27 28  1  0  0  0  0
 27 29  1  0  0  0  0
 29 30  1  0  0  0  0
 29 31  1  0  0  0  0
 29 32  1  0  0  0  0
M  END
$$$$

  -OEChem-01062216093D

 32 32  0     1  0  0  0  0  0999 V2000
   -3.2883   -2.4751    0.8536 H   0  0  0  0  0  0  0  0  0  0  0  0
   -3.2255   -1.5665    0.2484 C   0  0  0  0  0  0  0  0  0  0  0  0
   -3.9859   -0.8613    0.5926 H   0  0  0  0  0  0  0  0  0  0  0  0
   -3.4215   -1.8237   -0.7953 H   0  0  0  0  0  0  0  0  0  0  0  0
   -1.8474   -0.9462    0.3783 C   0  0  0  0  0  0  0  0  0  0  0  0
   -0.9792   -1.5288    1.0106 O   0  0  0  0  0  0  0  0  0  0  0  0
   -1.5820    0.2539   -0.2517 N   0  0  0  0  0  0  0  0  0  0  0  0
   -2.3319    0.6510   -0.8104 H   0  0  0  0  0  0  0  0  0  0  0  0
   -0.3222    1.0154   -0.1592 C   0  0  1  0  0  0  0  0  0  0  0  0
   -0.4958    1.9811   -0.6444 H   0  0  0  0  0  0  0  0  0  0  0  0
    0.1250    1.3330    1.2866 C   0  0  0  0  0  0  0  0  0  0  0  0
    0.2251    0.4267    1.8885 H   0  0  0  0  0  0  0  0  0  0  0  0
    1.1146    1.8009    1.2589 H   0  0  0  0  0  0  0  0  0  0  0  0
   -0.8374    2.2919    1.9439 C   0  0  0  0  0  0  0  0  0  0  0  0
   -0.7545    3.6705    1.6972 C   0  0  0  0  0  0  0  0  0  0  0  0
    0.0112    4.0600    1.0328 H   0  0  0  0  0  0  0  0  0  0  0  0
   -1.6544    4.5540    2.3030 C   0  0  0  0  0  0  0  0  0  0  0  0
   -1.5828    5.6200    2.1083 H   0  0  0  0  0  0  0  0  0  0  0  0
   -2.6457    4.0653    3.1595 C   0  0  0  0  0  0  0  0  0  0  0  0
   -3.3439    4.7509    3.6306 H   0  0  0  0  0  0  0  0  0  0  0  0
   -2.7358    2.6927    3.4104 C   0  0  0  0  0  0  0  0  0  0  0  0
   -3.5038    2.3107    4.0766 H   0  0  0  0  0  0  0  0  0  0  0  0
   -1.8350    1.8106    2.8044 C   0  0  0  0  0  0  0  0  0  0  0  0
   -1.9107    0.7452    3.0036 H   0  0  0  0  0  0  0  0  0  0  0  0
    0.7771    0.3374   -1.0022 C   0  0  0  0  0  0  0  0  0  0  0  0
    0.7752    0.4867   -2.2178 O   0  0  0  0  0  0  0  0  0  0  0  0
    1.7935   -0.3843   -0.4033 N   0  0  0  0  0  0  0  0  0  0  0  0
    1.6029   -0.6900    0.5487 H   0  0  0  0  0  0  0  0  0  0  0  0
    2.7891   -1.1206   -1.1716 C   0  0  0  0  0  0  0  0  0  0  0  0
    3.2957   -0.4576   -1.8810 H   0  0  0  0  0  0  0  0  0  0  0  0
    3.5432   -1.5457   -0.5024 H   0  0  0  0  0  0  0  0  0  0  0  0
    2.3157   -1.9363   -1.7278 H   0  0  0  0  0  0  0  0  0  0  0  0
  1  2  1  0  0  0  0
  2  3  1  0  0  0  0
  2  4  1  0  0  0  0
  2  5  1  0  0  0  0
  5  6  2  0  0  0  0
  5  7  1  0  0  0  0
  7  8  1  0  0  0  0
  7  9  1  0  0  0  0
  9 10  1  0  0  0  0
  9 11  1  0  0  0  0
  9 25  1  0  0  0  0
 11 12  1  0  0  0  0
 11 13  1  0  0  0  0
 11 14  1  0  0  0  0
 14 15  1  0  0  0  0
 14 23  2  0  0  0  0
 15 16  1  0  0  0  0
 15 17  2  0  0  0  0
 17 18  1  0  0  0  0
 17 19  1  0  0  0  0
 19 20  1  0  0  0  0
 19 21  2  0  0  0  0
 21 22  1  0  0  0  0
 21 23  1  0  0  0  0
 23 24  1  0  0  0  0
 25 26  2  0  0  0  0
 25 27  1  0  0  0  0
 27 28  1  0  0  0  0
 27 29  1  0  0  0  0
 29 30  1  0  0  0  0
 29 31  1  0  0  0  0
 29 32  1  0  0  0  0
M  END
$$$$

  -OEChem-01062216093D

 32 32  0     1  0  0  0  0  0999 V2000
   -3.3025   -2.4620    0.8787 H   0  0  0  0  0  0  0  0  0  0  0  0
   -3.2457   -1.5467    0.2828 C   0  0  0  0  0  0  0  0  0  0  0  0
   -3.9815   -0.8337    0.6628 H   0  0  0  0  0  0  0  0  0  0  0  0
   -3.4837   -1.7873   -0.7562 H   0  0  0  0  0  0  0  0  0  0  0  0
   -1.8532   -0.9517    0.3685 C   0  0  0  0  0  0  0  0  0  0  0  0
   -0.9713   -1.5562    0.9613 O   0  0  0  0  0  0  0  0  0  0  0  0
   -1.5850    0.2450   -0.2673 N   0  0  0  0  0  0  0  0  0  0  0  0
   -2.3614    0.6855   -0.7527 H   0  0  0  0  0  0  0  0  0  0  0  0
   -0.3234    1.0039   -0.1706 C   0  0  1  0  0  0  0  0  0  0  0  0
   -0.4943    1.9700   -0.6568 H   0  0  0  0  0  0  0  0  0  0  0  0
    0.1260    1.3173    1.2745 C   0  0  0  0  0  0  0  0  0  0  0  0
    0.2216    0.4085    1.8736 H   0  0  0  0  0  0  0  0  0  0  0  0
    1.1188    1.7789    1.2463 H   0  0  0  0  0  0  0  0  0  0  0  0
   -0.8346    2.2773    1.9335 C   0  0  0  0  0  0  0  0  0  0  0  0
   -0.7475    3.6556    1.6869 C   0  0  0  0  0  0  0  0  0  0  0  0
    0.0209    4.0426    1.0240 H   0  0  0  0  0  0  0  0  0  0  0  0
   -1.6478    4.5419    2.2884 C   0  0  0  0  0  0  0  0  0  0  0  0
   -1.5744    5.6075    2.0907 H   0  0  0  0  0  0  0  0  0  0  0  0
   -2.6410    4.0564    3.1446 C   0  0  0  0  0  0  0  0  0  0  0  0
   -3.3391    4.7444    3.6125 H   0  0  0  0  0  0  0  0  0  0  0  0
   -2.7320    2.6848    3.3998 C   0  0  0  0  0  0  0  0  0  0  0  0
   -3.4998    2.3064    4.0682 H   0  0  0  0  0  0  0  0  0  0  0  0
   -1.8317    1.7999    2.7969 C   0  0  0  0  0  0  0  0  0  0  0  0
   -1.9067    0.7359    3.0027 H   0  0  0  0  0  0  0  0  0  0  0  0
    0.7837    0.3255   -1.0006 C   0  0  0  0  0  0  0  0  0  0  0  0
    0.9750    0.6768   -2.1580 O   0  0  0  0  0  0  0  0  0  0  0  0
    1.5987   -0.6313   -0.4256 N   0  0  0  0  0  0  0  0  0  0  0  0
    1.2159   -1.0642    0.4159 H   0  0  0  0  0  0  0  0  0  0  0  0
    2.5923   -1.3762   -1.1878 C   0  0  0  0  0  0  0  0  0  0  0  0
    3.2957   -0.6924   -1.6747 H   0  0  0  0  0  0  0  0  0  0  0  0
    3.1595   -2.0357   -0.5240 H   0  0  0  0  0  0  0  0  0  0  0  0
    2.1060   -1.9876   -1.9550 H   0  0  0  0  0  0  0  0  0  0  0  0
  1  2  1  0  0  0  0
  2  3  1  0  0  0  0
  2  4  1  0  0  0  0
  2  5  1  0  0  0  0
  5  6  2  0  0  0  0
  5  7  1  0  0  0  0
  7  8  1  0  0  0  0
  7  9  1  0  0  0  0
  9 10  1  0  0  0  0
  9 11  1  0  0  0  0
  9 25  1  0  0  0  0
 11 12  1  0  0  0  0
 11 13  1  0  0  0  0
 11 14  1  0  0  0  0
 14 15  1  0  0  0  0
 14 23  2  0  0  0  0
 15 16  1  0  0  0  0
 15 17  2  0  0  0  0
 17 18  1  0  0  0  0
 17 19  1  0  0  0  0
 19 20  1  0  0  0  0
 19 21  2  0  0  0  0
 21 22  1  0  0  0  0
 21 23  1  0  0  0  0
 23 24  1  0  0  0  0
 25 26  2  0  0  0  0
 25 27  1  0  0  0  0
 27 28  1  0  0  0  0
 27 29  1  0  0  0  0
 29 30  1  0  0  0  0
 29 31  1  0  0  0  0
 29 32  1  0  0  0  0
M  END
$$$$

  -OEChem-01062216093D

 32 32  0     1  0  0  0  0  0999 V2000
   -3.3633   -2.4297    0.9064 H   0  0  0  0  0  0  0  0  0  0  0  0
   -3.2963   -1.5082    0.3211 C   0  0  0  0  0  0  0  0  0  0  0  0
   -3.9972   -0.7781    0.7334 H   0  0  0  0  0  0  0  0  0  0  0  0
   -3.5740   -1.7266   -0.7130 H   0  0  0  0  0  0  0  0  0  0  0  0
   -1.8846   -0.9562    0.3714 C   0  0  0  0  0  0  0  0  0  0  0  0
   -1.0109   -1.5832    0.9524 O   0  0  0  0  0  0  0  0  0  0  0  0
   -1.5980    0.2295   -0.2777 N   0  0  0  0  0  0  0  0  0  0  0  0
   -2.3811    0.6899   -0.7332 H   0  0  0  0  0  0  0  0  0  0  0  0
   -0.3319    0.9857   -0.1915 C   0  0  1  0  0  0  0  0  0  0  0  0
   -0.5026    1.9506   -0.6803 H   0  0  0  0  0  0  0  0  0  0  0  0
    0.1222    1.2953    1.2512 C   0  0  0  0  0  0  0  0  0  0  0  0
    0.2196    0.3838    1.8463 H   0  0  0  0  0  0  0  0  0  0  0  0
    1.1160    1.7544    1.2203 H   0  0  0  0  0  0  0  0  0  0  0  0
   -0.8337    2.2567    1.9151 C   0  0  0  0  0  0  0  0  0  0  0  0
   -0.7440    3.6351    1.6708 C   0  0  0  0  0  0  0  0  0  0  0  0
    0.0224    4.0208    1.0048 H   0  0  0  0  0  0  0  0  0  0  0  0
   -1.6386    4.5224    2.2789 C   0  0  0  0  0  0  0  0  0  0  0  0
   -1.5620    5.5882    2.0843 H   0  0  0  0  0  0  0  0  0  0  0  0
   -2.6299    4.0378    3.1382 C   0  0  0  0  0  0  0  0  0  0  0  0
   -3.3232    4.7268    3.6120 H   0  0  0  0  0  0  0  0  0  0  0  0
   -2.7239    2.6658    3.3905 C   0  0  0  0  0  0  0  0  0  0  0  0
   -3.4892    2.2876    4.0617 H   0  0  0  0  0  0  0  0  0  0  0  0
   -1.8283    1.7800    2.7818 C   0  0  0  0  0  0  0  0  0  0  0  0
   -1.9045    0.7156    2.9855 H   0  0  0  0  0  0  0  0  0  0  0  0
    0.7900    0.3091   -1.0025 C   0  0  0  0  0  0  0  0  0  0  0  0
    1.1724    0.8135   -2.0503 O   0  0  0  0  0  0  0  0  0  0  0  0
    1.4010   -0.8337   -0.5240 N   0  0  0  0  0  0  0  0  0  0  0  0
    0.8962   -1.3124    0.2263 H   0  0  0  0  0  0  0  0  0  0  0  0
    2.3947   -1.5806   -1.2829 C   0  0  0  0  0  0  0  0  0  0  0  0
    3.2450   -0.9391   -1.5370 H   0  0  0  0  0  0  0  0  0  0  0  0
    2.7648   -2.4234   -0.6914 H   0  0  0  0  0  0  0  0  0  0  0  0
    1.9572   -1.9690   -2.2084 H   0  0  0  0  0  0  0  0  0  0  0  0
  1  2  1  0  0  0  0
  2  3  1  0  0  0  0
  2  4  1  0  0  0  0
  2  5  1  0  0  0  0
  5  6  2  0  0  0  0
  5  7  1  0  0  0  0
  7  8  1  0  0  0  0
  7  9  1  0  0  0  0
  9 10  1  0  0  0  0
  9 11  1  0  0  0  0
  9 25  1  0  0  0  0
 11 12  1  0  0  0  0
 11 13  1  0  0  0  0
 11 14  1  0  0  0  0
 14 15  1  0  0  0  0
 14 23  2  0  0  0  0
 15 16  1  0  0  0  0
 15 17  2  0  0  0  0
 17 18  1  0  0  0  0
 17 19  1  0  0  0  0
 19 20  1  0  0  0  0
 19 21  2  0  0  0  0
 21 22  1  0  0  0  0
 21 23  1  0  0  0  0
 23 24  1  0  0  0  0
 25 26  2  0  0  0  0
 25 27  1  0  0  0  0
 27 28  1  0  0  0  0
 27 29  1  0  0  0  0
 29 30  1  0  0  0  0
 29 31  1  0  0  0  0
 29 32  1  0  0  0  0
M  END
$$$$

  -OEChem-01062216093D

 32 32  0     1  0  0  0  0  0999 V2000
   -3.4500   -2.3872    0.9467 H   0  0  0  0  0  0  0  0  0  0  0  0
   -3.3655   -1.4736    0.3513 C   0  0  0  0  0  0  0  0  0  0  0  0
   -4.0388   -0.7200    0.7666 H   0  0  0  0  0  0  0  0  0  0  0  0
   -3.6653   -1.6940   -0.6761 H   0  0  0  0  0  0  0  0  0  0  0  0
   -1.9379   -0.9618    0.3753 C   0  0  0  0  0  0  0  0  0  0  0  0
   -1.0752   -1.6117    0.9462 O   0  0  0  0  0  0  0  0  0  0  0  0
   -1.6302    0.2127   -0.2849 N   0  0  0  0  0  0  0  0  0  0  0  0
   -2.4162    0.6909   -0.7165 H   0  0  0  0  0  0  0  0  0  0  0  0
   -0.3559    0.9615   -0.2162 C   0  0  1  0  0  0  0  0  0  0  0  0
   -0.5269    1.9254   -0.7067 H   0  0  0  0  0  0  0  0  0  0  0  0
    0.1083    1.2664    1.2231 C   0  0  0  0  0  0  0  0  0  0  0  0
    0.2039    0.3518    1.8146 H   0  0  0  0  0  0  0  0  0  0  0  0
    1.1047    1.7200    1.1870 H   0  0  0  0  0  0  0  0  0  0  0  0
   -0.8364    2.2334    1.8946 C   0  0  0  0  0  0  0  0  0  0  0  0
   -0.7385    3.6114    1.6515 C   0  0  0  0  0  0  0  0  0  0  0  0
    0.0238    3.9921    0.9777 H   0  0  0  0  0  0  0  0  0  0  0  0
   -1.6190    4.5047    2.2717 C   0  0  0  0  0  0  0  0  0  0  0  0
   -1.5357    5.5702    2.0785 H   0  0  0  0  0  0  0  0  0  0  0  0
   -2.6035    4.0266    3.1423 C   0  0  0  0  0  0  0  0  0  0  0  0
   -3.2845    4.7203    3.6270 H   0  0  0  0  0  0  0  0  0  0  0  0
   -2.7068    2.6547    3.3915 C   0  0  0  0  0  0  0  0  0  0  0  0
   -3.4675    2.2812    4.0706 H   0  0  0  0  0  0  0  0  0  0  0  0
   -1.8257    1.7629    2.7707 C   0  0  0  0  0  0  0  0  0  0  0  0
   -1.9078    0.6989    2.9739 H   0  0  0  0  0  0  0  0  0  0  0  0
    0.7776    0.2887   -1.0162 C   0  0  0  0  0  0  0  0  0  0  0  0
    1.3345    0.9058   -1.9148 O   0  0  0  0  0  0  0  0  0  0  0  0
    1.1936   -0.9911   -0.7064 N   0  0  0  0  0  0  0  0  0  0  0  0
    0.6327   -1.4894   -0.0101 H   0  0  0  0  0  0  0  0  0  0  0  0
    2.2161   -1.7144   -1.4486 C   0  0  0  0  0  0  0  0  0  0  0  0
    3.1555   -1.1517   -1.4541 H   0  0  0  0  0  0  0  0  0  0  0  0
    2.4001   -2.6879   -0.9845 H   0  0  0  0  0  0  0  0  0  0  0  0
    1.8950   -1.8767   -2.4826 H   0  0  0  0  0  0  0  0  0  0  0  0
  1  2  1  0  0  0  0
  2  3  1  0  0  0  0
  2  4  1  0  0  0  0
  2  5  1  0  0  0  0
  5  6  2  0  0  0  0
  5  7  1  0  0  0  0
  7  8  1  0  0  0  0
  7  9  1  0  0  0  0
  9 10  1  0  0  0  0
  9 11  1  0  0  0  0
  9 25  1  0  0  0  0
 11 12  1  0  0  0  0
 11 13  1  0  0  0  0
 11 14  1  0  0  0  0
 14 15  1  0  0  0  0
 14 23  2  0  0  0  0
 15 16  1  0  0  0  0
 15 17  2  0  0  0  0
 17 18  1  0  0  0  0
 17 19  1  0  0  0  0
 19 20  1  0  0  0  0
 19 21  2  0  0  0  0
 21 22  1  0  0  0  0
 21 23  1  0  0  0  0
 23 24  1  0  0  0  0
 25 26  2  0  0  0  0
 25 27  1  0  0  0  0
 27 28  1  0  0  0  0
 27 29  1  0  0  0  0
 29 30  1  0  0  0  0
 29 31  1  0  0  0  0
 29 32  1  0  0  0  0
M  END
$$$$

  -OEChem-01062216093D

 32 32  0     1  0  0  0  0  0999 V2000
   -3.5234   -2.3459    1.0036 H   0  0  0  0  0  0  0  0  0  0  0  0
   -3.4368   -1.4324    0.4084 C   0  0  0  0  0  0  0  0  0  0  0  0
   -4.0678   -0.6605    0.8563 H   0  0  0  0  0  0  0  0  0  0  0  0
   -3.7883   -1.6382   -0.6057 H   0  0  0  0  0  0  0  0  0  0  0  0
   -1.9939   -0.9649    0.3724 C   0  0  0  0  0  0  0  0  0  0  0  0
   -1.1271   -1.6433    0.9017 O   0  0  0  0  0  0  0  0  0  0  0  0
   -1.6804    0.2031   -0.2962 N   0  0  0  0  0  0  0  0  0  0  0  0
   -2.4750    0.7072   -0.6799 H   0  0  0  0  0  0  0  0  0  0  0  0
   -0.3961    0.9397   -0.2538 C   0  0  1  0  0  0  0  0  0  0  0  0
   -0.5681    1.9054   -0.7403 H   0  0  0  0  0  0  0  0  0  0  0  0
    0.0913    1.2335    1.1797 C   0  0  0  0  0  0  0  0  0  0  0  0
    0.1861    0.3141    1.7635 H   0  0  0  0  0  0  0  0  0  0  0  0
    1.0916    1.6774    1.1329 H   0  0  0  0  0  0  0  0  0  0  0  0
   -0.8341    2.2066    1.8689 C   0  0  0  0  0  0  0  0  0  0  0  0
   -0.7264    3.5848    1.6309 C   0  0  0  0  0  0  0  0  0  0  0  0
    0.0335    3.9619    0.9522 H   0  0  0  0  0  0  0  0  0  0  0  0
   -1.5936    4.4828    2.2627 C   0  0  0  0  0  0  0  0  0  0  0  0
   -1.5023    5.5484    2.0735 H   0  0  0  0  0  0  0  0  0  0  0  0
   -2.5748    4.0090    3.1393 C   0  0  0  0  0  0  0  0  0  0  0  0
   -3.2468    4.7064    3.6309 H   0  0  0  0  0  0  0  0  0  0  0  0
   -2.6851    2.6372    3.3869 C   0  0  0  0  0  0  0  0  0  0  0  0
   -3.4418    2.2679    4.0728 H   0  0  0  0  0  0  0  0  0  0  0  0
   -1.8164    1.7409    2.7553 C   0  0  0  0  0  0  0  0  0  0  0  0
   -1.9026    0.6771    2.9574 H   0  0  0  0  0  0  0  0  0  0  0  0
    0.7335    0.2706   -1.0647 C   0  0  0  0  0  0  0  0  0  0  0  0
    1.4557    0.9619   -1.7711 O   0  0  0  0  0  0  0  0  0  0  0  0
    0.9634   -1.0888   -0.9849 N   0  0  0  0  0  0  0  0  0  0  0  0
    0.3896   -1.6045   -0.3127 H   0  0  0  0  0  0  0  0  0  0  0  0
    2.0634   -1.7686   -1.6542 C   0  0  0  0  0  0  0  0  0  0  0  0
    3.0242   -1.3691   -1.3137 H   0  0  0  0  0  0  0  0  0  0  0  0
    2.0346   -2.8396   -1.4322 H   0  0  0  0  0  0  0  0  0  0  0  0
    1.9906   -1.6381   -2.7389 H   0  0  0  0  0  0  0  0  0  0  0  0
  1  2  1  0  0  0  0
  2  3  1  0  0  0  0
  2  4  1  0  0  0  0
  2  5  1  0  0  0  0
  5  6  2  0  0  0  0
  5  7  1  0  0  0  0
  7  8  1  0  0  0  0
  7  9  1  0  0  0  0
  9 10  1  0  0  0  0
  9 11  1  0  0  0  0
  9 25  1  0  0  0  0
 11 12  1  0  0  0  0
 11 13  1  0  0  0  0
 11 14  1  0  0  0  0
 14 15  1  0  0  0  0
 14 23  2  0  0  0  0
 15 16  1  0  0  0  0
 15 17  2  0  0  0  0
 17 18  1  0  0  0  0
 17 19  1  0  0  0  0
 19 20  1  0  0  0  0
 19 21  2  0  0  0  0
 21 22  1  0  0  0  0
 21 23  1  0  0  0  0
 23 24  1  0  0  0  0
 25 26  2  0  0  0  0
 25 27  1  0  0  0  0
 27 28  1  0  0  0  0
 27 29  1  0  0  0  0
 29 30  1  0  0  0  0
 29 31  1  0  0  0  0
 29 32  1  0  0  0  0
M  END
$$$$

  -OEChem-01062216093D

 32 32  0     1  0  0  0  0  0999 V2000
   -3.5376   -2.3095    1.0610 H   0  0  0  0  0  0  0  0  0  0  0  0
   -3.4576   -1.4010    0.4576 C   0  0  0  0  0  0  0  0  0  0  0  0
   -4.0531   -0.6142    0.9274 H   0  0  0  0  0  0  0  0  0  0  0  0
   -3.8553   -1.6033   -0.5399 H   0  0  0  0  0  0  0  0  0  0  0  0
   -2.0086   -0.9640    0.3580 C   0  0  0  0  0  0  0  0  0  0  0  0
   -1.1301   -1.6724    0.8235 O   0  0  0  0  0  0  0  0  0  0  0  0
   -1.6996    0.2031   -0.3132 N   0  0  0  0  0  0  0  0  0  0  0  0
   -2.5028    0.7319   -0.6418 H   0  0  0  0  0  0  0  0  0  0  0  0
   -0.4109    0.9337   -0.2784 C   0  0  1  0  0  0  0  0  0  0  0  0
   -0.5810    1.9010   -0.7620 H   0  0  0  0  0  0  0  0  0  0  0  0
    0.0763    1.2179    1.1576 C   0  0  0  0  0  0  0  0  0  0  0  0
    0.1653    0.2943    1.7360 H   0  0  0  0  0  0  0  0  0  0  0  0
    1.0790    1.6573    1.1163 H   0  0  0  0  0  0  0  0  0  0  0  0
   -0.8453    2.1919    1.8511 C   0  0  0  0  0  0  0  0  0  0  0  0
   -0.7302    3.5703    1.6196 C   0  0  0  0  0  0  0  0  0  0  0  0
    0.0289    3.9456    0.9390 H   0  0  0  0  0  0  0  0  0  0  0  0
   -1.5885    4.4705    2.2601 C   0  0  0  0  0  0  0  0  0  0  0  0
   -1.4922    5.5365    2.0751 H   0  0  0  0  0  0  0  0  0  0  0  0
   -2.5663    3.9988    3.1416 C   0  0  0  0  0  0  0  0  0  0  0  0
   -3.2295    4.6983    3.6421 H   0  0  0  0  0  0  0  0  0  0  0  0
   -2.6833    2.6267    3.3839 C   0  0  0  0  0  0  0  0  0  0  0  0
   -3.4358    2.2594    4.0754 H   0  0  0  0  0  0  0  0  0  0  0  0
   -1.8251    1.7279    2.7415 C   0  0  0  0  0  0  0  0  0  0  0  0
   -1.9161    0.6640    2.9414 H   0  0  0  0  0  0  0  0  0  0  0  0
    0.7204    0.2703   -1.0942 C   0  0  0  0  0  0  0  0  0  0  0  0
    1.5804    0.9768   -1.6044 O   0  0  0  0  0  0  0  0  0  0  0  0
    0.7758   -1.0990   -1.2694 N   0  0  0  0  0  0  0  0  0  0  0  0
    0.1550   -1.6417   -0.6648 H   0  0  0  0  0  0  0  0  0  0  0  0
    1.8842   -1.7791   -1.9249 C   0  0  0  0  0  0  0  0  0  0  0  0
    2.8173   -1.6033   -1.3798 H   0  0  0  0  0  0  0  0  0  0  0  0
    1.6978   -2.8569   -1.9574 H   0  0  0  0  0  0  0  0  0  0  0  0
    2.0014   -1.4184   -2.9520 H   0  0  0  0  0  0  0  0  0  0  0  0
  1  2  1  0  0  0  0
  2  3  1  0  0  0  0
  2  4  1  0  0  0  0
  2  5  1  0  0  0  0
  5  6  2  0  0  0  0
  5  7  1  0  0  0  0
  7  8  1  0  0  0  0
  7  9  1  0  0  0  0
  9 10  1  0  0  0  0
  9 11  1  0  0  0  0
  9 25  1  0  0  0  0
 11 12  1  0  0  0  0
 11 13  1  0  0  0  0
 11 14  1  0  0  0  0
 14 15  1  0  0  0  0
 14 23  2  0  0  0  0
 15 16  1  0  0  0  0
 15 17  2  0  0  0  0
 17 18  1  0  0  0  0
 17 19  1  0  0  0  0
 19 20  1  0  0  0  0
 19 21  2  0  0  0  0
 21 22  1  0  0  0  0
 21 23  1  0  0  0  0
 23 24  1  0  0  0  0
 25 26  2  0  0  0  0
 25 27  1  0  0  0  0
 27 28  1  0  0  0  0
 27 29  1  0  0  0  0
 29 30  1  0  0  0  0
 29 31  1  0  0  0  0
 29 32  1  0  0  0  0
M  END
$$$$

  -OEChem-01062216093D

 32 32  0     1  0  0  0  0  0999 V2000
   -3.5143   -2.2742    1.1267 H   0  0  0  0  0  0  0  0  0  0  0  0
   -3.4495   -1.3711    0.5133 C   0  0  0  0  0  0  0  0  0  0  0  0
   -4.0078   -0.5714    1.0062 H   0  0  0  0  0  0  0  0  0  0  0  0
   -3.8997   -1.5735   -0.4616 H   0  0  0  0  0  0  0  0  0  0  0  0
   -2.0000   -0.9595    0.3393 C   0  0  0  0  0  0  0  0  0  0  0  0
   -1.1084   -1.6996    0.7211 O   0  0  0  0  0  0  0  0  0  0  0  0
   -1.7013    0.2104   -0.3302 N   0  0  0  0  0  0  0  0  0  0  0  0
   -2.5112    0.7649   -0.5943 H   0  0  0  0  0  0  0  0  0  0  0  0
   -0.4095    0.9359   -0.2913 C   0  0  1  0  0  0  0  0  0  0  0  0
   -0.5737    1.9064   -0.7696 H   0  0  0  0  0  0  0  0  0  0  0  0
    0.0700    1.2071    1.1511 C   0  0  0  0  0  0  0  0  0  0  0  0
    0.1497    0.2770    1.7208 H   0  0  0  0  0  0  0  0  0  0  0  0
    1.0751    1.6420    1.1228 H   0  0  0  0  0  0  0  0  0  0  0  0
   -0.8529    2.1797    1.8452 C   0  0  0  0  0  0  0  0  0  0  0  0
   -0.7298    3.5591    1.6234 C   0  0  0  0  0  0  0  0  0  0  0  0
    0.0365    3.9347    0.9511 H   0  0  0  0  0  0  0  0  0  0  0  0
   -1.5902    4.4596    2.2611 C   0  0  0  0  0  0  0  0  0  0  0  0
   -1.4887    5.5260    2.0818 H   0  0  0  0  0  0  0  0  0  0  0  0
   -2.5773    3.9871    3.1318 C   0  0  0  0  0  0  0  0  0  0  0  0
   -3.2429    4.6861    3.6298 H   0  0  0  0  0  0  0  0  0  0  0  0
   -2.7007    2.6142    3.3665 C   0  0  0  0  0  0  0  0  0  0  0  0
   -3.4604    2.2461    4.0498 H   0  0  0  0  0  0  0  0  0  0  0  0
   -1.8403    1.7154    2.7270 C   0  0  0  0  0  0  0  0  0  0  0  0
   -1.9351    0.6513    2.9227 H   0  0  0  0  0  0  0  0  0  0  0  0
    0.7224    0.2756   -1.1102 C   0  0  0  0  0  0  0  0  0  0  0  0
    1.6958    0.9461   -1.4309 O   0  0  0  0  0  0  0  0  0  0  0  0
    0.6232   -1.0298   -1.5524 N   0  0  0  0  0  0  0  0  0  0  0  0
   -0.0622   -1.5942   -1.0482 H   0  0  0  0  0  0  0  0  0  0  0  0
    1.7120   -1.7160   -2.2350 C   0  0  0  0  0  0  0  0  0  0  0  0
    2.5940   -1.7725   -1.5887 H   0  0  0  0  0  0  0  0  0  0  0  0
    1.4085   -2.7333   -2.4998 H   0  0  0  0  0  0  0  0  0  0  0  0
    1.9819   -1.1870   -3.1551 H   0  0  0  0  0  0  0  0  0  0  0  0
  1  2  1  0  0  0  0
  2  3  1  0  0  0  0
  2  4  1  0  0  0  0
  2  5  1  0  0  0  0
  5  6  2  0  0  0  0
  5  7  1  0  0  0  0
  7  8  1  0  0  0  0
  7  9  1  0  0  0  0
  9 10  1  0  0  0  0
  9 11  1  0  0  0  0
  9 25  1  0  0  0  0
 11 12  1  0  0  0  0
 11 13  1  0  0  0  0
 11 14  1  0  0  0  0
 14 15  1  0  0  0  0
 14 23  2  0  0  0  0
 15 16  1  0  0  0  0
 15 17  2  0  0  0  0
 17 18  1  0  0  0  0
 17 19  1  0  0  0  0
 19 20  1  0  0  0  0
 19 21  2  0  0  0  0
 21 22  1  0  0  0  0
 21 23  1  0  0  0  0
 23 24  1  0  0  0  0
 25 26  2  0  0  0  0
 25 27  1  0  0  0  0
 27 28  1  0  0  0  0
 27 29  1  0  0  0  0
 29 30  1  0  0  0  0
 29 31  1  0  0  0  0
 29 32  1  0  0  0  0
M  END
$$$$

  -OEChem-01062216093D

 32 32  0     1  0  0  0  0  0999 V2000
   -3.4644   -2.2746    1.1516 H   0  0  0  0  0  0  0  0  0  0  0  0
   -3.4180   -1.3564    0.5591 C   0  0  0  0  0  0  0  0  0  0  0  0
   -3.9424   -0.5640    1.0989 H   0  0  0  0  0  0  0  0  0  0  0  0
   -3.9168   -1.5279   -0.3978 H   0  0  0  0  0  0  0  0  0  0  0  0
   -1.9731   -0.9573    0.3272 C   0  0  0  0  0  0  0  0  0  0  0  0
   -1.0732   -1.7111    0.6567 O   0  0  0  0  0  0  0  0  0  0  0  0
   -1.6874    0.2172   -0.3394 N   0  0  0  0  0  0  0  0  0  0  0  0
   -2.5014    0.7870   -0.5536 H   0  0  0  0  0  0  0  0  0  0  0  0
   -0.3944    0.9407   -0.2927 C   0  0  1  0  0  0  0  0  0  0  0  0
   -0.5523    1.9136   -0.7679 H   0  0  0  0  0  0  0  0  0  0  0  0
    0.0707    1.2040    1.1572 C   0  0  0  0  0  0  0  0  0  0  0  0
    0.1432    0.2707    1.7227 H   0  0  0  0  0  0  0  0  0  0  0  0
    1.0758    1.6390    1.1457 H   0  0  0  0  0  0  0  0  0  0  0  0
   -0.8593    2.1746    1.8446 C   0  0  0  0  0  0  0  0  0  0  0  0
   -0.7316    3.5547    1.6296 C   0  0  0  0  0  0  0  0  0  0  0  0
    0.0445    3.9319    0.9694 H   0  0  0  0  0  0  0  0  0  0  0  0
   -1.5987    4.4535    2.2602 C   0  0  0  0  0  0  0  0  0  0  0  0
   -1.4928    5.5205    2.0872 H   0  0  0  0  0  0  0  0  0  0  0  0
   -2.5972    3.9788    3.1164 C   0  0  0  0  0  0  0  0  0  0  0  0
   -3.2672    4.6774    3.6090 H   0  0  0  0  0  0  0  0  0  0  0  0
   -2.7254    2.6052    3.3444 C   0  0  0  0  0  0  0  0  0  0  0  0
   -3.4932    2.2360    4.0179 H   0  0  0  0  0  0  0  0  0  0  0  0
   -1.8582    1.7078    2.7120 C   0  0  0  0  0  0  0  0  0  0  0  0
   -1.9563    0.6431    2.9027 H   0  0  0  0  0  0  0  0  0  0  0  0
    0.7342    0.2789   -1.1168 C   0  0  0  0  0  0  0  0  0  0  0  0
    1.8031    0.8617   -1.2519 O   0  0  0  0  0  0  0  0  0  0  0  0
    0.5109   -0.8903   -1.8192 N   0  0  0  0  0  0  0  0  0  0  0  0
   -0.2716   -1.4426   -1.4729 H   0  0  0  0  0  0  0  0  0  0  0  0
    1.5645   -1.5798   -2.5520 C   0  0  0  0  0  0  0  0  0  0  0  0
    2.3590   -1.9002   -1.8700 H   0  0  0  0  0  0  0  0  0  0  0  0
    1.1583   -2.4635   -3.0531 H   0  0  0  0  0  0  0  0  0  0  0  0
    1.9965   -0.9213   -3.3129 H   0  0  0  0  0  0  0  0  0  0  0  0
  1  2  1  0  0  0  0
  2  3  1  0  0  0  0
  2  4  1  0  0  0  0
  2  5  1  0  0  0  0
  5  6  2  0  0  0  0
  5  7  1  0  0  0  0
  7  8  1  0  0  0  0
  7  9  1  0  0  0  0
  9 10  1  0  0  0  0
  9 11  1  0  0  0  0
  9 25  1  0  0  0  0
 11 12  1  0  0  0  0
 11 13  1  0  0  0  0
 11 14  1  0  0  0  0
 14 15  1  0  0  0  0
 14 23  2  0  0  0  0
 15 16  1  0  0  0  0
 15 17  2  0  0  0  0
 17 18  1  0  0  0  0
 17 19  1  0  0  0  0
 19 20  1  0  0  0  0
 19 21  2  0  0  0  0
 21 22  1  0  0  0  0
 21 23  1  0  0  0  0
 23 24  1  0  0  0  0
 25 26  2  0  0  0  0
 25 27  1  0  0  0  0
 27 28  1  0  0  0  0
 27 29  1  0  0  0  0
 29 30  1  0  0  0  0
 29 31  1  0  0  0  0
 29 32  1  0  0  0  0
M  END
$$$$

  -OEChem-01062216093D

 32 32  0     1  0  0  0  0  0999 V2000
   -3.4222   -2.2821    1.1635 H   0  0  0  0  0  0  0  0  0  0  0  0
   -3.3823   -1.3747    0.5539 C   0  0  0  0  0  0  0  0  0  0  0  0
   -3.9208   -0.5785    1.0741 H   0  0  0  0  0  0  0  0  0  0  0  0
   -3.8711   -1.5706   -0.4035 H   0  0  0  0  0  0  0  0  0  0  0  0
   -1.9404   -0.9621    0.3258 C   0  0  0  0  0  0  0  0  0  0  0  0
   -1.0361   -1.7035    0.6685 O   0  0  0  0  0  0  0  0  0  0  0  0
   -1.6665    0.2191   -0.3355 N   0  0  0  0  0  0  0  0  0  0  0  0
   -2.4844    0.7895   -0.5325 H   0  0  0  0  0  0  0  0  0  0  0  0
   -0.3754    0.9452   -0.2832 C   0  0  1  0  0  0  0  0  0  0  0  0
   -0.5320    1.9186   -0.7579 H   0  0  0  0  0  0  0  0  0  0  0  0
    0.0797    1.2109    1.1716 C   0  0  0  0  0  0  0  0  0  0  0  0
    0.1527    0.2783    1.7383 H   0  0  0  0  0  0  0  0  0  0  0  0
    1.0826    1.6504    1.1696 H   0  0  0  0  0  0  0  0  0  0  0  0
   -0.8570    2.1800    1.8530 C   0  0  0  0  0  0  0  0  0  0  0  0
   -0.7316    3.5607    1.6393 C   0  0  0  0  0  0  0  0  0  0  0  0
    0.0496    3.9404    0.9865 H   0  0  0  0  0  0  0  0  0  0  0  0
   -1.6062    4.4569    2.2634 C   0  0  0  0  0  0  0  0  0  0  0  0
   -1.5011    5.5243    2.0926 H   0  0  0  0  0  0  0  0  0  0  0  0
   -2.6102    3.9793    3.1113 C   0  0  0  0  0  0  0  0  0  0  0  0
   -3.2857    4.6758    3.5995 H   0  0  0  0  0  0  0  0  0  0  0  0
   -2.7360    2.6054    3.3381 C   0  0  0  0  0  0  0  0  0  0  0  0
   -3.5082    2.2339    4.0051 H   0  0  0  0  0  0  0  0  0  0  0  0
   -1.8609    1.7106    2.7132 C   0  0  0  0  0  0  0  0  0  0  0  0
   -1.9569    0.6456    2.9037 H   0  0  0  0  0  0  0  0  0  0  0  0
    0.7442    0.2795   -1.1186 C   0  0  0  0  0  0  0  0  0  0  0  0
    1.8877    0.7163   -1.0735 O   0  0  0  0  0  0  0  0  0  0  0  0
    0.4376   -0.6892   -2.0565 N   0  0  0  0  0  0  0  0  0  0  0  0
   -0.4612   -1.1442   -1.9246 H   0  0  0  0  0  0  0  0  0  0  0  0
    1.4549   -1.3793   -2.8395 C   0  0  0  0  0  0  0  0  0  0  0  0
    2.1323   -1.9343   -2.1822 H   0  0  0  0  0  0  0  0  0  0  0  0
    0.9851   -2.0838   -3.5323 H   0  0  0  0  0  0  0  0  0  0  0  0
    2.0406   -0.6623   -3.4241 H   0  0  0  0  0  0  0  0  0  0  0  0
  1  2  1  0  0  0  0
  2  3  1  0  0  0  0
  2  4  1  0  0  0  0
  2  5  1  0  0  0  0
  5  6  2  0  0  0  0
  5  7  1  0  0  0  0
  7  8  1  0  0  0  0
  7  9  1  0  0  0  0
  9 10  1  0  0  0  0
  9 11  1  0  0  0  0
  9 25  1  0  0  0  0
 11 12  1  0  0  0  0
 11 13  1  0  0  0  0
 11 14  1  0  0  0  0
 14 15  1  0  0  0  0
 14 23  2  0  0  0  0
 15 16  1  0  0  0  0
 15 17  2  0  0  0  0
 17 18  1  0  0  0  0
 17 19  1  0  0  0  0
 19 20  1  0  0  0  0
 19 21  2  0  0  0  0
 21 22  1  0  0  0  0
 21 23  1  0  0  0  0
 23 24  1  0  0  0  0
 25 26  2  0  0  0  0
 25 27  1  0  0  0  0
 27 28  1  0  0  0  0
 27 29  1  0  0  0  0
 29 30  1  0  0  0  0
 29 31  1  0  0  0  0
 29 32  1  0  0  0  0
M  END
$$$$

  -OEChem-01062216093D

 32 32  0     1  0  0  0  0  0999 V2000
   -3.3865   -2.3161    1.1215 H   0  0  0  0  0  0  0  0  0  0  0  0
   -3.3460   -1.4025    0.5215 C   0  0  0  0  0  0  0  0  0  0  0  0
   -3.9064   -0.6192    1.0379 H   0  0  0  0  0  0  0  0  0  0  0  0
   -3.8118   -1.5967   -0.4477 H   0  0  0  0  0  0  0  0  0  0  0  0
   -1.9053   -0.9683    0.3273 C   0  0  0  0  0  0  0  0  0  0  0  0
   -1.0004   -1.6926    0.7022 O   0  0  0  0  0  0  0  0  0  0  0  0
   -1.6381    0.2199   -0.3254 N   0  0  0  0  0  0  0  0  0  0  0  0
   -2.4599    0.7854   -0.5200 H   0  0  0  0  0  0  0  0  0  0  0  0
   -0.3510    0.9512   -0.2664 C   0  0  1  0  0  0  0  0  0  0  0  0
   -0.5078    1.9242   -0.7408 H   0  0  0  0  0  0  0  0  0  0  0  0
    0.0974    1.2225    1.1902 C   0  0  0  0  0  0  0  0  0  0  0  0
    0.1720    0.2921    1.7602 H   0  0  0  0  0  0  0  0  0  0  0  0
    1.0979    1.6681    1.1926 H   0  0  0  0  0  0  0  0  0  0  0  0
   -0.8482    2.1894    1.8624 C   0  0  0  0  0  0  0  0  0  0  0  0
   -0.7305    3.5701    1.6456 C   0  0  0  0  0  0  0  0  0  0  0  0
    0.0521    3.9528    0.9967 H   0  0  0  0  0  0  0  0  0  0  0  0
   -1.6158    4.4623    2.2606 C   0  0  0  0  0  0  0  0  0  0  0  0
   -1.5180    5.5300    2.0870 H   0  0  0  0  0  0  0  0  0  0  0  0
   -2.6230    3.9802    3.1025 C   0  0  0  0  0  0  0  0  0  0  0  0
   -3.3076    4.6727    3.5836 H   0  0  0  0  0  0  0  0  0  0  0  0
   -2.7412    2.6061    3.3320 C   0  0  0  0  0  0  0  0  0  0  0  0
   -3.5160    2.2301    3.9936 H   0  0  0  0  0  0  0  0  0  0  0  0
   -1.8554    1.7158    2.7162 C   0  0  0  0  0  0  0  0  0  0  0  0
   -1.9455    0.6505    2.9081 H   0  0  0  0  0  0  0  0  0  0  0  0
    0.7569    0.2794   -1.1133 C   0  0  0  0  0  0  0  0  0  0  0  0
    1.9410    0.5159   -0.9073 O   0  0  0  0  0  0  0  0  0  0  0  0
    0.4123   -0.4375   -2.2450 N   0  0  0  0  0  0  0  0  0  0  0  0
   -0.5608   -0.7206   -2.3046 H   0  0  0  0  0  0  0  0  0  0  0  0
    1.3918   -1.1281   -3.0744 C   0  0  0  0  0  0  0  0  0  0  0  0
    1.9205   -1.8875   -2.4890 H   0  0  0  0  0  0  0  0  0  0  0  0
    0.8945   -1.6210   -3.9150 H   0  0  0  0  0  0  0  0  0  0  0  0
    2.1234   -0.4188   -3.4751 H   0  0  0  0  0  0  0  0  0  0  0  0
  1  2  1  0  0  0  0
  2  3  1  0  0  0  0
  2  4  1  0  0  0  0
  2  5  1  0  0  0  0
  5  6  2  0  0  0  0
  5  7  1  0  0  0  0
  7  8  1  0  0  0  0
  7  9  1  0  0  0  0
  9 10  1  0  0  0  0
  9 11  1  0  0  0  0
  9 25  1  0  0  0  0
 11 12  1  0  0  0  0
 11 13  1  0  0  0  0
 11 14  1  0  0  0  0
 14 15  1  0  0  0  0
 14 23  2  0  0  0  0
 15 16  1  0  0  0  0
 15 17  2  0  0  0  0
 17 18  1  0  0  0  0
 17 19  1  0  0  0  0
 19 20  1  0  0  0  0
 19 21  2  0  0  0  0
 21 22  1  0  0  0  0
 21 23  1  0  0  0  0
 23 24  1  0  0  0  0
 25 26  2  0  0  0  0
 25 27  1  0  0  0  0
 27 28  1  0  0  0  0
 27 29  1  0  0  0  0
 29 30  1  0  0  0  0
 29 31  1  0  0  0  0
 29 32  1  0  0  0  0
M  END
$$$$

  -OEChem-01062216093D

 32 32  0     1  0  0  0  0  0999 V2000
   -3.3767   -2.3275    1.1103 H   0  0  0  0  0  0  0  0  0  0  0  0
   -3.3328   -1.4170    0.5059 C   0  0  0  0  0  0  0  0  0  0  0  0
   -3.9037   -0.6334    1.0099 H   0  0  0  0  0  0  0  0  0  0  0  0
   -3.7843   -1.6188   -0.4683 H   0  0  0  0  0  0  0  0  0  0  0  0
   -1.8918   -0.9765    0.3287 C   0  0  0  0  0  0  0  0  0  0  0  0
   -0.9911   -1.6921    0.7286 O   0  0  0  0  0  0  0  0  0  0  0  0
   -1.6240    0.2122   -0.3237 N   0  0  0  0  0  0  0  0  0  0  0  0
   -2.4467    0.7739   -0.5243 H   0  0  0  0  0  0  0  0  0  0  0  0
   -0.3394    0.9454   -0.2599 C   0  0  1  0  0  0  0  0  0  0  0  0
   -0.4931    1.9178   -0.7367 H   0  0  0  0  0  0  0  0  0  0  0  0
    0.1034    1.2235    1.1972 C   0  0  0  0  0  0  0  0  0  0  0  0
    0.1803    0.2954    1.7708 H   0  0  0  0  0  0  0  0  0  0  0  0
    1.1025    1.6714    1.1985 H   0  0  0  0  0  0  0  0  0  0  0  0
   -0.8456    2.1918    1.8638 C   0  0  0  0  0  0  0  0  0  0  0  0
   -0.7303    3.5725    1.6434 C   0  0  0  0  0  0  0  0  0  0  0  0
    0.0533    3.9558    0.9962 H   0  0  0  0  0  0  0  0  0  0  0  0
   -1.6181    4.4648    2.2547 C   0  0  0  0  0  0  0  0  0  0  0  0
   -1.5205    5.5323    2.0797 H   0  0  0  0  0  0  0  0  0  0  0  0
   -2.6261    3.9834    3.0959 C   0  0  0  0  0  0  0  0  0  0  0  0
   -3.3121    4.6765    3.5742 H   0  0  0  0  0  0  0  0  0  0  0  0
   -2.7424    2.6097    3.3290 C   0  0  0  0  0  0  0  0  0  0  0  0
   -3.5171    2.2349    3.9914 H   0  0  0  0  0  0  0  0  0  0  0  0
   -1.8542    1.7191    2.7166 C   0  0  0  0  0  0  0  0  0  0  0  0
   -1.9427    0.6541    2.9109 H   0  0  0  0  0  0  0  0  0  0  0  0
    0.7632    0.2639   -1.1061 C   0  0  0  0  0  0  0  0  0  0  0  0
    1.9395    0.2843   -0.7654 O   0  0  0  0  0  0  0  0  0  0  0  0
    0.4543   -0.1783   -2.3801 N   0  0  0  0  0  0  0  0  0  0  0  0
   -0.5335   -0.2834   -2.5878 H   0  0  0  0  0  0  0  0  0  0  0  0
    1.4270   -0.8208   -3.2555 C   0  0  0  0  0  0  0  0  0  0  0  0
    1.7993   -1.7446   -2.8004 H   0  0  0  0  0  0  0  0  0  0  0  0
    0.9659   -1.0667   -4.2167 H   0  0  0  0  0  0  0  0  0  0  0  0
    2.2750   -0.1536   -3.4422 H   0  0  0  0  0  0  0  0  0  0  0  0
  1  2  1  0  0  0  0
  2  3  1  0  0  0  0
  2  4  1  0  0  0  0
  2  5  1  0  0  0  0
  5  6  2  0  0  0  0
  5  7  1  0  0  0  0
  7  8  1  0  0  0  0
  7  9  1  0  0  0  0
  9 10  1  0  0  0  0
  9 11  1  0  0  0  0
  9 25  1  0  0  0  0
 11 12  1  0  0  0  0
 11 13  1  0  0  0  0
 11 14  1  0  0  0  0
 14 15  1  0  0  0  0
 14 23  2  0  0  0  0
 15 16  1  0  0  0  0
 15 17  2  0  0  0  0
 17 18  1  0  0  0  0
 17 19  1  0  0  0  0
 19 20  1  0  0  0  0
 19 21  2  0  0  0  0
 21 22  1  0  0  0  0
 21 23  1  0  0  0  0
 23 24  1  0  0  0  0
 25 26  2  0  0  0  0
 25 27  1  0  0  0  0
 27 28  1  0  0  0  0
 27 29  1  0  0  0  0
 29 30  1  0  0  0  0
 29 31  1  0  0  0  0
 29 32  1  0  0  0  0
M  END
$$$$

  -OEChem-01062216093D

 32 32  0     1  0  0  0  0  0999 V2000
   -3.3815   -2.3532    1.0715 H   0  0  0  0  0  0  0  0  0  0  0  0
   -3.3324   -1.4345    0.4799 C   0  0  0  0  0  0  0  0  0  0  0  0
   -3.9174   -0.6610    0.9835 H   0  0  0  0  0  0  0  0  0  0  0  0
   -3.7638   -1.6268   -0.5054 H   0  0  0  0  0  0  0  0  0  0  0  0
   -1.8914   -0.9830    0.3358 C   0  0  0  0  0  0  0  0  0  0  0  0
   -0.9979   -1.6872    0.7699 O   0  0  0  0  0  0  0  0  0  0  0  0
   -1.6206    0.2056   -0.3160 N   0  0  0  0  0  0  0  0  0  0  0  0
   -2.4438    0.7567   -0.5409 H   0  0  0  0  0  0  0  0  0  0  0  0
   -0.3385    0.9419   -0.2557 C   0  0  1  0  0  0  0  0  0  0  0  0
   -0.4963    1.9139   -0.7315 H   0  0  0  0  0  0  0  0  0  0  0  0
    0.1106    1.2264    1.1978 C   0  0  0  0  0  0  0  0  0  0  0  0
    0.1922    0.3011    1.7751 H   0  0  0  0  0  0  0  0  0  0  0  0
    1.1094    1.6752    1.1895 H   0  0  0  0  0  0  0  0  0  0  0  0
   -0.8371    2.1945    1.8651 C   0  0  0  0  0  0  0  0  0  0  0  0
   -0.7255    3.5744    1.6389 C   0  0  0  0  0  0  0  0  0  0  0  0
    0.0571    3.9569    0.9899 H   0  0  0  0  0  0  0  0  0  0  0  0
   -1.6147    4.4668    2.2478 C   0  0  0  0  0  0  0  0  0  0  0  0
   -1.5202    5.5337    2.0685 H   0  0  0  0  0  0  0  0  0  0  0  0
   -2.6202    3.9857    3.0923 C   0  0  0  0  0  0  0  0  0  0  0  0
   -3.3078    4.6785    3.5688 H   0  0  0  0  0  0  0  0  0  0  0  0
   -2.7328    2.6124    3.3306 C   0  0  0  0  0  0  0  0  0  0  0  0
   -3.5060    2.2370    3.9947 H   0  0  0  0  0  0  0  0  0  0  0  0
   -1.8430    1.7220    2.7206 C   0  0  0  0  0  0  0  0  0  0  0  0
   -1.9286    0.6571    2.9175 H   0  0  0  0  0  0  0  0  0  0  0  0
    0.7601    0.2579   -1.1044 C   0  0  0  0  0  0  0  0  0  0  0  0
    1.8831    0.0476   -0.6636 O   0  0  0  0  0  0  0  0  0  0  0  0
    0.5488    0.0985   -2.4627 N   0  0  0  0  0  0  0  0  0  0  0  0
   -0.4060    0.2051   -2.7892 H   0  0  0  0  0  0  0  0  0  0  0  0
    1.5328   -0.5027   -3.3548 C   0  0  0  0  0  0  0  0  0  0  0  0
    1.7509   -1.5309   -3.0469 H   0  0  0  0  0  0  0  0  0  0  0  0
    1.1525   -0.5200   -4.3805 H   0  0  0  0  0  0  0  0  0  0  0  0
    2.4640    0.0735   -3.3424 H   0  0  0  0  0  0  0  0  0  0  0  0
  1  2  1  0  0  0  0
  2  3  1  0  0  0  0
  2  4  1  0  0  0  0
  2  5  1  0  0  0  0
  5  6  2  0  0  0  0
  5  7  1  0  0  0  0
  7  8  1  0  0  0  0
  7  9  1  0  0  0  0
  9 10  1  0  0  0  0
  9 11  1  0  0  0  0
  9 25  1  0  0  0  0
 11 12  1  0  0  0  0
 11 13  1  0  0  0  0
 11 14  1  0  0  0  0
 14 15  1  0  0  0  0
 14 23  2  0  0  0  0
 15 16  1  0  0  0  0
 15 17  2  0  0  0  0
 17 18  1  0  0  0  0
 17 19  1  0  0  0  0
 19 20  1  0  0  0  0
 19 21  2  0  0  0  0
 21 22  1  0  0  0  0
 21 23  1  0  0  0  0
 23 24  1  0  0  0  0
 25 26  2  0  0  0  0
 25 27  1  0  0  0  0
 27 28  1  0  0  0  0
 27 29  1  0  0  0  0
 29 30  1  0  0  0  0
 29 31  1  0  0  0  0
 29 32  1  0  0  0  0
M  END
$$$$

  -OEChem-01062216093D

 32 32  0     1  0  0  0  0  0999 V2000
   -3.4097   -2.3735    1.0326 H   0  0  0  0  0  0  0  0  0  0  0  0
   -3.3468   -1.4570    0.4389 C   0  0  0  0  0  0  0  0  0  0  0  0
   -3.9629   -0.6891    0.9129 H   0  0  0  0  0  0  0  0  0  0  0  0
   -3.7335   -1.6592   -0.5629 H   0  0  0  0  0  0  0  0  0  0  0  0
   -1.9065   -0.9876    0.3531 C   0  0  0  0  0  0  0  0  0  0  0  0
   -1.0277   -1.6703    0.8462 O   0  0  0  0  0  0  0  0  0  0  0  0
   -1.6275    0.1964   -0.3039 N   0  0  0  0  0  0  0  0  0  0  0  0
   -2.4474    0.7266   -0.5829 H   0  0  0  0  0  0  0  0  0  0  0  0
   -0.3482    0.9377   -0.2572 C   0  0  1  0  0  0  0  0  0  0  0  0
   -0.5145    1.9082   -0.7327 H   0  0  0  0  0  0  0  0  0  0  0  0
    0.1156    1.2316    1.1885 C   0  0  0  0  0  0  0  0  0  0  0  0
    0.2056    0.3098    1.7703 H   0  0  0  0  0  0  0  0  0  0  0  0
    1.1144    1.6799    1.1637 H   0  0  0  0  0  0  0  0  0  0  0  0
   -0.8271    2.2001    1.8625 C   0  0  0  0  0  0  0  0  0  0  0  0
   -0.7232    3.5794    1.6288 C   0  0  0  0  0  0  0  0  0  0  0  0
    0.0498    3.9624    0.9692 H   0  0  0  0  0  0  0  0  0  0  0  0
   -1.6080    4.4713    2.2449 C   0  0  0  0  0  0  0  0  0  0  0  0
   -1.5202    5.5380    2.0601 H   0  0  0  0  0  0  0  0  0  0  0  0
   -2.6012    3.9905    3.1039 C   0  0  0  0  0  0  0  0  0  0  0  0
   -3.2847    4.6828    3.5867 H   0  0  0  0  0  0  0  0  0  0  0  0
   -2.7070    2.6178    3.3482 C   0  0  0  0  0  0  0  0  0  0  0  0
   -3.4710    2.2423    4.0226 H   0  0  0  0  0  0  0  0  0  0  0  0
   -1.8222    1.7276    2.7306 C   0  0  0  0  0  0  0  0  0  0  0  0
   -1.9029    0.6627    2.9307 H   0  0  0  0  0  0  0  0  0  0  0  0
    0.7503    0.2538   -1.1053 C   0  0  0  0  0  0  0  0  0  0  0  0
    1.7813   -0.1798   -0.6071 O   0  0  0  0  0  0  0  0  0  0  0  0
    0.6868    0.3594   -2.4842 N   0  0  0  0  0  0  0  0  0  0  0  0
   -0.1914    0.6746   -2.8830 H   0  0  0  0  0  0  0  0  0  0  0  0
    1.7041   -0.1896   -3.3729 C   0  0  0  0  0  0  0  0  0  0  0  0
    1.7845   -1.2734   -3.2383 H   0  0  0  0  0  0  0  0  0  0  0  0
    1.4450    0.0122   -4.4165 H   0  0  0  0  0  0  0  0  0  0  0  0
    2.6791    0.2645   -3.1668 H   0  0  0  0  0  0  0  0  0  0  0  0
  1  2  1  0  0  0  0
  2  3  1  0  0  0  0
  2  4  1  0  0  0  0
  2  5  1  0  0  0  0
  5  6  2  0  0  0  0
  5  7  1  0  0  0  0
  7  8  1  0  0  0  0
  7  9  1  0  0  0  0
  9 10  1  0  0  0  0
  9 11  1  0  0  0  0
  9 25  1  0  0  0  0
 11 12  1  0  0  0  0
 11 13  1  0  0  0  0
 11 14  1  0  0  0  0
 14 15  1  0  0  0  0
 14 23  2  0  0  0  0
 15 16  1  0  0  0  0
 15 17  2  0  0  0  0
 17 18  1  0  0  0  0
 17 19  1  0  0  0  0
 19 20  1  0  0  0  0
 19 21  2  0  0  0  0
 21 22  1  0  0  0  0
 21 23  1  0  0  0  0
 23 24  1  0  0  0  0
 25 26  2  0  0  0  0
 25 27  1  0  0  0  0
 27 28  1  0  0  0  0
 27 29  1  0  0  0  0
 29 30  1  0  0  0  0
 29 31  1  0  0  0  0
 29 32  1  0  0  0  0
M  END
$$$$

  -OEChem-01062216093D

 32 32  0     1  0  0  0  0  0999 V2000
   -3.4420   -2.4194    0.9526 H   0  0  0  0  0  0  0  0  0  0  0  0
   -3.3564   -1.5218    0.3334 C   0  0  0  0  0  0  0  0  0  0  0  0
   -4.0536   -0.7691    0.7087 H   0  0  0  0  0  0  0  0  0  0  0  0
   -3.6233   -1.7778   -0.6946 H   0  0  0  0  0  0  0  0  0  0  0  0
   -1.9372   -0.9864    0.3815 C   0  0  0  0  0  0  0  0  0  0  0  0
   -1.0945   -1.6088    1.0008 O   0  0  0  0  0  0  0  0  0  0  0  0
   -1.6486    0.1911   -0.2851 N   0  0  0  0  0  0  0  0  0  0  0  0
   -2.4501    0.6565   -0.6989 H   0  0  0  0  0  0  0  0  0  0  0  0
   -0.3752    0.9447   -0.2576 C   0  0  1  0  0  0  0  0  0  0  0  0
   -0.5602    1.9104   -0.7361 H   0  0  0  0  0  0  0  0  0  0  0  0
    0.1172    1.2579    1.1740 C   0  0  0  0  0  0  0  0  0  0  0  0
    0.2301    0.3440    1.7636 H   0  0  0  0  0  0  0  0  0  0  0  0
    1.1122    1.7116    1.1194 H   0  0  0  0  0  0  0  0  0  0  0  0
   -0.8147    2.2247    1.8644 C   0  0  0  0  0  0  0  0  0  0  0  0
   -0.7281    3.6033    1.6186 C   0  0  0  0  0  0  0  0  0  0  0  0
    0.0207    3.9876    0.9326 H   0  0  0  0  0  0  0  0  0  0  0  0
   -1.5978    4.4933    2.2584 C   0  0  0  0  0  0  0  0  0  0  0  0
   -1.5221    5.5594    2.0658 H   0  0  0  0  0  0  0  0  0  0  0  0
   -2.5597    4.0112    3.1516 C   0  0  0  0  0  0  0  0  0  0  0  0
   -3.2314    4.7019    3.6529 H   0  0  0  0  0  0  0  0  0  0  0  0
   -2.6500    2.6390    3.4054 C   0  0  0  0  0  0  0  0  0  0  0  0
   -3.3902    2.2617    4.1050 H   0  0  0  0  0  0  0  0  0  0  0  0
   -1.7800    1.7507    2.7642 C   0  0  0  0  0  0  0  0  0  0  0  0
   -1.8480    0.6856    2.9696 H   0  0  0  0  0  0  0  0  0  0  0  0
    0.7288    0.2649   -1.1020 C   0  0  0  0  0  0  0  0  0  0  0  0
    1.6123   -0.4134   -0.5962 O   0  0  0  0  0  0  0  0  0  0  0  0
    0.8527    0.6003   -2.4399 N   0  0  0  0  0  0  0  0  0  0  0  0
    0.1123    1.1558   -2.8552 H   0  0  0  0  0  0  0  0  0  0  0  0
    1.9034    0.0712   -3.3021 C   0  0  0  0  0  0  0  0  0  0  0  0
    1.8484   -1.0217   -3.3469 H   0  0  0  0  0  0  0  0  0  0  0  0
    1.7943    0.4656   -4.3169 H   0  0  0  0  0  0  0  0  0  0  0  0
    2.8902    0.3586   -2.9241 H   0  0  0  0  0  0  0  0  0  0  0  0
  1  2  1  0  0  0  0
  2  3  1  0  0  0  0
  2  4  1  0  0  0  0
  2  5  1  0  0  0  0
  5  6  2  0  0  0  0
  5  7  1  0  0  0  0
  7  8  1  0  0  0  0
  7  9  1  0  0  0  0
  9 10  1  0  0  0  0
  9 11  1  0  0  0  0
  9 25  1  0  0  0  0
 11 12  1  0  0  0  0
 11 13  1  0  0  0  0
 11 14  1  0  0  0  0
 14 15  1  0  0  0  0
 14 23  2  0  0  0  0
 15 16  1  0  0  0  0
 15 17  2  0  0  0  0
 17 18  1  0  0  0  0
 17 19  1  0  0  0  0
 19 20  1  0  0  0  0
 19 21  2  0  0  0  0
 21 22  1  0  0  0  0
 21 23  1  0  0  0  0
 23 24  1  0  0  0  0
 25 26  2  0  0  0  0
 25 27  1  0  0  0  0
 27 28  1  0  0  0  0
 27 29  1  0  0  0  0
 29 30  1  0  0  0  0
 29 31  1  0  0  0  0
 29 32  1  0  0  0  0
M  END
$$$$

  -OEChem-01062216093D

 32 32  0     1  0  0  0  0  0999 V2000
   -3.4464   -2.4763    0.8661 H   0  0  0  0  0  0  0  0  0  0  0  0
   -3.3521   -1.5706    0.2601 C   0  0  0  0  0  0  0  0  0  0  0  0
   -4.1043   -0.8490    0.5879 H   0  0  0  0  0  0  0  0  0  0  0  0
   -3.5329   -1.8285   -0.7860 H   0  0  0  0  0  0  0  0  0  0  0  0
   -1.9632   -0.9790    0.4159 C   0  0  0  0  0  0  0  0  0  0  0  0
   -1.1711   -1.5360    1.1533 O   0  0  0  0  0  0  0  0  0  0  0  0
   -1.6676    0.1942   -0.2570 N   0  0  0  0  0  0  0  0  0  0  0  0
   -2.4321    0.5820   -0.8001 H   0  0  0  0  0  0  0  0  0  0  0  0
   -0.3951    0.9510   -0.2486 C   0  0  1  0  0  0  0  0  0  0  0  0
   -0.5965    1.9135   -0.7265 H   0  0  0  0  0  0  0  0  0  0  0  0
    0.1292    1.2726    1.1681 C   0  0  0  0  0  0  0  0  0  0  0  0
    0.2602    0.3638    1.7613 H   0  0  0  0  0  0  0  0  0  0  0  0
    1.1211    1.7290    1.0874 H   0  0  0  0  0  0  0  0  0  0  0  0
   -0.7911    2.2411    1.8713 C   0  0  0  0  0  0  0  0  0  0  0  0
   -0.7161    3.6189    1.6163 C   0  0  0  0  0  0  0  0  0  0  0  0
    0.0217    4.0040    0.9191 H   0  0  0  0  0  0  0  0  0  0  0  0
   -1.5845    4.5068    2.2609 C   0  0  0  0  0  0  0  0  0  0  0  0
   -1.5182    5.5723    2.0619 H   0  0  0  0  0  0  0  0  0  0  0  0
   -2.5341    4.0233    3.1665 C   0  0  0  0  0  0  0  0  0  0  0  0
   -3.2065    4.7117    3.6699 H   0  0  0  0  0  0  0  0  0  0  0  0
   -2.6126    2.6520    3.4289 C   0  0  0  0  0  0  0  0  0  0  0  0
   -3.3444    2.2726    4.1359 H   0  0  0  0  0  0  0  0  0  0  0  0
   -1.7439    1.7660    2.7835 C   0  0  0  0  0  0  0  0  0  0  0  0
   -1.8059    0.7008    2.9912 H   0  0  0  0  0  0  0  0  0  0  0  0
    0.7093    0.2777   -1.0964 C   0  0  0  0  0  0  0  0  0  0  0  0
    1.3867   -0.6468   -0.6714 O   0  0  0  0  0  0  0  0  0  0  0  0
    1.0379    0.8148   -2.3300 N   0  0  0  0  0  0  0  0  0  0  0  0
    0.4868    1.5966   -2.6686 H   0  0  0  0  0  0  0  0  0  0  0  0
    2.1137    0.2967   -3.1674 C   0  0  0  0  0  0  0  0  0  0  0  0
    1.9305   -0.7527   -3.4213 H   0  0  0  0  0  0  0  0  0  0  0  0
    2.1800    0.8707   -4.0964 H   0  0  0  0  0  0  0  0  0  0  0  0
    3.0741    0.3703   -2.6463 H   0  0  0  0  0  0  0  0  0  0  0  0
  1  2  1  0  0  0  0
  2  3  1  0  0  0  0
  2  4  1  0  0  0  0
  2  5  1  0  0  0  0
  5  6  2  0  0  0  0
  5  7  1  0  0  0  0
  7  8  1  0  0  0  0
  7  9  1  0  0  0  0
  9 10  1  0  0  0  0
  9 11  1  0  0  0  0
  9 25  1  0  0  0  0
 11 12  1  0  0  0  0
 11 13  1  0  0  0  0
 11 14  1  0  0  0  0
 14 15  1  0  0  0  0
 14 23  2  0  0  0  0
 15 16  1  0  0  0  0
 15 17  2  0  0  0  0
 17 18  1  0  0  0  0
 17 19  1  0  0  0  0
 19 20  1  0  0  0  0
 19 21  2  0  0  0  0
 21 22  1  0  0  0  0
 21 23  1  0  0  0  0
 23 24  1  0  0  0  0
 25 26  2  0  0  0  0
 25 27  1  0  0  0  0
 27 28  1  0  0  0  0
 27 29  1  0  0  0  0
 29 30  1  0  0  0  0
 29 31  1  0  0  0  0
 29 32  1  0  0  0  0
M  END
$$$$

  -OEChem-01062216093D

 32 32  0     1  0  0  0  0  0999 V2000
   -3.3657   -2.5971    0.7001 H   0  0  0  0  0  0  0  0  0  0  0  0
   -3.2816   -1.6792    0.1116 C   0  0  0  0  0  0  0  0  0  0  0  0
   -4.1350   -1.0361    0.3388 H   0  0  0  0  0  0  0  0  0  0  0  0
   -3.3001   -1.9410   -0.9491 H   0  0  0  0  0  0  0  0  0  0  0  0
   -1.9870   -0.9607    0.4447 C   0  0  0  0  0  0  0  0  0  0  0  0
   -1.2817   -1.4123    1.3296 O   0  0  0  0  0  0  0  0  0  0  0  0
   -1.6953    0.2122   -0.2322 N   0  0  0  0  0  0  0  0  0  0  0  0
   -2.3733    0.4694   -0.9418 H   0  0  0  0  0  0  0  0  0  0  0  0
   -0.4230    0.9699   -0.2209 C   0  0  1  0  0  0  0  0  0  0  0  0
   -0.6340    1.9271   -0.7050 H   0  0  0  0  0  0  0  0  0  0  0  0
    0.1228    1.3056    1.1833 C   0  0  0  0  0  0  0  0  0  0  0  0
    0.2697    0.4033    1.7820 H   0  0  0  0  0  0  0  0  0  0  0  0
    1.1114    1.7645    1.0810 H   0  0  0  0  0  0  0  0  0  0  0  0
   -0.7842    2.2807    1.8945 C   0  0  0  0  0  0  0  0  0  0  0  0
   -0.7129    3.6563    1.6264 C   0  0  0  0  0  0  0  0  0  0  0  0
    0.0089    4.0351    0.9097 H   0  0  0  0  0  0  0  0  0  0  0  0
   -1.5646    4.5517    2.2833 C   0  0  0  0  0  0  0  0  0  0  0  0
   -1.5016    5.6153    2.0733 H   0  0  0  0  0  0  0  0  0  0  0  0
   -2.4934    4.0780    3.2152 C   0  0  0  0  0  0  0  0  0  0  0  0
   -3.1526    4.7718    3.7284 H   0  0  0  0  0  0  0  0  0  0  0  0
   -2.5688    2.7092    3.4902 C   0  0  0  0  0  0  0  0  0  0  0  0
   -3.2848    2.3373    4.2172 H   0  0  0  0  0  0  0  0  0  0  0  0
   -1.7175    1.8158    2.8316 C   0  0  0  0  0  0  0  0  0  0  0  0
   -1.7784    0.7522    3.0490 H   0  0  0  0  0  0  0  0  0  0  0  0
    0.6833    0.2959   -1.0644 C   0  0  0  0  0  0  0  0  0  0  0  0
    1.0597   -0.8470   -0.8510 O   0  0  0  0  0  0  0  0  0  0  0  0
    1.2402    0.9813   -2.1311 N   0  0  0  0  0  0  0  0  0  0  0  0
    0.9318    1.9340   -2.2964 H   0  0  0  0  0  0  0  0  0  0  0  0
    2.2862    0.4229   -2.9803 C   0  0  0  0  0  0  0  0  0  0  0  0
    1.9350   -0.4917   -3.4698 H   0  0  0  0  0  0  0  0  0  0  0  0
    2.5697    1.1416   -3.7549 H   0  0  0  0  0  0  0  0  0  0  0  0
    3.1753    0.1856   -2.3864 H   0  0  0  0  0  0  0  0  0  0  0  0
  1  2  1  0  0  0  0
  2  3  1  0  0  0  0
  2  4  1  0  0  0  0
  2  5  1  0  0  0  0
  5  6  2  0  0  0  0
  5  7  1  0  0  0  0
  7  8  1  0  0  0  0
  7  9  1  0  0  0  0
  9 10  1  0  0  0  0
  9 11  1  0  0  0  0
  9 25  1  0  0  0  0
 11 12  1  0  0  0  0
 11 13  1  0  0  0  0
 11 14  1  0  0  0  0
 14 15  1  0  0  0  0
 14 23  2  0  0  0  0
 15 16  1  0  0  0  0
 15 17  2  0  0  0  0
 17 18  1  0  0  0  0
 17 19  1  0  0  0  0
 19 20  1  0  0  0  0
 19 21  2  0  0  0  0
 21 22  1  0  0  0  0
 21 23  1  0  0  0  0
 23 24  1  0  0  0  0
 25 26  2  0  0  0  0
 25 27  1  0  0  0  0
 27 28  1  0  0  0  0
 27 29  1  0  0  0  0
 29 30  1  0  0  0  0
 29 31  1  0  0  0  0
 29 32  1  0  0  0  0
M  END
$$$$

  -OEChem-01062216093D

 32 32  0     1  0  0  0  0  0999 V2000
   -3.3280   -2.6366    0.6632 H   0  0  0  0  0  0  0  0  0  0  0  0
   -3.2500   -1.7170    0.0762 C   0  0  0  0  0  0  0  0  0  0  0  0
   -4.1301   -1.0993    0.2699 H   0  0  0  0  0  0  0  0  0  0  0  0
   -3.2208   -1.9804   -0.9838 H   0  0  0  0  0  0  0  0  0  0  0  0
   -1.9907   -0.9597    0.4550 C   0  0  0  0  0  0  0  0  0  0  0  0
   -1.3079   -1.3847    1.3716 O   0  0  0  0  0  0  0  0  0  0  0  0
   -1.7026    0.2165   -0.2179 N   0  0  0  0  0  0  0  0  0  0  0  0
   -2.3382    0.4273   -0.9802 H   0  0  0  0  0  0  0  0  0  0  0  0
   -0.4247    0.9654   -0.1981 C   0  0  1  0  0  0  0  0  0  0  0  0
   -0.6333    1.9217   -0.6858 H   0  0  0  0  0  0  0  0  0  0  0  0
    0.1219    1.3042    1.2059 C   0  0  0  0  0  0  0  0  0  0  0  0
    0.2619    0.4047    1.8099 H   0  0  0  0  0  0  0  0  0  0  0  0
    1.1132    1.7567    1.1047 H   0  0  0  0  0  0  0  0  0  0  0  0
   -0.7793    2.2893    1.9107 C   0  0  0  0  0  0  0  0  0  0  0  0
   -0.6977    3.6631    1.6359 C   0  0  0  0  0  0  0  0  0  0  0  0
    0.0287    4.0345    0.9202 H   0  0  0  0  0  0  0  0  0  0  0  0
   -1.5471    4.5672    2.2835 C   0  0  0  0  0  0  0  0  0  0  0  0
   -1.4774    5.6292    2.0675 H   0  0  0  0  0  0  0  0  0  0  0  0
   -2.4847    4.1047    3.2123 C   0  0  0  0  0  0  0  0  0  0  0  0
   -3.1435    4.8054    3.7166 H   0  0  0  0  0  0  0  0  0  0  0  0
   -2.5703    2.7380    3.4942 C   0  0  0  0  0  0  0  0  0  0  0  0
   -3.2943    2.3741    4.2171 H   0  0  0  0  0  0  0  0  0  0  0  0
   -1.7205    1.8358    2.8456 C   0  0  0  0  0  0  0  0  0  0  0  0
   -1.7907    0.7736    3.0668 H   0  0  0  0  0  0  0  0  0  0  0  0
    0.6827    0.2939   -1.0436 C   0  0  0  0  0  0  0  0  0  0  0  0
    0.8010   -0.9216   -1.1117 O   0  0  0  0  0  0  0  0  0  0  0  0
    1.4594    1.0731   -1.8846 N   0  0  0  0  0  0  0  0  0  0  0  0
    1.3496    2.0808   -1.8319 H   0  0  0  0  0  0  0  0  0  0  0  0
    2.4865    0.5237   -2.7623 C   0  0  0  0  0  0  0  0  0  0  0  0
    2.0452   -0.1812   -3.4747 H   0  0  0  0  0  0  0  0  0  0  0  0
    2.9713    1.3262   -3.3263 H   0  0  0  0  0  0  0  0  0  0  0  0
    3.2508    0.0014   -2.1772 H   0  0  0  0  0  0  0  0  0  0  0  0
  1  2  1  0  0  0  0
  2  3  1  0  0  0  0
  2  4  1  0  0  0  0
  2  5  1  0  0  0  0
  5  6  2  0  0  0  0
  5  7  1  0  0  0  0
  7  8  1  0  0  0  0
  7  9  1  0  0  0  0
  9 10  1  0  0  0  0
  9 11  1  0  0  0  0
  9 25  1  0  0  0  0
 11 12  1  0  0  0  0
 11 13  1  0  0  0  0
 11 14  1  0  0  0  0
 14 15  1  0  0  0  0
 14 23  2  0  0  0  0
 15 16  1  0  0  0  0
 15 17  2  0  0  0  0
 17 18  1  0  0  0  0
 17 19  1  0  0  0  0
 19 20  1  0  0  0  0
 19 21  2  0  0  0  0
 21 22  1  0  0  0  0
 21 23  1  0  0  0  0
 23 24  1  0  0  0  0
 25 26  2  0  0  0  0
 25 27  1  0  0  0  0
 27 28  1  0  0  0  0
 27 29  1  0  0  0  0
 29 30  1  0  0  0  0
 29 31  1  0  0  0  0
 29 32  1  0  0  0  0
M  END
$$$$

  -OEChem-01062216093D

 32 32  0     1  0  0  0  0  0999 V2000
   -3.3162   -2.6462    0.6568 H   0  0  0  0  0  0  0  0  0  0  0  0
   -3.2390   -1.7262    0.0708 C   0  0  0  0  0  0  0  0  0  0  0  0
   -4.1238   -1.1133    0.2578 H   0  0  0  0  0  0  0  0  0  0  0  0
   -3.2006   -1.9889   -0.9892 H   0  0  0  0  0  0  0  0  0  0  0  0
   -1.9864   -0.9621    0.4585 C   0  0  0  0  0  0  0  0  0  0  0  0
   -1.2919   -1.3945    1.3634 O   0  0  0  0  0  0  0  0  0  0  0  0
   -1.7009    0.2175   -0.2082 N   0  0  0  0  0  0  0  0  0  0  0  0
   -2.3223    0.4181   -0.9850 H   0  0  0  0  0  0  0  0  0  0  0  0
   -0.4195    0.9596   -0.1818 C   0  0  1  0  0  0  0  0  0  0  0  0
   -0.6215    1.9159   -0.6723 H   0  0  0  0  0  0  0  0  0  0  0  0
    0.1204    1.2989    1.2255 C   0  0  0  0  0  0  0  0  0  0  0  0
    0.2518    0.4017    1.8344 H   0  0  0  0  0  0  0  0  0  0  0  0
    1.1141    1.7477    1.1318 H   0  0  0  0  0  0  0  0  0  0  0  0
   -0.7814    2.2901    1.9206 C   0  0  0  0  0  0  0  0  0  0  0  0
   -0.6917    3.6629    1.6423 C   0  0  0  0  0  0  0  0  0  0  0  0
    0.0400    4.0290    0.9293 H   0  0  0  0  0  0  0  0  0  0  0  0
   -1.5407    4.5731    2.2819 C   0  0  0  0  0  0  0  0  0  0  0  0
   -1.4651    5.6341    2.0626 H   0  0  0  0  0  0  0  0  0  0  0  0
   -2.4859    4.1174    3.2059 C   0  0  0  0  0  0  0  0  0  0  0  0
   -3.1450    4.8226    3.7037 H   0  0  0  0  0  0  0  0  0  0  0  0
   -2.5804    2.7517    3.4904 C   0  0  0  0  0  0  0  0  0  0  0  0
   -3.3114    2.3933    4.2091 H   0  0  0  0  0  0  0  0  0  0  0  0
   -1.7313    1.8433    2.8498 C   0  0  0  0  0  0  0  0  0  0  0  0
   -1.8096    0.7822    3.0729 H   0  0  0  0  0  0  0  0  0  0  0  0
    0.6852    0.2881   -1.0316 C   0  0  0  0  0  0  0  0  0  0  0  0
    0.6128   -0.8845   -1.3765 O   0  0  0  0  0  0  0  0  0  0  0  0
    1.6605    1.0775   -1.6174 N   0  0  0  0  0  0  0  0  0  0  0  0
    1.7061    2.0534   -1.3418 H   0  0  0  0  0  0  0  0  0  0  0  0
    2.6872    0.5509   -2.5095 C   0  0  0  0  0  0  0  0  0  0  0  0
    2.2296    0.0940   -3.3935 H   0  0  0  0  0  0  0  0  0  0  0  0
    3.3498    1.3559   -2.8414 H   0  0  0  0  0  0  0  0  0  0  0  0
    3.2906   -0.2044   -1.9951 H   0  0  0  0  0  0  0  0  0  0  0  0
  1  2  1  0  0  0  0
  2  3  1  0  0  0  0
  2  4  1  0  0  0  0
  2  5  1  0  0  0  0
  5  6  2  0  0  0  0
  5  7  1  0  0  0  0
  7  8  1  0  0  0  0
  7  9  1  0  0  0  0
  9 10  1  0  0  0  0
  9 11  1  0  0  0  0
  9 25  1  0  0  0  0
 11 12  1  0  0  0  0
 11 13  1  0  0  0  0
 11 14  1  0  0  0  0
 14 15  1  0  0  0  0
 14 23  2  0  0  0  0
 15 16  1  0  0  0  0
 15 17  2  0  0  0  0
 17 18  1  0  0  0  0
 17 19  1  0  0  0  0
 19 20  1  0  0  0  0
 19 21  2  0  0  0  0
 21 22  1  0  0  0  0
 21 23  1  0  0  0  0
 23 24  1  0  0  0  0
 25 26  2  0  0  0  0
 25 27  1  0  0  0  0
 27 28  1  0  0  0  0
 27 29  1  0  0  0  0
 29 30  1  0  0  0  0
 29 31  1  0  0  0  0
 29 32  1  0  0  0  0
M  END
$$$$

  -OEChem-01062216093D

 32 32  0     1  0  0  0  0  0999 V2000
   -3.3161   -2.6267    0.6789 H   0  0  0  0  0  0  0  0  0  0  0  0
   -3.2412   -1.7049    0.0948 C   0  0  0  0  0  0  0  0  0  0  0  0
   -4.1129   -1.0813    0.3061 H   0  0  0  0  0  0  0  0  0  0  0  0
   -3.2326   -1.9633   -0.9670 H   0  0  0  0  0  0  0  0  0  0  0  0
   -1.9697   -0.9588    0.4543 C   0  0  0  0  0  0  0  0  0  0  0  0
   -1.2456   -1.4171    1.3229 O   0  0  0  0  0  0  0  0  0  0  0  0
   -1.6874    0.2248   -0.2057 N   0  0  0  0  0  0  0  0  0  0  0  0
   -2.3130    0.4345   -0.9769 H   0  0  0  0  0  0  0  0  0  0  0  0
   -0.4059    0.9663   -0.1764 C   0  0  1  0  0  0  0  0  0  0  0  0
   -0.6004    1.9249   -0.6657 H   0  0  0  0  0  0  0  0  0  0  0  0
    0.1201    1.2996    1.2397 C   0  0  0  0  0  0  0  0  0  0  0  0
    0.2453    0.4007    1.8469 H   0  0  0  0  0  0  0  0  0  0  0  0
    1.1136    1.7504    1.1627 H   0  0  0  0  0  0  0  0  0  0  0  0
   -0.7889    2.2881    1.9294 C   0  0  0  0  0  0  0  0  0  0  0  0
   -0.6957    3.6619    1.6576 C   0  0  0  0  0  0  0  0  0  0  0  0
    0.0441    4.0309    0.9545 H   0  0  0  0  0  0  0  0  0  0  0  0
   -1.5520    4.5695    2.2912 C   0  0  0  0  0  0  0  0  0  0  0  0
   -1.4731    5.6312    2.0775 H   0  0  0  0  0  0  0  0  0  0  0  0
   -2.5087    4.1103    3.2020 C   0  0  0  0  0  0  0  0  0  0  0  0
   -3.1734    4.8135    3.6952 H   0  0  0  0  0  0  0  0  0  0  0  0
   -2.6070    2.7434    3.4797 C   0  0  0  0  0  0  0  0  0  0  0  0
   -3.3467    2.3823    4.1882 H   0  0  0  0  0  0  0  0  0  0  0  0
   -1.7500    1.8378    2.8457 C   0  0  0  0  0  0  0  0  0  0  0  0
   -1.8313    0.7760    3.0638 H   0  0  0  0  0  0  0  0  0  0  0  0
    0.6924    0.2920   -1.0349 C   0  0  0  0  0  0  0  0  0  0  0  0
    0.4911   -0.7704   -1.6114 O   0  0  0  0  0  0  0  0  0  0  0  0
    1.8345    1.0022   -1.3657 N   0  0  0  0  0  0  0  0  0  0  0  0
    1.9912    1.8873   -0.8941 H   0  0  0  0  0  0  0  0  0  0  0  0
    2.8755    0.4816   -2.2445 C   0  0  0  0  0  0  0  0  0  0  0  0
    2.4658    0.2582   -3.2352 H   0  0  0  0  0  0  0  0  0  0  0  0
    3.6755    1.2188   -2.3614 H   0  0  0  0  0  0  0  0  0  0  0  0
    3.3061   -0.4343   -1.8262 H   0  0  0  0  0  0  0  0  0  0  0  0
  1  2  1  0  0  0  0
  2  3  1  0  0  0  0
  2  4  1  0  0  0  0
  2  5  1  0  0  0  0
  5  6  2  0  0  0  0
  5  7  1  0  0  0  0
  7  8  1  0  0  0  0
  7  9  1  0  0  0  0
  9 10  1  0  0  0  0
  9 11  1  0  0  0  0
  9 25  1  0  0  0  0
 11 12  1  0  0  0  0
 11 13  1  0  0  0  0
 11 14  1  0  0  0  0
 14 15  1  0  0  0  0
 14 23  2  0  0  0  0
 15 16  1  0  0  0  0
 15 17  2  0  0  0  0
 17 18  1  0  0  0  0
 17 19  1  0  0  0  0
 19 20  1  0  0  0  0
 19 21  2  0  0  0  0
 21 22  1  0  0  0  0
 21 23  1  0  0  0  0
 23 24  1  0  0  0  0
 25 26  2  0  0  0  0
 25 27  1  0  0  0  0
 27 28  1  0  0  0  0
 27 29  1  0  0  0  0
 29 30  1  0  0  0  0
 29 31  1  0  0  0  0
 29 32  1  0  0  0  0
M  END
$$$$

  -OEChem-01062216093D

 32 32  0     1  0  0  0  0  0999 V2000
   -3.4183   -2.6053    0.5759 H   0  0  0  0  0  0  0  0  0  0  0  0
   -3.3065   -1.6589    0.0394 C   0  0  0  0  0  0  0  0  0  0  0  0
   -4.1200   -0.9904    0.3310 H   0  0  0  0  0  0  0  0  0  0  0  0
   -3.3692   -1.8540   -1.0339 H   0  0  0  0  0  0  0  0  0  0  0  0
   -1.9696   -1.0225    0.3708 C   0  0  0  0  0  0  0  0  0  0  0  0
   -1.2127   -1.6111    1.1249 O   0  0  0  0  0  0  0  0  0  0  0  0
   -1.6503    0.1831   -0.2274 N   0  0  0  0  0  0  0  0  0  0  0  0
   -2.2900    0.4642   -0.9646 H   0  0  0  0  0  0  0  0  0  0  0  0
   -0.3703    0.9267   -0.1644 C   0  0  1  0  0  0  0  0  0  0  0  0
   -0.6221    1.9663   -0.3918 H   0  0  0  0  0  0  0  0  0  0  0  0
    0.3362    0.9667    1.2149 C   0  0  0  0  0  0  0  0  0  0  0  0
    0.5435   -0.0376    1.5910 H   0  0  0  0  0  0  0  0  0  0  0  0
    1.3093    1.4544    1.1158 H   0  0  0  0  0  0  0  0  0  0  0  0
   -0.4723    1.7635    2.2128 C   0  0  0  0  0  0  0  0  0  0  0  0
   -0.4075    3.1661    2.2265 C   0  0  0  0  0  0  0  0  0  0  0  0
    0.2259    3.6909    1.5182 H   0  0  0  0  0  0  0  0  0  0  0  0
   -1.1587    3.9034    3.1487 C   0  0  0  0  0  0  0  0  0  0  0  0
   -1.1043    4.9880    3.1508 H   0  0  0  0  0  0  0  0  0  0  0  0
   -1.9788    3.2443    4.0694 C   0  0  0  0  0  0  0  0  0  0  0  0
   -2.5619    3.8145    4.7866 H   0  0  0  0  0  0  0  0  0  0  0  0
   -2.0444    1.8480    4.0681 C   0  0  0  0  0  0  0  0  0  0  0  0
   -2.6770    1.3304    4.7831 H   0  0  0  0  0  0  0  0  0  0  0  0
   -1.2923    1.1129    3.1462 C   0  0  0  0  0  0  0  0  0  0  0  0
   -1.3460    0.0279    3.1579 H   0  0  0  0  0  0  0  0  0  0  0  0
    0.5842    0.5019   -1.3080 C   0  0  0  0  0  0  0  0  0  0  0  0
    0.1862   -0.2134   -2.2208 O   0  0  0  0  0  0  0  0  0  0  0  0
    1.8388    1.0751   -1.4335 N   0  0  0  0  0  0  0  0  0  0  0  0
    2.1650    1.6643   -0.6740 H   0  0  0  0  0  0  0  0  0  0  0  0
    2.7595    0.7576   -2.5192 C   0  0  0  0  0  0  0  0  0  0  0  0
    2.3094    1.0004   -3.4875 H   0  0  0  0  0  0  0  0  0  0  0  0
    3.6823    1.3359   -2.4140 H   0  0  0  0  0  0  0  0  0  0  0  0
    3.0141   -0.3075   -2.5054 H   0  0  0  0  0  0  0  0  0  0  0  0
  1  2  1  0  0  0  0
  2  3  1  0  0  0  0
  2  4  1  0  0  0  0
  2  5  1  0  0  0  0
  5  6  2  0  0  0  0
  5  7  1  0  0  0  0
  7  8  1  0  0  0  0
  7  9  1  0  0  0  0
  9 10  1  0  0  0  0
  9 11  1  0  0  0  0
  9 25  1  0  0  0  0
 11 12  1  0  0  0  0
 11 13  1  0  0  0  0
 11 14  1  0  0  0  0
 14 15  1  0  0  0  0
 14 23  2  0  0  0  0
 15 16  1  0  0  0  0
 15 17  2  0  0  0  0
 17 18  1  0  0  0  0
 17 19  1  0  0  0  0
 19 20  1  0  0  0  0
 19 21  2  0  0  0  0
 21 22  1  0  0  0  0
 21 23  1  0  0  0  0
 23 24  1  0  0  0  0
 25 26  2  0  0  0  0
 25 27  1  0  0  0  0
 27 28  1  0  0  0  0
 27 29  1  0  0  0  0
 29 30  1  0  0  0  0
 29 31  1  0  0  0  0
 29 32  1  0  0  0  0
M  END
$$$$

  -OEChem-01062216093D

 32 32  0     1  0  0  0  0  0999 V2000
   -3.3936   -2.6009    0.5721 H   0  0  0  0  0  0  0  0  0  0  0  0
   -3.2865   -1.6497    0.0432 C   0  0  0  0  0  0  0  0  0  0  0  0
   -4.0958   -0.9829    0.3499 H   0  0  0  0  0  0  0  0  0  0  0  0
   -3.3615   -1.8347   -1.0313 H   0  0  0  0  0  0  0  0  0  0  0  0
   -1.9454   -1.0179    0.3664 C   0  0  0  0  0  0  0  0  0  0  0  0
   -1.1753   -1.6186    1.0974 O   0  0  0  0  0  0  0  0  0  0  0  0
   -1.6286    0.1932   -0.2207 N   0  0  0  0  0  0  0  0  0  0  0  0
   -2.2703    0.4861   -0.9520 H   0  0  0  0  0  0  0  0  0  0  0  0
   -0.3520    0.9399   -0.1462 C   0  0  1  0  0  0  0  0  0  0  0  0
   -0.6010    1.9804   -0.3730 H   0  0  0  0  0  0  0  0  0  0  0  0
    0.3384    0.9778    1.2418 C   0  0  0  0  0  0  0  0  0  0  0  0
    0.5467   -0.0258    1.6186 H   0  0  0  0  0  0  0  0  0  0  0  0
    1.3082    1.4748    1.1578 H   0  0  0  0  0  0  0  0  0  0  0  0
   -0.4846    1.7700    2.2310 C   0  0  0  0  0  0  0  0  0  0  0  0
   -0.4229    3.1725    2.2478 C   0  0  0  0  0  0  0  0  0  0  0  0
    0.2172    3.6994    1.5468 H   0  0  0  0  0  0  0  0  0  0  0  0
   -1.1854    3.9064    3.1632 C   0  0  0  0  0  0  0  0  0  0  0  0
   -1.1337    4.9910    3.1676 H   0  0  0  0  0  0  0  0  0  0  0  0
   -2.0139    3.2437    4.0737 C   0  0  0  0  0  0  0  0  0  0  0  0
   -2.6059    3.8120    4.7851 H   0  0  0  0  0  0  0  0  0  0  0  0
   -2.0769    1.8471    4.0691 C   0  0  0  0  0  0  0  0  0  0  0  0
   -2.7163    1.3276    4.7768 H   0  0  0  0  0  0  0  0  0  0  0  0
   -1.3137    1.1153    3.1536 C   0  0  0  0  0  0  0  0  0  0  0  0
   -1.3655    0.0302    3.1617 H   0  0  0  0  0  0  0  0  0  0  0  0
    0.5958    0.5149   -1.2959 C   0  0  0  0  0  0  0  0  0  0  0  0
    0.1315    0.0282   -2.3212 O   0  0  0  0  0  0  0  0  0  0  0  0
    1.9451    0.8270   -1.2780 N   0  0  0  0  0  0  0  0  0  0  0  0
    2.3302    1.1853   -0.4099 H   0  0  0  0  0  0  0  0  0  0  0  0
    2.8623    0.4738   -2.3554 C   0  0  0  0  0  0  0  0  0  0  0  0
    2.5410    0.9298   -3.2977 H   0  0  0  0  0  0  0  0  0  0  0  0
    3.8703    0.8320   -2.1259 H   0  0  0  0  0  0  0  0  0  0  0  0
    2.9011   -0.6129   -2.4845 H   0  0  0  0  0  0  0  0  0  0  0  0
  1  2  1  0  0  0  0
  2  3  1  0  0  0  0
  2  4  1  0  0  0  0
  2  5  1  0  0  0  0
  5  6  2  0  0  0  0
  5  7  1  0  0  0  0
  7  8  1  0  0  0  0
  7  9  1  0  0  0  0
  9 10  1  0  0  0  0
  9 11  1  0  0  0  0
  9 25  1  0  0  0  0
 11 12  1  0  0  0  0
 11 13  1  0  0  0  0
 11 14  1  0  0  0  0
 14 15  1  0  0  0  0
 14 23  2  0  0  0  0
 15 16  1  0  0  0  0
 15 17  2  0  0  0  0
 17 18  1  0  0  0  0
 17 19  1  0  0  0  0
 19 20  1  0  0  0  0
 19 21  2  0  0  0  0
 21 22  1  0  0  0  0
 21 23  1  0  0  0  0
 23 24  1  0  0  0  0
 25 26  2  0  0  0  0
 25 27  1  0  0  0  0
 27 28  1  0  0  0  0
 27 29  1  0  0  0  0
 29 30  1  0  0  0  0
 29 31  1  0  0  0  0
 29 32  1  0  0  0  0
M  END
$$$$

  -OEChem-01062216093D

 32 32  0     1  0  0  0  0  0999 V2000
   -3.3817   -2.5817    0.5934 H   0  0  0  0  0  0  0  0  0  0  0  0
   -3.2758   -1.6307    0.0639 C   0  0  0  0  0  0  0  0  0  0  0  0
   -4.0711   -0.9561    0.3897 H   0  0  0  0  0  0  0  0  0  0  0  0
   -3.3765   -1.8117   -1.0091 H   0  0  0  0  0  0  0  0  0  0  0  0
   -1.9214   -1.0146    0.3588 C   0  0  0  0  0  0  0  0  0  0  0  0
   -1.1338   -1.6308    1.0578 O   0  0  0  0  0  0  0  0  0  0  0  0
   -1.6065    0.1993   -0.2221 N   0  0  0  0  0  0  0  0  0  0  0  0
   -2.2647    0.5182   -0.9276 H   0  0  0  0  0  0  0  0  0  0  0  0
   -0.3346    0.9509   -0.1358 C   0  0  1  0  0  0  0  0  0  0  0  0
   -0.5822    1.9921   -0.3633 H   0  0  0  0  0  0  0  0  0  0  0  0
    0.3432    0.9891    1.2579 C   0  0  0  0  0  0  0  0  0  0  0  0
    0.5542   -0.0134    1.6361 H   0  0  0  0  0  0  0  0  0  0  0  0
    1.3096    1.4950    1.1792 H   0  0  0  0  0  0  0  0  0  0  0  0
   -0.4917    1.7757    2.2410 C   0  0  0  0  0  0  0  0  0  0  0  0
   -0.4369    3.1781    2.2616 C   0  0  0  0  0  0  0  0  0  0  0  0
    0.2081    3.7093    1.5683 H   0  0  0  0  0  0  0  0  0  0  0  0
   -1.2122    3.9057    3.1712 C   0  0  0  0  0  0  0  0  0  0  0  0
   -1.1645    4.9905    3.1791 H   0  0  0  0  0  0  0  0  0  0  0  0
   -2.0479    3.2368    4.0706 C   0  0  0  0  0  0  0  0  0  0  0  0
   -2.6494    3.8007    4.7774 H   0  0  0  0  0  0  0  0  0  0  0  0
   -2.1055    1.8401    4.0606 C   0  0  0  0  0  0  0  0  0  0  0  0
   -2.7508    1.3160    4.7595 H   0  0  0  0  0  0  0  0  0  0  0  0
   -1.3291    1.1143    3.1511 C   0  0  0  0  0  0  0  0  0  0  0  0
   -1.3772    0.0288    3.1533 H   0  0  0  0  0  0  0  0  0  0  0  0
    0.6125    0.5246   -1.2840 C   0  0  0  0  0  0  0  0  0  0  0  0
    0.1402    0.2682   -2.3860 O   0  0  0  0  0  0  0  0  0  0  0  0
    1.9906    0.5513   -1.1507 N   0  0  0  0  0  0  0  0  0  0  0  0
    2.3623    0.6699   -0.2134 H   0  0  0  0  0  0  0  0  0  0  0  0
    2.9020    0.1469   -2.2147 C   0  0  0  0  0  0  0  0  0  0  0  0
    2.7406    0.7562   -3.1103 H   0  0  0  0  0  0  0  0  0  0  0  0
    3.9397    0.2771   -1.8928 H   0  0  0  0  0  0  0  0  0  0  0  0
    2.7470   -0.9063   -2.4718 H   0  0  0  0  0  0  0  0  0  0  0  0
  1  2  1  0  0  0  0
  2  3  1  0  0  0  0
  2  4  1  0  0  0  0
  2  5  1  0  0  0  0
  5  6  2  0  0  0  0
  5  7  1  0  0  0  0
  7  8  1  0  0  0  0
  7  9  1  0  0  0  0
  9 10  1  0  0  0  0
  9 11  1  0  0  0  0
  9 25  1  0  0  0  0
 11 12  1  0  0  0  0
 11 13  1  0  0  0  0
 11 14  1  0  0  0  0
 14 15  1  0  0  0  0
 14 23  2  0  0  0  0
 15 16  1  0  0  0  0
 15 17  2  0  0  0  0
 17 18  1  0  0  0  0
 17 19  1  0  0  0  0
 19 20  1  0  0  0  0
 19 21  2  0  0  0  0
 21 22  1  0  0  0  0
 21 23  1  0  0  0  0
 23 24  1  0  0  0  0
 25 26  2  0  0  0  0
 25 27  1  0  0  0  0
 27 28  1  0  0  0  0
 27 29  1  0  0  0  0
 29 30  1  0  0  0  0
 29 31  1  0  0  0  0
 29 32  1  0  0  0  0
M  END
$$$$

  -OEChem-01062216093D

 32 32  0     1  0  0  0  0  0999 V2000
   -3.3783   -2.5596    0.6232 H   0  0  0  0  0  0  0  0  0  0  0  0
   -3.2757   -1.6095    0.0915 C   0  0  0  0  0  0  0  0  0  0  0  0
   -4.0526   -0.9255    0.4410 H   0  0  0  0  0  0  0  0  0  0  0  0
   -3.4102   -1.7882   -0.9781 H   0  0  0  0  0  0  0  0  0  0  0  0
   -1.9053   -1.0114    0.3477 C   0  0  0  0  0  0  0  0  0  0  0  0
   -1.1011   -1.6404    1.0159 O   0  0  0  0  0  0  0  0  0  0  0  0
   -1.5903    0.2024   -0.2330 N   0  0  0  0  0  0  0  0  0  0  0  0
   -2.2733    0.5553   -0.8979 H   0  0  0  0  0  0  0  0  0  0  0  0
   -0.3223    0.9574   -0.1353 C   0  0  1  0  0  0  0  0  0  0  0  0
   -0.5689    1.9982   -0.3667 H   0  0  0  0  0  0  0  0  0  0  0  0
    0.3477    0.9971    1.2613 C   0  0  0  0  0  0  0  0  0  0  0  0
    0.5584   -0.0048    1.6413 H   0  0  0  0  0  0  0  0  0  0  0  0
    1.3135    1.5056    1.1825 H   0  0  0  0  0  0  0  0  0  0  0  0
   -0.4954    1.7790    2.2401 C   0  0  0  0  0  0  0  0  0  0  0  0
   -0.4479    3.1815    2.2636 C   0  0  0  0  0  0  0  0  0  0  0  0
    0.1988    3.7171    1.5754 H   0  0  0  0  0  0  0  0  0  0  0  0
   -1.2327    3.9033    3.1698 C   0  0  0  0  0  0  0  0  0  0  0  0
   -1.1911    4.9885    3.1801 H   0  0  0  0  0  0  0  0  0  0  0  0
   -2.0697    3.2276    4.0631 C   0  0  0  0  0  0  0  0  0  0  0  0
   -2.6785    3.7864    4.7679 H   0  0  0  0  0  0  0  0  0  0  0  0
   -2.1196    1.8304    4.0500 C   0  0  0  0  0  0  0  0  0  0  0  0
   -2.7658    1.3014    4.7443 H   0  0  0  0  0  0  0  0  0  0  0  0
   -1.3344    1.1107    3.1434 C   0  0  0  0  0  0  0  0  0  0  0  0
   -1.3770    0.0249    3.1423 H   0  0  0  0  0  0  0  0  0  0  0  0
    0.6303    0.5271   -1.2739 C   0  0  0  0  0  0  0  0  0  0  0  0
    0.2053    0.4961   -2.4230 O   0  0  0  0  0  0  0  0  0  0  0  0
    1.9707    0.2609   -1.0522 N   0  0  0  0  0  0  0  0  0  0  0  0
    2.2602    0.1512   -0.0847 H   0  0  0  0  0  0  0  0  0  0  0  0
    2.8732   -0.1951   -2.1025 C   0  0  0  0  0  0  0  0  0  0  0  0
    2.9037    0.5290   -2.9234 H   0  0  0  0  0  0  0  0  0  0  0  0
    3.8870   -0.3081   -1.7063 H   0  0  0  0  0  0  0  0  0  0  0  0
    2.5439   -1.1619   -2.4973 H   0  0  0  0  0  0  0  0  0  0  0  0
  1  2  1  0  0  0  0
  2  3  1  0  0  0  0
  2  4  1  0  0  0  0
  2  5  1  0  0  0  0
  5  6  2  0  0  0  0
  5  7  1  0  0  0  0
  7  8  1  0  0  0  0
  7  9  1  0  0  0  0
  9 10  1  0  0  0  0
  9 11  1  0  0  0  0
  9 25  1  0  0  0  0
 11 12  1  0  0  0  0
 11 13  1  0  0  0  0
 11 14  1  0  0  0  0
 14 15  1  0  0  0  0
 14 23  2  0  0  0  0
 15 16  1  0  0  0  0
 15 17  2  0  0  0  0
 17 18  1  0  0  0  0
 17 19  1  0  0  0  0
 19 20  1  0  0  0  0
 19 21  2  0  0  0  0
 21 22  1  0  0  0  0
 21 23  1  0  0  0  0
 23 24  1  0  0  0  0
 25 26  2  0  0  0  0
 25 27  1  0  0  0  0
 27 28  1  0  0  0  0
 27 29  1  0  0  0  0
 29 30  1  0  0  0  0
 29 31  1  0  0  0  0
 29 32  1  0  0  0  0
M  END
$$$$

  -OEChem-01062216093D

 32 32  0     1  0  0  0  0  0999 V2000
   -3.3795   -2.5328    0.6701 H   0  0  0  0  0  0  0  0  0  0  0  0
   -3.2814   -1.5848    0.1336 C   0  0  0  0  0  0  0  0  0  0  0  0
   -4.0305   -0.8863    0.5144 H   0  0  0  0  0  0  0  0  0  0  0  0
   -3.4639   -1.7613   -0.9293 H   0  0  0  0  0  0  0  0  0  0  0  0
   -1.8906   -1.0121    0.3320 C   0  0  0  0  0  0  0  0  0  0  0  0
   -1.0648   -1.6607    0.9540 O   0  0  0  0  0  0  0  0  0  0  0  0
   -1.5769    0.2003   -0.2515 N   0  0  0  0  0  0  0  0  0  0  0  0
   -2.2941    0.5988   -0.8512 H   0  0  0  0  0  0  0  0  0  0  0  0
   -0.3120    0.9568   -0.1436 C   0  0  1  0  0  0  0  0  0  0  0  0
   -0.5565    1.9979   -0.3768 H   0  0  0  0  0  0  0  0  0  0  0  0
    0.3481    0.9957    1.2565 C   0  0  0  0  0  0  0  0  0  0  0  0
    0.5543   -0.0060    1.6393 H   0  0  0  0  0  0  0  0  0  0  0  0
    1.3164    1.5006    1.1790 H   0  0  0  0  0  0  0  0  0  0  0  0
   -0.5015    1.7746    2.2320 C   0  0  0  0  0  0  0  0  0  0  0  0
   -0.4553    3.1770    2.2580 C   0  0  0  0  0  0  0  0  0  0  0  0
    0.1953    3.7140    1.5744 H   0  0  0  0  0  0  0  0  0  0  0  0
   -1.2435    3.8963    3.1629 C   0  0  0  0  0  0  0  0  0  0  0  0
   -1.2012    4.9814    3.1772 H   0  0  0  0  0  0  0  0  0  0  0  0
   -2.0837    3.2184    4.0514 C   0  0  0  0  0  0  0  0  0  0  0  0
   -2.6942    3.7761    4.7554 H   0  0  0  0  0  0  0  0  0  0  0  0
   -2.1340    1.8212    4.0348 C   0  0  0  0  0  0  0  0  0  0  0  0
   -2.7828    1.2917    4.7263 H   0  0  0  0  0  0  0  0  0  0  0  0
   -1.3452    1.1037    3.1293 C   0  0  0  0  0  0  0  0  0  0  0  0
   -1.3869    0.0178    3.1254 H   0  0  0  0  0  0  0  0  0  0  0  0
    0.6512    0.5248   -1.2695 C   0  0  0  0  0  0  0  0  0  0  0  0
    0.3229    0.7088   -2.4354 O   0  0  0  0  0  0  0  0  0  0  0  0
    1.8909   -0.0269   -0.9974 N   0  0  0  0  0  0  0  0  0  0  0  0
    2.0503   -0.3273   -0.0396 H   0  0  0  0  0  0  0  0  0  0  0  0
    2.7797   -0.5278   -2.0385 C   0  0  0  0  0  0  0  0  0  0  0  0
    3.0180    0.2659   -2.7544 H   0  0  0  0  0  0  0  0  0  0  0  0
    3.7153   -0.8838   -1.5969 H   0  0  0  0  0  0  0  0  0  0  0  0
    2.3102   -1.3585   -2.5758 H   0  0  0  0  0  0  0  0  0  0  0  0
  1  2  1  0  0  0  0
  2  3  1  0  0  0  0
  2  4  1  0  0  0  0
  2  5  1  0  0  0  0
  5  6  2  0  0  0  0
  5  7  1  0  0  0  0
  7  8  1  0  0  0  0
  7  9  1  0  0  0  0
  9 10  1  0  0  0  0
  9 11  1  0  0  0  0
  9 25  1  0  0  0  0
 11 12  1  0  0  0  0
 11 13  1  0  0  0  0
 11 14  1  0  0  0  0
 14 15  1  0  0  0  0
 14 23  2  0  0  0  0
 15 16  1  0  0  0  0
 15 17  2  0  0  0  0
 17 18  1  0  0  0  0
 17 19  1  0  0  0  0
 19 20  1  0  0  0  0
 19 21  2  0  0  0  0
 21 22  1  0  0  0  0
 21 23  1  0  0  0  0
 23 24  1  0  0  0  0
 25 26  2  0  0  0  0
 25 27  1  0  0  0  0
 27 28  1  0  0  0  0
 27 29  1  0  0  0  0
 29 30  1  0  0  0  0
 29 31  1  0  0  0  0
 29 32  1  0  0  0  0
M  END
$$$$

  -OEChem-01062216093D

 32 32  0     1  0  0  0  0  0999 V2000
   -3.3824   -2.4974    0.7329 H   0  0  0  0  0  0  0  0  0  0  0  0
   -3.2912   -1.5512    0.1921 C   0  0  0  0  0  0  0  0  0  0  0  0
   -4.0007   -0.8356    0.6143 H   0  0  0  0  0  0  0  0  0  0  0  0
   -3.5365   -1.7216   -0.8590 H   0  0  0  0  0  0  0  0  0  0  0  0
   -1.8784   -1.0121    0.3131 C   0  0  0  0  0  0  0  0  0  0  0  0
   -1.0264   -1.6858    0.8704 O   0  0  0  0  0  0  0  0  0  0  0  0
   -1.5683    0.1981   -0.2756 N   0  0  0  0  0  0  0  0  0  0  0  0
   -2.3221    0.6473   -0.7882 H   0  0  0  0  0  0  0  0  0  0  0  0
   -0.3041    0.9526   -0.1570 C   0  0  1  0  0  0  0  0  0  0  0  0
   -0.5452    1.9942   -0.3917 H   0  0  0  0  0  0  0  0  0  0  0  0
    0.3515    0.9880    1.2446 C   0  0  0  0  0  0  0  0  0  0  0  0
    0.5529   -0.0144    1.6284 H   0  0  0  0  0  0  0  0  0  0  0  0
    1.3225    1.4881    1.1673 H   0  0  0  0  0  0  0  0  0  0  0  0
   -0.5023    1.7650    2.2174 C   0  0  0  0  0  0  0  0  0  0  0  0
   -0.4574    3.1672    2.2465 C   0  0  0  0  0  0  0  0  0  0  0  0
    0.1959    3.7060    1.5666 H   0  0  0  0  0  0  0  0  0  0  0  0
   -1.2533    3.8835    3.1473 C   0  0  0  0  0  0  0  0  0  0  0  0
   -1.2137    4.9687    3.1623 H   0  0  0  0  0  0  0  0  0  0  0  0
   -2.0975    3.2028    4.0300 C   0  0  0  0  0  0  0  0  0  0  0  0
   -2.7132    3.7583    4.7313 H   0  0  0  0  0  0  0  0  0  0  0  0
   -2.1437    1.8055    4.0121 C   0  0  0  0  0  0  0  0  0  0  0  0
   -2.7939    1.2734    4.7003 H   0  0  0  0  0  0  0  0  0  0  0  0
   -1.3485    1.0909    3.1101 C   0  0  0  0  0  0  0  0  0  0  0  0
   -1.3867    0.0050    3.1054 H   0  0  0  0  0  0  0  0  0  0  0  0
    0.6694    0.5172   -1.2689 C   0  0  0  0  0  0  0  0  0  0  0  0
    0.4936    0.9191   -2.4123 O   0  0  0  0  0  0  0  0  0  0  0  0
    1.7486   -0.3016   -0.9899 N   0  0  0  0  0  0  0  0  0  0  0  0
    1.7266   -0.7726   -0.0881 H   0  0  0  0  0  0  0  0  0  0  0  0
    2.6258   -0.8309   -2.0260 C   0  0  0  0  0  0  0  0  0  0  0  0
    3.0769   -0.0151   -2.6005 H   0  0  0  0  0  0  0  0  0  0  0  0
    3.4306   -1.4191   -1.5747 H   0  0  0  0  0  0  0  0  0  0  0  0
    2.0642   -1.4754   -2.7102 H   0  0  0  0  0  0  0  0  0  0  0  0
  1  2  1  0  0  0  0
  2  3  1  0  0  0  0
  2  4  1  0  0  0  0
  2  5  1  0  0  0  0
  5  6  2  0  0  0  0
  5  7  1  0  0  0  0
  7  8  1  0  0  0  0
  7  9  1  0  0  0  0
  9 10  1  0  0  0  0
  9 11  1  0  0  0  0
  9 25  1  0  0  0  0
 11 12  1  0  0  0  0
 11 13  1  0  0  0  0
 11 14  1  0  0  0  0
 14 15  1  0  0  0  0
 14 23  2  0  0  0  0
 15 16  1  0  0  0  0
 15 17  2  0  0  0  0
 17 18  1  0  0  0  0
 17 19  1  0  0  0  0
 19 20  1  0  0  0  0
 19 21  2  0  0  0  0
 21 22  1  0  0  0  0
 21 23  1  0  0  0  0
 23 24  1  0  0  0  0
 25 26  2  0  0  0  0
 25 27  1  0  0  0  0
 27 28  1  0  0  0  0
 27 29  1  0  0  0  0
 29 30  1  0  0  0  0
 29 31  1  0  0  0  0
 29 32  1  0  0  0  0
M  END
$$$$

  -OEChem-01062216093D

 32 32  0     1  0  0  0  0  0999 V2000
   -3.3668   -2.4694    0.7987 H   0  0  0  0  0  0  0  0  0  0  0  0
   -3.2956   -1.5119    0.2751 C   0  0  0  0  0  0  0  0  0  0  0  0
   -3.9487   -0.7901    0.7716 H   0  0  0  0  0  0  0  0  0  0  0  0
   -3.6310   -1.6482   -0.7559 H   0  0  0  0  0  0  0  0  0  0  0  0
   -1.8641   -1.0104    0.2918 C   0  0  0  0  0  0  0  0  0  0  0  0
   -0.9830   -1.7135    0.7628 O   0  0  0  0  0  0  0  0  0  0  0  0
   -1.5635    0.1973   -0.3062 N   0  0  0  0  0  0  0  0  0  0  0  0
   -2.3494    0.6946   -0.7156 H   0  0  0  0  0  0  0  0  0  0  0  0
   -0.2989    0.9481   -0.1765 C   0  0  1  0  0  0  0  0  0  0  0  0
   -0.5351    1.9909   -0.4117 H   0  0  0  0  0  0  0  0  0  0  0  0
    0.3529    0.9753    1.2262 C   0  0  0  0  0  0  0  0  0  0  0  0
    0.5523   -0.0292    1.6060 H   0  0  0  0  0  0  0  0  0  0  0  0
    1.3254    1.4732    1.1520 H   0  0  0  0  0  0  0  0  0  0  0  0
   -0.5048    1.7489    2.1979 C   0  0  0  0  0  0  0  0  0  0  0  0
   -0.4582    3.1505    2.2318 C   0  0  0  0  0  0  0  0  0  0  0  0
    0.2010    3.6903    1.5581 H   0  0  0  0  0  0  0  0  0  0  0  0
   -1.2603    3.8650    3.1283 C   0  0  0  0  0  0  0  0  0  0  0  0
   -1.2188    4.9502    3.1462 H   0  0  0  0  0  0  0  0  0  0  0  0
   -2.1129    3.1828    4.0019 C   0  0  0  0  0  0  0  0  0  0  0  0
   -2.7341    3.7372    4.6994 H   0  0  0  0  0  0  0  0  0  0  0  0
   -2.1608    1.7857    3.9792 C   0  0  0  0  0  0  0  0  0  0  0  0
   -2.8182    1.2531    4.6598 H   0  0  0  0  0  0  0  0  0  0  0  0
   -1.3584    1.0729    3.0822 C   0  0  0  0  0  0  0  0  0  0  0  0
   -1.3968   -0.0128    3.0750 H   0  0  0  0  0  0  0  0  0  0  0  0
    0.6831    0.5058   -1.2746 C   0  0  0  0  0  0  0  0  0  0  0  0
    0.7141    1.1025   -2.3433 O   0  0  0  0  0  0  0  0  0  0  0  0
    1.5511   -0.5440   -1.0414 N   0  0  0  0  0  0  0  0  0  0  0  0
    1.3200   -1.1315   -0.2407 H   0  0  0  0  0  0  0  0  0  0  0  0
    2.4242   -1.0883   -2.0727 C   0  0  0  0  0  0  0  0  0  0  0  0
    3.0928   -0.3115   -2.4584 H   0  0  0  0  0  0  0  0  0  0  0  0
    3.0368   -1.8959   -1.6608 H   0  0  0  0  0  0  0  0  0  0  0  0
    1.8324   -1.4881   -2.9027 H   0  0  0  0  0  0  0  0  0  0  0  0
  1  2  1  0  0  0  0
  2  3  1  0  0  0  0
  2  4  1  0  0  0  0
  2  5  1  0  0  0  0
  5  6  2  0  0  0  0
  5  7  1  0  0  0  0
  7  8  1  0  0  0  0
  7  9  1  0  0  0  0
  9 10  1  0  0  0  0
  9 11  1  0  0  0  0
  9 25  1  0  0  0  0
 11 12  1  0  0  0  0
 11 13  1  0  0  0  0
 11 14  1  0  0  0  0
 14 15  1  0  0  0  0
 14 23  2  0  0  0  0
 15 16  1  0  0  0  0
 15 17  2  0  0  0  0
 17 18  1  0  0  0  0
 17 19  1  0  0  0  0
 19 20  1  0  0  0  0
 19 21  2  0  0  0  0
 21 22  1  0  0  0  0
 21 23  1  0  0  0  0
 23 24  1  0  0  0  0
 25 26  2  0  0  0  0
 25 27  1  0  0  0  0
 27 28  1  0  0  0  0
 27 29  1  0  0  0  0
 29 30  1  0  0  0  0
 29 31  1  0  0  0  0
 29 32  1  0  0  0  0
M  END
$$$$

  -OEChem-01062216093D

 32 32  0     1  0  0  0  0  0999 V2000
   -3.3768   -2.4225    0.8800 H   0  0  0  0  0  0  0  0  0  0  0  0
   -3.3120   -1.4700    0.3466 C   0  0  0  0  0  0  0  0  0  0  0  0
   -3.9163   -0.7292    0.8762 H   0  0  0  0  0  0  0  0  0  0  0  0
   -3.7110   -1.6031   -0.6621 H   0  0  0  0  0  0  0  0  0  0  0  0
   -1.8696   -1.0061    0.2760 C   0  0  0  0  0  0  0  0  0  0  0  0
   -0.9768   -1.7364    0.6797 O   0  0  0  0  0  0  0  0  0  0  0  0
   -1.5713    0.1958   -0.3345 N   0  0  0  0  0  0  0  0  0  0  0  0
   -2.3727    0.7226   -0.6710 H   0  0  0  0  0  0  0  0  0  0  0  0
   -0.3037    0.9440   -0.2022 C   0  0  1  0  0  0  0  0  0  0  0  0
   -0.5342    1.9881   -0.4383 H   0  0  0  0  0  0  0  0  0  0  0  0
    0.3468    0.9608    1.2000 C   0  0  0  0  0  0  0  0  0  0  0  0
    0.5418   -0.0472    1.5730 H   0  0  0  0  0  0  0  0  0  0  0  0
    1.3216    1.4549    1.1292 H   0  0  0  0  0  0  0  0  0  0  0  0
   -0.5102    1.7308    2.1753 C   0  0  0  0  0  0  0  0  0  0  0  0
   -0.4600    3.1321    2.2171 C   0  0  0  0  0  0  0  0  0  0  0  0
    0.2016    3.6733    1.5469 H   0  0  0  0  0  0  0  0  0  0  0  0
   -1.2614    3.8441    3.1160 C   0  0  0  0  0  0  0  0  0  0  0  0
   -1.2170    4.9290    3.1397 H   0  0  0  0  0  0  0  0  0  0  0  0
   -2.1165    3.1590    3.9850 C   0  0  0  0  0  0  0  0  0  0  0  0
   -2.7369    3.7108    4.6853 H   0  0  0  0  0  0  0  0  0  0  0  0
   -2.1669    1.7620    3.9556 C   0  0  0  0  0  0  0  0  0  0  0  0
   -2.8249    1.2272    4.6342 H   0  0  0  0  0  0  0  0  0  0  0  0
   -1.3651    1.0519    3.0559 C   0  0  0  0  0  0  0  0  0  0  0  0
   -1.4041   -0.0339    3.0455 H   0  0  0  0  0  0  0  0  0  0  0  0
    0.6885    0.4942   -1.2864 C   0  0  0  0  0  0  0  0  0  0  0  0
    0.9411    1.2240   -2.2362 O   0  0  0  0  0  0  0  0  0  0  0  0
    1.3205   -0.7275   -1.1570 N   0  0  0  0  0  0  0  0  0  0  0  0
    0.9309   -1.3517   -0.4477 H   0  0  0  0  0  0  0  0  0  0  0  0
    2.1963   -1.2834   -2.1789 C   0  0  0  0  0  0  0  0  0  0  0  0
    3.0296   -0.6024   -2.3808 H   0  0  0  0  0  0  0  0  0  0  0  0
    2.6075   -2.2401   -1.8432 H   0  0  0  0  0  0  0  0  0  0  0  0
    1.6423   -1.4495   -3.1086 H   0  0  0  0  0  0  0  0  0  0  0  0
  1  2  1  0  0  0  0
  2  3  1  0  0  0  0
  2  4  1  0  0  0  0
  2  5  1  0  0  0  0
  5  6  2  0  0  0  0
  5  7  1  0  0  0  0
  7  8  1  0  0  0  0
  7  9  1  0  0  0  0
  9 10  1  0  0  0  0
  9 11  1  0  0  0  0
  9 25  1  0  0  0  0
 11 12  1  0  0  0  0
 11 13  1  0  0  0  0
 11 14  1  0  0  0  0
 14 15  1  0  0  0  0
 14 23  2  0  0  0  0
 15 16  1  0  0  0  0
 15 17  2  0  0  0  0
 17 18  1  0  0  0  0
 17 19  1  0  0  0  0
 19 20  1  0  0  0  0
 19 21  2  0  0  0  0
 21 22  1  0  0  0  0
 21 23  1  0  0  0  0
 23 24  1  0  0  0  0
 25 26  2  0  0  0  0
 25 27  1  0  0  0  0
 27 28  1  0  0  0  0
 27 29  1  0  0  0  0
 29 30  1  0  0  0  0
 29 31  1  0  0  0  0
 29 32  1  0  0  0  0
M  END
$$$$

  -OEChem-01062216093D

 32 32  0     1  0  0  0  0  0999 V2000
   -3.4246   -2.3817    0.9477 H   0  0  0  0  0  0  0  0  0  0  0  0
   -3.3558   -1.4398    0.3964 C   0  0  0  0  0  0  0  0  0  0  0  0
   -3.9300   -0.6783    0.9298 H   0  0  0  0  0  0  0  0  0  0  0  0
   -3.7854   -1.5809   -0.5984 H   0  0  0  0  0  0  0  0  0  0  0  0
   -1.9070   -1.0071    0.2784 C   0  0  0  0  0  0  0  0  0  0  0  0
   -1.0177   -1.7594    0.6467 O   0  0  0  0  0  0  0  0  0  0  0  0
   -1.6023    0.1867   -0.3448 N   0  0  0  0  0  0  0  0  0  0  0  0
   -2.4079    0.7281   -0.6461 H   0  0  0  0  0  0  0  0  0  0  0  0
   -0.3290    0.9313   -0.2276 C   0  0  1  0  0  0  0  0  0  0  0  0
   -0.5570    1.9757   -0.4645 H   0  0  0  0  0  0  0  0  0  0  0  0
    0.3304    0.9408    1.1693 C   0  0  0  0  0  0  0  0  0  0  0  0
    0.5223   -0.0707    1.5354 H   0  0  0  0  0  0  0  0  0  0  0  0
    1.3078    1.4293    1.0946 H   0  0  0  0  0  0  0  0  0  0  0  0
   -0.5151    1.7121    2.1533 C   0  0  0  0  0  0  0  0  0  0  0  0
   -0.4561    3.1129    2.1980 C   0  0  0  0  0  0  0  0  0  0  0  0
    0.2048    3.6518    1.5248 H   0  0  0  0  0  0  0  0  0  0  0  0
   -1.2461    3.8270    3.1052 C   0  0  0  0  0  0  0  0  0  0  0  0
   -1.1946    4.9114    3.1318 H   0  0  0  0  0  0  0  0  0  0  0  0
   -2.0983    3.1449    3.9791 C   0  0  0  0  0  0  0  0  0  0  0  0
   -2.7095    3.6990    4.6855 H   0  0  0  0  0  0  0  0  0  0  0  0
   -2.1562    1.7482    3.9480 C   0  0  0  0  0  0  0  0  0  0  0  0
   -2.8103    1.2158    4.6321 H   0  0  0  0  0  0  0  0  0  0  0  0
   -1.3657    1.0358    3.0402 C   0  0  0  0  0  0  0  0  0  0  0  0
   -1.4085   -0.0496    3.0286 H   0  0  0  0  0  0  0  0  0  0  0  0
    0.6685    0.4775   -1.3063 C   0  0  0  0  0  0  0  0  0  0  0  0
    1.1294    1.2846   -2.1026 O   0  0  0  0  0  0  0  0  0  0  0  0
    1.0678   -0.8441   -1.3450 N   0  0  0  0  0  0  0  0  0  0  0  0
    0.5996   -1.4767   -0.6917 H   0  0  0  0  0  0  0  0  0  0  0  0
    1.9812   -1.3869   -2.3406 C   0  0  0  0  0  0  0  0  0  0  0  0
    2.9318   -0.8438   -2.3246 H   0  0  0  0  0  0  0  0  0  0  0  0
    2.1838   -2.4415   -2.1315 H   0  0  0  0  0  0  0  0  0  0  0  0
    1.5460   -1.3081   -3.3423 H   0  0  0  0  0  0  0  0  0  0  0  0
  1  2  1  0  0  0  0
  2  3  1  0  0  0  0
  2  4  1  0  0  0  0
  2  5  1  0  0  0  0
  5  6  2  0  0  0  0
  5  7  1  0  0  0  0
  7  8  1  0  0  0  0
  7  9  1  0  0  0  0
  9 10  1  0  0  0  0
  9 11  1  0  0  0  0
  9 25  1  0  0  0  0
 11 12  1  0  0  0  0
 11 13  1  0  0  0  0
 11 14  1  0  0  0  0
 14 15  1  0  0  0  0
 14 23  2  0  0  0  0
 15 16  1  0  0  0  0
 15 17  2  0  0  0  0
 17 18  1  0  0  0  0
 17 19  1  0  0  0  0
 19 20  1  0  0  0  0
 19 21  2  0  0  0  0
 21 22  1  0  0  0  0
 21 23  1  0  0  0  0
 23 24  1  0  0  0  0
 25 26  2  0  0  0  0
 25 27  1  0  0  0  0
 27 28  1  0  0  0  0
 27 29  1  0  0  0  0
 29 30  1  0  0  0  0
 29 31  1  0  0  0  0
 29 32  1  0  0  0  0
M  END
$$$$

  -OEChem-01062216093D

 32 32  0     1  0  0  0  0  0999 V2000
   -3.4617   -2.3549    1.0116 H   0  0  0  0  0  0  0  0  0  0  0  0
   -3.4003   -1.4103    0.4640 C   0  0  0  0  0  0  0  0  0  0  0  0
   -3.9277   -0.6402    1.0326 H   0  0  0  0  0  0  0  0  0  0  0  0
   -3.8854   -1.5334   -0.5075 H   0  0  0  0  0  0  0  0  0  0  0  0
   -1.9502   -1.0095    0.2737 C   0  0  0  0  0  0  0  0  0  0  0  0
   -1.0601   -1.7842    0.5881 O   0  0  0  0  0  0  0  0  0  0  0  0
   -1.6492    0.1789   -0.3606 N   0  0  0  0  0  0  0  0  0  0  0  0
   -2.4601    0.7353   -0.6168 H   0  0  0  0  0  0  0  0  0  0  0  0
   -0.3697    0.9187   -0.2648 C   0  0  1  0  0  0  0  0  0  0  0  0
   -0.5965    1.9635   -0.5000 H   0  0  0  0  0  0  0  0  0  0  0  0
    0.3029    0.9205    1.1255 C   0  0  0  0  0  0  0  0  0  0  0  0
    0.4907   -0.0945    1.4841 H   0  0  0  0  0  0  0  0  0  0  0  0
    1.2833    1.4018    1.0428 H   0  0  0  0  0  0  0  0  0  0  0  0
   -0.5266    1.6941    2.1224 C   0  0  0  0  0  0  0  0  0  0  0  0
   -0.4577    3.0944    2.1713 C   0  0  0  0  0  0  0  0  0  0  0  0
    0.1963    3.6306    1.4894 H   0  0  0  0  0  0  0  0  0  0  0  0
   -1.2286    3.8110    3.0933 C   0  0  0  0  0  0  0  0  0  0  0  0
   -1.1699    4.8951    3.1222 H   0  0  0  0  0  0  0  0  0  0  0  0
   -2.0705    3.1315    3.9791 C   0  0  0  0  0  0  0  0  0  0  0  0
   -2.6661    3.6874    4.6972 H   0  0  0  0  0  0  0  0  0  0  0  0
   -2.1374    1.7353    3.9451 C   0  0  0  0  0  0  0  0  0  0  0  0
   -2.7831    1.2053    4.6392 H   0  0  0  0  0  0  0  0  0  0  0  0
   -1.3665    1.0206    3.0220 C   0  0  0  0  0  0  0  0  0  0  0  0
   -1.4154   -0.0647    3.0100 H   0  0  0  0  0  0  0  0  0  0  0  0
    0.6278    0.4686   -1.3467 C   0  0  0  0  0  0  0  0  0  0  0  0
    1.2827    1.2994   -1.9621 O   0  0  0  0  0  0  0  0  0  0  0  0
    0.8055   -0.8779   -1.5978 N   0  0  0  0  0  0  0  0  0  0  0  0
    0.3009   -1.5201   -0.9823 H   0  0  0  0  0  0  0  0  0  0  0  0
    1.7906   -1.4054   -2.5311 C   0  0  0  0  0  0  0  0  0  0  0  0
    2.8010   -1.1093   -2.2304 H   0  0  0  0  0  0  0  0  0  0  0  0
    1.7416   -2.4982   -2.5529 H   0  0  0  0  0  0  0  0  0  0  0  0
    1.5984   -1.0299   -3.5415 H   0  0  0  0  0  0  0  0  0  0  0  0
  1  2  1  0  0  0  0
  2  3  1  0  0  0  0
  2  4  1  0  0  0  0
  2  5  1  0  0  0  0
  5  6  2  0  0  0  0
  5  7  1  0  0  0  0
  7  8  1  0  0  0  0
  7  9  1  0  0  0  0
  9 10  1  0  0  0  0
  9 11  1  0  0  0  0
  9 25  1  0  0  0  0
 11 12  1  0  0  0  0
 11 13  1  0  0  0  0
 11 14  1  0  0  0  0
 14 15  1  0  0  0  0
 14 23  2  0  0  0  0
 15 16  1  0  0  0  0
 15 17  2  0  0  0  0
 17 18  1  0  0  0  0
 17 19  1  0  0  0  0
 19 20  1  0  0  0  0
 19 21  2  0  0  0  0
 21 22  1  0  0  0  0
 21 23  1  0  0  0  0
 23 24  1  0  0  0  0
 25 26  2  0  0  0  0
 25 27  1  0  0  0  0
 27 28  1  0  0  0  0
 27 29  1  0  0  0  0
 29 30  1  0  0  0  0
 29 31  1  0  0  0  0
 29 32  1  0  0  0  0
M  END
$$$$

  -OEChem-01062216093D

 32 32  0     1  0  0  0  0  0999 V2000
   -3.4646   -2.3238    1.0880 H   0  0  0  0  0  0  0  0  0  0  0  0
   -3.4134   -1.3821    0.5343 C   0  0  0  0  0  0  0  0  0  0  0  0
   -3.8982   -0.6010    1.1252 H   0  0  0  0  0  0  0  0  0  0  0  0
   -3.9477   -1.4992   -0.4116 H   0  0  0  0  0  0  0  0  0  0  0  0
   -1.9672   -1.0082    0.2716 C   0  0  0  0  0  0  0  0  0  0  0  0
   -1.0767   -1.8042    0.5224 O   0  0  0  0  0  0  0  0  0  0  0  0
   -1.6731    0.1785   -0.3681 N   0  0  0  0  0  0  0  0  0  0  0  0
   -2.4875    0.7500   -0.5753 H   0  0  0  0  0  0  0  0  0  0  0  0
   -0.3892    0.9143   -0.2858 C   0  0  1  0  0  0  0  0  0  0  0  0
   -0.6144    1.9604   -0.5169 H   0  0  0  0  0  0  0  0  0  0  0  0
    0.2875    0.9055    1.1027 C   0  0  0  0  0  0  0  0  0  0  0  0
    0.4698   -0.1130    1.4548 H   0  0  0  0  0  0  0  0  0  0  0  0
    1.2700    1.3831    1.0218 H   0  0  0  0  0  0  0  0  0  0  0  0
   -0.5361    1.6789    2.1036 C   0  0  0  0  0  0  0  0  0  0  0  0
   -0.4588    3.0782    2.1567 C   0  0  0  0  0  0  0  0  0  0  0  0
    0.1972    3.6122    1.4750 H   0  0  0  0  0  0  0  0  0  0  0  0
   -1.2240    3.7958    3.0822 C   0  0  0  0  0  0  0  0  0  0  0  0
   -1.1583    4.8795    3.1151 H   0  0  0  0  0  0  0  0  0  0  0  0
   -2.0681    3.1183    3.9676 C   0  0  0  0  0  0  0  0  0  0  0  0
   -2.6590    3.6756    4.6887 H   0  0  0  0  0  0  0  0  0  0  0  0
   -2.1421    1.7225    3.9299 C   0  0  0  0  0  0  0  0  0  0  0  0
   -2.7875    1.1937    4.6250 H   0  0  0  0  0  0  0  0  0  0  0  0
   -1.3768    1.0067    3.0032 C   0  0  0  0  0  0  0  0  0  0  0  0
   -1.4297   -0.0782    2.9891 H   0  0  0  0  0  0  0  0  0  0  0  0
    0.6094    0.4720   -1.3721 C   0  0  0  0  0  0  0  0  0  0  0  0
    1.4229    1.2735   -1.8133 O   0  0  0  0  0  0  0  0  0  0  0  0
    0.5839   -0.8226   -1.8539 N   0  0  0  0  0  0  0  0  0  0  0  0
    0.0203   -1.4772   -1.3083 H   0  0  0  0  0  0  0  0  0  0  0  0
    1.5821   -1.3507   -2.7734 C   0  0  0  0  0  0  0  0  0  0  0  0
    2.5743   -1.3357   -2.3108 H   0  0  0  0  0  0  0  0  0  0  0  0
    1.3381   -2.3828   -3.0420 H   0  0  0  0  0  0  0  0  0  0  0  0
    1.6118   -0.7537   -3.6908 H   0  0  0  0  0  0  0  0  0  0  0  0
  1  2  1  0  0  0  0
  2  3  1  0  0  0  0
  2  4  1  0  0  0  0
  2  5  1  0  0  0  0
  5  6  2  0  0  0  0
  5  7  1  0  0  0  0
  7  8  1  0  0  0  0
  7  9  1  0  0  0  0
  9 10  1  0  0  0  0
  9 11  1  0  0  0  0
  9 25  1  0  0  0  0
 11 12  1  0  0  0  0
 11 13  1  0  0  0  0
 11 14  1  0  0  0  0
 14 15  1  0  0  0  0
 14 23  2  0  0  0  0
 15 16  1  0  0  0  0
 15 17  2  0  0  0  0
 17 18  1  0  0  0  0
 17 19  1  0  0  0  0
 19 20  1  0  0  0  0
 19 21  2  0  0  0  0
 21 22  1  0  0  0  0
 21 23  1  0  0  0  0
 23 24  1  0  0  0  0
 25 26  2  0  0  0  0
 25 27  1  0  0  0  0
 27 28  1  0  0  0  0
 27 29  1  0  0  0  0
 29 30  1  0  0  0  0
 29 31  1  0  0  0  0
 29 32  1  0  0  0  0
M  END
$$$$

  -OEChem-01062216093D

 32 32  0     1  0  0  0  0  0999 V2000
   -3.4583   -2.3205    1.1194 H   0  0  0  0  0  0  0  0  0  0  0  0
   -3.4115   -1.3844    0.5557 C   0  0  0  0  0  0  0  0  0  0  0  0
   -3.8932   -0.5978    1.1421 H   0  0  0  0  0  0  0  0  0  0  0  0
   -3.9521   -1.5119   -0.3853 H   0  0  0  0  0  0  0  0  0  0  0  0
   -1.9672   -1.0124    0.2792 C   0  0  0  0  0  0  0  0  0  0  0  0
   -1.0783   -1.8141    0.5115 O   0  0  0  0  0  0  0  0  0  0  0  0
   -1.6764    0.1746   -0.3614 N   0  0  0  0  0  0  0  0  0  0  0  0
   -2.4919    0.7514   -0.5491 H   0  0  0  0  0  0  0  0  0  0  0  0
   -0.3900    0.9091   -0.2861 C   0  0  1  0  0  0  0  0  0  0  0  0
   -0.6146    1.9550   -0.5172 H   0  0  0  0  0  0  0  0  0  0  0  0
    0.2836    0.8991    1.1056 C   0  0  0  0  0  0  0  0  0  0  0  0
    0.4613   -0.1200    1.4582 H   0  0  0  0  0  0  0  0  0  0  0  0
    1.2686    1.3723    1.0295 H   0  0  0  0  0  0  0  0  0  0  0  0
   -0.5390    1.6764    2.1051 C   0  0  0  0  0  0  0  0  0  0  0  0
   -0.4565    3.0755    2.1581 C   0  0  0  0  0  0  0  0  0  0  0  0
    0.2047    3.6065    1.4789 H   0  0  0  0  0  0  0  0  0  0  0  0
   -1.2207    3.7963    3.0821 C   0  0  0  0  0  0  0  0  0  0  0  0
   -1.1497    4.8795    3.1162 H   0  0  0  0  0  0  0  0  0  0  0  0
   -2.0703    3.1225    3.9651 C   0  0  0  0  0  0  0  0  0  0  0  0
   -2.6606    3.6819    4.6850 H   0  0  0  0  0  0  0  0  0  0  0  0
   -2.1503    1.7271    3.9269 C   0  0  0  0  0  0  0  0  0  0  0  0
   -2.8000    1.2004    4.6197 H   0  0  0  0  0  0  0  0  0  0  0  0
   -1.3849    1.0081    3.0029 C   0  0  0  0  0  0  0  0  0  0  0  0
   -1.4418   -0.0766    2.9897 H   0  0  0  0  0  0  0  0  0  0  0  0
    0.6087    0.4722   -1.3771 C   0  0  0  0  0  0  0  0  0  0  0  0
    1.5533    1.1979   -1.6603 O   0  0  0  0  0  0  0  0  0  0  0  0
    0.4077   -0.6971   -2.0858 N   0  0  0  0  0  0  0  0  0  0  0  0
   -0.2528   -1.3463   -1.6601 H   0  0  0  0  0  0  0  0  0  0  0  0
    1.3713   -1.2154   -3.0475 C   0  0  0  0  0  0  0  0  0  0  0  0
    2.3221   -1.4410   -2.5535 H   0  0  0  0  0  0  0  0  0  0  0  0
    0.9899   -2.1331   -3.5052 H   0  0  0  0  0  0  0  0  0  0  0  0
    1.5516   -0.4839   -3.8422 H   0  0  0  0  0  0  0  0  0  0  0  0
  1  2  1  0  0  0  0
  2  3  1  0  0  0  0
  2  4  1  0  0  0  0
  2  5  1  0  0  0  0
  5  6  2  0  0  0  0
  5  7  1  0  0  0  0
  7  8  1  0  0  0  0
  7  9  1  0  0  0  0
  9 10  1  0  0  0  0
  9 11  1  0  0  0  0
  9 25  1  0  0  0  0
 11 12  1  0  0  0  0
 11 13  1  0  0  0  0
 11 14  1  0  0  0  0
 14 15  1  0  0  0  0
 14 23  2  0  0  0  0
 15 16  1  0  0  0  0
 15 17  2  0  0  0  0
 17 18  1  0  0  0  0
 17 19  1  0  0  0  0
 19 20  1  0  0  0  0
 19 21  2  0  0  0  0
 21 22  1  0  0  0  0
 21 23  1  0  0  0  0
 23 24  1  0  0  0  0
 25 26  2  0  0  0  0
 25 27  1  0  0  0  0
 27 28  1  0  0  0  0
 27 29  1  0  0  0  0
 29 30  1  0  0  0  0
 29 31  1  0  0  0  0
 29 32  1  0  0  0  0
M  END
$$$$

  -OEChem-01062216093D

 32 32  0     1  0  0  0  0  0999 V2000
   -3.4411   -2.3349    1.1303 H   0  0  0  0  0  0  0  0  0  0  0  0
   -3.3959   -1.3963    0.5709 C   0  0  0  0  0  0  0  0  0  0  0  0
   -3.8710   -0.6116    1.1649 H   0  0  0  0  0  0  0  0  0  0  0  0
   -3.9439   -1.5171   -0.3666 H   0  0  0  0  0  0  0  0  0  0  0  0
   -1.9527   -1.0266    0.2859 C   0  0  0  0  0  0  0  0  0  0  0  0
   -1.0648   -1.8257    0.5266 O   0  0  0  0  0  0  0  0  0  0  0  0
   -1.6678    0.1661   -0.3484 N   0  0  0  0  0  0  0  0  0  0  0  0
   -2.4850    0.7472   -0.5136 H   0  0  0  0  0  0  0  0  0  0  0  0
   -0.3796    0.8986   -0.2780 C   0  0  1  0  0  0  0  0  0  0  0  0
   -0.6048    1.9448   -0.5055 H   0  0  0  0  0  0  0  0  0  0  0  0
    0.2883    0.8891    1.1182 C   0  0  0  0  0  0  0  0  0  0  0  0
    0.4620   -0.1295    1.4741 H   0  0  0  0  0  0  0  0  0  0  0  0
    1.2746    1.3604    1.0508 H   0  0  0  0  0  0  0  0  0  0  0  0
   -0.5392    1.6719    2.1095 C   0  0  0  0  0  0  0  0  0  0  0  0
   -0.4528    3.0710    2.1577 C   0  0  0  0  0  0  0  0  0  0  0  0
    0.2155    3.5970    1.4816 H   0  0  0  0  0  0  0  0  0  0  0  0
   -1.2218    3.7980    3.0727 C   0  0  0  0  0  0  0  0  0  0  0  0
   -1.1485    4.8811    3.1020 H   0  0  0  0  0  0  0  0  0  0  0  0
   -2.0788    3.1301    3.9528 C   0  0  0  0  0  0  0  0  0  0  0  0
   -2.6724    3.6942    4.6662 H   0  0  0  0  0  0  0  0  0  0  0  0
   -2.1624    1.7347    3.9205 C   0  0  0  0  0  0  0  0  0  0  0  0
   -2.8178    1.2130    4.6119 H   0  0  0  0  0  0  0  0  0  0  0  0
   -1.3925    1.0095    3.0046 C   0  0  0  0  0  0  0  0  0  0  0  0
   -1.4512   -0.0753    2.9954 H   0  0  0  0  0  0  0  0  0  0  0  0
    0.6132    0.4727   -1.3815 C   0  0  0  0  0  0  0  0  0  0  0  0
    1.6732    1.0714   -1.5136 O   0  0  0  0  0  0  0  0  0  0  0  0
    0.2680   -0.4991   -2.3021 N   0  0  0  0  0  0  0  0  0  0  0  0
   -0.5214   -1.0823   -2.0360 H   0  0  0  0  0  0  0  0  0  0  0  0
    1.1940   -0.9979   -3.3106 C   0  0  0  0  0  0  0  0  0  0  0  0
    2.0574   -1.4742   -2.8344 H   0  0  0  0  0  0  0  0  0  0  0  0
    0.6971   -1.7350   -3.9487 H   0  0  0  0  0  0  0  0  0  0  0  0
    1.5488   -0.1782   -3.9443 H   0  0  0  0  0  0  0  0  0  0  0  0
  1  2  1  0  0  0  0
  2  3  1  0  0  0  0
  2  4  1  0  0  0  0
  2  5  1  0  0  0  0
  5  6  2  0  0  0  0
  5  7  1  0  0  0  0
  7  8  1  0  0  0  0
  7  9  1  0  0  0  0
  9 10  1  0  0  0  0
  9 11  1  0  0  0  0
  9 25  1  0  0  0  0
 11 12  1  0  0  0  0
 11 13  1  0  0  0  0
 11 14  1  0  0  0  0
 14 15  1  0  0  0  0
 14 23  2  0  0  0  0
 15 16  1  0  0  0  0
 15 17  2  0  0  0  0
 17 18  1  0  0  0  0
 17 19  1  0  0  0  0
 19 20  1  0  0  0  0
 19 21  2  0  0  0  0
 21 22  1  0  0  0  0
 21 23  1  0  0  0  0
 23 24  1  0  0  0  0
 25 26  2  0  0  0  0
 25 27  1  0  0  0  0
 27 28  1  0  0  0  0
 27 29  1  0  0  0  0
 29 30  1  0  0  0  0
 29 31  1  0  0  0  0
 29 32  1  0  0  0  0
M  END
$$$$

  -OEChem-01062216093D

 32 32  0     1  0  0  0  0  0999 V2000
   -3.4268   -2.3665    1.0890 H   0  0  0  0  0  0  0  0  0  0  0  0
   -3.3783   -1.4278    0.5296 C   0  0  0  0  0  0  0  0  0  0  0  0
   -3.8843   -0.6496    1.1064 H   0  0  0  0  0  0  0  0  0  0  0  0
   -3.8939   -1.5592   -0.4248 H   0  0  0  0  0  0  0  0  0  0  0  0
   -1.9320   -1.0373    0.2908 C   0  0  0  0  0  0  0  0  0  0  0  0
   -1.0439   -1.8214    0.5743 O   0  0  0  0  0  0  0  0  0  0  0  0
   -1.6490    0.1615   -0.3351 N   0  0  0  0  0  0  0  0  0  0  0  0
   -2.4682    0.7394   -0.5019 H   0  0  0  0  0  0  0  0  0  0  0  0
   -0.3614    0.8961   -0.2643 C   0  0  1  0  0  0  0  0  0  0  0  0
   -0.5889    1.9417   -0.4916 H   0  0  0  0  0  0  0  0  0  0  0  0
    0.3030    0.8928    1.1356 C   0  0  0  0  0  0  0  0  0  0  0  0
    0.4778   -0.1238    1.4961 H   0  0  0  0  0  0  0  0  0  0  0  0
    1.2881    1.3671    1.0735 H   0  0  0  0  0  0  0  0  0  0  0  0
   -0.5299    1.6787    2.1202 C   0  0  0  0  0  0  0  0  0  0  0  0
   -0.4475    3.0784    2.1642 C   0  0  0  0  0  0  0  0  0  0  0  0
    0.2228    3.6040    1.4898 H   0  0  0  0  0  0  0  0  0  0  0  0
   -1.2239    3.8063    3.0724 C   0  0  0  0  0  0  0  0  0  0  0  0
   -1.1551    4.8899    3.0975 H   0  0  0  0  0  0  0  0  0  0  0  0
   -2.0825    3.1386    3.9515 C   0  0  0  0  0  0  0  0  0  0  0  0
   -2.6807    3.7032    4.6607 H   0  0  0  0  0  0  0  0  0  0  0  0
   -2.1606    1.7426    3.9240 C   0  0  0  0  0  0  0  0  0  0  0  0
   -2.8159    1.2209    4.6153 H   0  0  0  0  0  0  0  0  0  0  0  0
   -1.3855    1.0168    3.0133 C   0  0  0  0  0  0  0  0  0  0  0  0
   -1.4409   -0.0683    3.0068 H   0  0  0  0  0  0  0  0  0  0  0  0
    0.6211    0.4724   -1.3807 C   0  0  0  0  0  0  0  0  0  0  0  0
    1.7732    0.8875   -1.3879 O   0  0  0  0  0  0  0  0  0  0  0  0
    0.1674   -0.2492   -2.4698 N   0  0  0  0  0  0  0  0  0  0  0  0
   -0.7386   -0.6931   -2.3516 H   0  0  0  0  0  0  0  0  0  0  0  0
    1.0494   -0.7309   -3.5255 C   0  0  0  0  0  0  0  0  0  0  0  0
    1.8030   -1.4102   -3.1137 H   0  0  0  0  0  0  0  0  0  0  0  0
    0.4727   -1.2696   -4.2833 H   0  0  0  0  0  0  0  0  0  0  0  0
    1.5594    0.1071   -4.0122 H   0  0  0  0  0  0  0  0  0  0  0  0
  1  2  1  0  0  0  0
  2  3  1  0  0  0  0
  2  4  1  0  0  0  0
  2  5  1  0  0  0  0
  5  6  2  0  0  0  0
  5  7  1  0  0  0  0
  7  8  1  0  0  0  0
  7  9  1  0  0  0  0
  9 10  1  0  0  0  0
  9 11  1  0  0  0  0
  9 25  1  0  0  0  0
 11 12  1  0  0  0  0
 11 13  1  0  0  0  0
 11 14  1  0  0  0  0
 14 15  1  0  0  0  0
 14 23  2  0  0  0  0
 15 16  1  0  0  0  0
 15 17  2  0  0  0  0
 17 18  1  0  0  0  0
 17 19  1  0  0  0  0
 19 20  1  0  0  0  0
 19 21  2  0  0  0  0
 21 22  1  0  0  0  0
 21 23  1  0  0  0  0
 23 24  1  0  0  0  0
 25 26  2  0  0  0  0
 25 27  1  0  0  0  0
 27 28  1  0  0  0  0
 27 29  1  0  0  0  0
 29 30  1  0  0  0  0
 29 31  1  0  0  0  0
 29 32  1  0  0  0  0
M  END
$$$$

  -OEChem-01062216093D

 32 32  0     1  0  0  0  0  0999 V2000
   -3.4088   -2.3764    1.0805 H   0  0  0  0  0  0  0  0  0  0  0  0
   -3.3568   -1.4423    0.5138 C   0  0  0  0  0  0  0  0  0  0  0  0
   -3.8734   -0.6619    1.0780 H   0  0  0  0  0  0  0  0  0  0  0  0
   -3.8594   -1.5838   -0.4459 H   0  0  0  0  0  0  0  0  0  0  0  0
   -1.9092   -1.0479    0.2886 C   0  0  0  0  0  0  0  0  0  0  0  0
   -1.0231   -1.8254    0.5950 O   0  0  0  0  0  0  0  0  0  0  0  0
   -1.6273    0.1539   -0.3332 N   0  0  0  0  0  0  0  0  0  0  0  0
   -2.4484    0.7296   -0.4979 H   0  0  0  0  0  0  0  0  0  0  0  0
   -0.3415    0.8902   -0.2575 C   0  0  1  0  0  0  0  0  0  0  0  0
   -0.5679    1.9357   -0.4860 H   0  0  0  0  0  0  0  0  0  0  0  0
    0.3156    0.8924    1.1466 C   0  0  0  0  0  0  0  0  0  0  0  0
    0.4928   -0.1224    1.5107 H   0  0  0  0  0  0  0  0  0  0  0  0
    1.2994    1.3699    1.0884 H   0  0  0  0  0  0  0  0  0  0  0  0
   -0.5239    1.6805    2.1246 C   0  0  0  0  0  0  0  0  0  0  0  0
   -0.4447    3.0806    2.1660 C   0  0  0  0  0  0  0  0  0  0  0  0
    0.2305    3.6062    1.4970 H   0  0  0  0  0  0  0  0  0  0  0  0
   -1.2287    3.8093    3.0673 C   0  0  0  0  0  0  0  0  0  0  0  0
   -1.1607    4.8930    3.0931 H   0  0  0  0  0  0  0  0  0  0  0  0
   -2.0943    3.1421    3.9396 C   0  0  0  0  0  0  0  0  0  0  0  0
   -2.7000    3.7069    4.6423 H   0  0  0  0  0  0  0  0  0  0  0  0
   -2.1705    1.7460    3.9140 C   0  0  0  0  0  0  0  0  0  0  0  0
   -2.8329    1.2247    4.5989 H   0  0  0  0  0  0  0  0  0  0  0  0
   -1.3854    1.0195    3.0125 C   0  0  0  0  0  0  0  0  0  0  0  0
   -1.4381   -0.0656    3.0084 H   0  0  0  0  0  0  0  0  0  0  0  0
    0.6332    0.4613   -1.3794 C   0  0  0  0  0  0  0  0  0  0  0  0
    1.8387    0.6530   -1.2818 O   0  0  0  0  0  0  0  0  0  0  0  0
    0.1303    0.0251   -2.5921 N   0  0  0  0  0  0  0  0  0  0  0  0
   -0.8495   -0.2399   -2.5952 H   0  0  0  0  0  0  0  0  0  0  0  0
    0.9789   -0.4121   -3.6939 C   0  0  0  0  0  0  0  0  0  0  0  0
    1.5749   -1.2814   -3.3964 H   0  0  0  0  0  0  0  0  0  0  0  0
    0.3659   -0.6895   -4.5566 H   0  0  0  0  0  0  0  0  0  0  0  0
    1.6567    0.3925   -3.9982 H   0  0  0  0  0  0  0  0  0  0  0  0
  1  2  1  0  0  0  0
  2  3  1  0  0  0  0
  2  4  1  0  0  0  0
  2  5  1  0  0  0  0
  5  6  2  0  0  0  0
  5  7  1  0  0  0  0
  7  8  1  0  0  0  0
  7  9  1  0  0  0  0
  9 10  1  0  0  0  0
  9 11  1  0  0  0  0
  9 25  1  0  0  0  0
 11 12  1  0  0  0  0
 11 13  1  0  0  0  0
 11 14  1  0  0  0  0
 14 15  1  0  0  0  0
 14 23  2  0  0  0  0
 15 16  1  0  0  0  0
 15 17  2  0  0  0  0
 17 18  1  0  0  0  0
 17 19  1  0  0  0  0
 19 20  1  0  0  0  0
 19 21  2  0  0  0  0
 21 22  1  0  0  0  0
 21 23  1  0  0  0  0
 23 24  1  0  0  0  0
 25 26  2  0  0  0  0
 25 27  1  0  0  0  0
 27 28  1  0  0  0  0
 27 29  1  0  0  0  0
 29 30  1  0  0  0  0
 29 31  1  0  0  0  0
 29 32  1  0  0  0  0
M  END
$$$$

  -OEChem-01062216093D

 32 32  0     1  0  0  0  0  0999 V2000
   -3.4047   -2.3981    1.0369 H   0  0  0  0  0  0  0  0  0  0  0  0
   -3.3471   -1.4626    0.4731 C   0  0  0  0  0  0  0  0  0  0  0  0
   -3.8866   -0.6881    1.0239 H   0  0  0  0  0  0  0  0  0  0  0  0
   -3.8218   -1.6081   -0.5002 H   0  0  0  0  0  0  0  0  0  0  0  0
   -1.8979   -1.0536    0.2874 C   0  0  0  0  0  0  0  0  0  0  0  0
   -1.0150   -1.8194    0.6297 O   0  0  0  0  0  0  0  0  0  0  0  0
   -1.6140    0.1499   -0.3309 N   0  0  0  0  0  0  0  0  0  0  0  0
   -2.4365    0.7179   -0.5115 H   0  0  0  0  0  0  0  0  0  0  0  0
   -0.3312    0.8895   -0.2527 C   0  0  1  0  0  0  0  0  0  0  0  0
   -0.5584    1.9346   -0.4814 H   0  0  0  0  0  0  0  0  0  0  0  0
    0.3252    0.8979    1.1513 C   0  0  0  0  0  0  0  0  0  0  0  0
    0.5072   -0.1152    1.5180 H   0  0  0  0  0  0  0  0  0  0  0  0
    1.3069    1.3794    1.0895 H   0  0  0  0  0  0  0  0  0  0  0  0
   -0.5163    1.6855    2.1281 C   0  0  0  0  0  0  0  0  0  0  0  0
   -0.4412    3.0859    2.1664 C   0  0  0  0  0  0  0  0  0  0  0  0
    0.2335    3.6118    1.4971 H   0  0  0  0  0  0  0  0  0  0  0  0
   -1.2271    3.8145    3.0659 C   0  0  0  0  0  0  0  0  0  0  0  0
   -1.1609    4.8981    3.0899 H   0  0  0  0  0  0  0  0  0  0  0  0
   -2.0918    3.1472    3.9390 C   0  0  0  0  0  0  0  0  0  0  0  0
   -2.6983    3.7123    4.6408 H   0  0  0  0  0  0  0  0  0  0  0  0
   -2.1659    1.7511    3.9149 C   0  0  0  0  0  0  0  0  0  0  0  0
   -2.8280    1.2298    4.6001 H   0  0  0  0  0  0  0  0  0  0  0  0
   -1.3786    1.0245    3.0153 C   0  0  0  0  0  0  0  0  0  0  0  0
   -1.4306   -0.0607    3.0115 H   0  0  0  0  0  0  0  0  0  0  0  0
    0.6364    0.4555   -1.3786 C   0  0  0  0  0  0  0  0  0  0  0  0
    1.8469    0.4014   -1.2030 O   0  0  0  0  0  0  0  0  0  0  0  0
    0.1522    0.3206   -2.6680 N   0  0  0  0  0  0  0  0  0  0  0  0
   -0.8562    0.2595   -2.7639 H   0  0  0  0  0  0  0  0  0  0  0  0
    0.9887   -0.0806   -3.7928 C   0  0  0  0  0  0  0  0  0  0  0  0
    1.4079   -1.0778   -3.6214 H   0  0  0  0  0  0  0  0  0  0  0  0
    0.3982   -0.1050   -4.7135 H   0  0  0  0  0  0  0  0  0  0  0  0
    1.8116    0.6289   -3.9308 H   0  0  0  0  0  0  0  0  0  0  0  0
  1  2  1  0  0  0  0
  2  3  1  0  0  0  0
  2  4  1  0  0  0  0
  2  5  1  0  0  0  0
  5  6  2  0  0  0  0
  5  7  1  0  0  0  0
  7  8  1  0  0  0  0
  7  9  1  0  0  0  0
  9 10  1  0  0  0  0
  9 11  1  0  0  0  0
  9 25  1  0  0  0  0
 11 12  1  0  0  0  0
 11 13  1  0  0  0  0
 11 14  1  0  0  0  0
 14 15  1  0  0  0  0
 14 23  2  0  0  0  0
 15 16  1  0  0  0  0
 15 17  2  0  0  0  0
 17 18  1  0  0  0  0
 17 19  1  0  0  0  0
 19 20  1  0  0  0  0
 19 21  2  0  0  0  0
 21 22  1  0  0  0  0
 21 23  1  0  0  0  0
 23 24  1  0  0  0  0
 25 26  2  0  0  0  0
 25 27  1  0  0  0  0
 27 28  1  0  0  0  0
 27 29  1  0  0  0  0
 29 30  1  0  0  0  0
 29 31  1  0  0  0  0
 29 32  1  0  0  0  0
M  END
$$$$

  -OEChem-01062216093D

 32 32  0     1  0  0  0  0  0999 V2000
   -3.4217   -2.4274    0.9839 H   0  0  0  0  0  0  0  0  0  0  0  0
   -3.3552   -1.4883    0.4271 C   0  0  0  0  0  0  0  0  0  0  0  0
   -3.9236   -0.7234    0.9618 H   0  0  0  0  0  0  0  0  0  0  0  0
   -3.7930   -1.6349   -0.5632 H   0  0  0  0  0  0  0  0  0  0  0  0
   -1.9052   -1.0612    0.2949 C   0  0  0  0  0  0  0  0  0  0  0  0
   -1.0304   -1.8092    0.6919 O   0  0  0  0  0  0  0  0  0  0  0  0
   -1.6156    0.1408   -0.3250 N   0  0  0  0  0  0  0  0  0  0  0  0
   -2.4372    0.6942   -0.5480 H   0  0  0  0  0  0  0  0  0  0  0  0
   -0.3356    0.8842   -0.2511 C   0  0  1  0  0  0  0  0  0  0  0  0
   -0.5665    1.9283   -0.4800 H   0  0  0  0  0  0  0  0  0  0  0  0
    0.3281    0.9032    1.1485 C   0  0  0  0  0  0  0  0  0  0  0  0
    0.5161   -0.1072    1.5198 H   0  0  0  0  0  0  0  0  0  0  0  0
    1.3083    1.3857    1.0745 H   0  0  0  0  0  0  0  0  0  0  0  0
   -0.5096    1.6928    2.1268 C   0  0  0  0  0  0  0  0  0  0  0  0
   -0.4398    3.0939    2.1584 C   0  0  0  0  0  0  0  0  0  0  0  0
    0.2272    3.6200    1.4818 H   0  0  0  0  0  0  0  0  0  0  0  0
   -1.2207    3.8233    3.0618 C   0  0  0  0  0  0  0  0  0  0  0  0
   -1.1587    4.9075    3.0808 H   0  0  0  0  0  0  0  0  0  0  0  0
   -2.0741    3.1561    3.9459 C   0  0  0  0  0  0  0  0  0  0  0  0
   -2.6755    3.7214    4.6517 H   0  0  0  0  0  0  0  0  0  0  0  0
   -2.1435    1.7598    3.9275 C   0  0  0  0  0  0  0  0  0  0  0  0
   -2.7970    1.2385    4.6206 H   0  0  0  0  0  0  0  0  0  0  0  0
   -1.3626    1.0324    3.0229 C   0  0  0  0  0  0  0  0  0  0  0  0
   -1.4111   -0.0531    3.0219 H   0  0  0  0  0  0  0  0  0  0  0  0
    0.6304    0.4472   -1.3767 C   0  0  0  0  0  0  0  0  0  0  0  0
    1.7914    0.1316   -1.1504 O   0  0  0  0  0  0  0  0  0  0  0  0
    0.2385    0.6054   -2.6947 N   0  0  0  0  0  0  0  0  0  0  0  0
   -0.7446    0.7921   -2.8613 H   0  0  0  0  0  0  0  0  0  0  0  0
    1.0883    0.2542   -3.8263 C   0  0  0  0  0  0  0  0  0  0  0  0
    1.3275   -0.8142   -3.8082 H   0  0  0  0  0  0  0  0  0  0  0  0
    0.5780    0.4803   -4.7673 H   0  0  0  0  0  0  0  0  0  0  0  0
    2.0224    0.8252   -3.7957 H   0  0  0  0  0  0  0  0  0  0  0  0
  1  2  1  0  0  0  0
  2  3  1  0  0  0  0
  2  4  1  0  0  0  0
  2  5  1  0  0  0  0
  5  6  2  0  0  0  0
  5  7  1  0  0  0  0
  7  8  1  0  0  0  0
  7  9  1  0  0  0  0
  9 10  1  0  0  0  0
  9 11  1  0  0  0  0
  9 25  1  0  0  0  0
 11 12  1  0  0  0  0
 11 13  1  0  0  0  0
 11 14  1  0  0  0  0
 14 15  1  0  0  0  0
 14 23  2  0  0  0  0
 15 16  1  0  0  0  0
 15 17  2  0  0  0  0
 17 18  1  0  0  0  0
 17 19  1  0  0  0  0
 19 20  1  0  0  0  0
 19 21  2  0  0  0  0
 21 22  1  0  0  0  0
 21 23  1  0  0  0  0
 23 24  1  0  0  0  0
 25 26  2  0  0  0  0
 25 27  1  0  0  0  0
 27 28  1  0  0  0  0
 27 29  1  0  0  0  0
 29 30  1  0  0  0  0
 29 31  1  0  0  0  0
 29 32  1  0  0  0  0
M  END
$$$$

  -OEChem-01062216093D

 32 32  0     1  0  0  0  0  0999 V2000
   -3.4538   -2.4599    0.8995 H   0  0  0  0  0  0  0  0  0  0  0  0
   -3.3703   -1.5165    0.3523 C   0  0  0  0  0  0  0  0  0  0  0  0
   -3.9848   -0.7651    0.8538 H   0  0  0  0  0  0  0  0  0  0  0  0
   -3.7426   -1.6658   -0.6639 H   0  0  0  0  0  0  0  0  0  0  0  0
   -1.9235   -1.0605    0.3128 C   0  0  0  0  0  0  0  0  0  0  0  0
   -1.0682   -1.7779    0.7983 O   0  0  0  0  0  0  0  0  0  0  0  0
   -1.6235    0.1383   -0.3092 N   0  0  0  0  0  0  0  0  0  0  0  0
   -2.4376    0.6584   -0.6206 H   0  0  0  0  0  0  0  0  0  0  0  0
   -0.3485    0.8908   -0.2465 C   0  0  1  0  0  0  0  0  0  0  0  0
   -0.5904    1.9329   -0.4730 H   0  0  0  0  0  0  0  0  0  0  0  0
    0.3356    0.9198    1.1419 C   0  0  0  0  0  0  0  0  0  0  0  0
    0.5381   -0.0877    1.5134 H   0  0  0  0  0  0  0  0  0  0  0  0
    1.3111    1.4083    1.0480 H   0  0  0  0  0  0  0  0  0  0  0  0
   -0.4931    1.7050    2.1310 C   0  0  0  0  0  0  0  0  0  0  0  0
   -0.4339    3.1065    2.1572 C   0  0  0  0  0  0  0  0  0  0  0  0
    0.2195    3.6359    1.4703 H   0  0  0  0  0  0  0  0  0  0  0  0
   -1.2093    3.8325    3.0677 C   0  0  0  0  0  0  0  0  0  0  0  0
   -1.1546    4.9169    3.0825 H   0  0  0  0  0  0  0  0  0  0  0  0
   -2.0486    3.1616    3.9626 C   0  0  0  0  0  0  0  0  0  0  0  0
   -2.6489    3.7239    4.6718 H   0  0  0  0  0  0  0  0  0  0  0  0
   -2.1067    1.7645    3.9500 C   0  0  0  0  0  0  0  0  0  0  0  0
   -2.7494    1.2397    4.6508 H   0  0  0  0  0  0  0  0  0  0  0  0
   -1.3299    1.0405    3.0391 C   0  0  0  0  0  0  0  0  0  0  0  0
   -1.3711   -0.0455    3.0397 H   0  0  0  0  0  0  0  0  0  0  0  0
    0.6161    0.4532   -1.3721 C   0  0  0  0  0  0  0  0  0  0  0  0
    1.6735   -0.1162   -1.1373 O   0  0  0  0  0  0  0  0  0  0  0  0
    0.3727    0.8744   -2.6683 N   0  0  0  0  0  0  0  0  0  0  0  0
   -0.5211    1.3161   -2.8555 H   0  0  0  0  0  0  0  0  0  0  0  0
    1.2446    0.5463   -3.7903 C   0  0  0  0  0  0  0  0  0  0  0  0
    1.3154   -0.5394   -3.9151 H   0  0  0  0  0  0  0  0  0  0  0  0
    0.8494    0.9761   -4.7156 H   0  0  0  0  0  0  0  0  0  0  0  0
    2.2497    0.9483   -3.6250 H   0  0  0  0  0  0  0  0  0  0  0  0
  1  2  1  0  0  0  0
  2  3  1  0  0  0  0
  2  4  1  0  0  0  0
  2  5  1  0  0  0  0
  5  6  2  0  0  0  0
  5  7  1  0  0  0  0
  7  8  1  0  0  0  0
  7  9  1  0  0  0  0
  9 10  1  0  0  0  0
  9 11  1  0  0  0  0
  9 25  1  0  0  0  0
 11 12  1  0  0  0  0
 11 13  1  0  0  0  0
 11 14  1  0  0  0  0
 14 15  1  0  0  0  0
 14 23  2  0  0  0  0
 15 16  1  0  0  0  0
 15 17  2  0  0  0  0
 17 18  1  0  0  0  0
 17 19  1  0  0  0  0
 19 20  1  0  0  0  0
 19 21  2  0  0  0  0
 21 22  1  0  0  0  0
 21 23  1  0  0  0  0
 23 24  1  0  0  0  0
 25 26  2  0  0  0  0
 25 27  1  0  0  0  0
 27 28  1  0  0  0  0
 27 29  1  0  0  0  0
 29 30  1  0  0  0  0
 29 31  1  0  0  0  0
 29 32  1  0  0  0  0
M  END
$$$$

  -OEChem-01062216093D

 32 32  0     1  0  0  0  0  0999 V2000
   -3.4933   -2.4783    0.8414 H   0  0  0  0  0  0  0  0  0  0  0  0
   -3.3859   -1.5614    0.2550 C   0  0  0  0  0  0  0  0  0  0  0  0
   -4.0730   -0.8099    0.6511 H   0  0  0  0  0  0  0  0  0  0  0  0
   -3.6479   -1.7764   -0.7837 H   0  0  0  0  0  0  0  0  0  0  0  0
   -1.9580   -1.0532    0.3344 C   0  0  0  0  0  0  0  0  0  0  0  0
   -1.1347   -1.7202    0.9339 O   0  0  0  0  0  0  0  0  0  0  0  0
   -1.6484    0.1400   -0.2952 N   0  0  0  0  0  0  0  0  0  0  0  0
   -2.4388    0.6016   -0.7334 H   0  0  0  0  0  0  0  0  0  0  0  0
   -0.3780    0.9011   -0.2455 C   0  0  1  0  0  0  0  0  0  0  0  0
   -0.6319    1.9403   -0.4716 H   0  0  0  0  0  0  0  0  0  0  0  0
    0.3314    0.9431    1.1288 C   0  0  0  0  0  0  0  0  0  0  0  0
    0.5501   -0.0612    1.4995 H   0  0  0  0  0  0  0  0  0  0  0  0
    1.3015    1.4370    1.0109 H   0  0  0  0  0  0  0  0  0  0  0  0
   -0.4815    1.7251    2.1340 C   0  0  0  0  0  0  0  0  0  0  0  0
   -0.4338    3.1274    2.1557 C   0  0  0  0  0  0  0  0  0  0  0  0
    0.1975    3.6612    1.4520 H   0  0  0  0  0  0  0  0  0  0  0  0
   -1.1920    3.8490    3.0845 C   0  0  0  0  0  0  0  0  0  0  0  0
   -1.1479    4.9340    3.0957 H   0  0  0  0  0  0  0  0  0  0  0  0
   -2.0012    3.1731    4.0032 C   0  0  0  0  0  0  0  0  0  0  0  0
   -2.5866    3.7315    4.7277 H   0  0  0  0  0  0  0  0  0  0  0  0
   -2.0480    1.7758    3.9943 C   0  0  0  0  0  0  0  0  0  0  0  0
   -2.6680    1.2460    4.7114 H   0  0  0  0  0  0  0  0  0  0  0  0
   -1.2893    1.0566    3.0651 C   0  0  0  0  0  0  0  0  0  0  0  0
   -1.3219   -0.0298    3.0697 H   0  0  0  0  0  0  0  0  0  0  0  0
    0.5881    0.4598   -1.3679 C   0  0  0  0  0  0  0  0  0  0  0  0
    1.4784   -0.3557   -1.1723 O   0  0  0  0  0  0  0  0  0  0  0  0
    0.5418    1.0982   -2.5959 N   0  0  0  0  0  0  0  0  0  0  0  0
   -0.1934    1.7809   -2.7472 H   0  0  0  0  0  0  0  0  0  0  0  0
    1.4576    0.7932   -3.6894 C   0  0  0  0  0  0  0  0  0  0  0  0
    1.3670   -0.2578   -3.9835 H   0  0  0  0  0  0  0  0  0  0  0  0
    1.2304    1.4168   -4.5590 H   0  0  0  0  0  0  0  0  0  0  0  0
    2.4923    0.9858   -3.3867 H   0  0  0  0  0  0  0  0  0  0  0  0
  1  2  1  0  0  0  0
  2  3  1  0  0  0  0
  2  4  1  0  0  0  0
  2  5  1  0  0  0  0
  5  6  2  0  0  0  0
  5  7  1  0  0  0  0
  7  8  1  0  0  0  0
  7  9  1  0  0  0  0
  9 10  1  0  0  0  0
  9 11  1  0  0  0  0
  9 25  1  0  0  0  0
 11 12  1  0  0  0  0
 11 13  1  0  0  0  0
 11 14  1  0  0  0  0
 14 15  1  0  0  0  0
 14 23  2  0  0  0  0
 15 16  1  0  0  0  0
 15 17  2  0  0  0  0
 17 18  1  0  0  0  0
 17 19  1  0  0  0  0
 19 20  1  0  0  0  0
 19 21  2  0  0  0  0
 21 22  1  0  0  0  0
 21 23  1  0  0  0  0
 23 24  1  0  0  0  0
 25 26  2  0  0  0  0
 25 27  1  0  0  0  0
 27 28  1  0  0  0  0
 27 29  1  0  0  0  0
 29 30  1  0  0  0  0
 29 31  1  0  0  0  0
 29 32  1  0  0  0  0
M  END
$$$$

  -OEChem-01062216093D

 32 32  0     1  0  0  0  0  0999 V2000
   -3.4947   -2.5170    0.7695 H   0  0  0  0  0  0  0  0  0  0  0  0
   -3.3819   -1.5956    0.1911 C   0  0  0  0  0  0  0  0  0  0  0  0
   -4.1089   -0.8641    0.5519 H   0  0  0  0  0  0  0  0  0  0  0  0
   -3.5831   -1.8145   -0.8602 H   0  0  0  0  0  0  0  0  0  0  0  0
   -1.9748   -1.0488    0.3460 C   0  0  0  0  0  0  0  0  0  0  0  0
   -1.1785   -1.6792    1.0181 O   0  0  0  0  0  0  0  0  0  0  0  0
   -1.6634    0.1453   -0.2822 N   0  0  0  0  0  0  0  0  0  0  0  0
   -2.4273    0.5590   -0.8065 H   0  0  0  0  0  0  0  0  0  0  0  0
   -0.3937    0.9075   -0.2380 C   0  0  1  0  0  0  0  0  0  0  0  0
   -0.6589    1.9447   -0.4593 H   0  0  0  0  0  0  0  0  0  0  0  0
    0.3325    0.9530    1.1254 C   0  0  0  0  0  0  0  0  0  0  0  0
    0.5573   -0.0512    1.4937 H   0  0  0  0  0  0  0  0  0  0  0  0
    1.3003    1.4483    0.9951 H   0  0  0  0  0  0  0  0  0  0  0  0
   -0.4704    1.7346    2.1394 C   0  0  0  0  0  0  0  0  0  0  0  0
   -0.4247    3.1372    2.1564 C   0  0  0  0  0  0  0  0  0  0  0  0
    0.1982    3.6701    1.4448 H   0  0  0  0  0  0  0  0  0  0  0  0
   -1.1752    3.8608    3.0898 C   0  0  0  0  0  0  0  0  0  0  0  0
   -1.1327    4.9459    3.0967 H   0  0  0  0  0  0  0  0  0  0  0  0
   -1.9751    3.1870    4.0179 C   0  0  0  0  0  0  0  0  0  0  0  0
   -2.5553    3.7470    4.7454 H   0  0  0  0  0  0  0  0  0  0  0  0
   -2.0200    1.7897    4.0140 C   0  0  0  0  0  0  0  0  0  0  0  0
   -2.6334    1.2612    4.7376 H   0  0  0  0  0  0  0  0  0  0  0  0
   -1.2686    1.0684    3.0804 C   0  0  0  0  0  0  0  0  0  0  0  0
   -1.3016   -0.0178    3.0887 H   0  0  0  0  0  0  0  0  0  0  0  0
    0.5743    0.4758   -1.3612 C   0  0  0  0  0  0  0  0  0  0  0  0
    1.2340   -0.5504   -1.2831 O   0  0  0  0  0  0  0  0  0  0  0  0
    0.7563    1.2942   -2.4635 N   0  0  0  0  0  0  0  0  0  0  0  0
    0.2229    2.1564   -2.5087 H   0  0  0  0  0  0  0  0  0  0  0  0
    1.6906    0.9855   -3.5402 C   0  0  0  0  0  0  0  0  0  0  0  0
    1.4346    0.0286   -4.0075 H   0  0  0  0  0  0  0  0  0  0  0  0
    1.6561    1.7646   -4.3075 H   0  0  0  0  0  0  0  0  0  0  0  0
    2.7133    0.9255   -3.1533 H   0  0  0  0  0  0  0  0  0  0  0  0
  1  2  1  0  0  0  0
  2  3  1  0  0  0  0
  2  4  1  0  0  0  0
  2  5  1  0  0  0  0
  5  6  2  0  0  0  0
  5  7  1  0  0  0  0
  7  8  1  0  0  0  0
  7  9  1  0  0  0  0
  9 10  1  0  0  0  0
  9 11  1  0  0  0  0
  9 25  1  0  0  0  0
 11 12  1  0  0  0  0
 11 13  1  0  0  0  0
 11 14  1  0  0  0  0
 14 15  1  0  0  0  0
 14 23  2  0  0  0  0
 15 16  1  0  0  0  0
 15 17  2  0  0  0  0
 17 18  1  0  0  0  0
 17 19  1  0  0  0  0
 19 20  1  0  0  0  0
 19 21  2  0  0  0  0
 21 22  1  0  0  0  0
 21 23  1  0  0  0  0
 23 24  1  0  0  0  0
 25 26  2  0  0  0  0
 25 27  1  0  0  0  0
 27 28  1  0  0  0  0
 27 29  1  0  0  0  0
 29 30  1  0  0  0  0
 29 31  1  0  0  0  0
 29 32  1  0  0  0  0
M  END
$$$$

  -OEChem-01062216093D

 32 32  0     1  0  0  0  0  0999 V2000
   -3.4652   -2.5929    0.6379 H   0  0  0  0  0  0  0  0  0  0  0  0
   -3.3576   -1.6539    0.0872 C   0  0  0  0  0  0  0  0  0  0  0  0
   -4.1436   -0.9662    0.4082 H   0  0  0  0  0  0  0  0  0  0  0  0
   -3.4714   -1.8585   -0.9801 H   0  0  0  0  0  0  0  0  0  0  0  0
   -1.9940   -1.0433    0.3545 C   0  0  0  0  0  0  0  0  0  0  0  0
   -1.2384   -1.6238    1.1141 O   0  0  0  0  0  0  0  0  0  0  0  0
   -1.6796    0.1523   -0.2699 N   0  0  0  0  0  0  0  0  0  0  0  0
   -2.3911    0.4956   -0.9066 H   0  0  0  0  0  0  0  0  0  0  0  0
   -0.4078    0.9104   -0.2191 C   0  0  1  0  0  0  0  0  0  0  0  0
   -0.6793    1.9454   -0.4433 H   0  0  0  0  0  0  0  0  0  0  0  0
    0.3260    0.9651    1.1393 C   0  0  0  0  0  0  0  0  0  0  0  0
    0.5530   -0.0373    1.5106 H   0  0  0  0  0  0  0  0  0  0  0  0
    1.2928    1.4597    1.0009 H   0  0  0  0  0  0  0  0  0  0  0  0
   -0.4665    1.7533    2.1567 C   0  0  0  0  0  0  0  0  0  0  0  0
   -0.4169    3.1562    2.1643 C   0  0  0  0  0  0  0  0  0  0  0  0
    0.1975    3.6834    1.4416 H   0  0  0  0  0  0  0  0  0  0  0  0
   -1.1508    3.8887    3.1039 C   0  0  0  0  0  0  0  0  0  0  0  0
   -1.1050    4.9738    3.1038 H   0  0  0  0  0  0  0  0  0  0  0  0
   -1.9389    3.2236    4.0481 C   0  0  0  0  0  0  0  0  0  0  0  0
   -2.5078    3.7900    4.7797 H   0  0  0  0  0  0  0  0  0  0  0  0
   -1.9880    1.8265    4.0537 C   0  0  0  0  0  0  0  0  0  0  0  0
   -2.5922    1.3046    4.7898 H   0  0  0  0  0  0  0  0  0  0  0  0
   -1.2534    1.0965    3.1137 C   0  0  0  0  0  0  0  0  0  0  0  0
   -1.2916    0.0108    3.1316 H   0  0  0  0  0  0  0  0  0  0  0  0
    0.5663    0.4842   -1.3385 C   0  0  0  0  0  0  0  0  0  0  0  0
    0.9292   -0.6762   -1.4658 O   0  0  0  0  0  0  0  0  0  0  0  0
    0.9981    1.4175   -2.2659 N   0  0  0  0  0  0  0  0  0  0  0  0
    0.7011    2.3804   -2.1437 H   0  0  0  0  0  0  0  0  0  0  0  0
    1.9168    1.0971   -3.3525 C   0  0  0  0  0  0  0  0  0  0  0  0
    1.4907    0.3228   -3.9992 H   0  0  0  0  0  0  0  0  0  0  0  0
    2.1098    1.9864   -3.9601 H   0  0  0  0  0  0  0  0  0  0  0  0
    2.8706    0.7364   -2.9532 H   0  0  0  0  0  0  0  0  0  0  0  0
  1  2  1  0  0  0  0
  2  3  1  0  0  0  0
  2  4  1  0  0  0  0
  2  5  1  0  0  0  0
  5  6  2  0  0  0  0
  5  7  1  0  0  0  0
  7  8  1  0  0  0  0
  7  9  1  0  0  0  0
  9 10  1  0  0  0  0
  9 11  1  0  0  0  0
  9 25  1  0  0  0  0
 11 12  1  0  0  0  0
 11 13  1  0  0  0  0
 11 14  1  0  0  0  0
 14 15  1  0  0  0  0
 14 23  2  0  0  0  0
 15 16  1  0  0  0  0
 15 17  2  0  0  0  0
 17 18  1  0  0  0  0
 17 19  1  0  0  0  0
 19 20  1  0  0  0  0
 19 21  2  0  0  0  0
 21 22  1  0  0  0  0
 21 23  1  0  0  0  0
 23 24  1  0  0  0  0
 25 26  2  0  0  0  0
 25 27  1  0  0  0  0
 27 28  1  0  0  0  0
 27 29  1  0  0  0  0
 29 30  1  0  0  0  0
 29 31  1  0  0  0  0
 29 32  1  0  0  0  0
M  END
$$$$

  -OEChem-01062216093D

 32 32  0     1  0  0  0  0  0999 V2000
   -3.4443   -2.6218    0.5834 H   0  0  0  0  0  0  0  0  0  0  0  0
   -3.3375   -1.6796    0.0384 C   0  0  0  0  0  0  0  0  0  0  0  0
   -4.1531   -1.0119    0.3258 H   0  0  0  0  0  0  0  0  0  0  0  0
   -3.4010   -1.8853   -1.0329 H   0  0  0  0  0  0  0  0  0  0  0  0
   -2.0018   -1.0362    0.3626 C   0  0  0  0  0  0  0  0  0  0  0  0
   -1.2651   -1.5971    1.1556 O   0  0  0  0  0  0  0  0  0  0  0  0
   -1.6844    0.1605   -0.2577 N   0  0  0  0  0  0  0  0  0  0  0  0
   -2.3560    0.4610   -0.9566 H   0  0  0  0  0  0  0  0  0  0  0  0
   -0.4074    0.9098   -0.2019 C   0  0  1  0  0  0  0  0  0  0  0  0
   -0.6769    1.9448   -0.4294 H   0  0  0  0  0  0  0  0  0  0  0  0
    0.3271    0.9645    1.1565 C   0  0  0  0  0  0  0  0  0  0  0  0
    0.5481   -0.0381    1.5309 H   0  0  0  0  0  0  0  0  0  0  0  0
    1.2967    1.4528    1.0169 H   0  0  0  0  0  0  0  0  0  0  0  0
   -0.4605    1.7605    2.1724 C   0  0  0  0  0  0  0  0  0  0  0  0
   -0.4032    3.1632    2.1761 C   0  0  0  0  0  0  0  0  0  0  0  0
    0.2125    3.6857    1.4512 H   0  0  0  0  0  0  0  0  0  0  0  0
   -1.1355    3.9027    3.1116 C   0  0  0  0  0  0  0  0  0  0  0  0
   -1.0869    4.9875    3.1067 H   0  0  0  0  0  0  0  0  0  0  0  0
   -1.9285    3.2452    4.0569 C   0  0  0  0  0  0  0  0  0  0  0  0
   -2.4970    3.8168    4.7847 H   0  0  0  0  0  0  0  0  0  0  0  0
   -1.9831    1.8485    4.0687 C   0  0  0  0  0  0  0  0  0  0  0  0
   -2.5912    1.3315    4.8052 H   0  0  0  0  0  0  0  0  0  0  0  0
   -1.2504    1.1117    3.1326 C   0  0  0  0  0  0  0  0  0  0  0  0
   -1.2947    0.0265    3.1551 H   0  0  0  0  0  0  0  0  0  0  0  0
    0.5670    0.4840   -1.3221 C   0  0  0  0  0  0  0  0  0  0  0  0
    0.6603   -0.6814   -1.6822 O   0  0  0  0  0  0  0  0  0  0  0  0
    1.2467    1.4515   -2.0426 N   0  0  0  0  0  0  0  0  0  0  0  0
    1.1626    2.4159   -1.7370 H   0  0  0  0  0  0  0  0  0  0  0  0
    2.1494    1.1395   -3.1451 C   0  0  0  0  0  0  0  0  0  0  0  0
    1.6148    0.6101   -3.9411 H   0  0  0  0  0  0  0  0  0  0  0  0
    2.5674    2.0600   -3.5639 H   0  0  0  0  0  0  0  0  0  0  0  0
    2.9759    0.5107   -2.7973 H   0  0  0  0  0  0  0  0  0  0  0  0
  1  2  1  0  0  0  0
  2  3  1  0  0  0  0
  2  4  1  0  0  0  0
  2  5  1  0  0  0  0
  5  6  2  0  0  0  0
  5  7  1  0  0  0  0
  7  8  1  0  0  0  0
  7  9  1  0  0  0  0
  9 10  1  0  0  0  0
  9 11  1  0  0  0  0
  9 25  1  0  0  0  0
 11 12  1  0  0  0  0
 11 13  1  0  0  0  0
 11 14  1  0  0  0  0
 14 15  1  0  0  0  0
 14 23  2  0  0  0  0
 15 16  1  0  0  0  0
 15 17  2  0  0  0  0
 17 18  1  0  0  0  0
 17 19  1  0  0  0  0
 19 20  1  0  0  0  0
 19 21  2  0  0  0  0
 21 22  1  0  0  0  0
 21 23  1  0  0  0  0
 23 24  1  0  0  0  0
 25 26  2  0  0  0  0
 25 27  1  0  0  0  0
 27 28  1  0  0  0  0
 27 29  1  0  0  0  0
 29 30  1  0  0  0  0
 29 31  1  0  0  0  0
 29 32  1  0  0  0  0
M  END
$$$$

  -OEChem-01062216093D

 32 32  0     1  0  0  0  0  0999 V2000
   -3.4441   -2.6226    0.5813 H   0  0  0  0  0  0  0  0  0  0  0  0
   -3.3334   -1.6819    0.0346 C   0  0  0  0  0  0  0  0  0  0  0  0
   -4.1509   -1.0136    0.3152 H   0  0  0  0  0  0  0  0  0  0  0  0
   -3.3905   -1.8899   -1.0365 H   0  0  0  0  0  0  0  0  0  0  0  0
   -1.9998   -1.0376    0.3648 C   0  0  0  0  0  0  0  0  0  0  0  0
   -1.2604   -1.6020    1.1534 O   0  0  0  0  0  0  0  0  0  0  0  0
   -1.6813    0.1610   -0.2502 N   0  0  0  0  0  0  0  0  0  0  0  0
   -2.3353    0.4461   -0.9721 H   0  0  0  0  0  0  0  0  0  0  0  0
   -0.4006    0.9040   -0.1930 C   0  0  1  0  0  0  0  0  0  0  0  0
   -0.6652    1.9399   -0.4229 H   0  0  0  0  0  0  0  0  0  0  0  0
    0.3280    0.9563    1.1702 C   0  0  0  0  0  0  0  0  0  0  0  0
    0.5415   -0.0462    1.5483 H   0  0  0  0  0  0  0  0  0  0  0  0
    1.3011    1.4396    1.0390 H   0  0  0  0  0  0  0  0  0  0  0  0
   -0.4610    1.7582    2.1801 C   0  0  0  0  0  0  0  0  0  0  0  0
   -0.3964    3.1608    2.1823 C   0  0  0  0  0  0  0  0  0  0  0  0
    0.2246    3.6801    1.4594 H   0  0  0  0  0  0  0  0  0  0  0  0
   -1.1286    3.9054    3.1139 C   0  0  0  0  0  0  0  0  0  0  0  0
   -1.0731    4.9900    3.1074 H   0  0  0  0  0  0  0  0  0  0  0  0
   -1.9294    3.2535    4.0564 C   0  0  0  0  0  0  0  0  0  0  0  0
   -2.4979    3.8289    4.7809 H   0  0  0  0  0  0  0  0  0  0  0  0
   -1.9924    1.8572    4.0690 C   0  0  0  0  0  0  0  0  0  0  0  0
   -2.6066    1.3446    4.8033 H   0  0  0  0  0  0  0  0  0  0  0  0
   -1.2598    1.1151    3.1368 C   0  0  0  0  0  0  0  0  0  0  0  0
   -1.3114    0.0301    3.1603 H   0  0  0  0  0  0  0  0  0  0  0  0
    0.5727    0.4824   -1.3176 C   0  0  0  0  0  0  0  0  0  0  0  0
    0.4522   -0.5870   -1.9017 O   0  0  0  0  0  0  0  0  0  0  0  0
    1.4791    1.4022   -1.8172 N   0  0  0  0  0  0  0  0  0  0  0  0
    1.5674    2.2899   -1.3327 H   0  0  0  0  0  0  0  0  0  0  0  0
    2.3876    1.1110   -2.9202 C   0  0  0  0  0  0  0  0  0  0  0  0
    1.8247    0.8415   -3.8201 H   0  0  0  0  0  0  0  0  0  0  0  0
    3.0005    1.9883   -3.1474 H   0  0  0  0  0  0  0  0  0  0  0  0
    3.0529    0.2813   -2.6589 H   0  0  0  0  0  0  0  0  0  0  0  0
  1  2  1  0  0  0  0
  2  3  1  0  0  0  0
  2  4  1  0  0  0  0
  2  5  1  0  0  0  0
  5  6  2  0  0  0  0
  5  7  1  0  0  0  0
  7  8  1  0  0  0  0
  7  9  1  0  0  0  0
  9 10  1  0  0  0  0
  9 11  1  0  0  0  0
  9 25  1  0  0  0  0
 11 12  1  0  0  0  0
 11 13  1  0  0  0  0
 11 14  1  0  0  0  0
 14 15  1  0  0  0  0
 14 23  2  0  0  0  0
 15 16  1  0  0  0  0
 15 17  2  0  0  0  0
 17 18  1  0  0  0  0
 17 19  1  0  0  0  0
 19 20  1  0  0  0  0
 19 21  2  0  0  0  0
 21 22  1  0  0  0  0
 21 23  1  0  0  0  0
 23 24  1  0  0  0  0
 25 26  2  0  0  0  0
 25 27  1  0  0  0  0
 27 28  1  0  0  0  0
 27 29  1  0  0  0  0
 29 30  1  0  0  0  0
 29 31  1  0  0  0  0
 29 32  1  0  0  0  0
M  END
$$$$

  -OEChem-01062216093D

 32 32  0     1  0  0  0  0  0999 V2000
   -3.4299   -2.6269    0.5628 H   0  0  0  0  0  0  0  0  0  0  0  0
   -3.3212   -1.6803    0.0259 C   0  0  0  0  0  0  0  0  0  0  0  0
   -4.1441   -1.0192    0.3076 H   0  0  0  0  0  0  0  0  0  0  0  0
   -3.3703   -1.8789   -1.0476 H   0  0  0  0  0  0  0  0  0  0  0  0
   -1.9933   -1.0315    0.3703 C   0  0  0  0  0  0  0  0  0  0  0  0
   -1.2504   -1.6036    1.1504 O   0  0  0  0  0  0  0  0  0  0  0  0
   -1.6728    0.1695   -0.2378 N   0  0  0  0  0  0  0  0  0  0  0  0
   -2.3119    0.4437   -0.9774 H   0  0  0  0  0  0  0  0  0  0  0  0
   -0.3902    0.9093   -0.1793 C   0  0  1  0  0  0  0  0  0  0  0  0
   -0.6468    1.9472   -0.4095 H   0  0  0  0  0  0  0  0  0  0  0  0
    0.3294    0.9562    1.1910 C   0  0  0  0  0  0  0  0  0  0  0  0
    0.5375   -0.0471    1.5692 H   0  0  0  0  0  0  0  0  0  0  0  0
    1.3047    1.4372    1.0735 H   0  0  0  0  0  0  0  0  0  0  0  0
   -0.4650    1.7595    2.1954 C   0  0  0  0  0  0  0  0  0  0  0  0
   -0.3953    3.1618    2.2001 C   0  0  0  0  0  0  0  0  0  0  0  0
    0.2315    3.6798    1.4815 H   0  0  0  0  0  0  0  0  0  0  0  0
   -1.1310    3.9078    3.1278 C   0  0  0  0  0  0  0  0  0  0  0  0
   -1.0732    4.9923    3.1232 H   0  0  0  0  0  0  0  0  0  0  0  0
   -1.9406    3.2573    4.0636 C   0  0  0  0  0  0  0  0  0  0  0  0
   -2.5118    3.8341    4.7851 H   0  0  0  0  0  0  0  0  0  0  0  0
   -2.0105    1.8612    4.0725 C   0  0  0  0  0  0  0  0  0  0  0  0
   -2.6340    1.3504    4.8004 H   0  0  0  0  0  0  0  0  0  0  0  0
   -1.2735    1.1176    3.1448 C   0  0  0  0  0  0  0  0  0  0  0  0
   -1.3299    0.0327    3.1655 H   0  0  0  0  0  0  0  0  0  0  0  0
    0.5752    0.4860   -1.3119 C   0  0  0  0  0  0  0  0  0  0  0  0
    0.2935   -0.4264   -2.0798 O   0  0  0  0  0  0  0  0  0  0  0  0
    1.6782    1.2695   -1.6073 N   0  0  0  0  0  0  0  0  0  0  0  0
    1.9000    2.0300   -0.9725 H   0  0  0  0  0  0  0  0  0  0  0  0
    2.5926    0.9828   -2.7065 C   0  0  0  0  0  0  0  0  0  0  0  0
    2.0581    0.9905   -3.6623 H   0  0  0  0  0  0  0  0  0  0  0  0
    3.3831    1.7383   -2.7474 H   0  0  0  0  0  0  0  0  0  0  0  0
    3.0582    0.0009   -2.5710 H   0  0  0  0  0  0  0  0  0  0  0  0
  1  2  1  0  0  0  0
  2  3  1  0  0  0  0
  2  4  1  0  0  0  0
  2  5  1  0  0  0  0
  5  6  2  0  0  0  0
  5  7  1  0  0  0  0
  7  8  1  0  0  0  0
  7  9  1  0  0  0  0
  9 10  1  0  0  0  0
  9 11  1  0  0  0  0
  9 25  1  0  0  0  0
 11 12  1  0  0  0  0
 11 13  1  0  0  0  0
 11 14  1  0  0  0  0
 14 15  1  0  0  0  0
 14 23  2  0  0  0  0
 15 16  1  0  0  0  0
 15 17  2  0  0  0  0
 17 18  1  0  0  0  0
 17 19  1  0  0  0  0
 19 20  1  0  0  0  0
 19 21  2  0  0  0  0
 21 22  1  0  0  0  0
 21 23  1  0  0  0  0
 23 24  1  0  0  0  0
 25 26  2  0  0  0  0
 25 27  1  0  0  0  0
 27 28  1  0  0  0  0
 27 29  1  0  0  0  0
 29 30  1  0  0  0  0
 29 31  1  0  0  0  0
 29 32  1  0  0  0  0
M  END
$$$$

  -OEChem-01062216093D

 32 32  0     1  0  0  0  0  0999 V2000
   -3.5573   -2.5705    0.4976 H   0  0  0  0  0  0  0  0  0  0  0  0
   -3.4075   -1.6082   -0.0000 C   0  0  0  0  0  0  0  0  0  0  0  0
   -4.1385   -0.8945    0.3874 H   0  0  0  0  0  0  0  0  0  0  0  0
   -3.5666   -1.7391   -1.0732 H   0  0  0  0  0  0  0  0  0  0  0  0
   -2.0013   -1.0981    0.2547 C   0  0  0  0  0  0  0  0  0  0  0  0
   -1.2202   -1.8155    0.8564 O   0  0  0  0  0  0  0  0  0  0  0  0
   -1.6386    0.1206   -0.2878 N   0  0  0  0  0  0  0  0  0  0  0  0
   -2.3107    0.5015   -0.9478 H   0  0  0  0  0  0  0  0  0  0  0  0
   -0.3493    0.8452   -0.1948 C   0  0  1  0  0  0  0  0  0  0  0  0
   -0.6285    1.9015   -0.1441 H   0  0  0  0  0  0  0  0  0  0  0  0
    0.5253    0.6174    1.0668 C   0  0  0  0  0  0  0  0  0  0  0  0
    0.7615   -0.4423    1.1930 H   0  0  0  0  0  0  0  0  0  0  0  0
    1.4851    1.1271    0.9495 H   0  0  0  0  0  0  0  0  0  0  0  0
   -0.1361    1.1756    2.3101 C   0  0  0  0  0  0  0  0  0  0  0  0
   -0.0481    2.5486    2.5929 C   0  0  0  0  0  0  0  0  0  0  0  0
    0.4751    3.2134    1.9130 H   0  0  0  0  0  0  0  0  0  0  0  0
   -0.6350    3.0799    3.7468 C   0  0  0  0  0  0  0  0  0  0  0  0
   -0.5654    4.1441    3.9521 H   0  0  0  0  0  0  0  0  0  0  0  0
   -1.3083    2.2406    4.6387 C   0  0  0  0  0  0  0  0  0  0  0  0
   -1.7637    2.6501    5.5355 H   0  0  0  0  0  0  0  0  0  0  0  0
   -1.3857    0.8700    4.3785 C   0  0  0  0  0  0  0  0  0  0  0  0
   -1.8978    0.2107    5.0729 H   0  0  0  0  0  0  0  0  0  0  0  0
   -0.7962    0.3414    3.2254 C   0  0  0  0  0  0  0  0  0  0  0  0
   -0.8485   -0.7288    3.0526 H   0  0  0  0  0  0  0  0  0  0  0  0
    0.4474    0.7435   -1.5191 C   0  0  0  0  0  0  0  0  0  0  0  0
   -0.0709    0.2662   -2.5224 O   0  0  0  0  0  0  0  0  0  0  0  0
    1.6856    1.3492   -1.6540 N   0  0  0  0  0  0  0  0  0  0  0  0
    2.1091    1.7455   -0.8211 H   0  0  0  0  0  0  0  0  0  0  0  0
    2.4553    1.3356   -2.8930 C   0  0  0  0  0  0  0  0  0  0  0  0
    1.8869    1.8037   -3.7036 H   0  0  0  0  0  0  0  0  0  0  0  0
    3.3902    1.8894   -2.7639 H   0  0  0  0  0  0  0  0  0  0  0  0
    2.6988    0.3075   -3.1813 H   0  0  0  0  0  0  0  0  0  0  0  0
  1  2  1  0  0  0  0
  2  3  1  0  0  0  0
  2  4  1  0  0  0  0
  2  5  1  0  0  0  0
  5  6  2  0  0  0  0
  5  7  1  0  0  0  0
  7  8  1  0  0  0  0
  7  9  1  0  0  0  0
  9 10  1  0  0  0  0
  9 11  1  0  0  0  0
  9 25  1  0  0  0  0
 11 12  1  0  0  0  0
 11 13  1  0  0  0  0
 11 14  1  0  0  0  0
 14 15  1  0  0  0  0
 14 23  2  0  0  0  0
 15 16  1  0  0  0  0
 15 17  2  0  0  0  0
 17 18  1  0  0  0  0
 17 19  1  0  0  0  0
 19 20  1  0  0  0  0
 19 21  2  0  0  0  0
 21 22  1  0  0  0  0
 21 23  1  0  0  0  0
 23 24  1  0  0  0  0
 25 26  2  0  0  0  0
 25 27  1  0  0  0  0
 27 28  1  0  0  0  0
 27 29  1  0  0  0  0
 29 30  1  0  0  0  0
 29 31  1  0  0  0  0
 29 32  1  0  0  0  0
M  END
$$$$

  -OEChem-01062216093D

 32 32  0     1  0  0  0  0  0999 V2000
   -3.5364   -2.5635    0.4912 H   0  0  0  0  0  0  0  0  0  0  0  0
   -3.3872   -1.5983   -0.0008 C   0  0  0  0  0  0  0  0  0  0  0  0
   -4.1143   -0.8857    0.3959 H   0  0  0  0  0  0  0  0  0  0  0  0
   -3.5535   -1.7203   -1.0739 H   0  0  0  0  0  0  0  0  0  0  0  0
   -1.9784   -1.0936    0.2503 C   0  0  0  0  0  0  0  0  0  0  0  0
   -1.1929   -1.8188    0.8374 O   0  0  0  0  0  0  0  0  0  0  0  0
   -1.6151    0.1307   -0.2782 N   0  0  0  0  0  0  0  0  0  0  0  0
   -2.2861    0.5230   -0.9332 H   0  0  0  0  0  0  0  0  0  0  0  0
   -0.3278    0.8556   -0.1726 C   0  0  1  0  0  0  0  0  0  0  0  0
   -0.6046    1.9127   -0.1191 H   0  0  0  0  0  0  0  0  0  0  0  0
    0.5345    0.6231    1.0971 C   0  0  0  0  0  0  0  0  0  0  0  0
    0.7729   -0.4363    1.2218 H   0  0  0  0  0  0  0  0  0  0  0  0
    1.4920    1.1400    0.9951 H   0  0  0  0  0  0  0  0  0  0  0  0
   -0.1411    1.1769    2.3339 C   0  0  0  0  0  0  0  0  0  0  0  0
   -0.0565    2.5493    2.6211 C   0  0  0  0  0  0  0  0  0  0  0  0
    0.4761    3.2154    1.9496 H   0  0  0  0  0  0  0  0  0  0  0  0
   -0.6601    3.0780    3.7672 C   0  0  0  0  0  0  0  0  0  0  0  0
   -0.5943    4.1419    3.9757 H   0  0  0  0  0  0  0  0  0  0  0  0
   -1.3462    2.2362    4.6470 C   0  0  0  0  0  0  0  0  0  0  0  0
   -1.8156    2.6438    5.5377 H   0  0  0  0  0  0  0  0  0  0  0  0
   -1.4191    0.8658    4.3830 C   0  0  0  0  0  0  0  0  0  0  0  0
   -1.9406    0.2054    5.0696 H   0  0  0  0  0  0  0  0  0  0  0  0
   -0.8143    0.3399    3.2366 C   0  0  0  0  0  0  0  0  0  0  0  0
   -0.8655   -0.7296    3.0581 H   0  0  0  0  0  0  0  0  0  0  0  0
    0.4604    0.7578   -1.5024 C   0  0  0  0  0  0  0  0  0  0  0  0
   -0.1375    0.5340   -2.5494 O   0  0  0  0  0  0  0  0  0  0  0  0
    1.8059    1.0771   -1.5782 N   0  0  0  0  0  0  0  0  0  0  0  0
    2.3034    1.2188   -0.7049 H   0  0  0  0  0  0  0  0  0  0  0  0
    2.5730    1.0223   -2.8175 C   0  0  0  0  0  0  0  0  0  0  0  0
    2.1386    1.6909   -3.5682 H   0  0  0  0  0  0  0  0  0  0  0  0
    3.6062    1.3337   -2.6361 H   0  0  0  0  0  0  0  0  0  0  0  0
    2.5830    0.0028   -3.2172 H   0  0  0  0  0  0  0  0  0  0  0  0
  1  2  1  0  0  0  0
  2  3  1  0  0  0  0
  2  4  1  0  0  0  0
  2  5  1  0  0  0  0
  5  6  2  0  0  0  0
  5  7  1  0  0  0  0
  7  8  1  0  0  0  0
  7  9  1  0  0  0  0
  9 10  1  0  0  0  0
  9 11  1  0  0  0  0
  9 25  1  0  0  0  0
 11 12  1  0  0  0  0
 11 13  1  0  0  0  0
 11 14  1  0  0  0  0
 14 15  1  0  0  0  0
 14 23  2  0  0  0  0
 15 16  1  0  0  0  0
 15 17  2  0  0  0  0
 17 18  1  0  0  0  0
 17 19  1  0  0  0  0
 19 20  1  0  0  0  0
 19 21  2  0  0  0  0
 21 22  1  0  0  0  0
 21 23  1  0  0  0  0
 23 24  1  0  0  0  0
 25 26  2  0  0  0  0
 25 27  1  0  0  0  0
 27 28  1  0  0  0  0
 27 29  1  0  0  0  0
 29 30  1  0  0  0  0
 29 31  1  0  0  0  0
 29 32  1  0  0  0  0
M  END
$$$$

  -OEChem-01062216093D

 32 32  0     1  0  0  0  0  0999 V2000
   -3.5184   -2.5545    0.4979 H   0  0  0  0  0  0  0  0  0  0  0  0
   -3.3735   -1.5854    0.0121 C   0  0  0  0  0  0  0  0  0  0  0  0
   -4.0918   -0.8736    0.4260 H   0  0  0  0  0  0  0  0  0  0  0  0
   -3.5565   -1.6972   -1.0594 H   0  0  0  0  0  0  0  0  0  0  0  0
   -1.9594   -1.0877    0.2457 C   0  0  0  0  0  0  0  0  0  0  0  0
   -1.1654   -1.8195    0.8130 O   0  0  0  0  0  0  0  0  0  0  0  0
   -1.5962    0.1374   -0.2801 N   0  0  0  0  0  0  0  0  0  0  0  0
   -2.2785    0.5504   -0.9107 H   0  0  0  0  0  0  0  0  0  0  0  0
   -0.3127    0.8648   -0.1613 C   0  0  1  0  0  0  0  0  0  0  0  0
   -0.5891    1.9221   -0.1119 H   0  0  0  0  0  0  0  0  0  0  0  0
    0.5397    0.6335    1.1147 C   0  0  0  0  0  0  0  0  0  0  0  0
    0.7838   -0.4242    1.2407 H   0  0  0  0  0  0  0  0  0  0  0  0
    1.4935    1.1589    1.0182 H   0  0  0  0  0  0  0  0  0  0  0  0
   -0.1470    1.1825    2.3469 C   0  0  0  0  0  0  0  0  0  0  0  0
   -0.0703    2.5540    2.6391 C   0  0  0  0  0  0  0  0  0  0  0  0
    0.4664    3.2236    1.9742 H   0  0  0  0  0  0  0  0  0  0  0  0
   -0.6858    3.0764    3.7819 C   0  0  0  0  0  0  0  0  0  0  0  0
   -0.6259    4.1399    3.9938 H   0  0  0  0  0  0  0  0  0  0  0  0
   -1.3768    2.2295    4.6527 C   0  0  0  0  0  0  0  0  0  0  0  0
   -1.8548    2.6329    5.5406 H   0  0  0  0  0  0  0  0  0  0  0  0
   -1.4441    0.8600    4.3822 C   0  0  0  0  0  0  0  0  0  0  0  0
   -1.9705    0.1958    5.0610 H   0  0  0  0  0  0  0  0  0  0  0  0
   -0.8271    0.3401    3.2394 C   0  0  0  0  0  0  0  0  0  0  0  0
   -0.8744   -0.7286    3.0546 H   0  0  0  0  0  0  0  0  0  0  0  0
    0.4777    0.7608   -1.4876 C   0  0  0  0  0  0  0  0  0  0  0  0
   -0.1331    0.7753   -2.5506 O   0  0  0  0  0  0  0  0  0  0  0  0
    1.8618    0.7764   -1.5253 N   0  0  0  0  0  0  0  0  0  0  0  0
    2.3506    0.6728   -0.6415 H   0  0  0  0  0  0  0  0  0  0  0  0
    2.6279    0.6717   -2.7615 C   0  0  0  0  0  0  0  0  0  0  0  0
    2.3719    1.4904   -3.4421 H   0  0  0  0  0  0  0  0  0  0  0  0
    3.6997    0.7248   -2.5478 H   0  0  0  0  0  0  0  0  0  0  0  0
    2.4205   -0.2803   -3.2614 H   0  0  0  0  0  0  0  0  0  0  0  0
  1  2  1  0  0  0  0
  2  3  1  0  0  0  0
  2  4  1  0  0  0  0
  2  5  1  0  0  0  0
  5  6  2  0  0  0  0
  5  7  1  0  0  0  0
  7  8  1  0  0  0  0
  7  9  1  0  0  0  0
  9 10  1  0  0  0  0
  9 11  1  0  0  0  0
  9 25  1  0  0  0  0
 11 12  1  0  0  0  0
 11 13  1  0  0  0  0
 11 14  1  0  0  0  0
 14 15  1  0  0  0  0
 14 23  2  0  0  0  0
 15 16  1  0  0  0  0
 15 17  2  0  0  0  0
 17 18  1  0  0  0  0
 17 19  1  0  0  0  0
 19 20  1  0  0  0  0
 19 21  2  0  0  0  0
 21 22  1  0  0  0  0
 21 23  1  0  0  0  0
 23 24  1  0  0  0  0
 25 26  2  0  0  0  0
 25 27  1  0  0  0  0
 27 28  1  0  0  0  0
 27 29  1  0  0  0  0
 29 30  1  0  0  0  0
 29 31  1  0  0  0  0
 29 32  1  0  0  0  0
M  END
$$$$

  -OEChem-01062216093D

 32 32  0     1  0  0  0  0  0999 V2000
   -3.5094   -2.5414    0.5214 H   0  0  0  0  0  0  0  0  0  0  0  0
   -3.3696   -1.5703    0.0384 C   0  0  0  0  0  0  0  0  0  0  0  0
   -4.0718   -0.8563    0.4754 H   0  0  0  0  0  0  0  0  0  0  0  0
   -3.5812   -1.6736   -1.0286 H   0  0  0  0  0  0  0  0  0  0  0  0
   -1.9464   -1.0843    0.2390 C   0  0  0  0  0  0  0  0  0  0  0  0
   -1.1417   -1.8238    0.7810 O   0  0  0  0  0  0  0  0  0  0  0  0
   -1.5836    0.1397   -0.2894 N   0  0  0  0  0  0  0  0  0  0  0  0
   -2.2871    0.5824   -0.8751 H   0  0  0  0  0  0  0  0  0  0  0  0
   -0.3033    0.8696   -0.1599 C   0  0  1  0  0  0  0  0  0  0  0  0
   -0.5800    1.9273   -0.1143 H   0  0  0  0  0  0  0  0  0  0  0  0
    0.5432    0.6409    1.1194 C   0  0  0  0  0  0  0  0  0  0  0  0
    0.7910   -0.4157    1.2482 H   0  0  0  0  0  0  0  0  0  0  0  0
    1.4950    1.1719    1.0209 H   0  0  0  0  0  0  0  0  0  0  0  0
   -0.1504    1.1862    2.3490 C   0  0  0  0  0  0  0  0  0  0  0  0
   -0.0809    2.5573    2.6445 C   0  0  0  0  0  0  0  0  0  0  0  0
    0.4576    3.2305    1.9843 H   0  0  0  0  0  0  0  0  0  0  0  0
   -0.7044    3.0738    3.7858 C   0  0  0  0  0  0  0  0  0  0  0  0
   -0.6478    4.1367    4.0020 H   0  0  0  0  0  0  0  0  0  0  0  0
   -1.3976    2.2216    4.6500 C   0  0  0  0  0  0  0  0  0  0  0  0
   -1.8811    2.6205    5.5368 H   0  0  0  0  0  0  0  0  0  0  0  0
   -1.4608    0.8530    4.3739 C   0  0  0  0  0  0  0  0  0  0  0  0
   -1.9902    0.1850    5.0469 H   0  0  0  0  0  0  0  0  0  0  0  0
   -0.8354    0.3389    3.2331 C   0  0  0  0  0  0  0  0  0  0  0  0
   -0.8801   -0.7290    3.0426 H   0  0  0  0  0  0  0  0  0  0  0  0
    0.4950    0.7580   -1.4779 C   0  0  0  0  0  0  0  0  0  0  0  0
   -0.0733    0.9935   -2.5380 O   0  0  0  0  0  0  0  0  0  0  0  0
    1.8489    0.4696   -1.4972 N   0  0  0  0  0  0  0  0  0  0  0  0
    2.2643    0.1550   -0.6252 H   0  0  0  0  0  0  0  0  0  0  0  0
    2.6126    0.3125   -2.7291 C   0  0  0  0  0  0  0  0  0  0  0  0
    2.5614    1.2253   -3.3318 H   0  0  0  0  0  0  0  0  0  0  0  0
    3.6633    0.1116   -2.4990 H   0  0  0  0  0  0  0  0  0  0  0  0
    2.2202   -0.5224   -3.3191 H   0  0  0  0  0  0  0  0  0  0  0  0
  1  2  1  0  0  0  0
  2  3  1  0  0  0  0
  2  4  1  0  0  0  0
  2  5  1  0  0  0  0
  5  6  2  0  0  0  0
  5  7  1  0  0  0  0
  7  8  1  0  0  0  0
  7  9  1  0  0  0  0
  9 10  1  0  0  0  0
  9 11  1  0  0  0  0
  9 25  1  0  0  0  0
 11 12  1  0  0  0  0
 11 13  1  0  0  0  0
 11 14  1  0  0  0  0
 14 15  1  0  0  0  0
 14 23  2  0  0  0  0
 15 16  1  0  0  0  0
 15 17  2  0  0  0  0
 17 18  1  0  0  0  0
 17 19  1  0  0  0  0
 19 20  1  0  0  0  0
 19 21  2  0  0  0  0
 21 22  1  0  0  0  0
 21 23  1  0  0  0  0
 23 24  1  0  0  0  0
 25 26  2  0  0  0  0
 25 27  1  0  0  0  0
 27 28  1  0  0  0  0
 27 29  1  0  0  0  0
 29 30  1  0  0  0  0
 29 31  1  0  0  0  0
 29 32  1  0  0  0  0
M  END
$$$$

  -OEChem-01062216093D

 32 32  0     1  0  0  0  0  0999 V2000
   -3.5087   -2.5062    0.5991 H   0  0  0  0  0  0  0  0  0  0  0  0
   -3.3693   -1.5489    0.0888 C   0  0  0  0  0  0  0  0  0  0  0  0
   -4.0452   -0.8137    0.5319 H   0  0  0  0  0  0  0  0  0  0  0  0
   -3.6182   -1.6733   -0.9679 H   0  0  0  0  0  0  0  0  0  0  0  0
   -1.9323   -1.0833    0.2311 C   0  0  0  0  0  0  0  0  0  0  0  0
   -1.1133   -1.8382    0.7291 O   0  0  0  0  0  0  0  0  0  0  0  0
   -1.5717    0.1395   -0.3015 N   0  0  0  0  0  0  0  0  0  0  0  0
   -2.3028    0.6201   -0.8194 H   0  0  0  0  0  0  0  0  0  0  0  0
   -0.2922    0.8682   -0.1636 C   0  0  1  0  0  0  0  0  0  0  0  0
   -0.5672    1.9267   -0.1187 H   0  0  0  0  0  0  0  0  0  0  0  0
    0.5479    0.6375    1.1179 C   0  0  0  0  0  0  0  0  0  0  0  0
    0.7943   -0.4188    1.2495 H   0  0  0  0  0  0  0  0  0  0  0  0
    1.5009    1.1665    1.0177 H   0  0  0  0  0  0  0  0  0  0  0  0
   -0.1522    1.1810    2.3441 C   0  0  0  0  0  0  0  0  0  0  0  0
   -0.0842    2.5516    2.6420 C   0  0  0  0  0  0  0  0  0  0  0  0
    0.4621    3.2250    1.9884 H   0  0  0  0  0  0  0  0  0  0  0  0
   -0.7163    3.0660    3.7792 C   0  0  0  0  0  0  0  0  0  0  0  0
   -0.6586    4.1279    3.9993 H   0  0  0  0  0  0  0  0  0  0  0  0
   -1.4196    2.2130    4.6344 C   0  0  0  0  0  0  0  0  0  0  0  0
   -1.9097    2.6109    5.5182 H   0  0  0  0  0  0  0  0  0  0  0  0
   -1.4855    0.8455    4.3532 C   0  0  0  0  0  0  0  0  0  0  0  0
   -2.0257    0.1784    5.0184 H   0  0  0  0  0  0  0  0  0  0  0  0
   -0.8505    0.3329    3.2170 C   0  0  0  0  0  0  0  0  0  0  0  0
   -0.8984   -0.7337    3.0199 H   0  0  0  0  0  0  0  0  0  0  0  0
    0.5175    0.7536   -1.4711 C   0  0  0  0  0  0  0  0  0  0  0  0
    0.0422    1.2070   -2.5051 O   0  0  0  0  0  0  0  0  0  0  0  0
    1.7744    0.1751   -1.5034 N   0  0  0  0  0  0  0  0  0  0  0  0
    2.0639   -0.3329   -0.6719 H   0  0  0  0  0  0  0  0  0  0  0  0
    2.5239   -0.0238   -2.7379 C   0  0  0  0  0  0  0  0  0  0  0  0
    2.6666    0.9291   -3.2586 H   0  0  0  0  0  0  0  0  0  0  0  0
    3.5095   -0.4451   -2.5183 H   0  0  0  0  0  0  0  0  0  0  0  0
    1.9909   -0.7118   -3.4023 H   0  0  0  0  0  0  0  0  0  0  0  0
  1  2  1  0  0  0  0
  2  3  1  0  0  0  0
  2  4  1  0  0  0  0
  2  5  1  0  0  0  0
  5  6  2  0  0  0  0
  5  7  1  0  0  0  0
  7  8  1  0  0  0  0
  7  9  1  0  0  0  0
  9 10  1  0  0  0  0
  9 11  1  0  0  0  0
  9 25  1  0  0  0  0
 11 12  1  0  0  0  0
 11 13  1  0  0  0  0
 11 14  1  0  0  0  0
 14 15  1  0  0  0  0
 14 23  2  0  0  0  0
 15 16  1  0  0  0  0
 15 17  2  0  0  0  0
 17 18  1  0  0  0  0
 17 19  1  0  0  0  0
 19 20  1  0  0  0  0
 19 21  2  0  0  0  0
 21 22  1  0  0  0  0
 21 23  1  0  0  0  0
 23 24  1  0  0  0  0
 25 26  2  0  0  0  0
 25 27  1  0  0  0  0
 27 28  1  0  0  0  0
 27 29  1  0  0  0  0
 29 30  1  0  0  0  0
 29 31  1  0  0  0  0
 29 32  1  0  0  0  0
M  END
$$$$

  -OEChem-01062216093D

 32 32  0     1  0  0  0  0  0999 V2000
   -3.4984   -2.4931    0.6304 H   0  0  0  0  0  0  0  0  0  0  0  0
   -3.3735   -1.5229    0.1414 C   0  0  0  0  0  0  0  0  0  0  0  0
   -4.0160   -0.7931    0.6402 H   0  0  0  0  0  0  0  0  0  0  0  0
   -3.6789   -1.6134   -0.9040 H   0  0  0  0  0  0  0  0  0  0  0  0
   -1.9253   -1.0782    0.2224 C   0  0  0  0  0  0  0  0  0  0  0  0
   -1.0923   -1.8452    0.6775 O   0  0  0  0  0  0  0  0  0  0  0  0
   -1.5687    0.1396   -0.3230 N   0  0  0  0  0  0  0  0  0  0  0  0
   -2.3234    0.6488   -0.7752 H   0  0  0  0  0  0  0  0  0  0  0  0
   -0.2919    0.8708   -0.1779 C   0  0  1  0  0  0  0  0  0  0  0  0
   -0.5669    1.9296   -0.1381 H   0  0  0  0  0  0  0  0  0  0  0  0
    0.5479    0.6414    1.1030 C   0  0  0  0  0  0  0  0  0  0  0  0
    0.7975   -0.4138    1.2354 H   0  0  0  0  0  0  0  0  0  0  0  0
    1.5003    1.1718    0.9999 H   0  0  0  0  0  0  0  0  0  0  0  0
   -0.1571    1.1800    2.3275 C   0  0  0  0  0  0  0  0  0  0  0  0
   -0.0974    2.5501    2.6281 C   0  0  0  0  0  0  0  0  0  0  0  0
    0.4439    3.2282    1.9749 H   0  0  0  0  0  0  0  0  0  0  0  0
   -0.7346    3.0581    3.7654 C   0  0  0  0  0  0  0  0  0  0  0  0
   -0.6852    4.1202    3.9870 H   0  0  0  0  0  0  0  0  0  0  0  0
   -1.4316    2.1982    4.6190 C   0  0  0  0  0  0  0  0  0  0  0  0
   -1.9247    2.5906    5.5035 H   0  0  0  0  0  0  0  0  0  0  0  0
   -1.4856    0.8303    4.3366 C   0  0  0  0  0  0  0  0  0  0  0  0
   -2.0173    0.1575    5.0029 H   0  0  0  0  0  0  0  0  0  0  0  0
   -0.8474    0.3244    3.1992 C   0  0  0  0  0  0  0  0  0  0  0  0
   -0.8847   -0.7426    3.0005 H   0  0  0  0  0  0  0  0  0  0  0  0
    0.5309    0.7426   -1.4731 C   0  0  0  0  0  0  0  0  0  0  0  0
    0.2018    1.3889   -2.4597 O   0  0  0  0  0  0  0  0  0  0  0  0
    1.6298   -0.0948   -1.5403 N   0  0  0  0  0  0  0  0  0  0  0  0
    1.7522   -0.7417   -0.7650 H   0  0  0  0  0  0  0  0  0  0  0  0
    2.3702   -0.3352   -2.7726 C   0  0  0  0  0  0  0  0  0  0  0  0
    2.7588    0.6055   -3.1764 H   0  0  0  0  0  0  0  0  0  0  0  0
    3.2162   -1.0020   -2.5807 H   0  0  0  0  0  0  0  0  0  0  0  0
    1.7234   -0.8008   -3.5234 H   0  0  0  0  0  0  0  0  0  0  0  0
  1  2  1  0  0  0  0
  2  3  1  0  0  0  0
  2  4  1  0  0  0  0
  2  5  1  0  0  0  0
  5  6  2  0  0  0  0
  5  7  1  0  0  0  0
  7  8  1  0  0  0  0
  7  9  1  0  0  0  0
  9 10  1  0  0  0  0
  9 11  1  0  0  0  0
  9 25  1  0  0  0  0
 11 12  1  0  0  0  0
 11 13  1  0  0  0  0
 11 14  1  0  0  0  0
 14 15  1  0  0  0  0
 14 23  2  0  0  0  0
 15 16  1  0  0  0  0
 15 17  2  0  0  0  0
 17 18  1  0  0  0  0
 17 19  1  0  0  0  0
 19 20  1  0  0  0  0
 19 21  2  0  0  0  0
 21 22  1  0  0  0  0
 21 23  1  0  0  0  0
 23 24  1  0  0  0  0
 25 26  2  0  0  0  0
 25 27  1  0  0  0  0
 27 28  1  0  0  0  0
 27 29  1  0  0  0  0
 29 30  1  0  0  0  0
 29 31  1  0  0  0  0
 29 32  1  0  0  0  0
M  END
$$$$

  -OEChem-01062216093D

 32 32  0     1  0  0  0  0  0999 V2000
   -3.4822   -2.4527    0.7238 H   0  0  0  0  0  0  0  0  0  0  0  0
   -3.3727   -1.4882    0.2202 C   0  0  0  0  0  0  0  0  0  0  0  0
   -3.9719   -0.7447    0.7513 H   0  0  0  0  0  0  0  0  0  0  0  0
   -3.7424   -1.5809   -0.8039 H   0  0  0  0  0  0  0  0  0  0  0  0
   -1.9156   -1.0664    0.2093 C   0  0  0  0  0  0  0  0  0  0  0  0
   -1.0632   -1.8504    0.5953 O   0  0  0  0  0  0  0  0  0  0  0  0
   -1.5694    0.1456   -0.3543 N   0  0  0  0  0  0  0  0  0  0  0  0
   -2.3469    0.6827   -0.7289 H   0  0  0  0  0  0  0  0  0  0  0  0
   -0.2943    0.8781   -0.2022 C   0  0  1  0  0  0  0  0  0  0  0  0
   -0.5670    1.9378   -0.1676 H   0  0  0  0  0  0  0  0  0  0  0  0
    0.5452    0.6451    1.0775 C   0  0  0  0  0  0  0  0  0  0  0  0
    0.7999   -0.4093    1.2065 H   0  0  0  0  0  0  0  0  0  0  0  0
    1.4962    1.1780    0.9743 H   0  0  0  0  0  0  0  0  0  0  0  0
   -0.1624    1.1754    2.3038 C   0  0  0  0  0  0  0  0  0  0  0  0
   -0.1094    2.5433    2.6137 C   0  0  0  0  0  0  0  0  0  0  0  0
    0.4300    3.2274    1.9654 H   0  0  0  0  0  0  0  0  0  0  0  0
   -0.7508    3.0405    3.7533 C   0  0  0  0  0  0  0  0  0  0  0  0
   -0.7071    4.1014    3.9816 H   0  0  0  0  0  0  0  0  0  0  0  0
   -1.4443    2.1714    4.6005 C   0  0  0  0  0  0  0  0  0  0  0  0
   -1.9394    2.5557    5.4875 H   0  0  0  0  0  0  0  0  0  0  0  0
   -1.4924    0.8053    4.3080 C   0  0  0  0  0  0  0  0  0  0  0  0
   -2.0220    0.1257    4.9691 H   0  0  0  0  0  0  0  0  0  0  0  0
   -0.8510    0.3104    3.1677 C   0  0  0  0  0  0  0  0  0  0  0  0
   -0.8830   -0.7553    2.9605 H   0  0  0  0  0  0  0  0  0  0  0  0
    0.5403    0.7316   -1.4852 C   0  0  0  0  0  0  0  0  0  0  0  0
    0.4152    1.5446   -2.3918 O   0  0  0  0  0  0  0  0  0  0  0  0
    1.4265   -0.3209   -1.6162 N   0  0  0  0  0  0  0  0  0  0  0  0
    1.3485   -1.0591   -0.9191 H   0  0  0  0  0  0  0  0  0  0  0  0
    2.1615   -0.5926   -2.8443 C   0  0  0  0  0  0  0  0  0  0  0  0
    2.7667    0.2744   -3.1292 H   0  0  0  0  0  0  0  0  0  0  0  0
    2.8306   -1.4466   -2.7022 H   0  0  0  0  0  0  0  0  0  0  0  0
    1.4699   -0.8239   -3.6610 H   0  0  0  0  0  0  0  0  0  0  0  0
  1  2  1  0  0  0  0
  2  3  1  0  0  0  0
  2  4  1  0  0  0  0
  2  5  1  0  0  0  0
  5  6  2  0  0  0  0
  5  7  1  0  0  0  0
  7  8  1  0  0  0  0
  7  9  1  0  0  0  0
  9 10  1  0  0  0  0
  9 11  1  0  0  0  0
  9 25  1  0  0  0  0
 11 12  1  0  0  0  0
 11 13  1  0  0  0  0
 11 14  1  0  0  0  0
 14 15  1  0  0  0  0
 14 23  2  0  0  0  0
 15 16  1  0  0  0  0
 15 17  2  0  0  0  0
 17 18  1  0  0  0  0
 17 19  1  0  0  0  0
 19 20  1  0  0  0  0
 19 21  2  0  0  0  0
 21 22  1  0  0  0  0
 21 23  1  0  0  0  0
 23 24  1  0  0  0  0
 25 26  2  0  0  0  0
 25 27  1  0  0  0  0
 27 28  1  0  0  0  0
 27 29  1  0  0  0  0
 29 30  1  0  0  0  0
 29 31  1  0  0  0  0
 29 32  1  0  0  0  0
M  END
$$$$

  -OEChem-01062216093D

 32 32  0     1  0  0  0  0  0999 V2000
   -3.4694   -2.4413    0.7799 H   0  0  0  0  0  0  0  0  0  0  0  0
   -3.3771   -1.4573    0.3117 C   0  0  0  0  0  0  0  0  0  0  0  0
   -3.9172   -0.7276    0.9200 H   0  0  0  0  0  0  0  0  0  0  0  0
   -3.8267   -1.4971   -0.6834 H   0  0  0  0  0  0  0  0  0  0  0  0
   -1.9162   -1.0625    0.2063 C   0  0  0  0  0  0  0  0  0  0  0  0
   -1.0512   -1.8648    0.5205 O   0  0  0  0  0  0  0  0  0  0  0  0
   -1.5809    0.1439   -0.3745 N   0  0  0  0  0  0  0  0  0  0  0  0
   -2.3744    0.7015   -0.6781 H   0  0  0  0  0  0  0  0  0  0  0  0
   -0.3051    0.8770   -0.2254 C   0  0  1  0  0  0  0  0  0  0  0  0
   -0.5745    1.9379   -0.1936 H   0  0  0  0  0  0  0  0  0  0  0  0
    0.5401    0.6384    1.0481 C   0  0  0  0  0  0  0  0  0  0  0  0
    0.7975   -0.4162    1.1708 H   0  0  0  0  0  0  0  0  0  0  0  0
    1.4901    1.1729    0.9429 H   0  0  0  0  0  0  0  0  0  0  0  0
   -0.1661    1.1634    2.2768 C   0  0  0  0  0  0  0  0  0  0  0  0
   -0.1139    2.5301    2.5907 C   0  0  0  0  0  0  0  0  0  0  0  0
    0.4279    3.2160    1.9461 H   0  0  0  0  0  0  0  0  0  0  0  0
   -0.7592    3.0236    3.7297 C   0  0  0  0  0  0  0  0  0  0  0  0
   -0.7154    4.0836    3.9624 H   0  0  0  0  0  0  0  0  0  0  0  0
   -1.4575    2.1519    4.5705 C   0  0  0  0  0  0  0  0  0  0  0  0
   -1.9572    2.5338    5.4560 H   0  0  0  0  0  0  0  0  0  0  0  0
   -1.5033    0.7864    4.2745 C   0  0  0  0  0  0  0  0  0  0  0  0
   -2.0350    0.1044    4.9314 H   0  0  0  0  0  0  0  0  0  0  0  0
   -0.8567    0.2953    3.1356 C   0  0  0  0  0  0  0  0  0  0  0  0
   -0.8866   -0.7698    2.9247 H   0  0  0  0  0  0  0  0  0  0  0  0
    0.5335    0.7176   -1.5016 C   0  0  0  0  0  0  0  0  0  0  0  0
    0.6469    1.6467   -2.2901 O   0  0  0  0  0  0  0  0  0  0  0  0
    1.1710   -0.4842   -1.7419 N   0  0  0  0  0  0  0  0  0  0  0  0
    0.9228   -1.2561   -1.1232 H   0  0  0  0  0  0  0  0  0  0  0  0
    1.9238   -0.7624   -2.9571 C   0  0  0  0  0  0  0  0  0  0  0  0
    2.7364   -0.0384   -3.0779 H   0  0  0  0  0  0  0  0  0  0  0  0
    2.3601   -1.7648   -2.9093 H   0  0  0  0  0  0  0  0  0  0  0  0
    1.2697   -0.7085   -3.8335 H   0  0  0  0  0  0  0  0  0  0  0  0
  1  2  1  0  0  0  0
  2  3  1  0  0  0  0
  2  4  1  0  0  0  0
  2  5  1  0  0  0  0
  5  6  2  0  0  0  0
  5  7  1  0  0  0  0
  7  8  1  0  0  0  0
  7  9  1  0  0  0  0
  9 10  1  0  0  0  0
  9 11  1  0  0  0  0
  9 25  1  0  0  0  0
 11 12  1  0  0  0  0
 11 13  1  0  0  0  0
 11 14  1  0  0  0  0
 14 15  1  0  0  0  0
 14 23  2  0  0  0  0
 15 16  1  0  0  0  0
 15 17  2  0  0  0  0
 17 18  1  0  0  0  0
 17 19  1  0  0  0  0
 19 20  1  0  0  0  0
 19 21  2  0  0  0  0
 21 22  1  0  0  0  0
 21 23  1  0  0  0  0
 23 24  1  0  0  0  0
 25 26  2  0  0  0  0
 25 27  1  0  0  0  0
 27 28  1  0  0  0  0
 27 29  1  0  0  0  0
 29 30  1  0  0  0  0
 29 31  1  0  0  0  0
 29 32  1  0  0  0  0
M  END
$$$$

  -OEChem-01062216093D

 32 32  0     1  0  0  0  0  0999 V2000
   -3.4758   -2.4073    0.8709 H   0  0  0  0  0  0  0  0  0  0  0  0
   -3.3943   -1.4250    0.3971 C   0  0  0  0  0  0  0  0  0  0  0  0
   -3.8829   -0.6860    1.0369 H   0  0  0  0  0  0  0  0  0  0  0  0
   -3.9044   -1.4564   -0.5687 H   0  0  0  0  0  0  0  0  0  0  0  0
   -1.9356   -1.0566    0.2040 C   0  0  0  0  0  0  0  0  0  0  0  0
   -1.0669   -1.8766    0.4554 O   0  0  0  0  0  0  0  0  0  0  0  0
   -1.6093    0.1435   -0.3938 N   0  0  0  0  0  0  0  0  0  0  0  0
   -2.4121    0.7139   -0.6446 H   0  0  0  0  0  0  0  0  0  0  0  0
   -0.3317    0.8787   -0.2548 C   0  0  1  0  0  0  0  0  0  0  0  0
   -0.5981    1.9405   -0.2251 H   0  0  0  0  0  0  0  0  0  0  0  0
    0.5217    0.6336    1.0112 C   0  0  0  0  0  0  0  0  0  0  0  0
    0.7800   -0.4221    1.1246 H   0  0  0  0  0  0  0  0  0  0  0  0
    1.4710    1.1687    0.9025 H   0  0  0  0  0  0  0  0  0  0  0  0
   -0.1750    1.1521    2.2475 C   0  0  0  0  0  0  0  0  0  0  0  0
   -0.1202    2.5169    2.5686 C   0  0  0  0  0  0  0  0  0  0  0  0
    0.4198    3.2063    1.9257 H   0  0  0  0  0  0  0  0  0  0  0  0
   -0.7614    3.0040    3.7128 C   0  0  0  0  0  0  0  0  0  0  0  0
   -0.7169    4.0630    3.9500 H   0  0  0  0  0  0  0  0  0  0  0  0
   -1.4547    2.1277    4.5532 C   0  0  0  0  0  0  0  0  0  0  0  0
   -1.9506    2.5045    5.4429 H   0  0  0  0  0  0  0  0  0  0  0  0
   -1.4994    0.7633    4.2516 C   0  0  0  0  0  0  0  0  0  0  0  0
   -2.0255    0.0773    4.9091 H   0  0  0  0  0  0  0  0  0  0  0  0
   -0.8581    0.2785    3.1069 C   0  0  0  0  0  0  0  0  0  0  0  0
   -0.8854   -0.7859    2.8914 H   0  0  0  0  0  0  0  0  0  0  0  0
    0.5100    0.7093   -1.5278 C   0  0  0  0  0  0  0  0  0  0  0  0
    0.8629    1.6852   -2.1765 O   0  0  0  0  0  0  0  0  0  0  0  0
    0.8874   -0.5619   -1.9147 N   0  0  0  0  0  0  0  0  0  0  0  0
    0.5281   -1.3340   -1.3521 H   0  0  0  0  0  0  0  0  0  0  0  0
    1.6827   -0.8464   -3.1008 C   0  0  0  0  0  0  0  0  0  0  0  0
    2.6476   -0.3316   -3.0472 H   0  0  0  0  0  0  0  0  0  0  0  0
    1.8692   -1.9216   -3.1806 H   0  0  0  0  0  0  0  0  0  0  0  0
    1.1564   -0.5175   -4.0028 H   0  0  0  0  0  0  0  0  0  0  0  0
  1  2  1  0  0  0  0
  2  3  1  0  0  0  0
  2  4  1  0  0  0  0
  2  5  1  0  0  0  0
  5  6  2  0  0  0  0
  5  7  1  0  0  0  0
  7  8  1  0  0  0  0
  7  9  1  0  0  0  0
  9 10  1  0  0  0  0
  9 11  1  0  0  0  0
  9 25  1  0  0  0  0
 11 12  1  0  0  0  0
 11 13  1  0  0  0  0
 11 14  1  0  0  0  0
 14 15  1  0  0  0  0
 14 23  2  0  0  0  0
 15 16  1  0  0  0  0
 15 17  2  0  0  0  0
 17 18  1  0  0  0  0
 17 19  1  0  0  0  0
 19 20  1  0  0  0  0
 19 21  2  0  0  0  0
 21 22  1  0  0  0  0
 21 23  1  0  0  0  0
 23 24  1  0  0  0  0
 25 26  2  0  0  0  0
 25 27  1  0  0  0  0
 27 28  1  0  0  0  0
 27 29  1  0  0  0  0
 29 30  1  0  0  0  0
 29 31  1  0  0  0  0
 29 32  1  0  0  0  0
M  END
$$$$

  -OEChem-01062216093D

 32 32  0     1  0  0  0  0  0999 V2000
   -3.4957   -2.3816    0.9546 H   0  0  0  0  0  0  0  0  0  0  0  0
   -3.4220   -1.4093    0.4594 C   0  0  0  0  0  0  0  0  0  0  0  0
   -3.8814   -0.6535    1.1012 H   0  0  0  0  0  0  0  0  0  0  0  0
   -3.9652   -1.4532   -0.4876 H   0  0  0  0  0  0  0  0  0  0  0  0
   -1.9674   -1.0592    0.2093 C   0  0  0  0  0  0  0  0  0  0  0  0
   -1.0998   -1.8917    0.4177 O   0  0  0  0  0  0  0  0  0  0  0  0
   -1.6493    0.1373   -0.3995 N   0  0  0  0  0  0  0  0  0  0  0  0
   -2.4578    0.7144   -0.6140 H   0  0  0  0  0  0  0  0  0  0  0  0
   -0.3692    0.8746   -0.2801 C   0  0  1  0  0  0  0  0  0  0  0  0
   -0.6353    1.9361   -0.2489 H   0  0  0  0  0  0  0  0  0  0  0  0
    0.4953    0.6246    0.9767 C   0  0  0  0  0  0  0  0  0  0  0  0
    0.7500   -0.4329    1.0835 H   0  0  0  0  0  0  0  0  0  0  0  0
    1.4459    1.1563    0.8611 H   0  0  0  0  0  0  0  0  0  0  0  0
   -0.1880    1.1417    2.2213 C   0  0  0  0  0  0  0  0  0  0  0  0
   -0.1264    2.5058    2.5442 C   0  0  0  0  0  0  0  0  0  0  0  0
    0.4062    3.1943    1.8942 H   0  0  0  0  0  0  0  0  0  0  0  0
   -0.7505    2.9924    3.6977 C   0  0  0  0  0  0  0  0  0  0  0  0
   -0.7014    4.0511    3.9347 H   0  0  0  0  0  0  0  0  0  0  0  0
   -1.4316    2.1156    4.5473 C   0  0  0  0  0  0  0  0  0  0  0  0
   -1.9127    2.4920    5.4454 H   0  0  0  0  0  0  0  0  0  0  0  0
   -1.4819    0.7514    4.2450 C   0  0  0  0  0  0  0  0  0  0  0  0
   -1.9969    0.0657    4.9115 H   0  0  0  0  0  0  0  0  0  0  0  0
   -0.8588    0.2673    3.0897 C   0  0  0  0  0  0  0  0  0  0  0  0
   -0.8890   -0.7970    2.8745 H   0  0  0  0  0  0  0  0  0  0  0  0
    0.4715    0.7087   -1.5556 C   0  0  0  0  0  0  0  0  0  0  0  0
    1.0425    1.6712   -2.0505 O   0  0  0  0  0  0  0  0  0  0  0  0
    0.5988   -0.5443   -2.1231 N   0  0  0  0  0  0  0  0  0  0  0  0
    0.1718   -1.3164   -1.6105 H   0  0  0  0  0  0  0  0  0  0  0  0
    1.4498   -0.8292   -3.2698 C   0  0  0  0  0  0  0  0  0  0  0  0
    2.4944   -0.5969   -3.0383 H   0  0  0  0  0  0  0  0  0  0  0  0
    1.3807   -1.8880   -3.5368 H   0  0  0  0  0  0  0  0  0  0  0  0
    1.1386   -0.2334   -4.1342 H   0  0  0  0  0  0  0  0  0  0  0  0
  1  2  1  0  0  0  0
  2  3  1  0  0  0  0
  2  4  1  0  0  0  0
  2  5  1  0  0  0  0
  5  6  2  0  0  0  0
  5  7  1  0  0  0  0
  7  8  1  0  0  0  0
  7  9  1  0  0  0  0
  9 10  1  0  0  0  0
  9 11  1  0  0  0  0
  9 25  1  0  0  0  0
 11 12  1  0  0  0  0
 11 13  1  0  0  0  0
 11 14  1  0  0  0  0
 14 15  1  0  0  0  0
 14 23  2  0  0  0  0
 15 16  1  0  0  0  0
 15 17  2  0  0  0  0
 17 18  1  0  0  0  0
 17 19  1  0  0  0  0
 19 20  1  0  0  0  0
 19 21  2  0  0  0  0
 21 22  1  0  0  0  0
 21 23  1  0  0  0  0
 23 24  1  0  0  0  0
 25 26  2  0  0  0  0
 25 27  1  0  0  0  0
 27 28  1  0  0  0  0
 27 29  1  0  0  0  0
 29 30  1  0  0  0  0
 29 31  1  0  0  0  0
 29 32  1  0  0  0  0
M  END
$$$$

  -OEChem-01062216093D

 32 32  0     1  0  0  0  0  0999 V2000
   -3.5076   -2.3733    1.0037 H   0  0  0  0  0  0  0  0  0  0  0  0
   -3.4365   -1.4122    0.4866 C   0  0  0  0  0  0  0  0  0  0  0  0
   -3.8967   -0.6438    1.1127 H   0  0  0  0  0  0  0  0  0  0  0  0
   -3.9811   -1.4787   -0.4584 H   0  0  0  0  0  0  0  0  0  0  0  0
   -1.9830   -1.0655    0.2257 C   0  0  0  0  0  0  0  0  0  0  0  0
   -1.1186   -1.9024    0.4250 O   0  0  0  0  0  0  0  0  0  0  0  0
   -1.6682    0.1295   -0.3884 N   0  0  0  0  0  0  0  0  0  0  0  0
   -2.4792    0.7073   -0.5911 H   0  0  0  0  0  0  0  0  0  0  0  0
   -0.3864    0.8702   -0.2871 C   0  0  1  0  0  0  0  0  0  0  0  0
   -0.6538    1.9312   -0.2553 H   0  0  0  0  0  0  0  0  0  0  0  0
    0.4851    0.6188    0.9657 C   0  0  0  0  0  0  0  0  0  0  0  0
    0.7382   -0.4392    1.0701 H   0  0  0  0  0  0  0  0  0  0  0  0
    1.4364    1.1485    0.8462 H   0  0  0  0  0  0  0  0  0  0  0  0
   -0.1902    1.1383    2.2140 C   0  0  0  0  0  0  0  0  0  0  0  0
   -0.1240    2.5022    2.5361 C   0  0  0  0  0  0  0  0  0  0  0  0
    0.4085    3.1888    1.8841 H   0  0  0  0  0  0  0  0  0  0  0  0
   -0.7415    2.9907    3.6925 C   0  0  0  0  0  0  0  0  0  0  0  0
   -0.6886    4.0492    3.9295 H   0  0  0  0  0  0  0  0  0  0  0  0
   -1.4214    2.1158    4.5450 C   0  0  0  0  0  0  0  0  0  0  0  0
   -1.8985    2.4936    5.4446 H   0  0  0  0  0  0  0  0  0  0  0  0
   -1.4760    0.7518    4.2437 C   0  0  0  0  0  0  0  0  0  0  0  0
   -1.9902    0.0672    4.9119 H   0  0  0  0  0  0  0  0  0  0  0  0
   -0.8586    0.2658    3.0863 C   0  0  0  0  0  0  0  0  0  0  0  0
   -0.8904   -0.7986    2.8718 H   0  0  0  0  0  0  0  0  0  0  0  0
    0.4535    0.7124   -1.5669 C   0  0  0  0  0  0  0  0  0  0  0  0
    1.2047    1.6105   -1.9230 O   0  0  0  0  0  0  0  0  0  0  0  0
    0.3515   -0.4423   -2.3188 N   0  0  0  0  0  0  0  0  0  0  0  0
   -0.1690   -1.2046   -1.8870 H   0  0  0  0  0  0  0  0  0  0  0  0
    1.1946   -0.7249   -3.4725 C   0  0  0  0  0  0  0  0  0  0  0  0
    2.2470   -0.7751   -3.1745 H   0  0  0  0  0  0  0  0  0  0  0  0
    0.9134   -1.6835   -3.9192 H   0  0  0  0  0  0  0  0  0  0  0  0
    1.0798    0.0559   -4.2316 H   0  0  0  0  0  0  0  0  0  0  0  0
  1  2  1  0  0  0  0
  2  3  1  0  0  0  0
  2  4  1  0  0  0  0
  2  5  1  0  0  0  0
  5  6  2  0  0  0  0
  5  7  1  0  0  0  0
  7  8  1  0  0  0  0
  7  9  1  0  0  0  0
  9 10  1  0  0  0  0
  9 11  1  0  0  0  0
  9 25  1  0  0  0  0
 11 12  1  0  0  0  0
 11 13  1  0  0  0  0
 11 14  1  0  0  0  0
 14 15  1  0  0  0  0
 14 23  2  0  0  0  0
 15 16  1  0  0  0  0
 15 17  2  0  0  0  0
 17 18  1  0  0  0  0
 17 19  1  0  0  0  0
 19 20  1  0  0  0  0
 19 21  2  0  0  0  0
 21 22  1  0  0  0  0
 21 23  1  0  0  0  0
 23 24  1  0  0  0  0
 25 26  2  0  0  0  0
 25 27  1  0  0  0  0
 27 28  1  0  0  0  0
 27 29  1  0  0  0  0
 29 30  1  0  0  0  0
 29 31  1  0  0  0  0
 29 32  1  0  0  0  0
M  END
$$$$

  -OEChem-01062216093D

 32 32  0     1  0  0  0  0  0999 V2000
   -3.5130   -2.3837    1.0247 H   0  0  0  0  0  0  0  0  0  0  0  0
   -3.4402   -1.4258    0.5017 C   0  0  0  0  0  0  0  0  0  0  0  0
   -3.8977   -0.6521    1.1234 H   0  0  0  0  0  0  0  0  0  0  0  0
   -3.9863   -1.4971   -0.4421 H   0  0  0  0  0  0  0  0  0  0  0  0
   -1.9861   -1.0832    0.2378 C   0  0  0  0  0  0  0  0  0  0  0  0
   -1.1251   -1.9195    0.4494 O   0  0  0  0  0  0  0  0  0  0  0  0
   -1.6730    0.1138   -0.3752 N   0  0  0  0  0  0  0  0  0  0  0  0
   -2.4853    0.6936   -0.5674 H   0  0  0  0  0  0  0  0  0  0  0  0
   -0.3890    0.8546   -0.2858 C   0  0  1  0  0  0  0  0  0  0  0  0
   -0.6579    1.9148   -0.2535 H   0  0  0  0  0  0  0  0  0  0  0  0
    0.4813    0.6056    0.9698 C   0  0  0  0  0  0  0  0  0  0  0  0
    0.7306   -0.4526    1.0791 H   0  0  0  0  0  0  0  0  0  0  0  0
    1.4355    1.1303    0.8517 H   0  0  0  0  0  0  0  0  0  0  0  0
   -0.1917    1.1338    2.2159 C   0  0  0  0  0  0  0  0  0  0  0  0
   -0.1193    2.4990    2.5316 C   0  0  0  0  0  0  0  0  0  0  0  0
    0.4167    3.1800    1.8765 H   0  0  0  0  0  0  0  0  0  0  0  0
   -0.7345    2.9954    3.6859 C   0  0  0  0  0  0  0  0  0  0  0  0
   -0.6758    4.0545    3.9187 H   0  0  0  0  0  0  0  0  0  0  0  0
   -1.4186    2.1274    4.5422 C   0  0  0  0  0  0  0  0  0  0  0  0
   -1.8924    2.5112    5.4409 H   0  0  0  0  0  0  0  0  0  0  0  0
   -1.4797    0.7624    4.2468 C   0  0  0  0  0  0  0  0  0  0  0  0
   -1.9965    0.0830    4.9181 H   0  0  0  0  0  0  0  0  0  0  0  0
   -0.8641    0.2685    3.0920 C   0  0  0  0  0  0  0  0  0  0  0  0
   -0.9002   -0.7966    2.8823 H   0  0  0  0  0  0  0  0  0  0  0  0
    0.4502    0.7100   -1.5707 C   0  0  0  0  0  0  0  0  0  0  0  0
    1.3541    1.5022   -1.8023 O   0  0  0  0  0  0  0  0  0  0  0  0
    0.1486   -0.2705   -2.4970 N   0  0  0  0  0  0  0  0  0  0  0  0
   -0.4944   -0.9915   -2.1774 H   0  0  0  0  0  0  0  0  0  0  0  0
    0.9571   -0.5231   -3.6827 C   0  0  0  0  0  0  0  0  0  0  0  0
    1.9689   -0.8300   -3.3981 H   0  0  0  0  0  0  0  0  0  0  0  0
    0.5077   -1.3198   -4.2832 H   0  0  0  0  0  0  0  0  0  0  0  0
    1.0228    0.3785   -4.3008 H   0  0  0  0  0  0  0  0  0  0  0  0
  1  2  1  0  0  0  0
  2  3  1  0  0  0  0
  2  4  1  0  0  0  0
  2  5  1  0  0  0  0
  5  6  2  0  0  0  0
  5  7  1  0  0  0  0
  7  8  1  0  0  0  0
  7  9  1  0  0  0  0
  9 10  1  0  0  0  0
  9 11  1  0  0  0  0
  9 25  1  0  0  0  0
 11 12  1  0  0  0  0
 11 13  1  0  0  0  0
 11 14  1  0  0  0  0
 14 15  1  0  0  0  0
 14 23  2  0  0  0  0
 15 16  1  0  0  0  0
 15 17  2  0  0  0  0
 17 18  1  0  0  0  0
 17 19  1  0  0  0  0
 19 20  1  0  0  0  0
 19 21  2  0  0  0  0
 21 22  1  0  0  0  0
 21 23  1  0  0  0  0
 23 24  1  0  0  0  0
 25 26  2  0  0  0  0
 25 27  1  0  0  0  0
 27 28  1  0  0  0  0
 27 29  1  0  0  0  0
 29 30  1  0  0  0  0
 29 31  1  0  0  0  0
 29 32  1  0  0  0  0
M  END
$$$$

  -OEChem-01062216093D

 32 32  0     1  0  0  0  0  0999 V2000
   -3.4950   -2.4002    1.0339 H   0  0  0  0  0  0  0  0  0  0  0  0
   -3.4244   -1.4458    0.5045 C   0  0  0  0  0  0  0  0  0  0  0  0
   -3.8874   -0.6701    1.1196 H   0  0  0  0  0  0  0  0  0  0  0  0
   -3.9666   -1.5258   -0.4407 H   0  0  0  0  0  0  0  0  0  0  0  0
   -1.9705   -1.1009    0.2422 C   0  0  0  0  0  0  0  0  0  0  0  0
   -1.1107   -1.9351    0.4639 O   0  0  0  0  0  0  0  0  0  0  0  0
   -1.6617    0.1022   -0.3632 N   0  0  0  0  0  0  0  0  0  0  0  0
   -2.4757    0.6863   -0.5339 H   0  0  0  0  0  0  0  0  0  0  0  0
   -0.3752    0.8412   -0.2798 C   0  0  1  0  0  0  0  0  0  0  0  0
   -0.6446    1.9010   -0.2432 H   0  0  0  0  0  0  0  0  0  0  0  0
    0.4907    0.5916    0.9811 C   0  0  0  0  0  0  0  0  0  0  0  0
    0.7354   -0.4671    1.0951 H   0  0  0  0  0  0  0  0  0  0  0  0
    1.4484    1.1111    0.8711 H   0  0  0  0  0  0  0  0  0  0  0  0
   -0.1884    1.1289    2.2204 C   0  0  0  0  0  0  0  0  0  0  0  0
   -0.1121    2.4954    2.5300 C   0  0  0  0  0  0  0  0  0  0  0  0
    0.4320    3.1703    1.8752 H   0  0  0  0  0  0  0  0  0  0  0  0
   -0.7334    3.0005    3.6773 C   0  0  0  0  0  0  0  0  0  0  0  0
   -0.6705    4.0604    3.9064 H   0  0  0  0  0  0  0  0  0  0  0  0
   -1.4283    2.1397    4.5321 C   0  0  0  0  0  0  0  0  0  0  0  0
   -1.9071    2.5297    5.4253 H   0  0  0  0  0  0  0  0  0  0  0  0
   -1.4943    0.7736    4.2425 C   0  0  0  0  0  0  0  0  0  0  0  0
   -2.0205    0.0999    4.9123 H   0  0  0  0  0  0  0  0  0  0  0  0
   -0.8721    0.2711    3.0949 C   0  0  0  0  0  0  0  0  0  0  0  0
   -0.9122   -0.7948    2.8898 H   0  0  0  0  0  0  0  0  0  0  0  0
    0.4555    0.7102   -1.5751 C   0  0  0  0  0  0  0  0  0  0  0  0
    1.4939    1.3447   -1.7085 O   0  0  0  0  0  0  0  0  0  0  0  0
   -0.0192   -0.0320   -2.6409 N   0  0  0  0  0  0  0  0  0  0  0  0
   -0.7973   -0.6515   -2.4313 H   0  0  0  0  0  0  0  0  0  0  0  0
    0.7443   -0.2512   -3.8631 C   0  0  0  0  0  0  0  0  0  0  0  0
    1.6685   -0.7965   -3.6449 H   0  0  0  0  0  0  0  0  0  0  0  0
    0.1556   -0.8357   -4.5765 H   0  0  0  0  0  0  0  0  0  0  0  0
    1.0018    0.7045   -4.3316 H   0  0  0  0  0  0  0  0  0  0  0  0
  1  2  1  0  0  0  0
  2  3  1  0  0  0  0
  2  4  1  0  0  0  0
  2  5  1  0  0  0  0
  5  6  2  0  0  0  0
  5  7  1  0  0  0  0
  7  8  1  0  0  0  0
  7  9  1  0  0  0  0
  9 10  1  0  0  0  0
  9 11  1  0  0  0  0
  9 25  1  0  0  0  0
 11 12  1  0  0  0  0
 11 13  1  0  0  0  0
 11 14  1  0  0  0  0
 14 15  1  0  0  0  0
 14 23  2  0  0  0  0
 15 16  1  0  0  0  0
 15 17  2  0  0  0  0
 17 18  1  0  0  0  0
 17 19  1  0  0  0  0
 19 20  1  0  0  0  0
 19 21  2  0  0  0  0
 21 22  1  0  0  0  0
 21 23  1  0  0  0  0
 23 24  1  0  0  0  0
 25 26  2  0  0  0  0
 25 27  1  0  0  0  0
 27 28  1  0  0  0  0
 27 29  1  0  0  0  0
 29 30  1  0  0  0  0
 29 31  1  0  0  0  0
 29 32  1  0  0  0  0
M  END
$$$$

  -OEChem-01062216093D

 32 32  0     1  0  0  0  0  0999 V2000
   -3.4778   -2.4254    0.9981 H   0  0  0  0  0  0  0  0  0  0  0  0
   -3.4039   -1.4609    0.4878 C   0  0  0  0  0  0  0  0  0  0  0  0
   -3.8674   -0.6967    1.1166 H   0  0  0  0  0  0  0  0  0  0  0  0
   -3.9436   -1.5217   -0.4604 H   0  0  0  0  0  0  0  0  0  0  0  0
   -1.9489   -1.1122    0.2365 C   0  0  0  0  0  0  0  0  0  0  0  0
   -1.0894   -1.9427    0.4719 O   0  0  0  0  0  0  0  0  0  0  0  0
   -1.6426    0.0956   -0.3617 N   0  0  0  0  0  0  0  0  0  0  0  0
   -2.4584    0.6815   -0.5156 H   0  0  0  0  0  0  0  0  0  0  0  0
   -0.3563    0.8347   -0.2767 C   0  0  1  0  0  0  0  0  0  0  0  0
   -0.6257    1.8943   -0.2391 H   0  0  0  0  0  0  0  0  0  0  0  0
    0.5028    0.5862    0.9909 C   0  0  0  0  0  0  0  0  0  0  0  0
    0.7477   -0.4721    1.1077 H   0  0  0  0  0  0  0  0  0  0  0  0
    1.4607    1.1066    0.8895 H   0  0  0  0  0  0  0  0  0  0  0  0
   -0.1842    1.1275    2.2243 C   0  0  0  0  0  0  0  0  0  0  0  0
   -0.1082    2.4947    2.5307 C   0  0  0  0  0  0  0  0  0  0  0  0
    0.4431    3.1665    1.8790 H   0  0  0  0  0  0  0  0  0  0  0  0
   -0.7384    3.0038    3.6713 C   0  0  0  0  0  0  0  0  0  0  0  0
   -0.6761    4.0640    3.8972 H   0  0  0  0  0  0  0  0  0  0  0  0
   -1.4412    2.1469    4.5237 C   0  0  0  0  0  0  0  0  0  0  0  0
   -1.9268    2.5408    5.4119 H   0  0  0  0  0  0  0  0  0  0  0  0
   -1.5055    0.7798    4.2382 C   0  0  0  0  0  0  0  0  0  0  0  0
   -2.0367    0.1094    4.9073 H   0  0  0  0  0  0  0  0  0  0  0  0
   -0.8749    0.2729    3.0969 C   0  0  0  0  0  0  0  0  0  0  0  0
   -0.9130   -0.7938    2.8951 H   0  0  0  0  0  0  0  0  0  0  0  0
    0.4654    0.7075   -1.5804 C   0  0  0  0  0  0  0  0  0  0  0  0
    1.6079    1.1425   -1.6464 O   0  0  0  0  0  0  0  0  0  0  0  0
   -0.1353    0.2445   -2.7374 N   0  0  0  0  0  0  0  0  0  0  0  0
   -1.0242   -0.2304   -2.6116 H   0  0  0  0  0  0  0  0  0  0  0  0
    0.5846    0.0642   -3.9925 C   0  0  0  0  0  0  0  0  0  0  0  0
    1.3816   -0.6774   -3.8730 H   0  0  0  0  0  0  0  0  0  0  0  0
   -0.0989   -0.2818   -4.7738 H   0  0  0  0  0  0  0  0  0  0  0  0
    1.0297    1.0098   -4.3199 H   0  0  0  0  0  0  0  0  0  0  0  0
  1  2  1  0  0  0  0
  2  3  1  0  0  0  0
  2  4  1  0  0  0  0
  2  5  1  0  0  0  0
  5  6  2  0  0  0  0
  5  7  1  0  0  0  0
  7  8  1  0  0  0  0
  7  9  1  0  0  0  0
  9 10  1  0  0  0  0
  9 11  1  0  0  0  0
  9 25  1  0  0  0  0
 11 12  1  0  0  0  0
 11 13  1  0  0  0  0
 11 14  1  0  0  0  0
 14 15  1  0  0  0  0
 14 23  2  0  0  0  0
 15 16  1  0  0  0  0
 15 17  2  0  0  0  0
 17 18  1  0  0  0  0
 17 19  1  0  0  0  0
 19 20  1  0  0  0  0
 19 21  2  0  0  0  0
 21 22  1  0  0  0  0
 21 23  1  0  0  0  0
 23 24  1  0  0  0  0
 25 26  2  0  0  0  0
 25 27  1  0  0  0  0
 27 28  1  0  0  0  0
 27 29  1  0  0  0  0
 29 30  1  0  0  0  0
 29 31  1  0  0  0  0
 29 32  1  0  0  0  0
M  END
$$$$

  -OEChem-01062216093D

 32 32  0     1  0  0  0  0  0999 V2000
   -3.4635   -2.4366    0.9885 H   0  0  0  0  0  0  0  0  0  0  0  0
   -3.3906   -1.4813    0.4607 C   0  0  0  0  0  0  0  0  0  0  0  0
   -3.8718   -0.7098    1.0671 H   0  0  0  0  0  0  0  0  0  0  0  0
   -3.9142   -1.5662   -0.4945 H   0  0  0  0  0  0  0  0  0  0  0  0
   -1.9347   -1.1238    0.2258 C   0  0  0  0  0  0  0  0  0  0  0  0
   -1.0754   -1.9488    0.4799 O   0  0  0  0  0  0  0  0  0  0  0  0
   -1.6287    0.0888   -0.3644 N   0  0  0  0  0  0  0  0  0  0  0  0
   -2.4454    0.6747   -0.5115 H   0  0  0  0  0  0  0  0  0  0  0  0
   -0.3415    0.8259   -0.2753 C   0  0  1  0  0  0  0  0  0  0  0  0
   -0.6103    1.8855   -0.2364 H   0  0  0  0  0  0  0  0  0  0  0  0
    0.5116    0.5815    0.9979 C   0  0  0  0  0  0  0  0  0  0  0  0
    0.7559   -0.4763    1.1203 H   0  0  0  0  0  0  0  0  0  0  0  0
    1.4705    1.1006    0.9002 H   0  0  0  0  0  0  0  0  0  0  0  0
   -0.1802    1.1292    2.2256 C   0  0  0  0  0  0  0  0  0  0  0  0
   -0.1046    2.4973    2.5283 C   0  0  0  0  0  0  0  0  0  0  0  0
    0.4487    3.1674    1.8767 H   0  0  0  0  0  0  0  0  0  0  0  0
   -0.7373    3.0101    3.6660 C   0  0  0  0  0  0  0  0  0  0  0  0
   -0.6744    4.0710    3.8900 H   0  0  0  0  0  0  0  0  0  0  0  0
   -1.4437    2.1557    4.5179 C   0  0  0  0  0  0  0  0  0  0  0  0
   -1.9304    2.5515    5.4044 H   0  0  0  0  0  0  0  0  0  0  0  0
   -1.5100    0.7884    4.2343 C   0  0  0  0  0  0  0  0  0  0  0  0
   -2.0447    0.1192    4.9016 H   0  0  0  0  0  0  0  0  0  0  0  0
   -0.8762    0.2781    3.0966 C   0  0  0  0  0  0  0  0  0  0  0  0
   -0.9161   -0.7890    2.8961 H   0  0  0  0  0  0  0  0  0  0  0  0
    0.4731    0.7029   -1.5852 C   0  0  0  0  0  0  0  0  0  0  0  0
    1.6828    0.8900   -1.6045 O   0  0  0  0  0  0  0  0  0  0  0  0
   -0.1878    0.5525   -2.7917 N   0  0  0  0  0  0  0  0  0  0  0  0
   -1.1604    0.2683   -2.7329 H   0  0  0  0  0  0  0  0  0  0  0  0
    0.5060    0.4156   -4.0669 C   0  0  0  0  0  0  0  0  0  0  0  0
    1.1320   -0.4828   -4.0675 H   0  0  0  0  0  0  0  0  0  0  0  0
   -0.2171    0.3366   -4.8841 H   0  0  0  0  0  0  0  0  0  0  0  0
    1.1415    1.2878   -4.2539 H   0  0  0  0  0  0  0  0  0  0  0  0
  1  2  1  0  0  0  0
  2  3  1  0  0  0  0
  2  4  1  0  0  0  0
  2  5  1  0  0  0  0
  5  6  2  0  0  0  0
  5  7  1  0  0  0  0
  7  8  1  0  0  0  0
  7  9  1  0  0  0  0
  9 10  1  0  0  0  0
  9 11  1  0  0  0  0
  9 25  1  0  0  0  0
 11 12  1  0  0  0  0
 11 13  1  0  0  0  0
 11 14  1  0  0  0  0
 14 15  1  0  0  0  0
 14 23  2  0  0  0  0
 15 16  1  0  0  0  0
 15 17  2  0  0  0  0
 17 18  1  0  0  0  0
 17 19  1  0  0  0  0
 19 20  1  0  0  0  0
 19 21  2  0  0  0  0
 21 22  1  0  0  0  0
 21 23  1  0  0  0  0
 23 24  1  0  0  0  0
 25 26  2  0  0  0  0
 25 27  1  0  0  0  0
 27 28  1  0  0  0  0
 27 29  1  0  0  0  0
 29 30  1  0  0  0  0
 29 31  1  0  0  0  0
 29 32  1  0  0  0  0
M  END
$$$$

  -OEChem-01062216093D

 32 32  0     1  0  0  0  0  0999 V2000
   -3.4673   -2.4602    0.9268 H   0  0  0  0  0  0  0  0  0  0  0  0
   -3.3861   -1.4959    0.4165 C   0  0  0  0  0  0  0  0  0  0  0  0
   -3.8849   -0.7360    1.0230 H   0  0  0  0  0  0  0  0  0  0  0  0
   -3.8860   -1.5681   -0.5523 H   0  0  0  0  0  0  0  0  0  0  0  0
   -1.9266   -1.1283    0.2226 C   0  0  0  0  0  0  0  0  0  0  0  0
   -1.0702   -1.9429    0.5164 O   0  0  0  0  0  0  0  0  0  0  0  0
   -1.6172    0.0851   -0.3651 N   0  0  0  0  0  0  0  0  0  0  0  0
   -2.4351    0.6622   -0.5357 H   0  0  0  0  0  0  0  0  0  0  0  0
   -0.3326    0.8245   -0.2737 C   0  0  1  0  0  0  0  0  0  0  0  0
   -0.6015    1.8838   -0.2355 H   0  0  0  0  0  0  0  0  0  0  0  0
    0.5216    0.5867    0.9997 C   0  0  0  0  0  0  0  0  0  0  0  0
    0.7718   -0.4697    1.1239 H   0  0  0  0  0  0  0  0  0  0  0  0
    1.4771    1.1111    0.8958 H   0  0  0  0  0  0  0  0  0  0  0  0
   -0.1709    1.1346    2.2278 C   0  0  0  0  0  0  0  0  0  0  0  0
   -0.1004    2.5036    2.5287 C   0  0  0  0  0  0  0  0  0  0  0  0
    0.4531    3.1747    1.8786 H   0  0  0  0  0  0  0  0  0  0  0  0
   -0.7373    3.0164    3.6642 C   0  0  0  0  0  0  0  0  0  0  0  0
   -0.6778    4.0778    3.8867 H   0  0  0  0  0  0  0  0  0  0  0  0
   -1.4428    2.1615    4.5162 C   0  0  0  0  0  0  0  0  0  0  0  0
   -1.9340    2.5579    5.3999 H   0  0  0  0  0  0  0  0  0  0  0  0
   -1.5032    0.7934    4.2360 C   0  0  0  0  0  0  0  0  0  0  0  0
   -2.0372    0.1237    4.9038 H   0  0  0  0  0  0  0  0  0  0  0  0
   -0.8651    0.2833    3.1004 C   0  0  0  0  0  0  0  0  0  0  0  0
   -0.9009   -0.7842    2.9020 H   0  0  0  0  0  0  0  0  0  0  0  0
    0.4759    0.6968   -1.5867 C   0  0  0  0  0  0  0  0  0  0  0  0
    1.6969    0.6085   -1.5886 O   0  0  0  0  0  0  0  0  0  0  0  0
   -0.1716    0.8568   -2.7997 N   0  0  0  0  0  0  0  0  0  0  0  0
   -1.1850    0.8185   -2.7807 H   0  0  0  0  0  0  0  0  0  0  0  0
    0.5093    0.7598   -4.0857 C   0  0  0  0  0  0  0  0  0  0  0  0
    0.9382   -0.2391   -4.2175 H   0  0  0  0  0  0  0  0  0  0  0  0
   -0.1950    0.9464   -4.9021 H   0  0  0  0  0  0  0  0  0  0  0  0
    1.3138    1.5002   -4.1507 H   0  0  0  0  0  0  0  0  0  0  0  0
  1  2  1  0  0  0  0
  2  3  1  0  0  0  0
  2  4  1  0  0  0  0
  2  5  1  0  0  0  0
  5  6  2  0  0  0  0
  5  7  1  0  0  0  0
  7  8  1  0  0  0  0
  7  9  1  0  0  0  0
  9 10  1  0  0  0  0
  9 11  1  0  0  0  0
  9 25  1  0  0  0  0
 11 12  1  0  0  0  0
 11 13  1  0  0  0  0
 11 14  1  0  0  0  0
 14 15  1  0  0  0  0
 14 23  2  0  0  0  0
 15 16  1  0  0  0  0
 15 17  2  0  0  0  0
 17 18  1  0  0  0  0
 17 19  1  0  0  0  0
 19 20  1  0  0  0  0
 19 21  2  0  0  0  0
 21 22  1  0  0  0  0
 21 23  1  0  0  0  0
 23 24  1  0  0  0  0
 25 26  2  0  0  0  0
 25 27  1  0  0  0  0
 27 28  1  0  0  0  0
 27 29  1  0  0  0  0
 29 30  1  0  0  0  0
 29 31  1  0  0  0  0
 29 32  1  0  0  0  0
M  END
$$$$

  -OEChem-01062216093D

 32 32  0     1  0  0  0  0  0999 V2000
   -3.4914   -2.4834    0.8553 H   0  0  0  0  0  0  0  0  0  0  0  0
   -3.3977   -1.5207    0.3448 C   0  0  0  0  0  0  0  0  0  0  0  0
   -3.9401   -0.7659    0.9196 H   0  0  0  0  0  0  0  0  0  0  0  0
   -3.8433   -1.6061   -0.6492 H   0  0  0  0  0  0  0  0  0  0  0  0
   -1.9360   -1.1314    0.2270 C   0  0  0  0  0  0  0  0  0  0  0  0
   -1.0872   -1.9283    0.5838 O   0  0  0  0  0  0  0  0  0  0  0  0
   -1.6178    0.0816   -0.3575 N   0  0  0  0  0  0  0  0  0  0  0  0
   -2.4328    0.6393   -0.5912 H   0  0  0  0  0  0  0  0  0  0  0  0
   -0.3359    0.8243   -0.2680 C   0  0  1  0  0  0  0  0  0  0  0  0
   -0.6085    1.8826   -0.2266 H   0  0  0  0  0  0  0  0  0  0  0  0
    0.5272    0.5951    0.9996 C   0  0  0  0  0  0  0  0  0  0  0  0
    0.7810   -0.4605    1.1240 H   0  0  0  0  0  0  0  0  0  0  0  0
    1.4805    1.1213    0.8826 H   0  0  0  0  0  0  0  0  0  0  0  0
   -0.1581    1.1426    2.2326 C   0  0  0  0  0  0  0  0  0  0  0  0
   -0.0910    2.5129    2.5286 C   0  0  0  0  0  0  0  0  0  0  0  0
    0.4565    3.1837    1.8732 H   0  0  0  0  0  0  0  0  0  0  0  0
   -0.7228    3.0273    3.6664 C   0  0  0  0  0  0  0  0  0  0  0  0
   -0.6655    4.0893    3.8858 H   0  0  0  0  0  0  0  0  0  0  0  0
   -1.4216    2.1731    4.5247 C   0  0  0  0  0  0  0  0  0  0  0  0
   -1.9103    2.5708    5.4093 H   0  0  0  0  0  0  0  0  0  0  0  0
   -1.4783    0.8038    4.2493 C   0  0  0  0  0  0  0  0  0  0  0  0
   -2.0066    0.1339    4.9212 H   0  0  0  0  0  0  0  0  0  0  0  0
   -0.8446    0.2921    3.1120 C   0  0  0  0  0  0  0  0  0  0  0  0
   -0.8783   -0.7763    2.9183 H   0  0  0  0  0  0  0  0  0  0  0  0
    0.4679    0.6943   -1.5825 C   0  0  0  0  0  0  0  0  0  0  0  0
    1.6348    0.3250   -1.5960 O   0  0  0  0  0  0  0  0  0  0  0  0
   -0.0906    1.1498   -2.7648 N   0  0  0  0  0  0  0  0  0  0  0  0
   -1.0733    1.3992   -2.7479 H   0  0  0  0  0  0  0  0  0  0  0  0
    0.5957    1.0847   -4.0498 C   0  0  0  0  0  0  0  0  0  0  0  0
    0.8303    0.0461   -4.3064 H   0  0  0  0  0  0  0  0  0  0  0  0
   -0.0372    1.5025   -4.8387 H   0  0  0  0  0  0  0  0  0  0  0  0
    1.5279    1.6585   -4.0163 H   0  0  0  0  0  0  0  0  0  0  0  0
  1  2  1  0  0  0  0
  2  3  1  0  0  0  0
  2  4  1  0  0  0  0
  2  5  1  0  0  0  0
  5  6  2  0  0  0  0
  5  7  1  0  0  0  0
  7  8  1  0  0  0  0
  7  9  1  0  0  0  0
  9 10  1  0  0  0  0
  9 11  1  0  0  0  0
  9 25  1  0  0  0  0
 11 12  1  0  0  0  0
 11 13  1  0  0  0  0
 11 14  1  0  0  0  0
 14 15  1  0  0  0  0
 14 23  2  0  0  0  0
 15 16  1  0  0  0  0
 15 17  2  0  0  0  0
 17 18  1  0  0  0  0
 17 19  1  0  0  0  0
 19 20  1  0  0  0  0
 19 21  2  0  0  0  0
 21 22  1  0  0  0  0
 21 23  1  0  0  0  0
 23 24  1  0  0  0  0
 25 26  2  0  0  0  0
 25 27  1  0  0  0  0
 27 28  1  0  0  0  0
 27 29  1  0  0  0  0
 29 30  1  0  0  0  0
 29 31  1  0  0  0  0
 29 32  1  0  0  0  0
M  END
$$$$

  -OEChem-01062216093D

 32 32  0     1  0  0  0  0  0999 V2000
   -3.5280   -2.5150    0.7792 H   0  0  0  0  0  0  0  0  0  0  0  0
   -3.4221   -1.5531    0.2693 C   0  0  0  0  0  0  0  0  0  0  0  0
   -4.0113   -0.8058    0.8062 H   0  0  0  0  0  0  0  0  0  0  0  0
   -3.8062   -1.6513   -0.7490 H   0  0  0  0  0  0  0  0  0  0  0  0
   -1.9630   -1.1369    0.2356 C   0  0  0  0  0  0  0  0  0  0  0  0
   -1.1259   -1.9108    0.6637 O   0  0  0  0  0  0  0  0  0  0  0  0
   -1.6359    0.0737   -0.3497 N   0  0  0  0  0  0  0  0  0  0  0  0
   -2.4405    0.6029   -0.6690 H   0  0  0  0  0  0  0  0  0  0  0  0
   -0.3567    0.8196   -0.2657 C   0  0  1  0  0  0  0  0  0  0  0  0
   -0.6358    1.8760   -0.2213 H   0  0  0  0  0  0  0  0  0  0  0  0
    0.5201    0.6025    0.9930 C   0  0  0  0  0  0  0  0  0  0  0  0
    0.7768   -0.4523    1.1194 H   0  0  0  0  0  0  0  0  0  0  0  0
    1.4706    1.1295    0.8590 H   0  0  0  0  0  0  0  0  0  0  0  0
   -0.1522    1.1511    2.2325 C   0  0  0  0  0  0  0  0  0  0  0  0
   -0.0867    2.5237    2.5187 C   0  0  0  0  0  0  0  0  0  0  0  0
    0.4458    3.1927    1.8496 H   0  0  0  0  0  0  0  0  0  0  0  0
   -0.6990    3.0430    3.6646 C   0  0  0  0  0  0  0  0  0  0  0  0
   -0.6421    4.1066    3.8763 H   0  0  0  0  0  0  0  0  0  0  0  0
   -1.3777    2.1916    4.5415 C   0  0  0  0  0  0  0  0  0  0  0  0
   -1.8516    2.5924    5.4327 H   0  0  0  0  0  0  0  0  0  0  0  0
   -1.4341    0.8205    4.2751 C   0  0  0  0  0  0  0  0  0  0  0  0
   -1.9469    0.1520    4.9602 H   0  0  0  0  0  0  0  0  0  0  0  0
   -0.8192    0.3038    3.1297 C   0  0  0  0  0  0  0  0  0  0  0  0
   -0.8527   -0.7658    2.9442 H   0  0  0  0  0  0  0  0  0  0  0  0
    0.4473    0.6881   -1.5782 C   0  0  0  0  0  0  0  0  0  0  0  0
    1.4991    0.0654   -1.6336 O   0  0  0  0  0  0  0  0  0  0  0  0
    0.0454    1.4026   -2.6943 N   0  0  0  0  0  0  0  0  0  0  0  0
   -0.8287    1.9142   -2.6375 H   0  0  0  0  0  0  0  0  0  0  0  0
    0.7700    1.3840   -3.9597 C   0  0  0  0  0  0  0  0  0  0  0  0
    0.8145    0.3659   -4.3608 H   0  0  0  0  0  0  0  0  0  0  0  0
    0.2682    2.0232   -4.6923 H   0  0  0  0  0  0  0  0  0  0  0  0
    1.7918    1.7532   -3.8218 H   0  0  0  0  0  0  0  0  0  0  0  0
  1  2  1  0  0  0  0
  2  3  1  0  0  0  0
  2  4  1  0  0  0  0
  2  5  1  0  0  0  0
  5  6  2  0  0  0  0
  5  7  1  0  0  0  0
  7  8  1  0  0  0  0
  7  9  1  0  0  0  0
  9 10  1  0  0  0  0
  9 11  1  0  0  0  0
  9 25  1  0  0  0  0
 11 12  1  0  0  0  0
 11 13  1  0  0  0  0
 11 14  1  0  0  0  0
 14 15  1  0  0  0  0
 14 23  2  0  0  0  0
 15 16  1  0  0  0  0
 15 17  2  0  0  0  0
 17 18  1  0  0  0  0
 17 19  1  0  0  0  0
 19 20  1  0  0  0  0
 19 21  2  0  0  0  0
 21 22  1  0  0  0  0
 21 23  1  0  0  0  0
 23 24  1  0  0  0  0
 25 26  2  0  0  0  0
 25 27  1  0  0  0  0
 27 28  1  0  0  0  0
 27 29  1  0  0  0  0
 29 30  1  0  0  0  0
 29 31  1  0  0  0  0
 29 32  1  0  0  0  0
M  END
$$$$

  -OEChem-01062216093D

 32 32  0     1  0  0  0  0  0999 V2000
   -3.5578   -2.5183    0.7345 H   0  0  0  0  0  0  0  0  0  0  0  0
   -3.4379   -1.5705    0.2017 C   0  0  0  0  0  0  0  0  0  0  0  0
   -4.0679   -0.8170    0.6803 H   0  0  0  0  0  0  0  0  0  0  0  0
   -3.7618   -1.7054   -0.8330 H   0  0  0  0  0  0  0  0  0  0  0  0
   -1.9862   -1.1306    0.2368 C   0  0  0  0  0  0  0  0  0  0  0  0
   -1.1623   -1.8821    0.7261 O   0  0  0  0  0  0  0  0  0  0  0  0
   -1.6540    0.0792   -0.3470 N   0  0  0  0  0  0  0  0  0  0  0  0
   -2.4439    0.5775   -0.7437 H   0  0  0  0  0  0  0  0  0  0  0  0
   -0.3777    0.8285   -0.2643 C   0  0  1  0  0  0  0  0  0  0  0  0
   -0.6657    1.8820   -0.2144 H   0  0  0  0  0  0  0  0  0  0  0  0
    0.5122    0.6177    0.9846 C   0  0  0  0  0  0  0  0  0  0  0  0
    0.7733   -0.4367    1.1077 H   0  0  0  0  0  0  0  0  0  0  0  0
    1.4593    1.1468    0.8378 H   0  0  0  0  0  0  0  0  0  0  0  0
   -0.1482    1.1611    2.2336 C   0  0  0  0  0  0  0  0  0  0  0  0
   -0.0863    2.5346    2.5179 C   0  0  0  0  0  0  0  0  0  0  0  0
    0.4300    3.2069    1.8395 H   0  0  0  0  0  0  0  0  0  0  0  0
   -0.6840    3.0518    3.6724 C   0  0  0  0  0  0  0  0  0  0  0  0
   -0.6336    4.1163    3.8803 H   0  0  0  0  0  0  0  0  0  0  0  0
   -1.3392    2.1967    4.5629 C   0  0  0  0  0  0  0  0  0  0  0  0
   -1.7996    2.5946    5.4623 H   0  0  0  0  0  0  0  0  0  0  0  0
   -1.3897    0.8247    4.3004 C   0  0  0  0  0  0  0  0  0  0  0  0
   -1.8859    0.1542    4.9961 H   0  0  0  0  0  0  0  0  0  0  0  0
   -0.7916    0.3105    3.1452 C   0  0  0  0  0  0  0  0  0  0  0  0
   -0.8197   -0.7599    2.9648 H   0  0  0  0  0  0  0  0  0  0  0  0
    0.4308    0.7011   -1.5729 C   0  0  0  0  0  0  0  0  0  0  0  0
    1.3031   -0.1450   -1.7093 O   0  0  0  0  0  0  0  0  0  0  0  0
    0.2410    1.6245   -2.5872 N   0  0  0  0  0  0  0  0  0  0  0  0
   -0.4743    2.3321   -2.4562 H   0  0  0  0  0  0  0  0  0  0  0  0
    0.9973    1.6088   -3.8341 C   0  0  0  0  0  0  0  0  0  0  0  0
    0.8464    0.6612   -4.3622 H   0  0  0  0  0  0  0  0  0  0  0  0
    0.6688    2.4240   -4.4858 H   0  0  0  0  0  0  0  0  0  0  0  0
    2.0671    1.7345   -3.6356 H   0  0  0  0  0  0  0  0  0  0  0  0
  1  2  1  0  0  0  0
  2  3  1  0  0  0  0
  2  4  1  0  0  0  0
  2  5  1  0  0  0  0
  5  6  2  0  0  0  0
  5  7  1  0  0  0  0
  7  8  1  0  0  0  0
  7  9  1  0  0  0  0
  9 10  1  0  0  0  0
  9 11  1  0  0  0  0
  9 25  1  0  0  0  0
 11 12  1  0  0  0  0
 11 13  1  0  0  0  0
 11 14  1  0  0  0  0
 14 15  1  0  0  0  0
 14 23  2  0  0  0  0
 15 16  1  0  0  0  0
 15 17  2  0  0  0  0
 17 18  1  0  0  0  0
 17 19  1  0  0  0  0
 19 20  1  0  0  0  0
 19 21  2  0  0  0  0
 21 22  1  0  0  0  0
 21 23  1  0  0  0  0
 23 24  1  0  0  0  0
 25 26  2  0  0  0  0
 25 27  1  0  0  0  0
 27 28  1  0  0  0  0
 27 29  1  0  0  0  0
 29 30  1  0  0  0  0
 29 31  1  0  0  0  0
 29 32  1  0  0  0  0
M  END
$$$$

  -OEChem-01062216093D

 32 32  0     1  0  0  0  0  0999 V2000
   -3.5709   -2.5567    0.6346 H   0  0  0  0  0  0  0  0  0  0  0  0
   -3.4466   -1.5973    0.1243 C   0  0  0  0  0  0  0  0  0  0  0  0
   -4.1170   -0.8667    0.5833 H   0  0  0  0  0  0  0  0  0  0  0  0
   -3.7153   -1.7222   -0.9274 H   0  0  0  0  0  0  0  0  0  0  0  0
   -2.0086   -1.1255    0.2389 C   0  0  0  0  0  0  0  0  0  0  0  0
   -1.2019   -1.8521    0.7911 O   0  0  0  0  0  0  0  0  0  0  0  0
   -1.6699    0.0853   -0.3396 N   0  0  0  0  0  0  0  0  0  0  0  0
   -2.4365    0.5490   -0.8160 H   0  0  0  0  0  0  0  0  0  0  0  0
   -0.3934    0.8337   -0.2566 C   0  0  1  0  0  0  0  0  0  0  0  0
   -0.6896    1.8845   -0.2026 H   0  0  0  0  0  0  0  0  0  0  0  0
    0.5071    0.6290    0.9844 C   0  0  0  0  0  0  0  0  0  0  0  0
    0.7694   -0.4256    1.1058 H   0  0  0  0  0  0  0  0  0  0  0  0
    1.4521    1.1591    0.8286 H   0  0  0  0  0  0  0  0  0  0  0  0
   -0.1420    1.1723    2.2401 C   0  0  0  0  0  0  0  0  0  0  0  0
   -0.0800    2.5470    2.5198 C   0  0  0  0  0  0  0  0  0  0  0  0
    0.4245    3.2191    1.8327 H   0  0  0  0  0  0  0  0  0  0  0  0
   -0.6629    3.0666    3.6808 C   0  0  0  0  0  0  0  0  0  0  0  0
   -0.6119    4.1318    3.8846 H   0  0  0  0  0  0  0  0  0  0  0  0
   -1.3039    2.2135    4.5834 C   0  0  0  0  0  0  0  0  0  0  0  0
   -1.7543    2.6139    5.4868 H   0  0  0  0  0  0  0  0  0  0  0  0
   -1.3520    0.8405    4.3270 C   0  0  0  0  0  0  0  0  0  0  0  0
   -1.8348    0.1699    5.0317 H   0  0  0  0  0  0  0  0  0  0  0  0
   -0.7684    0.3238    3.1654 C   0  0  0  0  0  0  0  0  0  0  0  0
   -0.7945   -0.7476    2.9921 H   0  0  0  0  0  0  0  0  0  0  0  0
    0.4194    0.7144   -1.5626 C   0  0  0  0  0  0  0  0  0  0  0  0
    1.0431   -0.3011   -1.8353 O   0  0  0  0  0  0  0  0  0  0  0  0
    0.4787    1.7849   -2.4390 N   0  0  0  0  0  0  0  0  0  0  0  0
   -0.0253    2.6302   -2.1911 H   0  0  0  0  0  0  0  0  0  0  0  0
    1.2523    1.7629   -3.6750 C   0  0  0  0  0  0  0  0  0  0  0  0
    0.9068    0.9550   -4.3285 H   0  0  0  0  0  0  0  0  0  0  0  0
    1.1403    2.7112   -4.2093 H   0  0  0  0  0  0  0  0  0  0  0  0
    2.3149    1.6109   -3.4588 H   0  0  0  0  0  0  0  0  0  0  0  0
  1  2  1  0  0  0  0
  2  3  1  0  0  0  0
  2  4  1  0  0  0  0
  2  5  1  0  0  0  0
  5  6  2  0  0  0  0
  5  7  1  0  0  0  0
  7  8  1  0  0  0  0
  7  9  1  0  0  0  0
  9 10  1  0  0  0  0
  9 11  1  0  0  0  0
  9 25  1  0  0  0  0
 11 12  1  0  0  0  0
 11 13  1  0  0  0  0
 11 14  1  0  0  0  0
 14 15  1  0  0  0  0
 14 23  2  0  0  0  0
 15 16  1  0  0  0  0
 15 17  2  0  0  0  0
 17 18  1  0  0  0  0
 17 19  1  0  0  0  0
 19 20  1  0  0  0  0
 19 21  2  0  0  0  0
 21 22  1  0  0  0  0
 21 23  1  0  0  0  0
 23 24  1  0  0  0  0
 25 26  2  0  0  0  0
 25 27  1  0  0  0  0
 27 28  1  0  0  0  0
 27 29  1  0  0  0  0
 29 30  1  0  0  0  0
 29 31  1  0  0  0  0
 29 32  1  0  0  0  0
M  END
$$$$

  -OEChem-01062216093D

 32 32  0     1  0  0  0  0  0999 V2000
   -3.5726   -2.5843    0.5585 H   0  0  0  0  0  0  0  0  0  0  0  0
   -3.4433   -1.6220    0.0548 C   0  0  0  0  0  0  0  0  0  0  0  0
   -4.1504   -0.9056    0.4793 H   0  0  0  0  0  0  0  0  0  0  0  0
   -3.6569   -1.7511   -1.0088 H   0  0  0  0  0  0  0  0  0  0  0  0
   -2.0230   -1.1200    0.2397 C   0  0  0  0  0  0  0  0  0  0  0  0
   -1.2323   -1.8265    0.8397 O   0  0  0  0  0  0  0  0  0  0  0  0
   -1.6783    0.0923   -0.3321 N   0  0  0  0  0  0  0  0  0  0  0  0
   -2.4174    0.5242   -0.8770 H   0  0  0  0  0  0  0  0  0  0  0  0
   -0.3990    0.8347   -0.2455 C   0  0  1  0  0  0  0  0  0  0  0  0
   -0.7007    1.8840   -0.1915 H   0  0  0  0  0  0  0  0  0  0  0  0
    0.5049    0.6333    0.9932 C   0  0  0  0  0  0  0  0  0  0  0  0
    0.7639   -0.4219    1.1158 H   0  0  0  0  0  0  0  0  0  0  0  0
    1.4508    1.1608    0.8332 H   0  0  0  0  0  0  0  0  0  0  0  0
   -0.1363    1.1808    2.2516 C   0  0  0  0  0  0  0  0  0  0  0  0
   -0.0695    2.5565    2.5264 C   0  0  0  0  0  0  0  0  0  0  0  0
    0.4306    3.2257    1.8336 H   0  0  0  0  0  0  0  0  0  0  0  0
   -0.6408    3.0820    3.6907 C   0  0  0  0  0  0  0  0  0  0  0  0
   -0.5870    4.1481    3.8901 H   0  0  0  0  0  0  0  0  0  0  0  0
   -1.2756    2.2334    4.6018 C   0  0  0  0  0  0  0  0  0  0  0  0
   -1.7182    2.6380    5.5073 H   0  0  0  0  0  0  0  0  0  0  0  0
   -1.3286    0.8596    4.3506 C   0  0  0  0  0  0  0  0  0  0  0  0
   -1.8072    0.1925    5.0614 H   0  0  0  0  0  0  0  0  0  0  0  0
   -0.7561    0.3374    3.1860 C   0  0  0  0  0  0  0  0  0  0  0  0
   -0.7872   -0.7346    3.0192 H   0  0  0  0  0  0  0  0  0  0  0  0
    0.4186    0.7230   -1.5491 C   0  0  0  0  0  0  0  0  0  0  0  0
    0.7467   -0.3640   -2.0026 O   0  0  0  0  0  0  0  0  0  0  0  0
    0.7480    1.8652   -2.2593 N   0  0  0  0  0  0  0  0  0  0  0  0
    0.4824    2.7624   -1.8660 H   0  0  0  0  0  0  0  0  0  0  0  0
    1.5150    1.8397   -3.4993 C   0  0  0  0  0  0  0  0  0  0  0  0
    0.9941    1.2480   -4.2596 H   0  0  0  0  0  0  0  0  0  0  0  0
    1.6476    2.8555   -3.8838 H   0  0  0  0  0  0  0  0  0  0  0  0
    2.5043    1.4021   -3.3283 H   0  0  0  0  0  0  0  0  0  0  0  0
  1  2  1  0  0  0  0
  2  3  1  0  0  0  0
  2  4  1  0  0  0  0
  2  5  1  0  0  0  0
  5  6  2  0  0  0  0
  5  7  1  0  0  0  0
  7  8  1  0  0  0  0
  7  9  1  0  0  0  0
  9 10  1  0  0  0  0
  9 11  1  0  0  0  0
  9 25  1  0  0  0  0
 11 12  1  0  0  0  0
 11 13  1  0  0  0  0
 11 14  1  0  0  0  0
 14 15  1  0  0  0  0
 14 23  2  0  0  0  0
 15 16  1  0  0  0  0
 15 17  2  0  0  0  0
 17 18  1  0  0  0  0
 17 19  1  0  0  0  0
 19 20  1  0  0  0  0
 19 21  2  0  0  0  0
 21 22  1  0  0  0  0
 21 23  1  0  0  0  0
 23 24  1  0  0  0  0
 25 26  2  0  0  0  0
 25 27  1  0  0  0  0
 27 28  1  0  0  0  0
 27 29  1  0  0  0  0
 29 30  1  0  0  0  0
 29 31  1  0  0  0  0
 29 32  1  0  0  0  0
M  END
$$$$

  -OEChem-01062216093D

 32 32  0     1  0  0  0  0  0999 V2000
   -3.5748   -2.5921    0.5271 H   0  0  0  0  0  0  0  0  0  0  0  0
   -3.4384   -1.6327    0.0199 C   0  0  0  0  0  0  0  0  0  0  0  0
   -4.1639   -0.9192    0.4177 H   0  0  0  0  0  0  0  0  0  0  0  0
   -3.6190   -1.7717   -1.0488 H   0  0  0  0  0  0  0  0  0  0  0  0
   -2.0284   -1.1176    0.2428 C   0  0  0  0  0  0  0  0  0  0  0  0
   -1.2480   -1.8158    0.8663 O   0  0  0  0  0  0  0  0  0  0  0  0
   -1.6780    0.0954   -0.3229 N   0  0  0  0  0  0  0  0  0  0  0  0
   -2.3900    0.5011   -0.9216 H   0  0  0  0  0  0  0  0  0  0  0  0
   -0.3930    0.8278   -0.2356 C   0  0  1  0  0  0  0  0  0  0  0  0
   -0.6915    1.8783   -0.1843 H   0  0  0  0  0  0  0  0  0  0  0  0
    0.5075    0.6242    1.0055 C   0  0  0  0  0  0  0  0  0  0  0  0
    0.7583   -0.4324    1.1334 H   0  0  0  0  0  0  0  0  0  0  0  0
    1.4582    1.1432    0.8474 H   0  0  0  0  0  0  0  0  0  0  0  0
   -0.1325    1.1815    2.2605 C   0  0  0  0  0  0  0  0  0  0  0  0
   -0.0568    2.5579    2.5308 C   0  0  0  0  0  0  0  0  0  0  0  0
    0.4454    3.2225    1.8352 H   0  0  0  0  0  0  0  0  0  0  0  0
   -0.6246    3.0909    3.6934 C   0  0  0  0  0  0  0  0  0  0  0  0
   -0.5649    4.1573    3.8887 H   0  0  0  0  0  0  0  0  0  0  0  0
   -1.2632    2.2495    4.6084 C   0  0  0  0  0  0  0  0  0  0  0  0
   -1.7025    2.6596    5.5131 H   0  0  0  0  0  0  0  0  0  0  0  0
   -1.3250    0.8754    4.3618 C   0  0  0  0  0  0  0  0  0  0  0  0
   -1.8073    0.2134    5.0748 H   0  0  0  0  0  0  0  0  0  0  0  0
   -0.7571    0.3458    3.1987 C   0  0  0  0  0  0  0  0  0  0  0  0
   -0.7961   -0.7265    3.0365 H   0  0  0  0  0  0  0  0  0  0  0  0
    0.4262    0.7226   -1.5400 C   0  0  0  0  0  0  0  0  0  0  0  0
    0.4587   -0.3131   -2.1902 O   0  0  0  0  0  0  0  0  0  0  0  0
    1.0262    1.8530   -2.0690 N   0  0  0  0  0  0  0  0  0  0  0  0
    0.9935    2.7069   -1.5211 H   0  0  0  0  0  0  0  0  0  0  0  0
    1.7817    1.8466   -3.3166 C   0  0  0  0  0  0  0  0  0  0  0  0
    1.1476    1.5193   -4.1473 H   0  0  0  0  0  0  0  0  0  0  0  0
    2.1518    2.8515   -3.5410 H   0  0  0  0  0  0  0  0  0  0  0  0
    2.6397    1.1703   -3.2406 H   0  0  0  0  0  0  0  0  0  0  0  0
  1  2  1  0  0  0  0
  2  3  1  0  0  0  0
  2  4  1  0  0  0  0
  2  5  1  0  0  0  0
  5  6  2  0  0  0  0
  5  7  1  0  0  0  0
  7  8  1  0  0  0  0
  7  9  1  0  0  0  0
  9 10  1  0  0  0  0
  9 11  1  0  0  0  0
  9 25  1  0  0  0  0
 11 12  1  0  0  0  0
 11 13  1  0  0  0  0
 11 14  1  0  0  0  0
 14 15  1  0  0  0  0
 14 23  2  0  0  0  0
 15 16  1  0  0  0  0
 15 17  2  0  0  0  0
 17 18  1  0  0  0  0
 17 19  1  0  0  0  0
 19 20  1  0  0  0  0
 19 21  2  0  0  0  0
 21 22  1  0  0  0  0
 21 23  1  0  0  0  0
 23 24  1  0  0  0  0
 25 26  2  0  0  0  0
 25 27  1  0  0  0  0
 27 28  1  0  0  0  0
 27 29  1  0  0  0  0
 29 30  1  0  0  0  0
 29 31  1  0  0  0  0
 29 32  1  0  0  0  0
M  END
$$$$

  -OEChem-01062216093D

 32 32  0     1  0  0  0  0  0999 V2000
   -3.5765   -2.6027    0.4942 H   0  0  0  0  0  0  0  0  0  0  0  0
   -3.4368   -1.6396   -0.0048 C   0  0  0  0  0  0  0  0  0  0  0  0
   -4.1739   -0.9328    0.3831 H   0  0  0  0  0  0  0  0  0  0  0  0
   -3.5965   -1.7732   -1.0774 H   0  0  0  0  0  0  0  0  0  0  0  0
   -2.0348   -1.1166    0.2474 C   0  0  0  0  0  0  0  0  0  0  0  0
   -1.2606   -1.8120    0.8823 O   0  0  0  0  0  0  0  0  0  0  0  0
   -1.6783    0.0969   -0.3127 N   0  0  0  0  0  0  0  0  0  0  0  0
   -2.3630    0.4769   -0.9590 H   0  0  0  0  0  0  0  0  0  0  0  0
   -0.3883    0.8211   -0.2267 C   0  0  1  0  0  0  0  0  0  0  0  0
   -0.6814    1.8736   -0.1783 H   0  0  0  0  0  0  0  0  0  0  0  0
    0.5080    0.6138    1.0184 C   0  0  0  0  0  0  0  0  0  0  0  0
    0.7495   -0.4443    1.1496 H   0  0  0  0  0  0  0  0  0  0  0  0
    1.4641    1.1236    0.8649 H   0  0  0  0  0  0  0  0  0  0  0  0
   -0.1301    1.1791    2.2705 C   0  0  0  0  0  0  0  0  0  0  0  0
   -0.0437    2.5557    2.5369 C   0  0  0  0  0  0  0  0  0  0  0  0
    0.4622    3.2152    1.8392 H   0  0  0  0  0  0  0  0  0  0  0  0
   -0.6070    3.0964    3.6981 C   0  0  0  0  0  0  0  0  0  0  0  0
   -0.5395    4.1630    3.8906 H   0  0  0  0  0  0  0  0  0  0  0  0
   -1.2527    2.2629    4.6151 C   0  0  0  0  0  0  0  0  0  0  0  0
   -1.6892    2.6794    5.5182 H   0  0  0  0  0  0  0  0  0  0  0  0
   -1.3253    0.8886    4.3727 C   0  0  0  0  0  0  0  0  0  0  0  0
   -1.8132    0.2327    5.0877 H   0  0  0  0  0  0  0  0  0  0  0  0
   -0.7611    0.3509    3.2112 C   0  0  0  0  0  0  0  0  0  0  0  0
   -0.8090   -0.7217    3.0527 H   0  0  0  0  0  0  0  0  0  0  0  0
    0.4289    0.7205   -1.5338 C   0  0  0  0  0  0  0  0  0  0  0  0
    0.2223   -0.1699   -2.3486 O   0  0  0  0  0  0  0  0  0  0  0  0
    1.2807    1.7527   -1.8893 N   0  0  0  0  0  0  0  0  0  0  0  0
    1.4395    2.4892   -1.2089 H   0  0  0  0  0  0  0  0  0  0  0  0
    2.0398    1.7708   -3.1342 C   0  0  0  0  0  0  0  0  0  0  0  0
    1.3648    1.7341   -3.9959 H   0  0  0  0  0  0  0  0  0  0  0  0
    2.6346    2.6867   -3.2014 H   0  0  0  0  0  0  0  0  0  0  0  0
    2.7184    0.9124   -3.1806 H   0  0  0  0  0  0  0  0  0  0  0  0
  1  2  1  0  0  0  0
  2  3  1  0  0  0  0
  2  4  1  0  0  0  0
  2  5  1  0  0  0  0
  5  6  2  0  0  0  0
  5  7  1  0  0  0  0
  7  8  1  0  0  0  0
  7  9  1  0  0  0  0
  9 10  1  0  0  0  0
  9 11  1  0  0  0  0
  9 25  1  0  0  0  0
 11 12  1  0  0  0  0
 11 13  1  0  0  0  0
 11 14  1  0  0  0  0
 14 15  1  0  0  0  0
 14 23  2  0  0  0  0
 15 16  1  0  0  0  0
 15 17  2  0  0  0  0
 17 18  1  0  0  0  0
 17 19  1  0  0  0  0
 19 20  1  0  0  0  0
 19 21  2  0  0  0  0
 21 22  1  0  0  0  0
 21 23  1  0  0  0  0
 23 24  1  0  0  0  0
 25 26  2  0  0  0  0
 25 27  1  0  0  0  0
 27 28  1  0  0  0  0
 27 29  1  0  0  0  0
 29 30  1  0  0  0  0
 29 31  1  0  0  0  0
 29 32  1  0  0  0  0
M  END
$$$$

  -OEChem-01062216093D

 32 32  0     1  0  0  0  0  0999 V2000
   -3.5670   -2.6009    0.4724 H   0  0  0  0  0  0  0  0  0  0  0  0
   -3.4246   -1.6334   -0.0173 C   0  0  0  0  0  0  0  0  0  0  0  0
   -4.1678   -0.9316    0.3684 H   0  0  0  0  0  0  0  0  0  0  0  0
   -3.5727   -1.7590   -1.0927 H   0  0  0  0  0  0  0  0  0  0  0  0
   -2.0268   -1.1085    0.2535 C   0  0  0  0  0  0  0  0  0  0  0  0
   -1.2537   -1.8107    0.8823 O   0  0  0  0  0  0  0  0  0  0  0  0
   -1.6663    0.1081   -0.2963 N   0  0  0  0  0  0  0  0  0  0  0  0
   -2.3350    0.4769   -0.9660 H   0  0  0  0  0  0  0  0  0  0  0  0
   -0.3743    0.8291   -0.2096 C   0  0  1  0  0  0  0  0  0  0  0  0
   -0.6595    1.8837   -0.1580 H   0  0  0  0  0  0  0  0  0  0  0  0
    0.5157    0.6106    1.0409 C   0  0  0  0  0  0  0  0  0  0  0  0
    0.7504   -0.4493    1.1692 H   0  0  0  0  0  0  0  0  0  0  0  0
    1.4754    1.1159    0.9015 H   0  0  0  0  0  0  0  0  0  0  0  0
   -0.1279    1.1747    2.2905 C   0  0  0  0  0  0  0  0  0  0  0  0
   -0.0347    2.5501    2.5607 C   0  0  0  0  0  0  0  0  0  0  0  0
    0.4811    3.2085    1.8693 H   0  0  0  0  0  0  0  0  0  0  0  0
   -0.6061    3.0921    3.7171 C   0  0  0  0  0  0  0  0  0  0  0  0
   -0.5343    4.1582    3.9117 H   0  0  0  0  0  0  0  0  0  0  0  0
   -1.2672    2.2608    4.6253 C   0  0  0  0  0  0  0  0  0  0  0  0
   -1.7113    2.6782    5.5241 H   0  0  0  0  0  0  0  0  0  0  0  0
   -1.3472    0.8876    4.3792 C   0  0  0  0  0  0  0  0  0  0  0  0
   -1.8491    0.2348    5.0873 H   0  0  0  0  0  0  0  0  0  0  0  0
   -0.7739    0.3484    3.2228 C   0  0  0  0  0  0  0  0  0  0  0  0
   -0.8277   -0.7233    3.0601 H   0  0  0  0  0  0  0  0  0  0  0  0
    0.4314    0.7317   -1.5261 C   0  0  0  0  0  0  0  0  0  0  0  0
    0.0406    0.0371   -2.4566 O   0  0  0  0  0  0  0  0  0  0  0  0
    1.5016    1.5815   -1.7498 N   0  0  0  0  0  0  0  0  0  0  0  0
    1.8150    2.1587   -0.9756 H   0  0  0  0  0  0  0  0  0  0  0  0
    2.2661    1.5967   -2.9916 C   0  0  0  0  0  0  0  0  0  0  0  0
    1.6154    1.8340   -3.8400 H   0  0  0  0  0  0  0  0  0  0  0  0
    3.0553    2.3530   -2.9404 H   0  0  0  0  0  0  0  0  0  0  0  0
    2.7315    0.6208   -3.1659 H   0  0  0  0  0  0  0  0  0  0  0  0
  1  2  1  0  0  0  0
  2  3  1  0  0  0  0
  2  4  1  0  0  0  0
  2  5  1  0  0  0  0
  5  6  2  0  0  0  0
  5  7  1  0  0  0  0
  7  8  1  0  0  0  0
  7  9  1  0  0  0  0
  9 10  1  0  0  0  0
  9 11  1  0  0  0  0
  9 25  1  0  0  0  0
 11 12  1  0  0  0  0
 11 13  1  0  0  0  0
 11 14  1  0  0  0  0
 14 15  1  0  0  0  0
 14 23  2  0  0  0  0
 15 16  1  0  0  0  0
 15 17  2  0  0  0  0
 17 18  1  0  0  0  0
 17 19  1  0  0  0  0
 19 20  1  0  0  0  0
 19 21  2  0  0  0  0
 21 22  1  0  0  0  0
 21 23  1  0  0  0  0
 23 24  1  0  0  0  0
 25 26  2  0  0  0  0
 25 27  1  0  0  0  0
 27 28  1  0  0  0  0
 27 29  1  0  0  0  0
 29 30  1  0  0  0  0
 29 31  1  0  0  0  0
 29 32  1  0  0  0  0
M  END
$$$$

  -OEChem-01062216093D

 32 32  0     1  0  0  0  0  0999 V2000
   -3.7317   -2.4699    0.3669 H   0  0  0  0  0  0  0  0  0  0  0  0
   -3.5333   -1.4969   -0.0911 C   0  0  0  0  0  0  0  0  0  0  0  0
   -4.1710   -0.7484    0.3852 H   0  0  0  0  0  0  0  0  0  0  0  0
   -3.7770   -1.5512   -1.1549 H   0  0  0  0  0  0  0  0  0  0  0  0
   -2.0738   -1.1221    0.0857 C   0  0  0  0  0  0  0  0  0  0  0  0
   -1.3021   -1.9647    0.5094 O   0  0  0  0  0  0  0  0  0  0  0  0
   -1.6505    0.1069   -0.3808 N   0  0  0  0  0  0  0  0  0  0  0  0
   -2.3365    0.6002   -0.9464 H   0  0  0  0  0  0  0  0  0  0  0  0
   -0.3366    0.7791   -0.2498 C   0  0  1  0  0  0  0  0  0  0  0  0
   -0.5971    1.7829    0.0971 H   0  0  0  0  0  0  0  0  0  0  0  0
    0.6781    0.2868    0.8191 C   0  0  0  0  0  0  0  0  0  0  0  0
    0.8854   -0.7773    0.6742 H   0  0  0  0  0  0  0  0  0  0  0  0
    1.6335    0.8035    0.6982 H   0  0  0  0  0  0  0  0  0  0  0  0
    0.1944    0.5450    2.2344 C   0  0  0  0  0  0  0  0  0  0  0  0
    0.3543    1.8279    2.7860 C   0  0  0  0  0  0  0  0  0  0  0  0
    0.7776    2.6291    2.1883 H   0  0  0  0  0  0  0  0  0  0  0  0
   -0.0354    2.0986    4.1021 C   0  0  0  0  0  0  0  0  0  0  0  0
    0.0825    3.0980    4.5103 H   0  0  0  0  0  0  0  0  0  0  0  0
   -0.5719    1.0812    4.8947 C   0  0  0  0  0  0  0  0  0  0  0  0
   -0.8742    1.2878    5.9171 H   0  0  0  0  0  0  0  0  0  0  0  0
   -0.7017   -0.2081    4.3730 C   0  0  0  0  0  0  0  0  0  0  0  0
   -1.0986   -1.0084    4.9905 H   0  0  0  0  0  0  0  0  0  0  0  0
   -0.3087   -0.4757    3.0573 C   0  0  0  0  0  0  0  0  0  0  0  0
   -0.3840   -1.4937    2.6909 H   0  0  0  0  0  0  0  0  0  0  0  0
    0.2939    1.0551   -1.6368 C   0  0  0  0  0  0  0  0  0  0  0  0
   -0.3610    0.8830   -2.6589 O   0  0  0  0  0  0  0  0  0  0  0  0
    1.5263    1.6768   -1.7519 N   0  0  0  0  0  0  0  0  0  0  0  0
    2.0601    1.8262   -0.9015 H   0  0  0  0  0  0  0  0  0  0  0  0
    2.1313    2.0317   -3.0305 C   0  0  0  0  0  0  0  0  0  0  0  0
    1.4855    2.7236   -3.5815 H   0  0  0  0  0  0  0  0  0  0  0  0
    3.0983    2.5178   -2.8695 H   0  0  0  0  0  0  0  0  0  0  0  0
    2.2910    1.1362   -3.6402 H   0  0  0  0  0  0  0  0  0  0  0  0
  1  2  1  0  0  0  0
  2  3  1  0  0  0  0
  2  4  1  0  0  0  0
  2  5  1  0  0  0  0
  5  6  2  0  0  0  0
  5  7  1  0  0  0  0
  7  8  1  0  0  0  0
  7  9  1  0  0  0  0
  9 10  1  0  0  0  0
  9 11  1  0  0  0  0
  9 25  1  0  0  0  0
 11 12  1  0  0  0  0
 11 13  1  0  0  0  0
 11 14  1  0  0  0  0
 14 15  1  0  0  0  0
 14 23  2  0  0  0  0
 15 16  1  0  0  0  0
 15 17  2  0  0  0  0
 17 18  1  0  0  0  0
 17 19  1  0  0  0  0
 19 20  1  0  0  0  0
 19 21  2  0  0  0  0
 21 22  1  0  0  0  0
 21 23  1  0  0  0  0
 23 24  1  0  0  0  0
 25 26  2  0  0  0  0
 25 27  1  0  0  0  0
 27 28  1  0  0  0  0
 27 29  1  0  0  0  0
 29 30  1  0  0  0  0
 29 31  1  0  0  0  0
 29 32  1  0  0  0  0
M  END
$$$$

  -OEChem-01062216093D

 32 32  0     1  0  0  0  0  0999 V2000
   -3.7042   -2.4512    0.3739 H   0  0  0  0  0  0  0  0  0  0  0  0
   -3.5084   -1.4726   -0.0733 C   0  0  0  0  0  0  0  0  0  0  0  0
   -4.1322   -0.7275    0.4263 H   0  0  0  0  0  0  0  0  0  0  0  0
   -3.7722   -1.5090   -1.1332 H   0  0  0  0  0  0  0  0  0  0  0  0
   -2.0436   -1.1089    0.0821 C   0  0  0  0  0  0  0  0  0  0  0  0
   -1.2672   -1.9604    0.4795 O   0  0  0  0  0  0  0  0  0  0  0  0
   -1.6185    0.1218   -0.3774 N   0  0  0  0  0  0  0  0  0  0  0  0
   -2.3101    0.6329   -0.9205 H   0  0  0  0  0  0  0  0  0  0  0  0
   -0.3089    0.7971   -0.2296 C   0  0  1  0  0  0  0  0  0  0  0  0
   -0.5675    1.8024    0.1152 H   0  0  0  0  0  0  0  0  0  0  0  0
    0.6926    0.2975    0.8489 C   0  0  0  0  0  0  0  0  0  0  0  0
    0.9091   -0.7641    0.6982 H   0  0  0  0  0  0  0  0  0  0  0  0
    1.6449    0.8245    0.7500 H   0  0  0  0  0  0  0  0  0  0  0  0
    0.1870    0.5454    2.2581 C   0  0  0  0  0  0  0  0  0  0  0  0
    0.3346    1.8231    2.8242 C   0  0  0  0  0  0  0  0  0  0  0  0
    0.7654    2.6305    2.2403 H   0  0  0  0  0  0  0  0  0  0  0  0
   -0.0805    2.0808    4.1352 C   0  0  0  0  0  0  0  0  0  0  0  0
    0.0241    3.0778    4.5531 H   0  0  0  0  0  0  0  0  0  0  0  0
   -0.6259    1.0538    4.9097 C   0  0  0  0  0  0  0  0  0  0  0  0
   -0.9481    1.2495    5.9283 H   0  0  0  0  0  0  0  0  0  0  0  0
   -0.7405   -0.2313    4.3745 C   0  0  0  0  0  0  0  0  0  0  0  0
   -1.1428   -1.0394    4.9778 H   0  0  0  0  0  0  0  0  0  0  0  0
   -0.3252   -0.4846    3.0632 C   0  0  0  0  0  0  0  0  0  0  0  0
   -0.3905   -1.4994    2.6864 H   0  0  0  0  0  0  0  0  0  0  0  0
    0.3181    1.0667   -1.6198 C   0  0  0  0  0  0  0  0  0  0  0  0
   -0.4041    1.1274   -2.6092 O   0  0  0  0  0  0  0  0  0  0  0  0
    1.6536    1.4013   -1.7696 N   0  0  0  0  0  0  0  0  0  0  0  0
    2.2541    1.3132   -0.9560 H   0  0  0  0  0  0  0  0  0  0  0  0
    2.2634    1.7000   -3.0603 C   0  0  0  0  0  0  0  0  0  0  0  0
    1.7713    2.5598   -3.5270 H   0  0  0  0  0  0  0  0  0  0  0  0
    3.3236    1.9380   -2.9316 H   0  0  0  0  0  0  0  0  0  0  0  0
    2.1804    0.8388   -3.7318 H   0  0  0  0  0  0  0  0  0  0  0  0
  1  2  1  0  0  0  0
  2  3  1  0  0  0  0
  2  4  1  0  0  0  0
  2  5  1  0  0  0  0
  5  6  2  0  0  0  0
  5  7  1  0  0  0  0
  7  8  1  0  0  0  0
  7  9  1  0  0  0  0
  9 10  1  0  0  0  0
  9 11  1  0  0  0  0
  9 25  1  0  0  0  0
 11 12  1  0  0  0  0
 11 13  1  0  0  0  0
 11 14  1  0  0  0  0
 14 15  1  0  0  0  0
 14 23  2  0  0  0  0
 15 16  1  0  0  0  0
 15 17  2  0  0  0  0
 17 18  1  0  0  0  0
 17 19  1  0  0  0  0
 19 20  1  0  0  0  0
 19 21  2  0  0  0  0
 21 22  1  0  0  0  0
 21 23  1  0  0  0  0
 23 24  1  0  0  0  0
 25 26  2  0  0  0  0
 25 27  1  0  0  0  0
 27 28  1  0  0  0  0
 27 29  1  0  0  0  0
 29 30  1  0  0  0  0
 29 31  1  0  0  0  0
 29 32  1  0  0  0  0
M  END
$$$$

  -OEChem-01062216093D

 32 32  0     1  0  0  0  0  0999 V2000
   -3.6826   -2.4473    0.3828 H   0  0  0  0  0  0  0  0  0  0  0  0
   -3.4913   -1.4639   -0.0558 C   0  0  0  0  0  0  0  0  0  0  0  0
   -4.1037   -0.7229    0.4637 H   0  0  0  0  0  0  0  0  0  0  0  0
   -3.7746   -1.4867   -1.1110 H   0  0  0  0  0  0  0  0  0  0  0  0
   -2.0225   -1.1067    0.0784 C   0  0  0  0  0  0  0  0  0  0  0  0
   -1.2406   -1.9637    0.4536 O   0  0  0  0  0  0  0  0  0  0  0  0
   -1.5981    0.1258   -0.3766 N   0  0  0  0  0  0  0  0  0  0  0  0
   -2.3013    0.6586   -0.8831 H   0  0  0  0  0  0  0  0  0  0  0  0
   -0.2913    0.8020   -0.2152 C   0  0  1  0  0  0  0  0  0  0  0  0
   -0.5512    1.8074    0.1290 H   0  0  0  0  0  0  0  0  0  0  0  0
    0.7030    0.3030    0.8696 C   0  0  0  0  0  0  0  0  0  0  0  0
    0.9279   -0.7568    0.7193 H   0  0  0  0  0  0  0  0  0  0  0  0
    1.6510    0.8401    0.7782 H   0  0  0  0  0  0  0  0  0  0  0  0
    0.1855    0.5464    2.2748 C   0  0  0  0  0  0  0  0  0  0  0  0
    0.3244    1.8227    2.8460 C   0  0  0  0  0  0  0  0  0  0  0  0
    0.7605    2.6323    2.2689 H   0  0  0  0  0  0  0  0  0  0  0  0
   -0.1047    2.0756    4.1535 C   0  0  0  0  0  0  0  0  0  0  0  0
   -0.0049    3.0714    4.5755 H   0  0  0  0  0  0  0  0  0  0  0  0
   -0.6581    1.0455    4.9181 C   0  0  0  0  0  0  0  0  0  0  0  0
   -0.9914    1.2381    5.9336 H   0  0  0  0  0  0  0  0  0  0  0  0
   -0.7679   -0.2377    4.3766 C   0  0  0  0  0  0  0  0  0  0  0  0
   -1.1788   -1.0471    4.9727 H   0  0  0  0  0  0  0  0  0  0  0  0
   -0.3383   -0.4865    3.0687 C   0  0  0  0  0  0  0  0  0  0  0  0
   -0.4028   -1.4988    2.6845 H   0  0  0  0  0  0  0  0  0  0  0  0
    0.3372    1.0689   -1.6037 C   0  0  0  0  0  0  0  0  0  0  0  0
   -0.3942    1.3586   -2.5443 O   0  0  0  0  0  0  0  0  0  0  0  0
    1.7070    1.1042   -1.8025 N   0  0  0  0  0  0  0  0  0  0  0  0
    2.2969    0.7851   -1.0401 H   0  0  0  0  0  0  0  0  0  0  0  0
    2.3187    1.3480   -3.1036 C   0  0  0  0  0  0  0  0  0  0  0  0
    2.0195    2.3277   -3.4908 H   0  0  0  0  0  0  0  0  0  0  0  0
    3.4094    1.3306   -3.0180 H   0  0  0  0  0  0  0  0  0  0  0  0
    2.0148    0.5778   -3.8204 H   0  0  0  0  0  0  0  0  0  0  0  0
  1  2  1  0  0  0  0
  2  3  1  0  0  0  0
  2  4  1  0  0  0  0
  2  5  1  0  0  0  0
  5  6  2  0  0  0  0
  5  7  1  0  0  0  0
  7  8  1  0  0  0  0
  7  9  1  0  0  0  0
  9 10  1  0  0  0  0
  9 11  1  0  0  0  0
  9 25  1  0  0  0  0
 11 12  1  0  0  0  0
 11 13  1  0  0  0  0
 11 14  1  0  0  0  0
 14 15  1  0  0  0  0
 14 23  2  0  0  0  0
 15 16  1  0  0  0  0
 15 17  2  0  0  0  0
 17 18  1  0  0  0  0
 17 19  1  0  0  0  0
 19 20  1  0  0  0  0
 19 21  2  0  0  0  0
 21 22  1  0  0  0  0
 21 23  1  0  0  0  0
 23 24  1  0  0  0  0
 25 26  2  0  0  0  0
 25 27  1  0  0  0  0
 27 28  1  0  0  0  0
 27 29  1  0  0  0  0
 29 30  1  0  0  0  0
 29 31  1  0  0  0  0
 29 32  1  0  0  0  0
M  END
$$$$

  -OEChem-01062216093D

 32 32  0     1  0  0  0  0  0999 V2000
   -3.6572   -2.4448    0.3999 H   0  0  0  0  0  0  0  0  0  0  0  0
   -3.4775   -1.4541   -0.0269 C   0  0  0  0  0  0  0  0  0  0  0  0
   -4.0738   -0.7218    0.5226 H   0  0  0  0  0  0  0  0  0  0  0  0
   -3.7911   -1.4586   -1.0737 H   0  0  0  0  0  0  0  0  0  0  0  0
   -2.0052   -1.1009    0.0707 C   0  0  0  0  0  0  0  0  0  0  0  0
   -1.2139   -1.9625    0.4146 O   0  0  0  0  0  0  0  0  0  0  0  0
   -1.5854    0.1321   -0.3870 N   0  0  0  0  0  0  0  0  0  0  0  0
   -2.3059    0.6881   -0.8411 H   0  0  0  0  0  0  0  0  0  0  0  0
   -0.2822    0.8102   -0.2117 C   0  0  1  0  0  0  0  0  0  0  0  0
   -0.5458    1.8161    0.1292 H   0  0  0  0  0  0  0  0  0  0  0  0
    0.7055    0.3127    0.8777 C   0  0  0  0  0  0  0  0  0  0  0  0
    0.9374   -0.7456    0.7276 H   0  0  0  0  0  0  0  0  0  0  0  0
    1.6503    0.8572    0.7877 H   0  0  0  0  0  0  0  0  0  0  0  0
    0.1792    0.5492    2.2803 C   0  0  0  0  0  0  0  0  0  0  0  0
    0.3101    1.8236    2.8570 C   0  0  0  0  0  0  0  0  0  0  0  0
    0.7488    2.6362    2.2861 H   0  0  0  0  0  0  0  0  0  0  0  0
   -0.1275    2.0692    4.1629 C   0  0  0  0  0  0  0  0  0  0  0  0
   -0.0310    3.0629    4.5905 H   0  0  0  0  0  0  0  0  0  0  0  0
   -0.6843    1.0345    4.9189 C   0  0  0  0  0  0  0  0  0  0  0  0
   -1.0226    1.2217    5.9337 H   0  0  0  0  0  0  0  0  0  0  0  0
   -0.7917   -0.2461    4.3700 C   0  0  0  0  0  0  0  0  0  0  0  0
   -1.2076   -1.0587    4.9587 H   0  0  0  0  0  0  0  0  0  0  0  0
   -0.3524   -0.4878    3.0637 C   0  0  0  0  0  0  0  0  0  0  0  0
   -0.4152   -1.4976    2.6719 H   0  0  0  0  0  0  0  0  0  0  0  0
    0.3590    1.0711   -1.5923 C   0  0  0  0  0  0  0  0  0  0  0  0
   -0.3246    1.5680   -2.4800 O   0  0  0  0  0  0  0  0  0  0  0  0
    1.6950    0.8115   -1.8453 N   0  0  0  0  0  0  0  0  0  0  0  0
    2.2068    0.2950   -1.1362 H   0  0  0  0  0  0  0  0  0  0  0  0
    2.3048    0.9839   -3.1581 C   0  0  0  0  0  0  0  0  0  0  0  0
    2.2273    2.0266   -3.4836 H   0  0  0  0  0  0  0  0  0  0  0  0
    3.3641    0.7125   -3.1208 H   0  0  0  0  0  0  0  0  0  0  0  0
    1.8089    0.3458   -3.8971 H   0  0  0  0  0  0  0  0  0  0  0  0
  1  2  1  0  0  0  0
  2  3  1  0  0  0  0
  2  4  1  0  0  0  0
  2  5  1  0  0  0  0
  5  6  2  0  0  0  0
  5  7  1  0  0  0  0
  7  8  1  0  0  0  0
  7  9  1  0  0  0  0
  9 10  1  0  0  0  0
  9 11  1  0  0  0  0
  9 25  1  0  0  0  0
 11 12  1  0  0  0  0
 11 13  1  0  0  0  0
 11 14  1  0  0  0  0
 14 15  1  0  0  0  0
 14 23  2  0  0  0  0
 15 16  1  0  0  0  0
 15 17  2  0  0  0  0
 17 18  1  0  0  0  0
 17 19  1  0  0  0  0
 19 20  1  0  0  0  0
 19 21  2  0  0  0  0
 21 22  1  0  0  0  0
 21 23  1  0  0  0  0
 23 24  1  0  0  0  0
 25 26  2  0  0  0  0
 25 27  1  0  0  0  0
 27 28  1  0  0  0  0
 27 29  1  0  0  0  0
 29 30  1  0  0  0  0
 29 31  1  0  0  0  0
 29 32  1  0  0  0  0
M  END
$$$$

  -OEChem-01062216093D

 32 32  0     1  0  0  0  0  0999 V2000
   -3.6460   -2.4062    0.5126 H   0  0  0  0  0  0  0  0  0  0  0  0
   -3.4707   -1.4334    0.0447 C   0  0  0  0  0  0  0  0  0  0  0  0
   -4.0337   -0.6744    0.5931 H   0  0  0  0  0  0  0  0  0  0  0  0
   -3.8275   -1.4684   -0.9874 H   0  0  0  0  0  0  0  0  0  0  0  0
   -1.9910   -1.0992    0.0702 C   0  0  0  0  0  0  0  0  0  0  0  0
   -1.1925   -1.9700    0.3729 O   0  0  0  0  0  0  0  0  0  0  0  0
   -1.5760    0.1299   -0.4017 N   0  0  0  0  0  0  0  0  0  0  0  0
   -2.3152    0.7078   -0.7939 H   0  0  0  0  0  0  0  0  0  0  0  0
   -0.2749    0.8090   -0.2195 C   0  0  1  0  0  0  0  0  0  0  0  0
   -0.5380    1.8173    0.1154 H   0  0  0  0  0  0  0  0  0  0  0  0
    0.7089    0.3133    0.8726 C   0  0  0  0  0  0  0  0  0  0  0  0
    0.9439   -0.7446    0.7255 H   0  0  0  0  0  0  0  0  0  0  0  0
    1.6529    0.8599    0.7802 H   0  0  0  0  0  0  0  0  0  0  0  0
    0.1743    0.5486    2.2716 C   0  0  0  0  0  0  0  0  0  0  0  0
    0.2971    1.8219    2.8522 C   0  0  0  0  0  0  0  0  0  0  0  0
    0.7396    2.6370    2.2872 H   0  0  0  0  0  0  0  0  0  0  0  0
   -0.1535    2.0623    4.1549 C   0  0  0  0  0  0  0  0  0  0  0  0
   -0.0626    3.0545    4.5870 H   0  0  0  0  0  0  0  0  0  0  0  0
   -0.7159    1.0244    4.9024 C   0  0  0  0  0  0  0  0  0  0  0  0
   -1.0644    1.2077    5.9146 H   0  0  0  0  0  0  0  0  0  0  0  0
   -0.8150   -0.2546    4.3486 C   0  0  0  0  0  0  0  0  0  0  0  0
   -1.2342   -1.0699    4.9310 H   0  0  0  0  0  0  0  0  0  0  0  0
   -0.3631   -0.4916    3.0462 C   0  0  0  0  0  0  0  0  0  0  0  0
   -0.4214   -1.4998    2.6497 H   0  0  0  0  0  0  0  0  0  0  0  0
    0.3813    1.0541   -1.5928 C   0  0  0  0  0  0  0  0  0  0  0  0
   -0.2028    1.7498   -2.4146 O   0  0  0  0  0  0  0  0  0  0  0  0
    1.6150    0.5174   -1.9169 N   0  0  0  0  0  0  0  0  0  0  0  0
    1.9981   -0.1715   -1.2755 H   0  0  0  0  0  0  0  0  0  0  0  0
    2.2204    0.6565   -3.2357 C   0  0  0  0  0  0  0  0  0  0  0  0
    2.3474    1.7141   -3.4899 H   0  0  0  0  0  0  0  0  0  0  0  0
    3.2047    0.1787   -3.2521 H   0  0  0  0  0  0  0  0  0  0  0  0
    1.5916    0.1838   -3.9975 H   0  0  0  0  0  0  0  0  0  0  0  0
  1  2  1  0  0  0  0
  2  3  1  0  0  0  0
  2  4  1  0  0  0  0
  2  5  1  0  0  0  0
  5  6  2  0  0  0  0
  5  7  1  0  0  0  0
  7  8  1  0  0  0  0
  7  9  1  0  0  0  0
  9 10  1  0  0  0  0
  9 11  1  0  0  0  0
  9 25  1  0  0  0  0
 11 12  1  0  0  0  0
 11 13  1  0  0  0  0
 11 14  1  0  0  0  0
 14 15  1  0  0  0  0
 14 23  2  0  0  0  0
 15 16  1  0  0  0  0
 15 17  2  0  0  0  0
 17 18  1  0  0  0  0
 17 19  1  0  0  0  0
 19 20  1  0  0  0  0
 19 21  2  0  0  0  0
 21 22  1  0  0  0  0
 21 23  1  0  0  0  0
 23 24  1  0  0  0  0
 25 26  2  0  0  0  0
 25 27  1  0  0  0  0
 27 28  1  0  0  0  0
 27 29  1  0  0  0  0
 29 30  1  0  0  0  0
 29 31  1  0  0  0  0
 29 32  1  0  0  0  0
M  END
$$$$

  -OEChem-01062216093D

 32 32  0     1  0  0  0  0  0999 V2000
   -3.6270   -2.4018    0.5526 H   0  0  0  0  0  0  0  0  0  0  0  0
   -3.4654   -1.4208    0.0969 C   0  0  0  0  0  0  0  0  0  0  0  0
   -4.0021   -0.6703    0.6822 H   0  0  0  0  0  0  0  0  0  0  0  0
   -3.8631   -1.4340   -0.9208 H   0  0  0  0  0  0  0  0  0  0  0  0
   -1.9840   -1.0942    0.0693 C   0  0  0  0  0  0  0  0  0  0  0  0
   -1.1772   -1.9697    0.3351 O   0  0  0  0  0  0  0  0  0  0  0  0
   -1.5762    0.1313   -0.4179 N   0  0  0  0  0  0  0  0  0  0  0  0
   -2.3299    0.7251   -0.7542 H   0  0  0  0  0  0  0  0  0  0  0  0
   -0.2772    0.8123   -0.2287 C   0  0  1  0  0  0  0  0  0  0  0  0
   -0.5425    1.8219    0.1012 H   0  0  0  0  0  0  0  0  0  0  0  0
    0.7069    0.3194    0.8631 C   0  0  0  0  0  0  0  0  0  0  0  0
    0.9486   -0.7370    0.7172 H   0  0  0  0  0  0  0  0  0  0  0  0
    1.6484    0.8702    0.7674 H   0  0  0  0  0  0  0  0  0  0  0  0
    0.1690    0.5501    2.2612 C   0  0  0  0  0  0  0  0  0  0  0  0
    0.2847    1.8225    2.8445 C   0  0  0  0  0  0  0  0  0  0  0  0
    0.7259    2.6403    2.2824 H   0  0  0  0  0  0  0  0  0  0  0  0
   -0.1703    2.0576    4.1466 C   0  0  0  0  0  0  0  0  0  0  0  0
   -0.0840    3.0489    4.5816 H   0  0  0  0  0  0  0  0  0  0  0  0
   -0.7298    1.0153    4.8903 C   0  0  0  0  0  0  0  0  0  0  0  0
   -1.0813    1.1951    5.9020 H   0  0  0  0  0  0  0  0  0  0  0  0
   -0.8222   -0.2628    4.3336 C   0  0  0  0  0  0  0  0  0  0  0  0
   -1.2388   -1.0811    4.9134 H   0  0  0  0  0  0  0  0  0  0  0  0
   -0.3669   -0.4945    3.0315 C   0  0  0  0  0  0  0  0  0  0  0  0
   -0.4209   -1.5015    2.6311 H   0  0  0  0  0  0  0  0  0  0  0  0
    0.3944    1.0419   -1.5946 C   0  0  0  0  0  0  0  0  0  0  0  0
   -0.0405    1.9108   -2.3398 O   0  0  0  0  0  0  0  0  0  0  0  0
    1.4633    0.2642   -2.0017 N   0  0  0  0  0  0  0  0  0  0  0  0
    1.6799   -0.5470   -1.4280 H   0  0  0  0  0  0  0  0  0  0  0  0
    2.0571    0.3603   -3.3292 C   0  0  0  0  0  0  0  0  0  0  0  0
    2.4249    1.3753   -3.5127 H   0  0  0  0  0  0  0  0  0  0  0  0
    2.9003   -0.3317   -3.4168 H   0  0  0  0  0  0  0  0  0  0  0  0
    1.3191    0.1083   -4.0980 H   0  0  0  0  0  0  0  0  0  0  0  0
  1  2  1  0  0  0  0
  2  3  1  0  0  0  0
  2  4  1  0  0  0  0
  2  5  1  0  0  0  0
  5  6  2  0  0  0  0
  5  7  1  0  0  0  0
  7  8  1  0  0  0  0
  7  9  1  0  0  0  0
  9 10  1  0  0  0  0
  9 11  1  0  0  0  0
  9 25  1  0  0  0  0
 11 12  1  0  0  0  0
 11 13  1  0  0  0  0
 11 14  1  0  0  0  0
 14 15  1  0  0  0  0
 14 23  2  0  0  0  0
 15 16  1  0  0  0  0
 15 17  2  0  0  0  0
 17 18  1  0  0  0  0
 17 19  1  0  0  0  0
 19 20  1  0  0  0  0
 19 21  2  0  0  0  0
 21 22  1  0  0  0  0
 21 23  1  0  0  0  0
 23 24  1  0  0  0  0
 25 26  2  0  0  0  0
 25 27  1  0  0  0  0
 27 28  1  0  0  0  0
 27 29  1  0  0  0  0
 29 30  1  0  0  0  0
 29 31  1  0  0  0  0
 29 32  1  0  0  0  0
M  END
$$$$

  -OEChem-01062216093D

 32 32  0     1  0  0  0  0  0999 V2000
   -3.6099   -2.3882    0.6199 H   0  0  0  0  0  0  0  0  0  0  0  0
   -3.4619   -1.4051    0.1641 C   0  0  0  0  0  0  0  0  0  0  0  0
   -3.9655   -0.6547    0.7785 H   0  0  0  0  0  0  0  0  0  0  0  0
   -3.9065   -1.4080   -0.8342 H   0  0  0  0  0  0  0  0  0  0  0  0
   -1.9808   -1.0900    0.0714 C   0  0  0  0  0  0  0  0  0  0  0  0
   -1.1677   -1.9718    0.2941 O   0  0  0  0  0  0  0  0  0  0  0  0
   -1.5818    0.1296   -0.4362 N   0  0  0  0  0  0  0  0  0  0  0  0
   -2.3482    0.7335   -0.7222 H   0  0  0  0  0  0  0  0  0  0  0  0
   -0.2848    0.8140   -0.2439 C   0  0  1  0  0  0  0  0  0  0  0  0
   -0.5504    1.8255    0.0797 H   0  0  0  0  0  0  0  0  0  0  0  0
    0.7005    0.3237    0.8468 C   0  0  0  0  0  0  0  0  0  0  0  0
    0.9469   -0.7313    0.6996 H   0  0  0  0  0  0  0  0  0  0  0  0
    1.6399    0.8777    0.7491 H   0  0  0  0  0  0  0  0  0  0  0  0
    0.1623    0.5495    2.2453 C   0  0  0  0  0  0  0  0  0  0  0  0
    0.2724    1.8207    2.8320 C   0  0  0  0  0  0  0  0  0  0  0  0
    0.7110    2.6415    2.2722 H   0  0  0  0  0  0  0  0  0  0  0  0
   -0.1852    2.0505    4.1341 C   0  0  0  0  0  0  0  0  0  0  0  0
   -0.1035    3.0412    4.5714 H   0  0  0  0  0  0  0  0  0  0  0  0
   -0.7414    1.0038    4.8744 C   0  0  0  0  0  0  0  0  0  0  0  0
   -1.0943    1.1791    5.8866 H   0  0  0  0  0  0  0  0  0  0  0  0
   -0.8287   -0.2730    4.3135 C   0  0  0  0  0  0  0  0  0  0  0  0
   -1.2431   -1.0939    4.8911 H   0  0  0  0  0  0  0  0  0  0  0  0
   -0.3708   -0.4995    3.0113 C   0  0  0  0  0  0  0  0  0  0  0  0
   -0.4201   -1.5053    2.6070 H   0  0  0  0  0  0  0  0  0  0  0  0
    0.3997    1.0230   -1.6047 C   0  0  0  0  0  0  0  0  0  0  0  0
    0.1654    2.0325   -2.2564 O   0  0  0  0  0  0  0  0  0  0  0  0
    1.2505    0.0579   -2.1102 N   0  0  0  0  0  0  0  0  0  0  0  0
    1.2787   -0.8277   -1.6098 H   0  0  0  0  0  0  0  0  0  0  0  0
    1.8404    0.1330   -3.4405 C   0  0  0  0  0  0  0  0  0  0  0  0
    2.4353    1.0466   -3.5446 H   0  0  0  0  0  0  0  0  0  0  0  0
    2.4962   -0.7260   -3.6122 H   0  0  0  0  0  0  0  0  0  0  0  0
    1.0588    0.1322   -4.2074 H   0  0  0  0  0  0  0  0  0  0  0  0
  1  2  1  0  0  0  0
  2  3  1  0  0  0  0
  2  4  1  0  0  0  0
  2  5  1  0  0  0  0
  5  6  2  0  0  0  0
  5  7  1  0  0  0  0
  7  8  1  0  0  0  0
  7  9  1  0  0  0  0
  9 10  1  0  0  0  0
  9 11  1  0  0  0  0
  9 25  1  0  0  0  0
 11 12  1  0  0  0  0
 11 13  1  0  0  0  0
 11 14  1  0  0  0  0
 14 15  1  0  0  0  0
 14 23  2  0  0  0  0
 15 16  1  0  0  0  0
 15 17  2  0  0  0  0
 17 18  1  0  0  0  0
 17 19  1  0  0  0  0
 19 20  1  0  0  0  0
 19 21  2  0  0  0  0
 21 22  1  0  0  0  0
 21 23  1  0  0  0  0
 23 24  1  0  0  0  0
 25 26  2  0  0  0  0
 25 27  1  0  0  0  0
 27 28  1  0  0  0  0
 27 29  1  0  0  0  0
 29 30  1  0  0  0  0
 29 31  1  0  0  0  0
 29 32  1  0  0  0  0
M  END
$$$$

  -OEChem-01062216093D

 32 32  0     1  0  0  0  0  0999 V2000
   -3.5977   -2.3835    0.6741 H   0  0  0  0  0  0  0  0  0  0  0  0
   -3.4615   -1.3884    0.2417 C   0  0  0  0  0  0  0  0  0  0  0  0
   -3.9193   -0.6521    0.9069 H   0  0  0  0  0  0  0  0  0  0  0  0
   -3.9610   -1.3537   -0.7295 H   0  0  0  0  0  0  0  0  0  0  0  0
   -1.9838   -1.0874    0.0772 C   0  0  0  0  0  0  0  0  0  0  0  0
   -1.1666   -1.9771    0.2493 O   0  0  0  0  0  0  0  0  0  0  0  0
   -1.5961    0.1268   -0.4507 N   0  0  0  0  0  0  0  0  0  0  0  0
   -2.3729    0.7379   -0.6882 H   0  0  0  0  0  0  0  0  0  0  0  0
   -0.3008    0.8164   -0.2616 C   0  0  1  0  0  0  0  0  0  0  0  0
   -0.5660    1.8299    0.0567 H   0  0  0  0  0  0  0  0  0  0  0  0
    0.6905    0.3272    0.8224 C   0  0  0  0  0  0  0  0  0  0  0  0
    0.9423   -0.7259    0.6702 H   0  0  0  0  0  0  0  0  0  0  0  0
    1.6271    0.8859    0.7215 H   0  0  0  0  0  0  0  0  0  0  0  0
    0.1548    0.5473    2.2223 C   0  0  0  0  0  0  0  0  0  0  0  0
    0.2607    1.8172    2.8117 C   0  0  0  0  0  0  0  0  0  0  0  0
    0.6949    2.6408    2.2524 H   0  0  0  0  0  0  0  0  0  0  0  0
   -0.1960    2.0419    4.1150 C   0  0  0  0  0  0  0  0  0  0  0  0
   -0.1181    3.0322    4.5542 H   0  0  0  0  0  0  0  0  0  0  0  0
   -0.7460    0.9909    4.8536 C   0  0  0  0  0  0  0  0  0  0  0  0
   -1.0970    1.1620    5.8670 H   0  0  0  0  0  0  0  0  0  0  0  0
   -0.8289   -0.2850    4.2898 C   0  0  0  0  0  0  0  0  0  0  0  0
   -1.2372   -1.1100    4.8661 H   0  0  0  0  0  0  0  0  0  0  0  0
   -0.3729   -0.5060    2.9860 C   0  0  0  0  0  0  0  0  0  0  0  0
   -0.4185   -1.5110    2.5787 H   0  0  0  0  0  0  0  0  0  0  0  0
    0.3890    1.0073   -1.6203 C   0  0  0  0  0  0  0  0  0  0  0  0
    0.4046    2.1065   -2.1579 O   0  0  0  0  0  0  0  0  0  0  0  0
    0.9818   -0.0770   -2.2379 N   0  0  0  0  0  0  0  0  0  0  0  0
    0.8289   -0.9854   -1.8034 H   0  0  0  0  0  0  0  0  0  0  0  0
    1.5834   -0.0163   -3.5631 C   0  0  0  0  0  0  0  0  0  0  0  0
    2.3886    0.7254   -3.5847 H   0  0  0  0  0  0  0  0  0  0  0  0
    2.0048   -0.9899   -3.8309 H   0  0  0  0  0  0  0  0  0  0  0  0
    0.8325    0.2556   -4.3122 H   0  0  0  0  0  0  0  0  0  0  0  0
  1  2  1  0  0  0  0
  2  3  1  0  0  0  0
  2  4  1  0  0  0  0
  2  5  1  0  0  0  0
  5  6  2  0  0  0  0
  5  7  1  0  0  0  0
  7  8  1  0  0  0  0
  7  9  1  0  0  0  0
  9 10  1  0  0  0  0
  9 11  1  0  0  0  0
  9 25  1  0  0  0  0
 11 12  1  0  0  0  0
 11 13  1  0  0  0  0
 11 14  1  0  0  0  0
 14 15  1  0  0  0  0
 14 23  2  0  0  0  0
 15 16  1  0  0  0  0
 15 17  2  0  0  0  0
 17 18  1  0  0  0  0
 17 19  1  0  0  0  0
 19 20  1  0  0  0  0
 19 21  2  0  0  0  0
 21 22  1  0  0  0  0
 21 23  1  0  0  0  0
 23 24  1  0  0  0  0
 25 26  2  0  0  0  0
 25 27  1  0  0  0  0
 27 28  1  0  0  0  0
 27 29  1  0  0  0  0
 29 30  1  0  0  0  0
 29 31  1  0  0  0  0
 29 32  1  0  0  0  0
M  END
$$$$

  -OEChem-01062216093D

 32 32  0     1  0  0  0  0  0999 V2000
   -3.5984   -2.3835    0.7416 H   0  0  0  0  0  0  0  0  0  0  0  0
   -3.4736   -1.3838    0.3159 C   0  0  0  0  0  0  0  0  0  0  0  0
   -3.8972   -0.6528    1.0089 H   0  0  0  0  0  0  0  0  0  0  0  0
   -4.0139   -1.3342   -0.6324 H   0  0  0  0  0  0  0  0  0  0  0  0
   -2.0022   -1.0904    0.0913 C   0  0  0  0  0  0  0  0  0  0  0  0
   -1.1830   -1.9848    0.2232 O   0  0  0  0  0  0  0  0  0  0  0  0
   -1.6278    0.1186   -0.4574 N   0  0  0  0  0  0  0  0  0  0  0  0
   -2.4131    0.7302   -0.6631 H   0  0  0  0  0  0  0  0  0  0  0  0
   -0.3338    0.8171   -0.2819 C   0  0  1  0  0  0  0  0  0  0  0  0
   -0.6000    1.8320    0.0305 H   0  0  0  0  0  0  0  0  0  0  0  0
    0.6684    0.3320    0.7928 C   0  0  0  0  0  0  0  0  0  0  0  0
    0.9244   -0.7197    0.6361 H   0  0  0  0  0  0  0  0  0  0  0  0
    1.6013    0.8954    0.6852 H   0  0  0  0  0  0  0  0  0  0  0  0
    0.1442    0.5483    2.1972 C   0  0  0  0  0  0  0  0  0  0  0  0
    0.2490    1.8181    2.7872 C   0  0  0  0  0  0  0  0  0  0  0  0
    0.6742    2.6445    2.2250 H   0  0  0  0  0  0  0  0  0  0  0  0
   -0.1961    2.0377    4.0952 C   0  0  0  0  0  0  0  0  0  0  0  0
   -0.1184    3.0271    4.5362 H   0  0  0  0  0  0  0  0  0  0  0  0
   -0.7338    0.9824    4.8369 C   0  0  0  0  0  0  0  0  0  0  0  0
   -1.0774    1.1513    5.8533 H   0  0  0  0  0  0  0  0  0  0  0  0
   -0.8143   -0.2935    4.2723 C   0  0  0  0  0  0  0  0  0  0  0  0
   -1.2123   -1.1217    4.8512 H   0  0  0  0  0  0  0  0  0  0  0  0
   -0.3696   -0.5097    2.9638 C   0  0  0  0  0  0  0  0  0  0  0  0
   -0.4124   -1.5138    2.5537 H   0  0  0  0  0  0  0  0  0  0  0  0
    0.3557    0.9953   -1.6423 C   0  0  0  0  0  0  0  0  0  0  0  0
    0.6300    2.1128   -2.0586 O   0  0  0  0  0  0  0  0  0  0  0  0
    0.6751   -0.1231   -2.3874 N   0  0  0  0  0  0  0  0  0  0  0  0
    0.3919   -1.0238   -2.0041 H   0  0  0  0  0  0  0  0  0  0  0  0
    1.3210   -0.0693   -3.6917 C   0  0  0  0  0  0  0  0  0  0  0  0
    2.2971    0.4211   -3.6154 H   0  0  0  0  0  0  0  0  0  0  0  0
    1.4719   -1.0811   -4.0800 H   0  0  0  0  0  0  0  0  0  0  0  0
    0.7012    0.4864   -4.4030 H   0  0  0  0  0  0  0  0  0  0  0  0
  1  2  1  0  0  0  0
  2  3  1  0  0  0  0
  2  4  1  0  0  0  0
  2  5  1  0  0  0  0
  5  6  2  0  0  0  0
  5  7  1  0  0  0  0
  7  8  1  0  0  0  0
  7  9  1  0  0  0  0
  9 10  1  0  0  0  0
  9 11  1  0  0  0  0
  9 25  1  0  0  0  0
 11 12  1  0  0  0  0
 11 13  1  0  0  0  0
 11 14  1  0  0  0  0
 14 15  1  0  0  0  0
 14 23  2  0  0  0  0
 15 16  1  0  0  0  0
 15 17  2  0  0  0  0
 17 18  1  0  0  0  0
 17 19  1  0  0  0  0
 19 20  1  0  0  0  0
 19 21  2  0  0  0  0
 21 22  1  0  0  0  0
 21 23  1  0  0  0  0
 23 24  1  0  0  0  0
 25 26  2  0  0  0  0
 25 27  1  0  0  0  0
 27 28  1  0  0  0  0
 27 29  1  0  0  0  0
 29 30  1  0  0  0  0
 29 31  1  0  0  0  0
 29 32  1  0  0  0  0
M  END
$$$$

  -OEChem-01062216093D

 32 32  0     1  0  0  0  0  0999 V2000
   -3.5965   -2.3697    0.8302 H   0  0  0  0  0  0  0  0  0  0  0  0
   -3.4844   -1.3817    0.3746 C   0  0  0  0  0  0  0  0  0  0  0  0
   -3.8904   -0.6327    1.0591 H   0  0  0  0  0  0  0  0  0  0  0  0
   -4.0500   -1.3576   -0.5598 H   0  0  0  0  0  0  0  0  0  0  0  0
   -2.0198   -1.0938    0.1040 C   0  0  0  0  0  0  0  0  0  0  0  0
   -1.2014   -1.9928    0.2024 O   0  0  0  0  0  0  0  0  0  0  0  0
   -1.6567    0.1136   -0.4554 N   0  0  0  0  0  0  0  0  0  0  0  0
   -2.4479    0.7267   -0.6322 H   0  0  0  0  0  0  0  0  0  0  0  0
   -0.3620    0.8179   -0.2953 C   0  0  1  0  0  0  0  0  0  0  0  0
   -0.6267    1.8331    0.0177 H   0  0  0  0  0  0  0  0  0  0  0  0
    0.6499    0.3310    0.7694 C   0  0  0  0  0  0  0  0  0  0  0  0
    0.9046   -0.7201    0.6077 H   0  0  0  0  0  0  0  0  0  0  0  0
    1.5819    0.8950    0.6554 H   0  0  0  0  0  0  0  0  0  0  0  0
    0.1365    0.5444    2.1782 C   0  0  0  0  0  0  0  0  0  0  0  0
    0.2449    1.8127    2.7705 C   0  0  0  0  0  0  0  0  0  0  0  0
    0.6686    2.6398    2.2077 H   0  0  0  0  0  0  0  0  0  0  0  0
   -0.1939    2.0293    4.0813 C   0  0  0  0  0  0  0  0  0  0  0  0
   -0.1129    3.0175    4.5246 H   0  0  0  0  0  0  0  0  0  0  0  0
   -0.7293    0.9723    4.8226 C   0  0  0  0  0  0  0  0  0  0  0  0
   -1.0682    1.1376    5.8411 H   0  0  0  0  0  0  0  0  0  0  0  0
   -0.8117   -0.3023    4.2555 C   0  0  0  0  0  0  0  0  0  0  0  0
   -1.2064   -1.1319    4.8345 H   0  0  0  0  0  0  0  0  0  0  0  0
   -0.3719   -0.5156    2.9451 C   0  0  0  0  0  0  0  0  0  0  0  0
   -0.4141   -1.5191    2.5334 H   0  0  0  0  0  0  0  0  0  0  0  0
    0.3241    0.9972   -1.6583 C   0  0  0  0  0  0  0  0  0  0  0  0
    0.8368    2.0673   -1.9567 O   0  0  0  0  0  0  0  0  0  0  0  0
    0.3705   -0.0653   -2.5402 N   0  0  0  0  0  0  0  0  0  0  0  0
   -0.0192   -0.9467   -2.2098 H   0  0  0  0  0  0  0  0  0  0  0  0
    1.0511   -0.0204   -3.8271 C   0  0  0  0  0  0  0  0  0  0  0  0
    2.1208    0.1686   -3.6888 H   0  0  0  0  0  0  0  0  0  0  0  0
    0.9322   -0.9744   -4.3498 H   0  0  0  0  0  0  0  0  0  0  0  0
    0.6311    0.7724   -4.4548 H   0  0  0  0  0  0  0  0  0  0  0  0
  1  2  1  0  0  0  0
  2  3  1  0  0  0  0
  2  4  1  0  0  0  0
  2  5  1  0  0  0  0
  5  6  2  0  0  0  0
  5  7  1  0  0  0  0
  7  8  1  0  0  0  0
  7  9  1  0  0  0  0
  9 10  1  0  0  0  0
  9 11  1  0  0  0  0
  9 25  1  0  0  0  0
 11 12  1  0  0  0  0
 11 13  1  0  0  0  0
 11 14  1  0  0  0  0
 14 15  1  0  0  0  0
 14 23  2  0  0  0  0
 15 16  1  0  0  0  0
 15 17  2  0  0  0  0
 17 18  1  0  0  0  0
 17 19  1  0  0  0  0
 19 20  1  0  0  0  0
 19 21  2  0  0  0  0
 21 22  1  0  0  0  0
 21 23  1  0  0  0  0
 23 24  1  0  0  0  0
 25 26  2  0  0  0  0
 25 27  1  0  0  0  0
 27 28  1  0  0  0  0
 27 29  1  0  0  0  0
 29 30  1  0  0  0  0
 29 31  1  0  0  0  0
 29 32  1  0  0  0  0
M  END
$$$$

  -OEChem-01062216093D

 32 32  0     1  0  0  0  0  0999 V2000
   -3.5995   -2.3914    0.8467 H   0  0  0  0  0  0  0  0  0  0  0  0
   -3.4897   -1.3928    0.4144 C   0  0  0  0  0  0  0  0  0  0  0  0
   -3.8690   -0.6583    1.1292 H   0  0  0  0  0  0  0  0  0  0  0  0
   -4.0799   -1.3390   -0.5035 H   0  0  0  0  0  0  0  0  0  0  0  0
   -2.0303   -1.1113    0.1120 C   0  0  0  0  0  0  0  0  0  0  0  0
   -1.2142   -2.0130    0.1981 O   0  0  0  0  0  0  0  0  0  0  0  0
   -1.6760    0.0985   -0.4493 N   0  0  0  0  0  0  0  0  0  0  0  0
   -2.4714    0.7121   -0.6040 H   0  0  0  0  0  0  0  0  0  0  0  0
   -0.3797    0.8068   -0.3037 C   0  0  1  0  0  0  0  0  0  0  0  0
   -0.6448    1.8211    0.0115 H   0  0  0  0  0  0  0  0  0  0  0  0
    0.6348    0.3183    0.7587 C   0  0  0  0  0  0  0  0  0  0  0  0
    0.8860   -0.7336    0.5975 H   0  0  0  0  0  0  0  0  0  0  0  0
    1.5691    0.8783    0.6430 H   0  0  0  0  0  0  0  0  0  0  0  0
    0.1262    0.5370    2.1685 C   0  0  0  0  0  0  0  0  0  0  0  0
    0.2411    1.8067    2.7561 C   0  0  0  0  0  0  0  0  0  0  0  0
    0.6637    2.6303    2.1877 H   0  0  0  0  0  0  0  0  0  0  0  0
   -0.1894    2.0289    4.0687 C   0  0  0  0  0  0  0  0  0  0  0  0
   -0.1029    3.0184    4.5079 H   0  0  0  0  0  0  0  0  0  0  0  0
   -0.7225    0.9758    4.8170 C   0  0  0  0  0  0  0  0  0  0  0  0
   -1.0523    1.1456    5.8377 H   0  0  0  0  0  0  0  0  0  0  0  0
   -0.8134   -0.3000    4.2541 C   0  0  0  0  0  0  0  0  0  0  0  0
   -1.2072   -1.1264    4.8384 H   0  0  0  0  0  0  0  0  0  0  0  0
   -0.3825   -0.5188    2.9413 C   0  0  0  0  0  0  0  0  0  0  0  0
   -0.4304   -1.5232    2.5321 H   0  0  0  0  0  0  0  0  0  0  0  0
    0.3055    1.0006   -1.6680 C   0  0  0  0  0  0  0  0  0  0  0  0
    1.0257    1.9707   -1.8616 O   0  0  0  0  0  0  0  0  0  0  0  0
    0.1017    0.0820   -2.6800 N   0  0  0  0  0  0  0  0  0  0  0  0
   -0.4100   -0.7600   -2.4238 H   0  0  0  0  0  0  0  0  0  0  0  0
    0.7838    0.1374   -3.9661 C   0  0  0  0  0  0  0  0  0  0  0  0
    1.8638    0.0168   -3.8321 H   0  0  0  0  0  0  0  0  0  0  0  0
    0.4226   -0.6625   -4.6196 H   0  0  0  0  0  0  0  0  0  0  0  0
    0.5950    1.0965   -4.4595 H   0  0  0  0  0  0  0  0  0  0  0  0
  1  2  1  0  0  0  0
  2  3  1  0  0  0  0
  2  4  1  0  0  0  0
  2  5  1  0  0  0  0
  5  6  2  0  0  0  0
  5  7  1  0  0  0  0
  7  8  1  0  0  0  0
  7  9  1  0  0  0  0
  9 10  1  0  0  0  0
  9 11  1  0  0  0  0
  9 25  1  0  0  0  0
 11 12  1  0  0  0  0
 11 13  1  0  0  0  0
 11 14  1  0  0  0  0
 14 15  1  0  0  0  0
 14 23  2  0  0  0  0
 15 16  1  0  0  0  0
 15 17  2  0  0  0  0
 17 18  1  0  0  0  0
 17 19  1  0  0  0  0
 19 20  1  0  0  0  0
 19 21  2  0  0  0  0
 21 22  1  0  0  0  0
 21 23  1  0  0  0  0
 23 24  1  0  0  0  0
 25 26  2  0  0  0  0
 25 27  1  0  0  0  0
 27 28  1  0  0  0  0
 27 29  1  0  0  0  0
 29 30  1  0  0  0  0
 29 31  1  0  0  0  0
 29 32  1  0  0  0  0
M  END
$$$$

  -OEChem-01062216093D

 32 32  0     1  0  0  0  0  0999 V2000
   -3.5935   -2.4068    0.8513 H   0  0  0  0  0  0  0  0  0  0  0  0
   -3.4841   -1.4042    0.4284 C   0  0  0  0  0  0  0  0  0  0  0  0
   -3.8547   -0.6762    1.1542 H   0  0  0  0  0  0  0  0  0  0  0  0
   -4.0832   -1.3388   -0.4830 H   0  0  0  0  0  0  0  0  0  0  0  0
   -2.0261   -1.1253    0.1151 C   0  0  0  0  0  0  0  0  0  0  0  0
   -1.2126   -2.0292    0.1978 O   0  0  0  0  0  0  0  0  0  0  0  0
   -1.6755    0.0884   -0.4419 N   0  0  0  0  0  0  0  0  0  0  0  0
   -2.4726    0.7049   -0.5749 H   0  0  0  0  0  0  0  0  0  0  0  0
   -0.3771    0.7971   -0.3050 C   0  0  1  0  0  0  0  0  0  0  0  0
   -0.6409    1.8104    0.0133 H   0  0  0  0  0  0  0  0  0  0  0  0
    0.6366    0.3037    0.7585 C   0  0  0  0  0  0  0  0  0  0  0  0
    0.8834   -0.7495    0.5980 H   0  0  0  0  0  0  0  0  0  0  0  0
    1.5746    0.8580    0.6460 H   0  0  0  0  0  0  0  0  0  0  0  0
    0.1266    0.5274    2.1670 C   0  0  0  0  0  0  0  0  0  0  0  0
    0.2466    1.7974    2.7531 C   0  0  0  0  0  0  0  0  0  0  0  0
    0.6783    2.6170    2.1857 H   0  0  0  0  0  0  0  0  0  0  0  0
   -0.1921    2.0249    4.0621 C   0  0  0  0  0  0  0  0  0  0  0  0
   -0.1043    3.0147    4.5002 H   0  0  0  0  0  0  0  0  0  0  0  0
   -0.7359    0.9763    4.8091 C   0  0  0  0  0  0  0  0  0  0  0  0
   -1.0725    1.1503    5.8270 H   0  0  0  0  0  0  0  0  0  0  0  0
   -0.8285   -0.3008    4.2490 C   0  0  0  0  0  0  0  0  0  0  0  0
   -1.2292   -1.1241    4.8329 H   0  0  0  0  0  0  0  0  0  0  0  0
   -0.3905   -0.5245    2.9394 C   0  0  0  0  0  0  0  0  0  0  0  0
   -0.4399   -1.5295    2.5324 H   0  0  0  0  0  0  0  0  0  0  0  0
    0.3042    1.0051   -1.6720 C   0  0  0  0  0  0  0  0  0  0  0  0
    1.1902    1.8403   -1.7960 O   0  0  0  0  0  0  0  0  0  0  0  0
   -0.1232    0.2968   -2.7796 N   0  0  0  0  0  0  0  0  0  0  0  0
   -0.7600   -0.4740   -2.5928 H   0  0  0  0  0  0  0  0  0  0  0  0
    0.5235    0.3805   -4.0827 C   0  0  0  0  0  0  0  0  0  0  0  0
    1.5557    0.0205   -4.0211 H   0  0  0  0  0  0  0  0  0  0  0  0
   -0.0157   -0.2315   -4.8119 H   0  0  0  0  0  0  0  0  0  0  0  0
    0.5318    1.4152   -4.4413 H   0  0  0  0  0  0  0  0  0  0  0  0
  1  2  1  0  0  0  0
  2  3  1  0  0  0  0
  2  4  1  0  0  0  0
  2  5  1  0  0  0  0
  5  6  2  0  0  0  0
  5  7  1  0  0  0  0
  7  8  1  0  0  0  0
  7  9  1  0  0  0  0
  9 10  1  0  0  0  0
  9 11  1  0  0  0  0
  9 25  1  0  0  0  0
 11 12  1  0  0  0  0
 11 13  1  0  0  0  0
 11 14  1  0  0  0  0
 14 15  1  0  0  0  0
 14 23  2  0  0  0  0
 15 16  1  0  0  0  0
 15 17  2  0  0  0  0
 17 18  1  0  0  0  0
 17 19  1  0  0  0  0
 19 20  1  0  0  0  0
 19 21  2  0  0  0  0
 21 22  1  0  0  0  0
 21 23  1  0  0  0  0
 23 24  1  0  0  0  0
 25 26  2  0  0  0  0
 25 27  1  0  0  0  0
 27 28  1  0  0  0  0
 27 29  1  0  0  0  0
 29 30  1  0  0  0  0
 29 31  1  0  0  0  0
 29 32  1  0  0  0  0
M  END
$$$$

  -OEChem-01062216093D

 32 32  0     1  0  0  0  0  0999 V2000
   -3.5596   -2.4345    0.8744 H   0  0  0  0  0  0  0  0  0  0  0  0
   -3.4631   -1.4412    0.4267 C   0  0  0  0  0  0  0  0  0  0  0  0
   -3.8511   -0.7012    1.1312 H   0  0  0  0  0  0  0  0  0  0  0  0
   -4.0556   -1.4092   -0.4908 H   0  0  0  0  0  0  0  0  0  0  0  0
   -2.0074   -1.1477    0.1170 C   0  0  0  0  0  0  0  0  0  0  0  0
   -1.1878   -2.0450    0.2055 O   0  0  0  0  0  0  0  0  0  0  0  0
   -1.6682    0.0719   -0.4358 N   0  0  0  0  0  0  0  0  0  0  0  0
   -2.4700    0.6859   -0.5496 H   0  0  0  0  0  0  0  0  0  0  0  0
   -0.3711    0.7874   -0.3081 C   0  0  1  0  0  0  0  0  0  0  0  0
   -0.6383    1.7989    0.0121 H   0  0  0  0  0  0  0  0  0  0  0  0
    0.6428    0.2976    0.7597 C   0  0  0  0  0  0  0  0  0  0  0  0
    0.8904   -0.7558    0.6036 H   0  0  0  0  0  0  0  0  0  0  0  0
    1.5823    0.8493    0.6503 H   0  0  0  0  0  0  0  0  0  0  0  0
    0.1306    0.5284    2.1665 C   0  0  0  0  0  0  0  0  0  0  0  0
    0.2517    1.8018    2.7447 C   0  0  0  0  0  0  0  0  0  0  0  0
    0.6887    2.6162    2.1738 H   0  0  0  0  0  0  0  0  0  0  0  0
   -0.1883    2.0385    4.0514 C   0  0  0  0  0  0  0  0  0  0  0  0
   -0.0950    3.0304    4.4836 H   0  0  0  0  0  0  0  0  0  0  0  0
   -0.7389    0.9966    4.8028 C   0  0  0  0  0  0  0  0  0  0  0  0
   -1.0773    1.1777    5.8187 H   0  0  0  0  0  0  0  0  0  0  0  0
   -0.8358   -0.2832    4.2498 C   0  0  0  0  0  0  0  0  0  0  0  0
   -1.2429   -1.1008    4.8373 H   0  0  0  0  0  0  0  0  0  0  0  0
   -0.3933   -0.5170    2.9435 C   0  0  0  0  0  0  0  0  0  0  0  0
   -0.4447   -1.5249    2.5435 H   0  0  0  0  0  0  0  0  0  0  0  0
    0.2982    1.0093   -1.6821 C   0  0  0  0  0  0  0  0  0  0  0  0
    1.3189    1.6786   -1.7740 O   0  0  0  0  0  0  0  0  0  0  0  0
   -0.3133    0.5573   -2.8373 N   0  0  0  0  0  0  0  0  0  0  0  0
   -1.0689   -0.1087   -2.7017 H   0  0  0  0  0  0  0  0  0  0  0  0
    0.2879    0.6780   -4.1595 C   0  0  0  0  0  0  0  0  0  0  0  0
    1.2240    0.1119   -4.2072 H   0  0  0  0  0  0  0  0  0  0  0  0
   -0.3940    0.2880   -4.9213 H   0  0  0  0  0  0  0  0  0  0  0  0
    0.4984    1.7273   -4.3919 H   0  0  0  0  0  0  0  0  0  0  0  0
  1  2  1  0  0  0  0
  2  3  1  0  0  0  0
  2  4  1  0  0  0  0
  2  5  1  0  0  0  0
  5  6  2  0  0  0  0
  5  7  1  0  0  0  0
  7  8  1  0  0  0  0
  7  9  1  0  0  0  0
  9 10  1  0  0  0  0
  9 11  1  0  0  0  0
  9 25  1  0  0  0  0
 11 12  1  0  0  0  0
 11 13  1  0  0  0  0
 11 14  1  0  0  0  0
 14 15  1  0  0  0  0
 14 23  2  0  0  0  0
 15 16  1  0  0  0  0
 15 17  2  0  0  0  0
 17 18  1  0  0  0  0
 17 19  1  0  0  0  0
 19 20  1  0  0  0  0
 19 21  2  0  0  0  0
 21 22  1  0  0  0  0
 21 23  1  0  0  0  0
 23 24  1  0  0  0  0
 25 26  2  0  0  0  0
 25 27  1  0  0  0  0
 27 28  1  0  0  0  0
 27 29  1  0  0  0  0
 29 30  1  0  0  0  0
 29 31  1  0  0  0  0
 29 32  1  0  0  0  0
M  END
$$$$

  -OEChem-01062216093D

 32 32  0     1  0  0  0  0  0999 V2000
   -3.5482   -2.4670    0.8177 H   0  0  0  0  0  0  0  0  0  0  0  0
   -3.4455   -1.4578    0.4088 C   0  0  0  0  0  0  0  0  0  0  0  0
   -3.8263   -0.7431    1.1425 H   0  0  0  0  0  0  0  0  0  0  0  0
   -4.0399   -1.3864   -0.5051 H   0  0  0  0  0  0  0  0  0  0  0  0
   -1.9887   -1.1618    0.1063 C   0  0  0  0  0  0  0  0  0  0  0  0
   -1.1689   -2.0579    0.2022 O   0  0  0  0  0  0  0  0  0  0  0  0
   -1.6518    0.0629   -0.4381 N   0  0  0  0  0  0  0  0  0  0  0  0
   -2.4545    0.6790   -0.5302 H   0  0  0  0  0  0  0  0  0  0  0  0
   -0.3533    0.7764   -0.3113 C   0  0  1  0  0  0  0  0  0  0  0  0
   -0.6196    1.7872    0.0114 H   0  0  0  0  0  0  0  0  0  0  0  0
    0.6556    0.2855    0.7629 C   0  0  0  0  0  0  0  0  0  0  0  0
    0.9015   -0.7689    0.6109 H   0  0  0  0  0  0  0  0  0  0  0  0
    1.5975    0.8341    0.6606 H   0  0  0  0  0  0  0  0  0  0  0  0
    0.1358    0.5244    2.1658 C   0  0  0  0  0  0  0  0  0  0  0  0
    0.2584    1.7997    2.7392 C   0  0  0  0  0  0  0  0  0  0  0  0
    0.7035    2.6093    2.1679 H   0  0  0  0  0  0  0  0  0  0  0  0
   -0.1912    2.0446    4.0410 C   0  0  0  0  0  0  0  0  0  0  0  0
   -0.0979    3.0383    4.4692 H   0  0  0  0  0  0  0  0  0  0  0  0
   -0.7523    1.0087    4.7930 C   0  0  0  0  0  0  0  0  0  0  0  0
   -1.0976    1.1959    5.8055 H   0  0  0  0  0  0  0  0  0  0  0  0
   -0.8497   -0.2734    4.2452 C   0  0  0  0  0  0  0  0  0  0  0  0
   -1.2638   -1.0870    4.8331 H   0  0  0  0  0  0  0  0  0  0  0  0
   -0.3986   -0.5152    2.9433 C   0  0  0  0  0  0  0  0  0  0  0  0
   -0.4521   -1.5244    2.5469 H   0  0  0  0  0  0  0  0  0  0  0  0
    0.3051    1.0075   -1.6915 C   0  0  0  0  0  0  0  0  0  0  0  0
    1.4366    1.4659   -1.7810 O   0  0  0  0  0  0  0  0  0  0  0  0
   -0.4384    0.8516   -2.8480 N   0  0  0  0  0  0  0  0  0  0  0  0
   -1.3059    0.3333   -2.7461 H   0  0  0  0  0  0  0  0  0  0  0  0
    0.1209    1.0231   -4.1834 C   0  0  0  0  0  0  0  0  0  0  0  0
    0.9085    0.2847   -4.3661 H   0  0  0  0  0  0  0  0  0  0  0  0
   -0.6599    0.8942   -4.9390 H   0  0  0  0  0  0  0  0  0  0  0  0
    0.5454    2.0263   -4.2964 H   0  0  0  0  0  0  0  0  0  0  0  0
  1  2  1  0  0  0  0
  2  3  1  0  0  0  0
  2  4  1  0  0  0  0
  2  5  1  0  0  0  0
  5  6  2  0  0  0  0
  5  7  1  0  0  0  0
  7  8  1  0  0  0  0
  7  9  1  0  0  0  0
  9 10  1  0  0  0  0
  9 11  1  0  0  0  0
  9 25  1  0  0  0  0
 11 12  1  0  0  0  0
 11 13  1  0  0  0  0
 11 14  1  0  0  0  0
 14 15  1  0  0  0  0
 14 23  2  0  0  0  0
 15 16  1  0  0  0  0
 15 17  2  0  0  0  0
 17 18  1  0  0  0  0
 17 19  1  0  0  0  0
 19 20  1  0  0  0  0
 19 21  2  0  0  0  0
 21 22  1  0  0  0  0
 21 23  1  0  0  0  0
 23 24  1  0  0  0  0
 25 26  2  0  0  0  0
 25 27  1  0  0  0  0
 27 28  1  0  0  0  0
 27 29  1  0  0  0  0
 29 30  1  0  0  0  0
 29 31  1  0  0  0  0
 29 32  1  0  0  0  0
M  END
$$$$

  -OEChem-01062216093D

 32 32  0     1  0  0  0  0  0999 V2000
   -3.5270   -2.4760    0.8185 H   0  0  0  0  0  0  0  0  0  0  0  0
   -3.4295   -1.4746    0.3893 C   0  0  0  0  0  0  0  0  0  0  0  0
   -3.8232   -0.7480    1.1041 H   0  0  0  0  0  0  0  0  0  0  0  0
   -4.0164   -1.4279   -0.5311 H   0  0  0  0  0  0  0  0  0  0  0  0
   -1.9721   -1.1729    0.0931 C   0  0  0  0  0  0  0  0  0  0  0  0
   -1.1497   -2.0654    0.2001 O   0  0  0  0  0  0  0  0  0  0  0  0
   -1.6385    0.0556   -0.4455 N   0  0  0  0  0  0  0  0  0  0  0  0
   -2.4438    0.6690   -0.5266 H   0  0  0  0  0  0  0  0  0  0  0  0
   -0.3406    0.7694   -0.3180 C   0  0  1  0  0  0  0  0  0  0  0  0
   -0.6073    1.7796    0.0055 H   0  0  0  0  0  0  0  0  0  0  0  0
    0.6654    0.2831    0.7617 C   0  0  0  0  0  0  0  0  0  0  0  0
    0.9140   -0.7714    0.6143 H   0  0  0  0  0  0  0  0  0  0  0  0
    1.6068    0.8329    0.6619 H   0  0  0  0  0  0  0  0  0  0  0  0
    0.1409    0.5281    2.1617 C   0  0  0  0  0  0  0  0  0  0  0  0
    0.2611    1.8056    2.7315 C   0  0  0  0  0  0  0  0  0  0  0  0
    0.7099    2.6133    2.1607 H   0  0  0  0  0  0  0  0  0  0  0  0
   -0.1945    2.0552    4.0305 C   0  0  0  0  0  0  0  0  0  0  0  0
   -0.1023    3.0501    4.4562 H   0  0  0  0  0  0  0  0  0  0  0  0
   -0.7589    1.0217    4.7832 C   0  0  0  0  0  0  0  0  0  0  0  0
   -1.1090    1.2117    5.7934 H   0  0  0  0  0  0  0  0  0  0  0  0
   -0.8548   -0.2622    4.2393 C   0  0  0  0  0  0  0  0  0  0  0  0
   -1.2719   -1.0736    4.8284 H   0  0  0  0  0  0  0  0  0  0  0  0
   -0.3982   -0.5084    2.9399 C   0  0  0  0  0  0  0  0  0  0  0  0
   -0.4508   -1.5185    2.5456 H   0  0  0  0  0  0  0  0  0  0  0  0
    0.3082    1.0055   -1.7030 C   0  0  0  0  0  0  0  0  0  0  0  0
    1.5089    1.2128   -1.8200 O   0  0  0  0  0  0  0  0  0  0  0  0
   -0.4956    1.1598   -2.8192 N   0  0  0  0  0  0  0  0  0  0  0  0
   -1.4544    0.8421   -2.7238 H   0  0  0  0  0  0  0  0  0  0  0  0
    0.0376    1.3755   -4.1592 C   0  0  0  0  0  0  0  0  0  0  0  0
    0.6466    0.5207   -4.4717 H   0  0  0  0  0  0  0  0  0  0  0  0
   -0.7799    1.5012   -4.8754 H   0  0  0  0  0  0  0  0  0  0  0  0
    0.6579    2.2778   -4.1845 H   0  0  0  0  0  0  0  0  0  0  0  0
  1  2  1  0  0  0  0
  2  3  1  0  0  0  0
  2  4  1  0  0  0  0
  2  5  1  0  0  0  0
  5  6  2  0  0  0  0
  5  7  1  0  0  0  0
  7  8  1  0  0  0  0
  7  9  1  0  0  0  0
  9 10  1  0  0  0  0
  9 11  1  0  0  0  0
  9 25  1  0  0  0  0
 11 12  1  0  0  0  0
 11 13  1  0  0  0  0
 11 14  1  0  0  0  0
 14 15  1  0  0  0  0
 14 23  2  0  0  0  0
 15 16  1  0  0  0  0
 15 17  2  0  0  0  0
 17 18  1  0  0  0  0
 17 19  1  0  0  0  0
 19 20  1  0  0  0  0
 19 21  2  0  0  0  0
 21 22  1  0  0  0  0
 21 23  1  0  0  0  0
 23 24  1  0  0  0  0
 25 26  2  0  0  0  0
 25 27  1  0  0  0  0
 27 28  1  0  0  0  0
 27 29  1  0  0  0  0
 29 30  1  0  0  0  0
 29 31  1  0  0  0  0
 29 32  1  0  0  0  0
M  END
$$$$

  -OEChem-01062216093D

 32 32  0     1  0  0  0  0  0999 V2000
   -3.5295   -2.4763    0.8002 H   0  0  0  0  0  0  0  0  0  0  0  0
   -3.4307   -1.4897    0.3382 C   0  0  0  0  0  0  0  0  0  0  0  0
   -3.8584   -0.7434    1.0122 H   0  0  0  0  0  0  0  0  0  0  0  0
   -3.9859   -1.4850   -0.6029 H   0  0  0  0  0  0  0  0  0  0  0  0
   -1.9683   -1.1780    0.0795 C   0  0  0  0  0  0  0  0  0  0  0  0
   -1.1443   -2.0642    0.2183 O   0  0  0  0  0  0  0  0  0  0  0  0
   -1.6318    0.0530   -0.4525 N   0  0  0  0  0  0  0  0  0  0  0  0
   -2.4389    0.6594   -0.5554 H   0  0  0  0  0  0  0  0  0  0  0  0
   -0.3355    0.7674   -0.3212 C   0  0  1  0  0  0  0  0  0  0  0  0
   -0.6042    1.7762    0.0051 H   0  0  0  0  0  0  0  0  0  0  0  0
    0.6704    0.2872    0.7605 C   0  0  0  0  0  0  0  0  0  0  0  0
    0.9219   -0.7667    0.6147 H   0  0  0  0  0  0  0  0  0  0  0  0
    1.6094    0.8403    0.6560 H   0  0  0  0  0  0  0  0  0  0  0  0
    0.1463    0.5333    2.1613 C   0  0  0  0  0  0  0  0  0  0  0  0
    0.2627    1.8119    2.7300 C   0  0  0  0  0  0  0  0  0  0  0  0
    0.7091    2.6203    2.1584 H   0  0  0  0  0  0  0  0  0  0  0  0
   -0.1921    2.0613    4.0295 C   0  0  0  0  0  0  0  0  0  0  0  0
   -0.1016    3.0567    4.4543 H   0  0  0  0  0  0  0  0  0  0  0  0
   -0.7534    1.0273    4.7839 C   0  0  0  0  0  0  0  0  0  0  0  0
   -1.1024    1.2176    5.7947 H   0  0  0  0  0  0  0  0  0  0  0  0
   -0.8468   -0.2570    4.2403 C   0  0  0  0  0  0  0  0  0  0  0  0
   -1.2618   -1.0696    4.8293 H   0  0  0  0  0  0  0  0  0  0  0  0
   -0.3902   -0.5028    2.9410 C   0  0  0  0  0  0  0  0  0  0  0  0
   -0.4399   -1.5134    2.5481 H   0  0  0  0  0  0  0  0  0  0  0  0
    0.3088    1.0064   -1.7072 C   0  0  0  0  0  0  0  0  0  0  0  0
    1.5182    0.9300   -1.8799 O   0  0  0  0  0  0  0  0  0  0  0  0
   -0.4736    1.4684   -2.7519 N   0  0  0  0  0  0  0  0  0  0  0  0
   -1.4785    1.4182   -2.6261 H   0  0  0  0  0  0  0  0  0  0  0  0
    0.0520    1.7207   -4.0885 C   0  0  0  0  0  0  0  0  0  0  0  0
    0.4546    0.7992   -4.5220 H   0  0  0  0  0  0  0  0  0  0  0  0
   -0.7414    2.0951   -4.7425 H   0  0  0  0  0  0  0  0  0  0  0  0
    0.8496    2.4702   -4.0516 H   0  0  0  0  0  0  0  0  0  0  0  0
  1  2  1  0  0  0  0
  2  3  1  0  0  0  0
  2  4  1  0  0  0  0
  2  5  1  0  0  0  0
  5  6  2  0  0  0  0
  5  7  1  0  0  0  0
  7  8  1  0  0  0  0
  7  9  1  0  0  0  0
  9 10  1  0  0  0  0
  9 11  1  0  0  0  0
  9 25  1  0  0  0  0
 11 12  1  0  0  0  0
 11 13  1  0  0  0  0
 11 14  1  0  0  0  0
 14 15  1  0  0  0  0
 14 23  2  0  0  0  0
 15 16  1  0  0  0  0
 15 17  2  0  0  0  0
 17 18  1  0  0  0  0
 17 19  1  0  0  0  0
 19 20  1  0  0  0  0
 19 21  2  0  0  0  0
 21 22  1  0  0  0  0
 21 23  1  0  0  0  0
 23 24  1  0  0  0  0
 25 26  2  0  0  0  0
 25 27  1  0  0  0  0
 27 28  1  0  0  0  0
 27 29  1  0  0  0  0
 29 30  1  0  0  0  0
 29 31  1  0  0  0  0
 29 32  1  0  0  0  0
M  END
$$$$

  -OEChem-01062216093D

 32 32  0     1  0  0  0  0  0999 V2000
   -3.5759   -2.4994    0.7196 H   0  0  0  0  0  0  0  0  0  0  0  0
   -3.4628   -1.5118    0.2634 C   0  0  0  0  0  0  0  0  0  0  0  0
   -3.9306   -0.7700    0.9150 H   0  0  0  0  0  0  0  0  0  0  0  0
   -3.9691   -1.5114   -0.7048 H   0  0  0  0  0  0  0  0  0  0  0  0
   -1.9919   -1.1869    0.0802 C   0  0  0  0  0  0  0  0  0  0  0  0
   -1.1688   -2.0609    0.2847 O   0  0  0  0  0  0  0  0  0  0  0  0
   -1.6442    0.0422   -0.4494 N   0  0  0  0  0  0  0  0  0  0  0  0
   -2.4485    0.6348   -0.6257 H   0  0  0  0  0  0  0  0  0  0  0  0
   -0.3481    0.7554   -0.3223 C   0  0  1  0  0  0  0  0  0  0  0  0
   -0.6181    1.7629    0.0057 H   0  0  0  0  0  0  0  0  0  0  0  0
    0.6670    0.2879    0.7554 C   0  0  0  0  0  0  0  0  0  0  0  0
    0.9194   -0.7668    0.6150 H   0  0  0  0  0  0  0  0  0  0  0  0
    1.6027    0.8432    0.6328 H   0  0  0  0  0  0  0  0  0  0  0  0
    0.1559    0.5401    2.1607 C   0  0  0  0  0  0  0  0  0  0  0  0
    0.2736    1.8238    2.7180 C   0  0  0  0  0  0  0  0  0  0  0  0
    0.7087    2.6296    2.1346 H   0  0  0  0  0  0  0  0  0  0  0  0
   -0.1652    2.0824    4.0212 C   0  0  0  0  0  0  0  0  0  0  0  0
   -0.0743    3.0816    4.4369 H   0  0  0  0  0  0  0  0  0  0  0  0
   -0.7104    1.0519    4.7918 C   0  0  0  0  0  0  0  0  0  0  0  0
   -1.0470    1.2486    5.8054 H   0  0  0  0  0  0  0  0  0  0  0  0
   -0.8038   -0.2374    4.2606 C   0  0  0  0  0  0  0  0  0  0  0  0
   -1.2070   -1.0469    4.8621 H   0  0  0  0  0  0  0  0  0  0  0  0
   -0.3634   -0.4921    2.9574 C   0  0  0  0  0  0  0  0  0  0  0  0
   -0.4126   -1.5066    2.5751 H   0  0  0  0  0  0  0  0  0  0  0  0
    0.2925    0.9922   -1.7091 C   0  0  0  0  0  0  0  0  0  0  0  0
    1.4368    0.6391   -1.9612 O   0  0  0  0  0  0  0  0  0  0  0  0
   -0.3888    1.7359   -2.6582 N   0  0  0  0  0  0  0  0  0  0  0  0
   -1.3467    1.9961   -2.4518 H   0  0  0  0  0  0  0  0  0  0  0  0
    0.1546    2.0396   -3.9771 C   0  0  0  0  0  0  0  0  0  0  0  0
    0.3446    1.1164   -4.5347 H   0  0  0  0  0  0  0  0  0  0  0  0
   -0.5526    2.6497   -4.5472 H   0  0  0  0  0  0  0  0  0  0  0  0
    1.0936    2.5957   -3.8861 H   0  0  0  0  0  0  0  0  0  0  0  0
  1  2  1  0  0  0  0
  2  3  1  0  0  0  0
  2  4  1  0  0  0  0
  2  5  1  0  0  0  0
  5  6  2  0  0  0  0
  5  7  1  0  0  0  0
  7  8  1  0  0  0  0
  7  9  1  0  0  0  0
  9 10  1  0  0  0  0
  9 11  1  0  0  0  0
  9 25  1  0  0  0  0
 11 12  1  0  0  0  0
 11 13  1  0  0  0  0
 11 14  1  0  0  0  0
 14 15  1  0  0  0  0
 14 23  2  0  0  0  0
 15 16  1  0  0  0  0
 15 17  2  0  0  0  0
 17 18  1  0  0  0  0
 17 19  1  0  0  0  0
 19 20  1  0  0  0  0
 19 21  2  0  0  0  0
 21 22  1  0  0  0  0
 21 23  1  0  0  0  0
 23 24  1  0  0  0  0
 25 26  2  0  0  0  0
 25 27  1  0  0  0  0
 27 28  1  0  0  0  0
 27 29  1  0  0  0  0
 29 30  1  0  0  0  0
 29 31  1  0  0  0  0
 29 32  1  0  0  0  0
M  END
$$$$

  -OEChem-01062216093D

 32 32  0     1  0  0  0  0  0999 V2000
   -3.6203   -2.5080    0.6493 H   0  0  0  0  0  0  0  0  0  0  0  0
   -3.4940   -1.5252    0.1860 C   0  0  0  0  0  0  0  0  0  0  0  0
   -4.0074   -0.7806    0.7992 H   0  0  0  0  0  0  0  0  0  0  0  0
   -3.9451   -1.5455   -0.8089 H   0  0  0  0  0  0  0  0  0  0  0  0
   -2.0190   -1.1840    0.0800 C   0  0  0  0  0  0  0  0  0  0  0  0
   -1.2001   -2.0449    0.3465 O   0  0  0  0  0  0  0  0  0  0  0  0
   -1.6590    0.0436   -0.4456 N   0  0  0  0  0  0  0  0  0  0  0  0
   -2.4547    0.6185   -0.7017 H   0  0  0  0  0  0  0  0  0  0  0  0
   -0.3644    0.7579   -0.3193 C   0  0  1  0  0  0  0  0  0  0  0  0
   -0.6380    1.7625    0.0145 H   0  0  0  0  0  0  0  0  0  0  0  0
    0.6623    0.2991    0.7488 C   0  0  0  0  0  0  0  0  0  0  0  0
    0.9148   -0.7557    0.6067 H   0  0  0  0  0  0  0  0  0  0  0  0
    1.5948    0.8566    0.6123 H   0  0  0  0  0  0  0  0  0  0  0  0
    0.1633    0.5483    2.1592 C   0  0  0  0  0  0  0  0  0  0  0  0
    0.2789    1.8345    2.7119 C   0  0  0  0  0  0  0  0  0  0  0  0
    0.7004    2.6424    2.1216 H   0  0  0  0  0  0  0  0  0  0  0  0
   -0.1465    2.0945    4.0193 C   0  0  0  0  0  0  0  0  0  0  0  0
   -0.0600    3.0958    4.4308 H   0  0  0  0  0  0  0  0  0  0  0  0
   -0.6749    1.0627    4.7995 C   0  0  0  0  0  0  0  0  0  0  0  0
   -1.0030    1.2601    5.8158 H   0  0  0  0  0  0  0  0  0  0  0  0
   -0.7621   -0.2294    4.2747 C   0  0  0  0  0  0  0  0  0  0  0  0
   -1.1505   -1.0403    4.8838 H   0  0  0  0  0  0  0  0  0  0  0  0
   -0.3355   -0.4855    2.9672 C   0  0  0  0  0  0  0  0  0  0  0  0
   -0.3789   -1.5029    2.5923 H   0  0  0  0  0  0  0  0  0  0  0  0
    0.2764    0.9941   -1.7041 C   0  0  0  0  0  0  0  0  0  0  0  0
    1.2911    0.4057   -2.0518 O   0  0  0  0  0  0  0  0  0  0  0  0
   -0.2368    1.9750   -2.5365 N   0  0  0  0  0  0  0  0  0  0  0  0
   -1.0644    2.4734   -2.2274 H   0  0  0  0  0  0  0  0  0  0  0  0
    0.3394    2.3035   -3.8353 C   0  0  0  0  0  0  0  0  0  0  0  0
    0.3295    1.4266   -4.4914 H   0  0  0  0  0  0  0  0  0  0  0  0
   -0.2365    3.1010   -4.3145 H   0  0  0  0  0  0  0  0  0  0  0  0
    1.3733    2.6452   -3.7204 H   0  0  0  0  0  0  0  0  0  0  0  0
  1  2  1  0  0  0  0
  2  3  1  0  0  0  0
  2  4  1  0  0  0  0
  2  5  1  0  0  0  0
  5  6  2  0  0  0  0
  5  7  1  0  0  0  0
  7  8  1  0  0  0  0
  7  9  1  0  0  0  0
  9 10  1  0  0  0  0
  9 11  1  0  0  0  0
  9 25  1  0  0  0  0
 11 12  1  0  0  0  0
 11 13  1  0  0  0  0
 11 14  1  0  0  0  0
 14 15  1  0  0  0  0
 14 23  2  0  0  0  0
 15 16  1  0  0  0  0
 15 17  2  0  0  0  0
 17 18  1  0  0  0  0
 17 19  1  0  0  0  0
 19 20  1  0  0  0  0
 19 21  2  0  0  0  0
 21 22  1  0  0  0  0
 21 23  1  0  0  0  0
 23 24  1  0  0  0  0
 25 26  2  0  0  0  0
 25 27  1  0  0  0  0
 27 28  1  0  0  0  0
 27 29  1  0  0  0  0
 29 30  1  0  0  0  0
 29 31  1  0  0  0  0
 29 32  1  0  0  0  0
M  END
$$$$

  -OEChem-01062216093D

 32 32  0     1  0  0  0  0  0999 V2000
   -3.6632   -2.5239    0.5620 H   0  0  0  0  0  0  0  0  0  0  0  0
   -3.5258   -1.5343    0.1165 C   0  0  0  0  0  0  0  0  0  0  0  0
   -4.0747   -0.8024    0.7138 H   0  0  0  0  0  0  0  0  0  0  0  0
   -3.9303   -1.5468   -0.8986 H   0  0  0  0  0  0  0  0  0  0  0  0
   -2.0513   -1.1758    0.0834 C   0  0  0  0  0  0  0  0  0  0  0  0
   -1.2392   -2.0226    0.4083 O   0  0  0  0  0  0  0  0  0  0  0  0
   -1.6820    0.0501   -0.4395 N   0  0  0  0  0  0  0  0  0  0  0  0
   -2.4667    0.6081   -0.7592 H   0  0  0  0  0  0  0  0  0  0  0  0
   -0.3880    0.7639   -0.3164 C   0  0  1  0  0  0  0  0  0  0  0  0
   -0.6676    1.7648    0.0227 H   0  0  0  0  0  0  0  0  0  0  0  0
    0.6517    0.3139    0.7413 C   0  0  0  0  0  0  0  0  0  0  0  0
    0.9031   -0.7414    0.5982 H   0  0  0  0  0  0  0  0  0  0  0  0
    1.5810    0.8729    0.5899 H   0  0  0  0  0  0  0  0  0  0  0  0
    0.1703    0.5608    2.1587 C   0  0  0  0  0  0  0  0  0  0  0  0
    0.2868    1.8492    2.7061 C   0  0  0  0  0  0  0  0  0  0  0  0
    0.6918    2.6582    2.1063 H   0  0  0  0  0  0  0  0  0  0  0  0
   -0.1170    2.1100    4.0199 C   0  0  0  0  0  0  0  0  0  0  0  0
   -0.0309    3.1133    4.4264 H   0  0  0  0  0  0  0  0  0  0  0  0
   -0.6222    1.0767    4.8134 C   0  0  0  0  0  0  0  0  0  0  0  0
   -0.9331    1.2754    5.8349 H   0  0  0  0  0  0  0  0  0  0  0  0
   -0.7082   -0.2178    4.2944 C   0  0  0  0  0  0  0  0  0  0  0  0
   -1.0781   -1.0300    4.9132 H   0  0  0  0  0  0  0  0  0  0  0  0
   -0.3033   -0.4744    2.9801 C   0  0  0  0  0  0  0  0  0  0  0  0
   -0.3438   -1.4938    2.6107 H   0  0  0  0  0  0  0  0  0  0  0  0
    0.2541    1.0013   -1.6990 C   0  0  0  0  0  0  0  0  0  0  0  0
    1.0751    0.2227   -2.1627 O   0  0  0  0  0  0  0  0  0  0  0  0
   -0.0326    2.1599   -2.4016 N   0  0  0  0  0  0  0  0  0  0  0  0
   -0.6877    2.8159   -1.9888 H   0  0  0  0  0  0  0  0  0  0  0  0
    0.5837    2.4908   -3.6814 C   0  0  0  0  0  0  0  0  0  0  0  0
    0.3648    1.7165   -4.4242 H   0  0  0  0  0  0  0  0  0  0  0  0
    0.1965    3.4441   -4.0535 H   0  0  0  0  0  0  0  0  0  0  0  0
    1.6700    2.5773   -3.5721 H   0  0  0  0  0  0  0  0  0  0  0  0
  1  2  1  0  0  0  0
  2  3  1  0  0  0  0
  2  4  1  0  0  0  0
  2  5  1  0  0  0  0
  5  6  2  0  0  0  0
  5  7  1  0  0  0  0
  7  8  1  0  0  0  0
  7  9  1  0  0  0  0
  9 10  1  0  0  0  0
  9 11  1  0  0  0  0
  9 25  1  0  0  0  0
 11 12  1  0  0  0  0
 11 13  1  0  0  0  0
 11 14  1  0  0  0  0
 14 15  1  0  0  0  0
 14 23  2  0  0  0  0
 15 16  1  0  0  0  0
 15 17  2  0  0  0  0
 17 18  1  0  0  0  0
 17 19  1  0  0  0  0
 19 20  1  0  0  0  0
 19 21  2  0  0  0  0
 21 22  1  0  0  0  0
 21 23  1  0  0  0  0
 23 24  1  0  0  0  0
 25 26  2  0  0  0  0
 25 27  1  0  0  0  0
 27 28  1  0  0  0  0
 27 29  1  0  0  0  0
 29 30  1  0  0  0  0
 29 31  1  0  0  0  0
 29 32  1  0  0  0  0
M  END
$$$$

  -OEChem-01062216093D

 32 32  0     1  0  0  0  0  0999 V2000
   -3.6903   -2.5175    0.4939 H   0  0  0  0  0  0  0  0  0  0  0  0
   -3.5410   -1.5304    0.0470 C   0  0  0  0  0  0  0  0  0  0  0  0
   -4.1235   -0.7986    0.6117 H   0  0  0  0  0  0  0  0  0  0  0  0
   -3.8977   -1.5551   -0.9856 H   0  0  0  0  0  0  0  0  0  0  0  0
   -2.0699   -1.1586    0.0785 C   0  0  0  0  0  0  0  0  0  0  0  0
   -1.2672   -1.9941    0.4521 O   0  0  0  0  0  0  0  0  0  0  0  0
   -1.6902    0.0672   -0.4365 N   0  0  0  0  0  0  0  0  0  0  0  0
   -2.4595    0.6091   -0.8164 H   0  0  0  0  0  0  0  0  0  0  0  0
   -0.3956    0.7774   -0.3080 C   0  0  1  0  0  0  0  0  0  0  0  0
   -0.6812    1.7749    0.0357 H   0  0  0  0  0  0  0  0  0  0  0  0
    0.6480    0.3286    0.7449 C   0  0  0  0  0  0  0  0  0  0  0  0
    0.8977   -0.7266    0.5978 H   0  0  0  0  0  0  0  0  0  0  0  0
    1.5765    0.8878    0.5905 H   0  0  0  0  0  0  0  0  0  0  0  0
    0.1738    0.5701    2.1660 C   0  0  0  0  0  0  0  0  0  0  0  0
    0.2900    1.8578    2.7161 C   0  0  0  0  0  0  0  0  0  0  0  0
    0.6836    2.6714    2.1149 H   0  0  0  0  0  0  0  0  0  0  0  0
   -0.0997    2.1136    4.0353 C   0  0  0  0  0  0  0  0  0  0  0  0
   -0.0130    3.1161    4.4433 H   0  0  0  0  0  0  0  0  0  0  0  0
   -0.5909    1.0761    4.8318 C   0  0  0  0  0  0  0  0  0  0  0  0
   -0.8912    1.2693    5.8574 H   0  0  0  0  0  0  0  0  0  0  0  0
   -0.6756   -0.2174    4.3104 C   0  0  0  0  0  0  0  0  0  0  0  0
   -1.0354   -1.0335    4.9299 H   0  0  0  0  0  0  0  0  0  0  0  0
   -0.2834   -0.4693    2.9916 C   0  0  0  0  0  0  0  0  0  0  0  0
   -0.3203   -1.4892    2.6235 H   0  0  0  0  0  0  0  0  0  0  0  0
    0.2543    1.0205   -1.6853 C   0  0  0  0  0  0  0  0  0  0  0  0
    0.8045    0.1144   -2.2941 O   0  0  0  0  0  0  0  0  0  0  0  0
    0.2377    2.2860   -2.2476 N   0  0  0  0  0  0  0  0  0  0  0  0
   -0.1970    3.0357   -1.7190 H   0  0  0  0  0  0  0  0  0  0  0  0
    0.8563    2.5966   -3.5313 C   0  0  0  0  0  0  0  0  0  0  0  0
    0.4293    1.9731   -4.3238 H   0  0  0  0  0  0  0  0  0  0  0  0
    0.6872    3.6464   -3.7892 H   0  0  0  0  0  0  0  0  0  0  0  0
    1.9361    2.4196   -3.4885 H   0  0  0  0  0  0  0  0  0  0  0  0
  1  2  1  0  0  0  0
  2  3  1  0  0  0  0
  2  4  1  0  0  0  0
  2  5  1  0  0  0  0
  5  6  2  0  0  0  0
  5  7  1  0  0  0  0
  7  8  1  0  0  0  0
  7  9  1  0  0  0  0
  9 10  1  0  0  0  0
  9 11  1  0  0  0  0
  9 25  1  0  0  0  0
 11 12  1  0  0  0  0
 11 13  1  0  0  0  0
 11 14  1  0  0  0  0
 14 15  1  0  0  0  0
 14 23  2  0  0  0  0
 15 16  1  0  0  0  0
 15 17  2  0  0  0  0
 17 18  1  0  0  0  0
 17 19  1  0  0  0  0
 19 20  1  0  0  0  0
 19 21  2  0  0  0  0
 21 22  1  0  0  0  0
 21 23  1  0  0  0  0
 23 24  1  0  0  0  0
 25 26  2  0  0  0  0
 25 27  1  0  0  0  0
 27 28  1  0  0  0  0
 27 29  1  0  0  0  0
 29 30  1  0  0  0  0
 29 31  1  0  0  0  0
 29 32  1  0  0  0  0
M  END
$$$$

  -OEChem-01062216093D

 32 32  0     1  0  0  0  0  0999 V2000
   -3.7145   -2.5285    0.4097 H   0  0  0  0  0  0  0  0  0  0  0  0
   -3.5537   -1.5364   -0.0217 C   0  0  0  0  0  0  0  0  0  0  0  0
   -4.1686   -0.8142    0.5205 H   0  0  0  0  0  0  0  0  0  0  0  0
   -3.8616   -1.5553   -1.0700 H   0  0  0  0  0  0  0  0  0  0  0  0
   -2.0893   -1.1510    0.0804 C   0  0  0  0  0  0  0  0  0  0  0  0
   -1.3002   -1.9725    0.5103 O   0  0  0  0  0  0  0  0  0  0  0  0
   -1.6973    0.0726   -0.4293 N   0  0  0  0  0  0  0  0  0  0  0  0
   -2.4431    0.5904   -0.8828 H   0  0  0  0  0  0  0  0  0  0  0  0
   -0.3997    0.7764   -0.2999 C   0  0  1  0  0  0  0  0  0  0  0  0
   -0.6910    1.7733    0.0405 H   0  0  0  0  0  0  0  0  0  0  0  0
    0.6449    0.3331    0.7536 C   0  0  0  0  0  0  0  0  0  0  0  0
    0.8893   -0.7241    0.6112 H   0  0  0  0  0  0  0  0  0  0  0  0
    1.5749    0.8885    0.5943 H   0  0  0  0  0  0  0  0  0  0  0  0
    0.1794    0.5809    2.1765 C   0  0  0  0  0  0  0  0  0  0  0  0
    0.2999    1.8711    2.7207 C   0  0  0  0  0  0  0  0  0  0  0  0
    0.6840    2.6840    2.1127 H   0  0  0  0  0  0  0  0  0  0  0  0
   -0.0747    2.1310    4.0436 C   0  0  0  0  0  0  0  0  0  0  0  0
    0.0124    3.1353    4.4469 H   0  0  0  0  0  0  0  0  0  0  0  0
   -0.5516    1.0951    4.8504 C   0  0  0  0  0  0  0  0  0  0  0  0
   -0.8395    1.2914    5.8790 H   0  0  0  0  0  0  0  0  0  0  0  0
   -0.6379   -0.2008    4.3357 C   0  0  0  0  0  0  0  0  0  0  0  0
   -0.9848   -1.0159    4.9640 H   0  0  0  0  0  0  0  0  0  0  0  0
   -0.2624   -0.4564    3.0128 C   0  0  0  0  0  0  0  0  0  0  0  0
   -0.2995   -1.4782    2.6507 H   0  0  0  0  0  0  0  0  0  0  0  0
    0.2585    1.0232   -1.6729 C   0  0  0  0  0  0  0  0  0  0  0  0
    0.4929    0.0983   -2.4375 O   0  0  0  0  0  0  0  0  0  0  0  0
    0.5306    2.3154   -2.0899 N   0  0  0  0  0  0  0  0  0  0  0  0
    0.3472    3.0730   -1.4396 H   0  0  0  0  0  0  0  0  0  0  0  0
    1.1373    2.6270   -3.3790 C   0  0  0  0  0  0  0  0  0  0  0  0
    0.5192    2.2414   -4.1967 H   0  0  0  0  0  0  0  0  0  0  0  0
    1.2332    3.7102   -3.5004 H   0  0  0  0  0  0  0  0  0  0  0  0
    2.1346    2.1805   -3.4506 H   0  0  0  0  0  0  0  0  0  0  0  0
  1  2  1  0  0  0  0
  2  3  1  0  0  0  0
  2  4  1  0  0  0  0
  2  5  1  0  0  0  0
  5  6  2  0  0  0  0
  5  7  1  0  0  0  0
  7  8  1  0  0  0  0
  7  9  1  0  0  0  0
  9 10  1  0  0  0  0
  9 11  1  0  0  0  0
  9 25  1  0  0  0  0
 11 12  1  0  0  0  0
 11 13  1  0  0  0  0
 11 14  1  0  0  0  0
 14 15  1  0  0  0  0
 14 23  2  0  0  0  0
 15 16  1  0  0  0  0
 15 17  2  0  0  0  0
 17 18  1  0  0  0  0
 17 19  1  0  0  0  0
 19 20  1  0  0  0  0
 19 21  2  0  0  0  0
 21 22  1  0  0  0  0
 21 23  1  0  0  0  0
 23 24  1  0  0  0  0
 25 26  2  0  0  0  0
 25 27  1  0  0  0  0
 27 28  1  0  0  0  0
 27 29  1  0  0  0  0
 29 30  1  0  0  0  0
 29 31  1  0  0  0  0
 29 32  1  0  0  0  0
M  END
$$$$

  -OEChem-01062216093D

 32 32  0     1  0  0  0  0  0999 V2000
   -3.7339   -2.5237    0.3694 H   0  0  0  0  0  0  0  0  0  0  0  0
   -3.5612   -1.5361   -0.0678 C   0  0  0  0  0  0  0  0  0  0  0  0
   -4.1969   -0.8099    0.4443 H   0  0  0  0  0  0  0  0  0  0  0  0
   -3.8324   -1.5678   -1.1258 H   0  0  0  0  0  0  0  0  0  0  0  0
   -2.1023   -1.1447    0.0799 C   0  0  0  0  0  0  0  0  0  0  0  0
   -1.3235   -1.9617    0.5371 O   0  0  0  0  0  0  0  0  0  0  0  0
   -1.6980    0.0780   -0.4213 N   0  0  0  0  0  0  0  0  0  0  0  0
   -2.4184    0.5771   -0.9334 H   0  0  0  0  0  0  0  0  0  0  0  0
   -0.3937    0.7692   -0.2934 C   0  0  1  0  0  0  0  0  0  0  0  0
   -0.6808    1.7683    0.0458 H   0  0  0  0  0  0  0  0  0  0  0  0
    0.6482    0.3208    0.7610 C   0  0  0  0  0  0  0  0  0  0  0  0
    0.8815   -0.7393    0.6223 H   0  0  0  0  0  0  0  0  0  0  0  0
    1.5838    0.8661    0.6008 H   0  0  0  0  0  0  0  0  0  0  0  0
    0.1863    0.5779    2.1837 C   0  0  0  0  0  0  0  0  0  0  0  0
    0.3181    1.8689    2.7232 C   0  0  0  0  0  0  0  0  0  0  0  0
    0.7047    2.6773    2.1114 H   0  0  0  0  0  0  0  0  0  0  0  0
   -0.0520    2.1366    4.0458 C   0  0  0  0  0  0  0  0  0  0  0  0
    0.0412    3.1424    4.4446 H   0  0  0  0  0  0  0  0  0  0  0  0
   -0.5340    1.1072    4.8580 C   0  0  0  0  0  0  0  0  0  0  0  0
   -0.8190    1.3099    5.8862 H   0  0  0  0  0  0  0  0  0  0  0  0
   -0.6300   -0.1899    4.3486 C   0  0  0  0  0  0  0  0  0  0  0  0
   -0.9804   -1.0003    4.9807 H   0  0  0  0  0  0  0  0  0  0  0  0
   -0.2599   -0.4530    3.0258 C   0  0  0  0  0  0  0  0  0  0  0  0
   -0.3054   -1.4760    2.6680 H   0  0  0  0  0  0  0  0  0  0  0  0
    0.2668    1.0235   -1.6650 C   0  0  0  0  0  0  0  0  0  0  0  0
    0.1940    0.2006   -2.5674 O   0  0  0  0  0  0  0  0  0  0  0  0
    0.8294    2.2586   -1.9390 N   0  0  0  0  0  0  0  0  0  0  0  0
    0.8871    2.9309   -1.1804 H   0  0  0  0  0  0  0  0  0  0  0  0
    1.4289    2.5969   -3.2247 C   0  0  0  0  0  0  0  0  0  0  0  0
    0.6908    2.5044   -4.0285 H   0  0  0  0  0  0  0  0  0  0  0  0
    1.7967    3.6274   -3.2114 H   0  0  0  0  0  0  0  0  0  0  0  0
    2.2711    1.9315   -3.4419 H   0  0  0  0  0  0  0  0  0  0  0  0
  1  2  1  0  0  0  0
  2  3  1  0  0  0  0
  2  4  1  0  0  0  0
  2  5  1  0  0  0  0
  5  6  2  0  0  0  0
  5  7  1  0  0  0  0
  7  8  1  0  0  0  0
  7  9  1  0  0  0  0
  9 10  1  0  0  0  0
  9 11  1  0  0  0  0
  9 25  1  0  0  0  0
 11 12  1  0  0  0  0
 11 13  1  0  0  0  0
 11 14  1  0  0  0  0
 14 15  1  0  0  0  0
 14 23  2  0  0  0  0
 15 16  1  0  0  0  0
 15 17  2  0  0  0  0
 17 18  1  0  0  0  0
 17 19  1  0  0  0  0
 19 20  1  0  0  0  0
 19 21  2  0  0  0  0
 21 22  1  0  0  0  0
 21 23  1  0  0  0  0
 23 24  1  0  0  0  0
 25 26  2  0  0  0  0
 25 27  1  0  0  0  0
 27 28  1  0  0  0  0
 27 29  1  0  0  0  0
 29 30  1  0  0  0  0
 29 31  1  0  0  0  0
 29 32  1  0  0  0  0
M  END
$$$$

  -OEChem-01062216093D

 32 32  0     1  0  0  0  0  0999 V2000
   -3.7449   -2.5085    0.3587 H   0  0  0  0  0  0  0  0  0  0  0  0
   -3.5622   -1.5265   -0.0865 C   0  0  0  0  0  0  0  0  0  0  0  0
   -4.2035   -0.7926    0.4069 H   0  0  0  0  0  0  0  0  0  0  0  0
   -3.8156   -1.5689   -1.1486 H   0  0  0  0  0  0  0  0  0  0  0  0
   -2.1055   -1.1368    0.0825 C   0  0  0  0  0  0  0  0  0  0  0  0
   -1.3322   -1.9583    0.5416 O   0  0  0  0  0  0  0  0  0  0  0  0
   -1.6932    0.0861   -0.4104 N   0  0  0  0  0  0  0  0  0  0  0  0
   -2.3932    0.5700   -0.9649 H   0  0  0  0  0  0  0  0  0  0  0  0
   -0.3836    0.7677   -0.2859 C   0  0  1  0  0  0  0  0  0  0  0  0
   -0.6620    1.7695    0.0531 H   0  0  0  0  0  0  0  0  0  0  0  0
    0.6527    0.3064    0.7709 C   0  0  0  0  0  0  0  0  0  0  0  0
    0.8739   -0.7561    0.6323 H   0  0  0  0  0  0  0  0  0  0  0  0
    1.5958    0.8386    0.6152 H   0  0  0  0  0  0  0  0  0  0  0  0
    0.1913    0.5678    2.1928 C   0  0  0  0  0  0  0  0  0  0  0  0
    0.3374    1.8573    2.7320 C   0  0  0  0  0  0  0  0  0  0  0  0
    0.7326    2.6613    2.1200 H   0  0  0  0  0  0  0  0  0  0  0  0
   -0.0294    2.1304    4.0543 C   0  0  0  0  0  0  0  0  0  0  0  0
    0.0758    3.1353    4.4522 H   0  0  0  0  0  0  0  0  0  0  0  0
   -0.5246    1.1075    4.8665 C   0  0  0  0  0  0  0  0  0  0  0  0
   -0.8080    1.3149    5.8942 H   0  0  0  0  0  0  0  0  0  0  0  0
   -0.6368   -0.1885    4.3573 C   0  0  0  0  0  0  0  0  0  0  0  0
   -0.9992   -0.9939    4.9893 H   0  0  0  0  0  0  0  0  0  0  0  0
   -0.2686   -0.4570    3.0349 C   0  0  0  0  0  0  0  0  0  0  0  0
   -0.3267   -1.4796    2.6782 H   0  0  0  0  0  0  0  0  0  0  0  0
    0.2718    1.0292   -1.6598 C   0  0  0  0  0  0  0  0  0  0  0  0
   -0.0548    0.3895   -2.6513 O   0  0  0  0  0  0  0  0  0  0  0  0
    1.1037    2.1234   -1.8271 N   0  0  0  0  0  0  0  0  0  0  0  0
    1.3609    2.6518   -0.9991 H   0  0  0  0  0  0  0  0  0  0  0  0
    1.7040    2.4855   -3.1060 C   0  0  0  0  0  0  0  0  0  0  0  0
    0.9271    2.6871   -3.8510 H   0  0  0  0  0  0  0  0  0  0  0  0
    2.3169    3.3852   -2.9956 H   0  0  0  0  0  0  0  0  0  0  0  0
    2.3421    1.6746   -3.4727 H   0  0  0  0  0  0  0  0  0  0  0  0
  1  2  1  0  0  0  0
  2  3  1  0  0  0  0
  2  4  1  0  0  0  0
  2  5  1  0  0  0  0
  5  6  2  0  0  0  0
  5  7  1  0  0  0  0
  7  8  1  0  0  0  0
  7  9  1  0  0  0  0
  9 10  1  0  0  0  0
  9 11  1  0  0  0  0
  9 25  1  0  0  0  0
 11 12  1  0  0  0  0
 11 13  1  0  0  0  0
 11 14  1  0  0  0  0
 14 15  1  0  0  0  0
 14 23  2  0  0  0  0
 15 16  1  0  0  0  0
 15 17  2  0  0  0  0
 17 18  1  0  0  0  0
 17 19  1  0  0  0  0
 19 20  1  0  0  0  0
 19 21  2  0  0  0  0
 21 22  1  0  0  0  0
 21 23  1  0  0  0  0
 23 24  1  0  0  0  0
 25 26  2  0  0  0  0
 25 27  1  0  0  0  0
 27 28  1  0  0  0  0
 27 29  1  0  0  0  0
 29 30  1  0  0  0  0
 29 31  1  0  0  0  0
 29 32  1  0  0  0  0
M  END
$$$$

  -OEChem-01062216093D

 32 32  0     1  0  0  0  0  0999 V2000
   -3.7402   -2.4932    0.3599 H   0  0  0  0  0  0  0  0  0  0  0  0
   -3.5500   -1.5155   -0.0919 C   0  0  0  0  0  0  0  0  0  0  0  0
   -4.1947   -0.7755    0.3881 H   0  0  0  0  0  0  0  0  0  0  0  0
   -3.7920   -1.5659   -1.1564 H   0  0  0  0  0  0  0  0  0  0  0  0
   -2.0937   -1.1291    0.0882 C   0  0  0  0  0  0  0  0  0  0  0  0
   -1.3213   -1.9597    0.5330 O   0  0  0  0  0  0  0  0  0  0  0  0
   -1.6759    0.0963   -0.3931 N   0  0  0  0  0  0  0  0  0  0  0  0
   -2.3642    0.5771   -0.9657 H   0  0  0  0  0  0  0  0  0  0  0  0
   -0.3631    0.7722   -0.2698 C   0  0  1  0  0  0  0  0  0  0  0  0
   -0.6308    1.7754    0.0732 H   0  0  0  0  0  0  0  0  0  0  0  0
    0.6648    0.2951    0.7913 C   0  0  0  0  0  0  0  0  0  0  0  0
    0.8771   -0.7689    0.6505 H   0  0  0  0  0  0  0  0  0  0  0  0
    1.6152    0.8174    0.6496 H   0  0  0  0  0  0  0  0  0  0  0  0
    0.1964    0.5568    2.2113 C   0  0  0  0  0  0  0  0  0  0  0  0
    0.3531    1.8437    2.7545 C   0  0  0  0  0  0  0  0  0  0  0  0
    0.7631    2.6449    2.1480 H   0  0  0  0  0  0  0  0  0  0  0  0
   -0.0223    2.1183    4.0740 C   0  0  0  0  0  0  0  0  0  0  0  0
    0.0919    3.1209    4.4756 H   0  0  0  0  0  0  0  0  0  0  0  0
   -0.5386    1.1003    4.8790 C   0  0  0  0  0  0  0  0  0  0  0  0
   -0.8292    1.3091    5.9043 H   0  0  0  0  0  0  0  0  0  0  0  0
   -0.6636   -0.1928    4.3659 C   0  0  0  0  0  0  0  0  0  0  0  0
   -1.0442   -0.9943    4.9921 H   0  0  0  0  0  0  0  0  0  0  0  0
   -0.2859   -0.4638    3.0466 C   0  0  0  0  0  0  0  0  0  0  0  0
   -0.3569   -1.4849    2.6880 H   0  0  0  0  0  0  0  0  0  0  0  0
    0.2778    1.0412   -1.6513 C   0  0  0  0  0  0  0  0  0  0  0  0
   -0.2444    0.6264   -2.6792 O   0  0  0  0  0  0  0  0  0  0  0  0
    1.3381    1.9242   -1.7683 N   0  0  0  0  0  0  0  0  0  0  0  0
    1.7534    2.2791   -0.9126 H   0  0  0  0  0  0  0  0  0  0  0  0
    1.9399    2.2905   -3.0452 C   0  0  0  0  0  0  0  0  0  0  0  0
    1.1970    2.7591   -3.6993 H   0  0  0  0  0  0  0  0  0  0  0  0
    2.7575    3.0006   -2.8882 H   0  0  0  0  0  0  0  0  0  0  0  0
    2.3426    1.4041   -3.5468 H   0  0  0  0  0  0  0  0  0  0  0  0
  1  2  1  0  0  0  0
  2  3  1  0  0  0  0
  2  4  1  0  0  0  0
  2  5  1  0  0  0  0
  5  6  2  0  0  0  0
  5  7  1  0  0  0  0
  7  8  1  0  0  0  0
  7  9  1  0  0  0  0
  9 10  1  0  0  0  0
  9 11  1  0  0  0  0
  9 25  1  0  0  0  0
 11 12  1  0  0  0  0
 11 13  1  0  0  0  0
 11 14  1  0  0  0  0
 14 15  1  0  0  0  0
 14 23  2  0  0  0  0
 15 16  1  0  0  0  0
 15 17  2  0  0  0  0
 17 18  1  0  0  0  0
 17 19  1  0  0  0  0
 19 20  1  0  0  0  0
 19 21  2  0  0  0  0
 21 22  1  0  0  0  0
 21 23  1  0  0  0  0
 23 24  1  0  0  0  0
 25 26  2  0  0  0  0
 25 27  1  0  0  0  0
 27 28  1  0  0  0  0
 27 29  1  0  0  0  0
 29 30  1  0  0  0  0
 29 31  1  0  0  0  0
 29 32  1  0  0  0  0
M  END
$$$$

  -OEChem-01062216093D

 32 32  0     1  0  0  0  0  0999 V2000
   -1.4509   -1.8529   -0.7056 H   0  0  0  0  0  0  0  0  0  0  0  0
   -2.4220   -1.7101   -0.2321 C   0  0  0  0  0  0  0  0  0  0  0  0
   -2.5267   -2.4075    0.6016 H   0  0  0  0  0  0  0  0  0  0  0  0
   -3.1941   -1.9339   -0.9727 H   0  0  0  0  0  0  0  0  0  0  0  0
   -2.5991   -0.2790    0.2528 C   0  0  0  0  0  0  0  0  0  0  0  0
   -3.6640    0.0294    0.7565 O   0  0  0  0  0  0  0  0  0  0  0  0
   -1.9103    0.7705   -0.3019 N   0  0  0  0  0  0  0  0  0  0  0  0
   -2.4978    1.6011   -0.3092 H   0  0  0  0  0  0  0  0  0  0  0  0
   -0.4576    1.0598   -0.2498 C   0  0  1  0  0  0  0  0  0  0  0  0
   -0.3806    1.9773    0.3414 H   0  0  0  0  0  0  0  0  0  0  0  0
    0.4763    0.0481    0.4703 C   0  0  0  0  0  0  0  0  0  0  0  0
    0.3714   -0.9440    0.0274 H   0  0  0  0  0  0  0  0  0  0  0  0
    1.5210    0.3360    0.3244 H   0  0  0  0  0  0  0  0  0  0  0  0
    0.2311   -0.0103    1.9635 C   0  0  0  0  0  0  0  0  0  0  0  0
    0.7961    0.9723    2.7933 C   0  0  0  0  0  0  0  0  0  0  0  0
    1.3593    1.7943    2.3627 H   0  0  0  0  0  0  0  0  0  0  0  0
    0.6280    0.9220    4.1811 C   0  0  0  0  0  0  0  0  0  0  0  0
    1.0523    1.6989    4.8102 H   0  0  0  0  0  0  0  0  0  0  0  0
   -0.0868   -0.1290    4.7605 C   0  0  0  0  0  0  0  0  0  0  0  0
   -0.2230   -0.1681    5.8375 H   0  0  0  0  0  0  0  0  0  0  0  0
   -0.6157   -1.1372    3.9513 C   0  0  0  0  0  0  0  0  0  0  0  0
   -1.1556   -1.9656    4.4006 H   0  0  0  0  0  0  0  0  0  0  0  0
   -0.4436   -1.0847    2.5642 C   0  0  0  0  0  0  0  0  0  0  0  0
   -0.8282   -1.9001    1.9649 H   0  0  0  0  0  0  0  0  0  0  0  0
    0.0933    1.4634   -1.6431 C   0  0  0  0  0  0  0  0  0  0  0  0
   -0.6458    1.5460   -2.6151 O   0  0  0  0  0  0  0  0  0  0  0  0
    1.4309    1.7781   -1.8217 N   0  0  0  0  0  0  0  0  0  0  0  0
    2.0390    1.7478   -1.0096 H   0  0  0  0  0  0  0  0  0  0  0  0
    1.9918    2.1951   -3.1023 C   0  0  0  0  0  0  0  0  0  0  0  0
    1.5159    3.1196   -3.4460 H   0  0  0  0  0  0  0  0  0  0  0  0
    3.0667    2.3750   -3.0050 H   0  0  0  0  0  0  0  0  0  0  0  0
    1.8393    1.4181   -3.8588 H   0  0  0  0  0  0  0  0  0  0  0  0
  1  2  1  0  0  0  0
  2  3  1  0  0  0  0
  2  4  1  0  0  0  0
  2  5  1  0  0  0  0
  5  6  2  0  0  0  0
  5  7  1  0  0  0  0
  7  8  1  0  0  0  0
  7  9  1  0  0  0  0
  9 10  1  0  0  0  0
  9 11  1  0  0  0  0
  9 25  1  0  0  0  0
 11 12  1  0  0  0  0
 11 13  1  0  0  0  0
 11 14  1  0  0  0  0
 14 15  1  0  0  0  0
 14 23  2  0  0  0  0
 15 16  1  0  0  0  0
 15 17  2  0  0  0  0
 17 18  1  0  0  0  0
 17 19  1  0  0  0  0
 19 20  1  0  0  0  0
 19 21  2  0  0  0  0
 21 22  1  0  0  0  0
 21 23  1  0  0  0  0
 23 24  1  0  0  0  0
 25 26  2  0  0  0  0
 25 27  1  0  0  0  0
 27 28  1  0  0  0  0
 27 29  1  0  0  0  0
 29 30  1  0  0  0  0
 29 31  1  0  0  0  0
 29 32  1  0  0  0  0
M  END
$$$$

  -OEChem-01062216093D

 32 32  0     1  0  0  0  0  0999 V2000
   -1.4261   -1.8386   -0.7493 H   0  0  0  0  0  0  0  0  0  0  0  0
   -2.3892   -1.7078   -0.2564 C   0  0  0  0  0  0  0  0  0  0  0  0
   -2.4694   -2.4060    0.5790 H   0  0  0  0  0  0  0  0  0  0  0  0
   -3.1727   -1.9422   -0.9817 H   0  0  0  0  0  0  0  0  0  0  0  0
   -2.5742   -0.2780    0.2299 C   0  0  0  0  0  0  0  0  0  0  0  0
   -3.6504    0.0303    0.7085 O   0  0  0  0  0  0  0  0  0  0  0  0
   -1.8664    0.7705   -0.3034 N   0  0  0  0  0  0  0  0  0  0  0  0
   -2.4434    1.6089   -0.3199 H   0  0  0  0  0  0  0  0  0  0  0  0
   -0.4114    1.0417   -0.2377 C   0  0  1  0  0  0  0  0  0  0  0  0
   -0.3280    1.9574    0.3558 H   0  0  0  0  0  0  0  0  0  0  0  0
    0.5016    0.0220    0.4993 C   0  0  0  0  0  0  0  0  0  0  0  0
    0.3912   -0.9722    0.0621 H   0  0  0  0  0  0  0  0  0  0  0  0
    1.5513    0.2995    0.3720 H   0  0  0  0  0  0  0  0  0  0  0  0
    0.2377   -0.0222    1.9896 C   0  0  0  0  0  0  0  0  0  0  0  0
    0.8060    0.9593    2.8186 C   0  0  0  0  0  0  0  0  0  0  0  0
    1.3848    1.7708    2.3881 H   0  0  0  0  0  0  0  0  0  0  0  0
    0.6218    0.9215    4.2047 C   0  0  0  0  0  0  0  0  0  0  0  0
    1.0492    1.6981    4.8323 H   0  0  0  0  0  0  0  0  0  0  0  0
   -0.1118   -0.1167    4.7836 C   0  0  0  0  0  0  0  0  0  0  0  0
   -0.2587   -0.1472    5.8594 H   0  0  0  0  0  0  0  0  0  0  0  0
   -0.6451   -1.1234    3.9755 C   0  0  0  0  0  0  0  0  0  0  0  0
   -1.1995   -1.9423    4.4246 H   0  0  0  0  0  0  0  0  0  0  0  0
   -0.4579   -1.0828    2.5903 C   0  0  0  0  0  0  0  0  0  0  0  0
   -0.8462   -1.8975    1.9932 H   0  0  0  0  0  0  0  0  0  0  0  0
    0.1395    1.4585   -1.6284 C   0  0  0  0  0  0  0  0  0  0  0  0
   -0.6197    1.8526   -2.5040 O   0  0  0  0  0  0  0  0  0  0  0  0
    1.4974    1.4694   -1.9053 N   0  0  0  0  0  0  0  0  0  0  0  0
    2.1347    1.1764   -1.1721 H   0  0  0  0  0  0  0  0  0  0  0  0
    2.0525    1.8993   -3.1842 C   0  0  0  0  0  0  0  0  0  0  0  0
    1.8058    2.9491   -3.3752 H   0  0  0  0  0  0  0  0  0  0  0  0
    3.1417    1.7956   -3.1778 H   0  0  0  0  0  0  0  0  0  0  0  0
    1.6528    1.2891   -4.0010 H   0  0  0  0  0  0  0  0  0  0  0  0
  1  2  1  0  0  0  0
  2  3  1  0  0  0  0
  2  4  1  0  0  0  0
  2  5  1  0  0  0  0
  5  6  2  0  0  0  0
  5  7  1  0  0  0  0
  7  8  1  0  0  0  0
  7  9  1  0  0  0  0
  9 10  1  0  0  0  0
  9 11  1  0  0  0  0
  9 25  1  0  0  0  0
 11 12  1  0  0  0  0
 11 13  1  0  0  0  0
 11 14  1  0  0  0  0
 14 15  1  0  0  0  0
 14 23  2  0  0  0  0
 15 16  1  0  0  0  0
 15 17  2  0  0  0  0
 17 18  1  0  0  0  0
 17 19  1  0  0  0  0
 19 20  1  0  0  0  0
 19 21  2  0  0  0  0
 21 22  1  0  0  0  0
 21 23  1  0  0  0  0
 23 24  1  0  0  0  0
 25 26  2  0  0  0  0
 25 27  1  0  0  0  0
 27 28  1  0  0  0  0
 27 29  1  0  0  0  0
 29 30  1  0  0  0  0
 29 31  1  0  0  0  0
 29 32  1  0  0  0  0
M  END
$$$$

  -OEChem-01062216093D

 32 32  0     1  0  0  0  0  0999 V2000
   -1.4057   -1.8252   -0.7521 H   0  0  0  0  0  0  0  0  0  0  0  0
   -2.3718   -1.6892   -0.2664 C   0  0  0  0  0  0  0  0  0  0  0  0
   -2.4597   -2.3808    0.5735 H   0  0  0  0  0  0  0  0  0  0  0  0
   -3.1509   -1.9282   -0.9948 H   0  0  0  0  0  0  0  0  0  0  0  0
   -2.5588   -0.2552    0.2068 C   0  0  0  0  0  0  0  0  0  0  0  0
   -3.6452    0.0630    0.6546 O   0  0  0  0  0  0  0  0  0  0  0  0
   -1.8276    0.7865   -0.3086 N   0  0  0  0  0  0  0  0  0  0  0  0
   -2.3898    1.6354   -0.3273 H   0  0  0  0  0  0  0  0  0  0  0  0
   -0.3701    1.0342   -0.2237 C   0  0  1  0  0  0  0  0  0  0  0  0
   -0.2806    1.9481    0.3723 H   0  0  0  0  0  0  0  0  0  0  0  0
    0.5254    0.0066    0.5227 C   0  0  0  0  0  0  0  0  0  0  0  0
    0.4143   -0.9875    0.0851 H   0  0  0  0  0  0  0  0  0  0  0  0
    1.5775    0.2823    0.4072 H   0  0  0  0  0  0  0  0  0  0  0  0
    0.2464   -0.0339    2.0102 C   0  0  0  0  0  0  0  0  0  0  0  0
    0.8154    0.9422    2.8450 C   0  0  0  0  0  0  0  0  0  0  0  0
    1.4050    1.7488    2.4197 H   0  0  0  0  0  0  0  0  0  0  0  0
    0.6186    0.9045    4.2293 C   0  0  0  0  0  0  0  0  0  0  0  0
    1.0467    1.6776    4.8606 H   0  0  0  0  0  0  0  0  0  0  0  0
   -0.1278   -0.1286    4.8012 C   0  0  0  0  0  0  0  0  0  0  0  0
   -0.2834   -0.1591    5.8758 H   0  0  0  0  0  0  0  0  0  0  0  0
   -0.6629   -1.1300    3.9874 C   0  0  0  0  0  0  0  0  0  0  0  0
   -1.2285   -1.9444    4.4307 H   0  0  0  0  0  0  0  0  0  0  0  0
   -0.4633   -1.0892    2.6037 C   0  0  0  0  0  0  0  0  0  0  0  0
   -0.8523   -1.9006    2.0026 H   0  0  0  0  0  0  0  0  0  0  0  0
    0.1878    1.4530   -1.6095 C   0  0  0  0  0  0  0  0  0  0  0  0
   -0.5062    2.1158   -2.3691 O   0  0  0  0  0  0  0  0  0  0  0  0
    1.4862    1.1706   -2.0032 N   0  0  0  0  0  0  0  0  0  0  0  0
    2.0625    0.6167   -1.3782 H   0  0  0  0  0  0  0  0  0  0  0  0
    2.0396    1.5740   -3.2914 C   0  0  0  0  0  0  0  0  0  0  0  0
    2.0285    2.6646   -3.3893 H   0  0  0  0  0  0  0  0  0  0  0  0
    3.0743    1.2300   -3.3828 H   0  0  0  0  0  0  0  0  0  0  0  0
    1.4577    1.1409   -4.1120 H   0  0  0  0  0  0  0  0  0  0  0  0
  1  2  1  0  0  0  0
  2  3  1  0  0  0  0
  2  4  1  0  0  0  0
  2  5  1  0  0  0  0
  5  6  2  0  0  0  0
  5  7  1  0  0  0  0
  7  8  1  0  0  0  0
  7  9  1  0  0  0  0
  9 10  1  0  0  0  0
  9 11  1  0  0  0  0
  9 25  1  0  0  0  0
 11 12  1  0  0  0  0
 11 13  1  0  0  0  0
 11 14  1  0  0  0  0
 14 15  1  0  0  0  0
 14 23  2  0  0  0  0
 15 16  1  0  0  0  0
 15 17  2  0  0  0  0
 17 18  1  0  0  0  0
 17 19  1  0  0  0  0
 19 20  1  0  0  0  0
 19 21  2  0  0  0  0
 21 22  1  0  0  0  0
 21 23  1  0  0  0  0
 23 24  1  0  0  0  0
 25 26  2  0  0  0  0
 25 27  1  0  0  0  0
 27 28  1  0  0  0  0
 27 29  1  0  0  0  0
 29 30  1  0  0  0  0
 29 31  1  0  0  0  0
 29 32  1  0  0  0  0
M  END
$$$$

  -OEChem-01062216093D

 32 32  0     1  0  0  0  0  0999 V2000
   -1.3790   -1.8424   -0.7075 H   0  0  0  0  0  0  0  0  0  0  0  0
   -2.3612   -1.6845   -0.2638 C   0  0  0  0  0  0  0  0  0  0  0  0
   -2.4947   -2.3668    0.5783 H   0  0  0  0  0  0  0  0  0  0  0  0
   -3.1141   -1.9170   -1.0214 H   0  0  0  0  0  0  0  0  0  0  0  0
   -2.5435   -0.2446    0.1926 C   0  0  0  0  0  0  0  0  0  0  0  0
   -3.6318    0.0835    0.6278 O   0  0  0  0  0  0  0  0  0  0  0  0
   -1.7993    0.7899   -0.3191 N   0  0  0  0  0  0  0  0  0  0  0  0
   -2.3502    1.6467   -0.3294 H   0  0  0  0  0  0  0  0  0  0  0  0
   -0.3415    1.0207   -0.2188 C   0  0  1  0  0  0  0  0  0  0  0  0
   -0.2481    1.9355    0.3754 H   0  0  0  0  0  0  0  0  0  0  0  0
    0.5450   -0.0068    0.5351 C   0  0  0  0  0  0  0  0  0  0  0  0
    0.4372   -1.0025    0.1010 H   0  0  0  0  0  0  0  0  0  0  0  0
    1.5970    0.2725    0.4201 H   0  0  0  0  0  0  0  0  0  0  0  0
    0.2573   -0.0427    2.0206 C   0  0  0  0  0  0  0  0  0  0  0  0
    0.8255    0.9339    2.8552 C   0  0  0  0  0  0  0  0  0  0  0  0
    1.4194    1.7378    2.4303 H   0  0  0  0  0  0  0  0  0  0  0  0
    0.6232    0.9000    4.2388 C   0  0  0  0  0  0  0  0  0  0  0  0
    1.0523    1.6725    4.8702 H   0  0  0  0  0  0  0  0  0  0  0  0
   -0.1306   -0.1283    4.8094 C   0  0  0  0  0  0  0  0  0  0  0  0
   -0.2911   -0.1553    5.8833 H   0  0  0  0  0  0  0  0  0  0  0  0
   -0.6684   -1.1282    3.9955 C   0  0  0  0  0  0  0  0  0  0  0  0
   -1.2404   -1.9385    4.4385 H   0  0  0  0  0  0  0  0  0  0  0  0
   -0.4639   -1.0913    2.6123 C   0  0  0  0  0  0  0  0  0  0  0  0
   -0.8587   -1.8997    2.0105 H   0  0  0  0  0  0  0  0  0  0  0  0
    0.2258    1.4286   -1.6002 C   0  0  0  0  0  0  0  0  0  0  0  0
   -0.3402    2.2981   -2.2491 O   0  0  0  0  0  0  0  0  0  0  0  0
    1.3930    0.8843   -2.1111 N   0  0  0  0  0  0  0  0  0  0  0  0
    1.8385    0.1397   -1.5848 H   0  0  0  0  0  0  0  0  0  0  0  0
    1.9498    1.2576   -3.4064 C   0  0  0  0  0  0  0  0  0  0  0  0
    2.1975    2.3243   -3.4238 H   0  0  0  0  0  0  0  0  0  0  0  0
    2.8628    0.6881   -3.6043 H   0  0  0  0  0  0  0  0  0  0  0  0
    1.2319    1.0495   -4.2069 H   0  0  0  0  0  0  0  0  0  0  0  0
  1  2  1  0  0  0  0
  2  3  1  0  0  0  0
  2  4  1  0  0  0  0
  2  5  1  0  0  0  0
  5  6  2  0  0  0  0
  5  7  1  0  0  0  0
  7  8  1  0  0  0  0
  7  9  1  0  0  0  0
  9 10  1  0  0  0  0
  9 11  1  0  0  0  0
  9 25  1  0  0  0  0
 11 12  1  0  0  0  0
 11 13  1  0  0  0  0
 11 14  1  0  0  0  0
 14 15  1  0  0  0  0
 14 23  2  0  0  0  0
 15 16  1  0  0  0  0
 15 17  2  0  0  0  0
 17 18  1  0  0  0  0
 17 19  1  0  0  0  0
 19 20  1  0  0  0  0
 19 21  2  0  0  0  0
 21 22  1  0  0  0  0
 21 23  1  0  0  0  0
 23 24  1  0  0  0  0
 25 26  2  0  0  0  0
 25 27  1  0  0  0  0
 27 28  1  0  0  0  0
 27 29  1  0  0  0  0
 29 30  1  0  0  0  0
 29 31  1  0  0  0  0
 29 32  1  0  0  0  0
M  END
$$$$

  -OEChem-01062216093D

 32 32  0     1  0  0  0  0  0999 V2000
   -1.3830   -1.8365   -0.7302 H   0  0  0  0  0  0  0  0  0  0  0  0
   -2.3555   -1.6793   -0.2644 C   0  0  0  0  0  0  0  0  0  0  0  0
   -2.4697   -2.3602    0.5812 H   0  0  0  0  0  0  0  0  0  0  0  0
   -3.1253   -1.9136   -1.0043 H   0  0  0  0  0  0  0  0  0  0  0  0
   -2.5265   -0.2383    0.1931 C   0  0  0  0  0  0  0  0  0  0  0  0
   -3.6112    0.0995    0.6293 O   0  0  0  0  0  0  0  0  0  0  0  0
   -1.7763    0.7887   -0.3249 N   0  0  0  0  0  0  0  0  0  0  0  0
   -2.3183    1.6514   -0.3165 H   0  0  0  0  0  0  0  0  0  0  0  0
   -0.3176    1.0066   -0.2160 C   0  0  1  0  0  0  0  0  0  0  0  0
   -0.2205    1.9237    0.3749 H   0  0  0  0  0  0  0  0  0  0  0  0
    0.5624   -0.0218    0.5415 C   0  0  0  0  0  0  0  0  0  0  0  0
    0.4465   -1.0184    0.1115 H   0  0  0  0  0  0  0  0  0  0  0  0
    1.6156    0.2526    0.4192 H   0  0  0  0  0  0  0  0  0  0  0  0
    0.2707   -0.0537    2.0265 C   0  0  0  0  0  0  0  0  0  0  0  0
    0.8403    0.9223    2.8607 C   0  0  0  0  0  0  0  0  0  0  0  0
    1.4430    1.7198    2.4360 H   0  0  0  0  0  0  0  0  0  0  0  0
    0.6269    0.8967    4.2429 C   0  0  0  0  0  0  0  0  0  0  0  0
    1.0566    1.6692    4.8740 H   0  0  0  0  0  0  0  0  0  0  0  0
   -0.1396   -0.1229    4.8126 C   0  0  0  0  0  0  0  0  0  0  0  0
   -0.3102   -0.1425    5.8852 H   0  0  0  0  0  0  0  0  0  0  0  0
   -0.6774   -1.1235    3.9996 C   0  0  0  0  0  0  0  0  0  0  0  0
   -1.2589   -1.9271    4.4421 H   0  0  0  0  0  0  0  0  0  0  0  0
   -0.4608   -1.0952    2.6181 C   0  0  0  0  0  0  0  0  0  0  0  0
   -0.8559   -1.9041    2.0174 H   0  0  0  0  0  0  0  0  0  0  0  0
    0.2624    1.3974   -1.5938 C   0  0  0  0  0  0  0  0  0  0  0  0
   -0.1359    2.4144   -2.1444 O   0  0  0  0  0  0  0  0  0  0  0  0
    1.2362    0.6384   -2.2221 N   0  0  0  0  0  0  0  0  0  0  0  0
    1.5220   -0.2272   -1.7761 H   0  0  0  0  0  0  0  0  0  0  0  0
    1.7830    0.9671   -3.5335 C   0  0  0  0  0  0  0  0  0  0  0  0
    2.2572    1.9541   -3.5142 H   0  0  0  0  0  0  0  0  0  0  0  0
    2.5356    0.2287   -3.8259 H   0  0  0  0  0  0  0  0  0  0  0  0
    0.9905    0.9716   -4.2893 H   0  0  0  0  0  0  0  0  0  0  0  0
  1  2  1  0  0  0  0
  2  3  1  0  0  0  0
  2  4  1  0  0  0  0
  2  5  1  0  0  0  0
  5  6  2  0  0  0  0
  5  7  1  0  0  0  0
  7  8  1  0  0  0  0
  7  9  1  0  0  0  0
  9 10  1  0  0  0  0
  9 11  1  0  0  0  0
  9 25  1  0  0  0  0
 11 12  1  0  0  0  0
 11 13  1  0  0  0  0
 11 14  1  0  0  0  0
 14 15  1  0  0  0  0
 14 23  2  0  0  0  0
 15 16  1  0  0  0  0
 15 17  2  0  0  0  0
 17 18  1  0  0  0  0
 17 19  1  0  0  0  0
 19 20  1  0  0  0  0
 19 21  2  0  0  0  0
 21 22  1  0  0  0  0
 21 23  1  0  0  0  0
 23 24  1  0  0  0  0
 25 26  2  0  0  0  0
 25 27  1  0  0  0  0
 27 28  1  0  0  0  0
 27 29  1  0  0  0  0
 29 30  1  0  0  0  0
 29 31  1  0  0  0  0
 29 32  1  0  0  0  0
M  END
$$$$

  -OEChem-01062216093D

 32 32  0     1  0  0  0  0  0999 V2000
   -1.3733   -1.8602   -0.6887 H   0  0  0  0  0  0  0  0  0  0  0  0
   -2.3547   -1.6841   -0.2501 C   0  0  0  0  0  0  0  0  0  0  0  0
   -2.4993   -2.3526    0.6011 H   0  0  0  0  0  0  0  0  0  0  0  0
   -3.1093   -1.9178   -1.0057 H   0  0  0  0  0  0  0  0  0  0  0  0
   -2.5187   -0.2354    0.1849 C   0  0  0  0  0  0  0  0  0  0  0  0
   -3.6061    0.1166    0.6024 O   0  0  0  0  0  0  0  0  0  0  0  0
   -1.7580    0.7801   -0.3408 N   0  0  0  0  0  0  0  0  0  0  0  0
   -2.2927    1.6475   -0.3307 H   0  0  0  0  0  0  0  0  0  0  0  0
   -0.2992    0.9880   -0.2204 C   0  0  1  0  0  0  0  0  0  0  0  0
   -0.2003    1.9088    0.3648 H   0  0  0  0  0  0  0  0  0  0  0  0
    0.5758   -0.0374    0.5451 C   0  0  0  0  0  0  0  0  0  0  0  0
    0.4616   -1.0367    0.1215 H   0  0  0  0  0  0  0  0  0  0  0  0
    1.6294    0.2356    0.4205 H   0  0  0  0  0  0  0  0  0  0  0  0
    0.2770   -0.0619    2.0286 C   0  0  0  0  0  0  0  0  0  0  0  0
    0.8442    0.9178    2.8600 C   0  0  0  0  0  0  0  0  0  0  0  0
    1.4520    1.7105    2.4336 H   0  0  0  0  0  0  0  0  0  0  0  0
    0.6222    0.9017    4.2410 C   0  0  0  0  0  0  0  0  0  0  0  0
    1.0507    1.6769    4.8698 H   0  0  0  0  0  0  0  0  0  0  0  0
   -0.1514   -0.1116    4.8121 C   0  0  0  0  0  0  0  0  0  0  0  0
   -0.3278   -0.1241    5.8837 H   0  0  0  0  0  0  0  0  0  0  0  0
   -0.6874   -1.1157    4.0022 C   0  0  0  0  0  0  0  0  0  0  0  0
   -1.2737   -1.9143    4.4472 H   0  0  0  0  0  0  0  0  0  0  0  0
   -0.4618   -1.0974    2.6218 C   0  0  0  0  0  0  0  0  0  0  0  0
   -0.8548   -1.9093    2.0236 H   0  0  0  0  0  0  0  0  0  0  0  0
    0.2963    1.3547   -1.5950 C   0  0  0  0  0  0  0  0  0  0  0  0
    0.1176    2.4769   -2.0473 O   0  0  0  0  0  0  0  0  0  0  0  0
    1.0284    0.4399   -2.3329 N   0  0  0  0  0  0  0  0  0  0  0  0
    1.0998   -0.5062   -1.9728 H   0  0  0  0  0  0  0  0  0  0  0  0
    1.5645    0.7304   -3.6575 C   0  0  0  0  0  0  0  0  0  0  0  0
    2.2592    1.5759   -3.6125 H   0  0  0  0  0  0  0  0  0  0  0  0
    2.1042   -0.1383   -4.0465 H   0  0  0  0  0  0  0  0  0  0  0  0
    0.7553    0.9758   -4.3535 H   0  0  0  0  0  0  0  0  0  0  0  0
  1  2  1  0  0  0  0
  2  3  1  0  0  0  0
  2  4  1  0  0  0  0
  2  5  1  0  0  0  0
  5  6  2  0  0  0  0
  5  7  1  0  0  0  0
  7  8  1  0  0  0  0
  7  9  1  0  0  0  0
  9 10  1  0  0  0  0
  9 11  1  0  0  0  0
  9 25  1  0  0  0  0
 11 12  1  0  0  0  0
 11 13  1  0  0  0  0
 11 14  1  0  0  0  0
 14 15  1  0  0  0  0
 14 23  2  0  0  0  0
 15 16  1  0  0  0  0
 15 17  2  0  0  0  0
 17 18  1  0  0  0  0
 17 19  1  0  0  0  0
 19 20  1  0  0  0  0
 19 21  2  0  0  0  0
 21 22  1  0  0  0  0
 21 23  1  0  0  0  0
 23 24  1  0  0  0  0
 25 26  2  0  0  0  0
 25 27  1  0  0  0  0
 27 28  1  0  0  0  0
 27 29  1  0  0  0  0
 29 30  1  0  0  0  0
 29 31  1  0  0  0  0
 29 32  1  0  0  0  0
M  END
$$$$

  -OEChem-01062216093D

 32 32  0     1  0  0  0  0  0999 V2000
   -1.3939   -1.8808   -0.6442 H   0  0  0  0  0  0  0  0  0  0  0  0
   -2.3784   -1.6783   -0.2242 C   0  0  0  0  0  0  0  0  0  0  0  0
   -2.5494   -2.3323    0.6335 H   0  0  0  0  0  0  0  0  0  0  0  0
   -3.1259   -1.9062   -0.9884 H   0  0  0  0  0  0  0  0  0  0  0  0
   -2.5199   -0.2217    0.1912 C   0  0  0  0  0  0  0  0  0  0  0  0
   -3.6009    0.1522    0.6059 O   0  0  0  0  0  0  0  0  0  0  0  0
   -1.7499    0.7769   -0.3530 N   0  0  0  0  0  0  0  0  0  0  0  0
   -2.2747    1.6502   -0.3378 H   0  0  0  0  0  0  0  0  0  0  0  0
   -0.2893    0.9707   -0.2296 C   0  0  1  0  0  0  0  0  0  0  0  0
   -0.1826    1.8964    0.3468 H   0  0  0  0  0  0  0  0  0  0  0  0
    0.5798   -0.0553    0.5398 C   0  0  0  0  0  0  0  0  0  0  0  0
    0.4607   -1.0559    0.1204 H   0  0  0  0  0  0  0  0  0  0  0  0
    1.6344    0.2120    0.4103 H   0  0  0  0  0  0  0  0  0  0  0  0
    0.2813   -0.0716    2.0232 C   0  0  0  0  0  0  0  0  0  0  0  0
    0.8541    0.9086    2.8499 C   0  0  0  0  0  0  0  0  0  0  0  0
    1.4666    1.6958    2.4197 H   0  0  0  0  0  0  0  0  0  0  0  0
    0.6320    0.9000    4.2309 C   0  0  0  0  0  0  0  0  0  0  0  0
    1.0645    1.6761    4.8557 H   0  0  0  0  0  0  0  0  0  0  0  0
   -0.1459   -0.1073    4.8068 C   0  0  0  0  0  0  0  0  0  0  0  0
   -0.3223   -0.1140    5.8785 H   0  0  0  0  0  0  0  0  0  0  0  0
   -0.6864   -1.1127    4.0016 C   0  0  0  0  0  0  0  0  0  0  0  0
   -1.2759   -1.9069    4.4503 H   0  0  0  0  0  0  0  0  0  0  0  0
   -0.4617   -1.1013    2.6210 C   0  0  0  0  0  0  0  0  0  0  0  0
   -0.8584   -1.9139    2.0261 H   0  0  0  0  0  0  0  0  0  0  0  0
    0.3188    1.3036   -1.6055 C   0  0  0  0  0  0  0  0  0  0  0  0
    0.4147    2.4700   -1.9599 O   0  0  0  0  0  0  0  0  0  0  0  0
    0.7691    0.2996   -2.4450 N   0  0  0  0  0  0  0  0  0  0  0  0
    0.5910   -0.6593   -2.1644 H   0  0  0  0  0  0  0  0  0  0  0  0
    1.2992    0.5547   -3.7791 C   0  0  0  0  0  0  0  0  0  0  0  0
    2.1758    1.2089   -3.7250 H   0  0  0  0  0  0  0  0  0  0  0  0
    1.5993   -0.3846   -4.2533 H   0  0  0  0  0  0  0  0  0  0  0  0
    0.5407    1.0327   -4.4077 H   0  0  0  0  0  0  0  0  0  0  0  0
  1  2  1  0  0  0  0
  2  3  1  0  0  0  0
  2  4  1  0  0  0  0
  2  5  1  0  0  0  0
  5  6  2  0  0  0  0
  5  7  1  0  0  0  0
  7  8  1  0  0  0  0
  7  9  1  0  0  0  0
  9 10  1  0  0  0  0
  9 11  1  0  0  0  0
  9 25  1  0  0  0  0
 11 12  1  0  0  0  0
 11 13  1  0  0  0  0
 11 14  1  0  0  0  0
 14 15  1  0  0  0  0
 14 23  2  0  0  0  0
 15 16  1  0  0  0  0
 15 17  2  0  0  0  0
 17 18  1  0  0  0  0
 17 19  1  0  0  0  0
 19 20  1  0  0  0  0
 19 21  2  0  0  0  0
 21 22  1  0  0  0  0
 21 23  1  0  0  0  0
 23 24  1  0  0  0  0
 25 26  2  0  0  0  0
 25 27  1  0  0  0  0
 27 28  1  0  0  0  0
 27 29  1  0  0  0  0
 29 30  1  0  0  0  0
 29 31  1  0  0  0  0
 29 32  1  0  0  0  0
M  END
$$$$

  -OEChem-01062216093D

 32 32  0     1  0  0  0  0  0999 V2000
   -1.4067   -1.9204   -0.5468 H   0  0  0  0  0  0  0  0  0  0  0  0
   -2.4053   -1.6869   -0.1811 C   0  0  0  0  0  0  0  0  0  0  0  0
   -2.6303   -2.3177    0.6819 H   0  0  0  0  0  0  0  0  0  0  0  0
   -3.1202   -1.9164   -0.9755 H   0  0  0  0  0  0  0  0  0  0  0  0
   -2.5366   -0.2196    0.1984 C   0  0  0  0  0  0  0  0  0  0  0  0
   -3.6178    0.1719    0.5951 O   0  0  0  0  0  0  0  0  0  0  0  0
   -1.7609    0.7650   -0.3635 N   0  0  0  0  0  0  0  0  0  0  0  0
   -2.2815    1.6409   -0.3513 H   0  0  0  0  0  0  0  0  0  0  0  0
   -0.2987    0.9531   -0.2427 C   0  0  1  0  0  0  0  0  0  0  0  0
   -0.1870    1.8838    0.3247 H   0  0  0  0  0  0  0  0  0  0  0  0
    0.5715   -0.0704    0.5266 C   0  0  0  0  0  0  0  0  0  0  0  0
    0.4546   -1.0715    0.1086 H   0  0  0  0  0  0  0  0  0  0  0  0
    1.6257    0.1968    0.3921 H   0  0  0  0  0  0  0  0  0  0  0  0
    0.2790   -0.0823    2.0113 C   0  0  0  0  0  0  0  0  0  0  0  0
    0.8572    0.9008    2.8303 C   0  0  0  0  0  0  0  0  0  0  0  0
    1.4660    1.6862    2.3914 H   0  0  0  0  0  0  0  0  0  0  0  0
    0.6475    0.8957    4.2131 C   0  0  0  0  0  0  0  0  0  0  0  0
    1.0862    1.6733    4.8316 H   0  0  0  0  0  0  0  0  0  0  0  0
   -0.1248   -0.1104    4.7986 C   0  0  0  0  0  0  0  0  0  0  0  0
   -0.2905   -0.1148    5.8720 H   0  0  0  0  0  0  0  0  0  0  0  0
   -0.6724   -1.1180    4.0006 C   0  0  0  0  0  0  0  0  0  0  0  0
   -1.2571   -1.9116    4.4567 H   0  0  0  0  0  0  0  0  0  0  0  0
   -0.4595   -1.1104    2.6180 C   0  0  0  0  0  0  0  0  0  0  0  0
   -0.8605   -1.9254    2.0294 H   0  0  0  0  0  0  0  0  0  0  0  0
    0.3159    1.2582   -1.6207 C   0  0  0  0  0  0  0  0  0  0  0  0
    0.7179    2.3845   -1.8748 O   0  0  0  0  0  0  0  0  0  0  0  0
    0.4733    0.2504   -2.5549 N   0  0  0  0  0  0  0  0  0  0  0  0
    0.0375   -0.6428   -2.3494 H   0  0  0  0  0  0  0  0  0  0  0  0
    1.0131    0.4791   -3.8895 C   0  0  0  0  0  0  0  0  0  0  0  0
    2.0276    0.8871   -3.8280 H   0  0  0  0  0  0  0  0  0  0  0  0
    1.0534   -0.4615   -4.4473 H   0  0  0  0  0  0  0  0  0  0  0  0
    0.3824    1.1836   -4.4420 H   0  0  0  0  0  0  0  0  0  0  0  0
  1  2  1  0  0  0  0
  2  3  1  0  0  0  0
  2  4  1  0  0  0  0
  2  5  1  0  0  0  0
  5  6  2  0  0  0  0
  5  7  1  0  0  0  0
  7  8  1  0  0  0  0
  7  9  1  0  0  0  0
  9 10  1  0  0  0  0
  9 11  1  0  0  0  0
  9 25  1  0  0  0  0
 11 12  1  0  0  0  0
 11 13  1  0  0  0  0
 11 14  1  0  0  0  0
 14 15  1  0  0  0  0
 14 23  2  0  0  0  0
 15 16  1  0  0  0  0
 15 17  2  0  0  0  0
 17 18  1  0  0  0  0
 17 19  1  0  0  0  0
 19 20  1  0  0  0  0
 19 21  2  0  0  0  0
 21 22  1  0  0  0  0
 21 23  1  0  0  0  0
 23 24  1  0  0  0  0
 25 26  2  0  0  0  0
 25 27  1  0  0  0  0
 27 28  1  0  0  0  0
 27 29  1  0  0  0  0
 29 30  1  0  0  0  0
 29 31  1  0  0  0  0
 29 32  1  0  0  0  0
M  END
$$$$

  -OEChem-01062216093D

 32 32  0     1  0  0  0  0  0999 V2000
   -1.4362   -1.9518   -0.5079 H   0  0  0  0  0  0  0  0  0  0  0  0
   -2.4339   -1.7045   -0.1485 C   0  0  0  0  0  0  0  0  0  0  0  0
   -2.6673   -2.3235    0.7211 H   0  0  0  0  0  0  0  0  0  0  0  0
   -3.1484   -1.9370   -0.9423 H   0  0  0  0  0  0  0  0  0  0  0  0
   -2.5537   -0.2320    0.2151 C   0  0  0  0  0  0  0  0  0  0  0  0
   -3.6314    0.1713    0.6096 O   0  0  0  0  0  0  0  0  0  0  0  0
   -1.7793    0.7434   -0.3647 N   0  0  0  0  0  0  0  0  0  0  0  0
   -2.2963    1.6212   -0.3474 H   0  0  0  0  0  0  0  0  0  0  0  0
   -0.3145    0.9260   -0.2550 C   0  0  1  0  0  0  0  0  0  0  0  0
   -0.1957    1.8619    0.3024 H   0  0  0  0  0  0  0  0  0  0  0  0
    0.5577   -0.0943    0.5151 C   0  0  0  0  0  0  0  0  0  0  0  0
    0.4357   -1.0973    0.1035 H   0  0  0  0  0  0  0  0  0  0  0  0
    1.6118    0.1689    0.3714 H   0  0  0  0  0  0  0  0  0  0  0  0
    0.2757   -0.0939    2.0018 C   0  0  0  0  0  0  0  0  0  0  0  0
    0.8631    0.8937    2.8089 C   0  0  0  0  0  0  0  0  0  0  0  0
    1.4733    1.6720    2.3592 H   0  0  0  0  0  0  0  0  0  0  0  0
    0.6612    0.9017    4.1929 C   0  0  0  0  0  0  0  0  0  0  0  0
    1.1079    1.6824    4.8017 H   0  0  0  0  0  0  0  0  0  0  0  0
   -0.1131   -0.0953    4.7915 C   0  0  0  0  0  0  0  0  0  0  0  0
   -0.2734   -0.0891    5.8657 H   0  0  0  0  0  0  0  0  0  0  0  0
   -0.6699   -1.1071    4.0054 C   0  0  0  0  0  0  0  0  0  0  0  0
   -1.2563   -1.8936    4.4714 H   0  0  0  0  0  0  0  0  0  0  0  0
   -0.4639   -1.1132    2.6217 C   0  0  0  0  0  0  0  0  0  0  0  0
   -0.8707   -1.9320    2.0426 H   0  0  0  0  0  0  0  0  0  0  0  0
    0.3003    1.2121   -1.6363 C   0  0  0  0  0  0  0  0  0  0  0  0
    0.9919    2.2065   -1.8026 O   0  0  0  0  0  0  0  0  0  0  0  0
    0.1713    0.2898   -2.6583 N   0  0  0  0  0  0  0  0  0  0  0  0
   -0.4907   -0.4661   -2.5126 H   0  0  0  0  0  0  0  0  0  0  0  0
    0.7246    0.4949   -3.9913 C   0  0  0  0  0  0  0  0  0  0  0  0
    1.8108    0.6243   -3.9393 H   0  0  0  0  0  0  0  0  0  0  0  0
    0.5116   -0.3699   -4.6270 H   0  0  0  0  0  0  0  0  0  0  0  0
    0.2855    1.3838   -4.4562 H   0  0  0  0  0  0  0  0  0  0  0  0
  1  2  1  0  0  0  0
  2  3  1  0  0  0  0
  2  4  1  0  0  0  0
  2  5  1  0  0  0  0
  5  6  2  0  0  0  0
  5  7  1  0  0  0  0
  7  8  1  0  0  0  0
  7  9  1  0  0  0  0
  9 10  1  0  0  0  0
  9 11  1  0  0  0  0
  9 25  1  0  0  0  0
 11 12  1  0  0  0  0
 11 13  1  0  0  0  0
 11 14  1  0  0  0  0
 14 15  1  0  0  0  0
 14 23  2  0  0  0  0
 15 16  1  0  0  0  0
 15 17  2  0  0  0  0
 17 18  1  0  0  0  0
 17 19  1  0  0  0  0
 19 20  1  0  0  0  0
 19 21  2  0  0  0  0
 21 22  1  0  0  0  0
 21 23  1  0  0  0  0
 23 24  1  0  0  0  0
 25 26  2  0  0  0  0
 25 27  1  0  0  0  0
 27 28  1  0  0  0  0
 27 29  1  0  0  0  0
 29 30  1  0  0  0  0
 29 31  1  0  0  0  0
 29 32  1  0  0  0  0
M  END
$$$$

  -OEChem-01062216093D

 32 32  0     1  0  0  0  0  0999 V2000
   -1.4786   -1.9684   -0.4971 H   0  0  0  0  0  0  0  0  0  0  0  0
   -2.4681   -1.7116   -0.1215 C   0  0  0  0  0  0  0  0  0  0  0  0
   -2.6919   -2.3252    0.7543 H   0  0  0  0  0  0  0  0  0  0  0  0
   -3.1980   -1.9415   -0.9020 H   0  0  0  0  0  0  0  0  0  0  0  0
   -2.5686   -0.2366    0.2380 C   0  0  0  0  0  0  0  0  0  0  0  0
   -3.6374    0.1814    0.6411 O   0  0  0  0  0  0  0  0  0  0  0  0
   -1.7961    0.7286   -0.3607 N   0  0  0  0  0  0  0  0  0  0  0  0
   -2.3066    1.6101   -0.3322 H   0  0  0  0  0  0  0  0  0  0  0  0
   -0.3280    0.9018   -0.2651 C   0  0  1  0  0  0  0  0  0  0  0  0
   -0.1959    1.8423    0.2807 H   0  0  0  0  0  0  0  0  0  0  0  0
    0.5409   -0.1217    0.5056 C   0  0  0  0  0  0  0  0  0  0  0  0
    0.4065   -1.1258    0.1000 H   0  0  0  0  0  0  0  0  0  0  0  0
    1.5966    0.1297    0.3534 H   0  0  0  0  0  0  0  0  0  0  0  0
    0.2696   -0.1085    1.9941 C   0  0  0  0  0  0  0  0  0  0  0  0
    0.8718    0.8795    2.7895 C   0  0  0  0  0  0  0  0  0  0  0  0
    1.4854    1.6485    2.3286 H   0  0  0  0  0  0  0  0  0  0  0  0
    0.6792    0.9001    4.1747 C   0  0  0  0  0  0  0  0  0  0  0  0
    1.1363    1.6814    4.7750 H   0  0  0  0  0  0  0  0  0  0  0  0
   -0.0993   -0.0858    4.7861 C   0  0  0  0  0  0  0  0  0  0  0  0
   -0.2517   -0.0699    5.8613 H   0  0  0  0  0  0  0  0  0  0  0  0
   -0.6677   -1.1004    4.0119 C   0  0  0  0  0  0  0  0  0  0  0  0
   -1.2548   -1.8803    4.4879 H   0  0  0  0  0  0  0  0  0  0  0  0
   -0.4712   -1.1188    2.6270 C   0  0  0  0  0  0  0  0  0  0  0  0
   -0.8856   -1.9404    2.0568 H   0  0  0  0  0  0  0  0  0  0  0  0
    0.2823    1.1684   -1.6523 C   0  0  0  0  0  0  0  0  0  0  0  0
    1.1930    1.9753   -1.7732 O   0  0  0  0  0  0  0  0  0  0  0  0
   -0.1076    0.4084   -2.7390 N   0  0  0  0  0  0  0  0  0  0  0  0
   -0.9308   -0.1742   -2.6156 H   0  0  0  0  0  0  0  0  0  0  0  0
    0.4300    0.5993   -4.0801 C   0  0  0  0  0  0  0  0  0  0  0  0
    1.5176    0.4707   -4.0787 H   0  0  0  0  0  0  0  0  0  0  0  0
   -0.0021   -0.1330   -4.7689 H   0  0  0  0  0  0  0  0  0  0  0  0
    0.1945    1.6035   -4.4477 H   0  0  0  0  0  0  0  0  0  0  0  0
  1  2  1  0  0  0  0
  2  3  1  0  0  0  0
  2  4  1  0  0  0  0
  2  5  1  0  0  0  0
  5  6  2  0  0  0  0
  5  7  1  0  0  0  0
  7  8  1  0  0  0  0
  7  9  1  0  0  0  0
  9 10  1  0  0  0  0
  9 11  1  0  0  0  0
  9 25  1  0  0  0  0
 11 12  1  0  0  0  0
 11 13  1  0  0  0  0
 11 14  1  0  0  0  0
 14 15  1  0  0  0  0
 14 23  2  0  0  0  0
 15 16  1  0  0  0  0
 15 17  2  0  0  0  0
 17 18  1  0  0  0  0
 17 19  1  0  0  0  0
 19 20  1  0  0  0  0
 19 21  2  0  0  0  0
 21 22  1  0  0  0  0
 21 23  1  0  0  0  0
 23 24  1  0  0  0  0
 25 26  2  0  0  0  0
 25 27  1  0  0  0  0
 27 28  1  0  0  0  0
 27 29  1  0  0  0  0
 29 30  1  0  0  0  0
 29 31  1  0  0  0  0
 29 32  1  0  0  0  0
M  END
$$$$

  -OEChem-01062216093D

 32 32  0     1  0  0  0  0  0999 V2000
   -1.5435   -1.9719   -0.5170 H   0  0  0  0  0  0  0  0  0  0  0  0
   -2.5156   -1.7077   -0.1022 C   0  0  0  0  0  0  0  0  0  0  0  0
   -2.7114   -2.3219    0.7795 H   0  0  0  0  0  0  0  0  0  0  0  0
   -3.2767   -1.9287   -0.8547 H   0  0  0  0  0  0  0  0  0  0  0  0
   -2.5875   -0.2328    0.2641 C   0  0  0  0  0  0  0  0  0  0  0  0
   -3.6435    0.2024    0.6826 O   0  0  0  0  0  0  0  0  0  0  0  0
   -1.8118    0.7196   -0.3505 N   0  0  0  0  0  0  0  0  0  0  0  0
   -2.3086    1.6083   -0.3098 H   0  0  0  0  0  0  0  0  0  0  0  0
   -0.3388    0.8719   -0.2749 C   0  0  1  0  0  0  0  0  0  0  0  0
   -0.1848    1.8141    0.2615 H   0  0  0  0  0  0  0  0  0  0  0  0
    0.5167   -0.1626    0.4985 C   0  0  0  0  0  0  0  0  0  0  0  0
    0.3569   -1.1673    0.1037 H   0  0  0  0  0  0  0  0  0  0  0  0
    1.5768    0.0628    0.3366 H   0  0  0  0  0  0  0  0  0  0  0  0
    0.2596   -0.1296    1.9892 C   0  0  0  0  0  0  0  0  0  0  0  0
    0.8899    0.8539    2.7678 C   0  0  0  0  0  0  0  0  0  0  0  0
    1.5150    1.6047    2.2925 H   0  0  0  0  0  0  0  0  0  0  0  0
    0.7136    0.8918    4.1546 C   0  0  0  0  0  0  0  0  0  0  0  0
    1.1933    1.6697    4.7415 H   0  0  0  0  0  0  0  0  0  0  0  0
   -0.0766   -0.0730    4.7845 C   0  0  0  0  0  0  0  0  0  0  0  0
   -0.2161   -0.0442    5.8612 H   0  0  0  0  0  0  0  0  0  0  0  0
   -0.6740   -1.0835    4.0271 C   0  0  0  0  0  0  0  0  0  0  0  0
   -1.2713   -1.8469    4.5173 H   0  0  0  0  0  0  0  0  0  0  0  0
   -0.4936   -1.1191    2.6403 C   0  0  0  0  0  0  0  0  0  0  0  0
   -0.9298   -1.9380    2.0828 H   0  0  0  0  0  0  0  0  0  0  0  0
    0.2627    1.1233   -1.6707 C   0  0  0  0  0  0  0  0  0  0  0  0
    1.3239    1.7209   -1.7819 O   0  0  0  0  0  0  0  0  0  0  0  0
   -0.3464    0.6004   -2.7959 N   0  0  0  0  0  0  0  0  0  0  0  0
   -1.2603    0.1755   -2.6636 H   0  0  0  0  0  0  0  0  0  0  0  0
    0.1612    0.7928   -4.1484 C   0  0  0  0  0  0  0  0  0  0  0  0
    1.1747    0.3876   -4.2381 H   0  0  0  0  0  0  0  0  0  0  0  0
   -0.4806    0.2782   -4.8698 H   0  0  0  0  0  0  0  0  0  0  0  0
    0.1834    1.8579   -4.4016 H   0  0  0  0  0  0  0  0  0  0  0  0
  1  2  1  0  0  0  0
  2  3  1  0  0  0  0
  2  4  1  0  0  0  0
  2  5  1  0  0  0  0
  5  6  2  0  0  0  0
  5  7  1  0  0  0  0
  7  8  1  0  0  0  0
  7  9  1  0  0  0  0
  9 10  1  0  0  0  0
  9 11  1  0  0  0  0
  9 25  1  0  0  0  0
 11 12  1  0  0  0  0
 11 13  1  0  0  0  0
 11 14  1  0  0  0  0
 14 15  1  0  0  0  0
 14 23  2  0  0  0  0
 15 16  1  0  0  0  0
 15 17  2  0  0  0  0
 17 18  1  0  0  0  0
 17 19  1  0  0  0  0
 19 20  1  0  0  0  0
 19 21  2  0  0  0  0
 21 22  1  0  0  0  0
 21 23  1  0  0  0  0
 23 24  1  0  0  0  0
 25 26  2  0  0  0  0
 25 27  1  0  0  0  0
 27 28  1  0  0  0  0
 27 29  1  0  0  0  0
 29 30  1  0  0  0  0
 29 31  1  0  0  0  0
 29 32  1  0  0  0  0
M  END
$$$$

  -OEChem-01062216093D

 32 32  0     1  0  0  0  0  0999 V2000
   -1.5927   -1.9782   -0.5409 H   0  0  0  0  0  0  0  0  0  0  0  0
   -2.5492   -1.7145   -0.0898 C   0  0  0  0  0  0  0  0  0  0  0  0
   -2.7172   -2.3367    0.7918 H   0  0  0  0  0  0  0  0  0  0  0  0
   -3.3366   -1.9255   -0.8179 H   0  0  0  0  0  0  0  0  0  0  0  0
   -2.6008   -0.2420    0.2904 C   0  0  0  0  0  0  0  0  0  0  0  0
   -3.6437    0.2008    0.7333 O   0  0  0  0  0  0  0  0  0  0  0  0
   -1.8333    0.7064   -0.3399 N   0  0  0  0  0  0  0  0  0  0  0  0
   -2.3240    1.5972   -0.2796 H   0  0  0  0  0  0  0  0  0  0  0  0
   -0.3578    0.8524   -0.2860 C   0  0  1  0  0  0  0  0  0  0  0  0
   -0.1897    1.7974    0.2409 H   0  0  0  0  0  0  0  0  0  0  0  0
    0.4920   -0.1870    0.4917 C   0  0  0  0  0  0  0  0  0  0  0  0
    0.3140   -1.1927    0.1074 H   0  0  0  0  0  0  0  0  0  0  0  0
    1.5543    0.0203    0.3212 H   0  0  0  0  0  0  0  0  0  0  0  0
    0.2499   -0.1388    1.9856 C   0  0  0  0  0  0  0  0  0  0  0  0
    0.8994    0.8421    2.7522 C   0  0  0  0  0  0  0  0  0  0  0  0
    1.5301    1.5814    2.2666 H   0  0  0  0  0  0  0  0  0  0  0  0
    0.7372    0.8907    4.1408 C   0  0  0  0  0  0  0  0  0  0  0  0
    1.2320    1.6657    4.7189 H   0  0  0  0  0  0  0  0  0  0  0  0
   -0.0583   -0.0604    4.7848 C   0  0  0  0  0  0  0  0  0  0  0  0
   -0.1864   -0.0238    5.8629 H   0  0  0  0  0  0  0  0  0  0  0  0
   -0.6751   -1.0683    4.0394 C   0  0  0  0  0  0  0  0  0  0  0  0
   -1.2766   -1.8212    4.5405 H   0  0  0  0  0  0  0  0  0  0  0  0
   -0.5081   -1.1149    2.6512 C   0  0  0  0  0  0  0  0  0  0  0  0
   -0.9586   -1.9328    2.1039 H   0  0  0  0  0  0  0  0  0  0  0  0
    0.2256    1.0966   -1.6943 C   0  0  0  0  0  0  0  0  0  0  0  0
    1.3793    1.4808   -1.8265 O   0  0  0  0  0  0  0  0  0  0  0  0
   -0.5383    0.8514   -2.8205 N   0  0  0  0  0  0  0  0  0  0  0  0
   -1.5020    0.5656   -2.6661 H   0  0  0  0  0  0  0  0  0  0  0  0
   -0.0607    1.0497   -4.1832 C   0  0  0  0  0  0  0  0  0  0  0  0
    0.8403    0.4540   -4.3642 H   0  0  0  0  0  0  0  0  0  0  0  0
   -0.8271    0.7414   -4.9007 H   0  0  0  0  0  0  0  0  0  0  0  0
    0.1732    2.1050   -4.3573 H   0  0  0  0  0  0  0  0  0  0  0  0
  1  2  1  0  0  0  0
  2  3  1  0  0  0  0
  2  4  1  0  0  0  0
  2  5  1  0  0  0  0
  5  6  2  0  0  0  0
  5  7  1  0  0  0  0
  7  8  1  0  0  0  0
  7  9  1  0  0  0  0
  9 10  1  0  0  0  0
  9 11  1  0  0  0  0
  9 25  1  0  0  0  0
 11 12  1  0  0  0  0
 11 13  1  0  0  0  0
 11 14  1  0  0  0  0
 14 15  1  0  0  0  0
 14 23  2  0  0  0  0
 15 16  1  0  0  0  0
 15 17  2  0  0  0  0
 17 18  1  0  0  0  0
 17 19  1  0  0  0  0
 19 20  1  0  0  0  0
 19 21  2  0  0  0  0
 21 22  1  0  0  0  0
 21 23  1  0  0  0  0
 23 24  1  0  0  0  0
 25 26  2  0  0  0  0
 25 27  1  0  0  0  0
 27 28  1  0  0  0  0
 27 29  1  0  0  0  0
 29 30  1  0  0  0  0
 29 31  1  0  0  0  0
 29 32  1  0  0  0  0
M  END
$$$$

  -OEChem-01062216093D

 32 32  0     1  0  0  0  0  0999 V2000
   -1.6345   -1.9929   -0.5599 H   0  0  0  0  0  0  0  0  0  0  0  0
   -2.5800   -1.7320   -0.0843 C   0  0  0  0  0  0  0  0  0  0  0  0
   -2.7283   -2.3613    0.7959 H   0  0  0  0  0  0  0  0  0  0  0  0
   -3.3842   -1.9358   -0.7959 H   0  0  0  0  0  0  0  0  0  0  0  0
   -2.6201   -0.2626    0.3087 C   0  0  0  0  0  0  0  0  0  0  0  0
   -3.6520    0.1815    0.7754 O   0  0  0  0  0  0  0  0  0  0  0  0
   -1.8604    0.6884   -0.3265 N   0  0  0  0  0  0  0  0  0  0  0  0
   -2.3452    1.5801   -0.2394 H   0  0  0  0  0  0  0  0  0  0  0  0
   -0.3833    0.8279   -0.2950 C   0  0  1  0  0  0  0  0  0  0  0  0
   -0.2040    1.7721    0.2293 H   0  0  0  0  0  0  0  0  0  0  0  0
    0.4662   -0.2139    0.4829 C   0  0  0  0  0  0  0  0  0  0  0  0
    0.2744   -1.2211    0.1094 H   0  0  0  0  0  0  0  0  0  0  0  0
    1.5297   -0.0216    0.3043 H   0  0  0  0  0  0  0  0  0  0  0  0
    0.2389   -0.1483    1.9782 C   0  0  0  0  0  0  0  0  0  0  0  0
    0.9056    0.8344    2.7273 C   0  0  0  0  0  0  0  0  0  0  0  0
    1.5365    1.5633    2.2264 H   0  0  0  0  0  0  0  0  0  0  0  0
    0.7604    0.8977    4.1170 C   0  0  0  0  0  0  0  0  0  0  0  0
    1.2697    1.6734    4.6814 H   0  0  0  0  0  0  0  0  0  0  0  0
   -0.0358   -0.0402    4.7790 C   0  0  0  0  0  0  0  0  0  0  0  0
   -0.1503    0.0079    5.8580 H   0  0  0  0  0  0  0  0  0  0  0  0
   -0.6705   -1.0498    4.0507 C   0  0  0  0  0  0  0  0  0  0  0  0
   -1.2717   -1.7936    4.5655 H   0  0  0  0  0  0  0  0  0  0  0  0
   -0.5211   -1.1106    2.6612 C   0  0  0  0  0  0  0  0  0  0  0  0
   -0.9867   -1.9281    2.1261 H   0  0  0  0  0  0  0  0  0  0  0  0
    0.1799    1.0814   -1.7126 C   0  0  0  0  0  0  0  0  0  0  0  0
    1.3796    1.2456   -1.8873 O   0  0  0  0  0  0  0  0  0  0  0  0
   -0.6687    1.1505   -2.8026 N   0  0  0  0  0  0  0  0  0  0  0  0
   -1.6551    0.9787   -2.6260 H   0  0  0  0  0  0  0  0  0  0  0  0
   -0.2161    1.3779   -4.1694 C   0  0  0  0  0  0  0  0  0  0  0  0
    0.4688    0.5835   -4.4839 H   0  0  0  0  0  0  0  0  0  0  0  0
   -1.0698    1.3892   -4.8538 H   0  0  0  0  0  0  0  0  0  0  0  0
    0.3010    2.3402   -4.2463 H   0  0  0  0  0  0  0  0  0  0  0  0
  1  2  1  0  0  0  0
  2  3  1  0  0  0  0
  2  4  1  0  0  0  0
  2  5  1  0  0  0  0
  5  6  2  0  0  0  0
  5  7  1  0  0  0  0
  7  8  1  0  0  0  0
  7  9  1  0  0  0  0
  9 10  1  0  0  0  0
  9 11  1  0  0  0  0
  9 25  1  0  0  0  0
 11 12  1  0  0  0  0
 11 13  1  0  0  0  0
 11 14  1  0  0  0  0
 14 15  1  0  0  0  0
 14 23  2  0  0  0  0
 15 16  1  0  0  0  0
 15 17  2  0  0  0  0
 17 18  1  0  0  0  0
 17 19  1  0  0  0  0
 19 20  1  0  0  0  0
 19 21  2  0  0  0  0
 21 22  1  0  0  0  0
 21 23  1  0  0  0  0
 23 24  1  0  0  0  0
 25 26  2  0  0  0  0
 25 27  1  0  0  0  0
 27 28  1  0  0  0  0
 27 29  1  0  0  0  0
 29 30  1  0  0  0  0
 29 31  1  0  0  0  0
 29 32  1  0  0  0  0
M  END
$$$$

  -OEChem-01062216093D

 32 32  0     1  0  0  0  0  0999 V2000
   -1.6463   -1.9909   -0.6125 H   0  0  0  0  0  0  0  0  0  0  0  0
   -2.5788   -1.7533   -0.0999 C   0  0  0  0  0  0  0  0  0  0  0  0
   -2.6853   -2.3973    0.7757 H   0  0  0  0  0  0  0  0  0  0  0  0
   -3.4043   -1.9617   -0.7855 H   0  0  0  0  0  0  0  0  0  0  0  0
   -2.6281   -0.2893    0.3123 C   0  0  0  0  0  0  0  0  0  0  0  0
   -3.6554    0.1412    0.8020 O   0  0  0  0  0  0  0  0  0  0  0  0
   -1.8840    0.6759   -0.3197 N   0  0  0  0  0  0  0  0  0  0  0  0
   -2.3718    1.5622   -0.2037 H   0  0  0  0  0  0  0  0  0  0  0  0
   -0.4076    0.8224   -0.3004 C   0  0  1  0  0  0  0  0  0  0  0  0
   -0.2292    1.7649    0.2268 H   0  0  0  0  0  0  0  0  0  0  0  0
    0.4490   -0.2172    0.4758 C   0  0  0  0  0  0  0  0  0  0  0  0
    0.2570   -1.2255    0.1054 H   0  0  0  0  0  0  0  0  0  0  0  0
    1.5114   -0.0240    0.2941 H   0  0  0  0  0  0  0  0  0  0  0  0
    0.2297   -0.1480    1.9726 C   0  0  0  0  0  0  0  0  0  0  0  0
    0.8979    0.8372    2.7173 C   0  0  0  0  0  0  0  0  0  0  0  0
    1.5265    1.5657    2.2132 H   0  0  0  0  0  0  0  0  0  0  0  0
    0.7573    0.9041    4.1074 C   0  0  0  0  0  0  0  0  0  0  0  0
    1.2669    1.6821    4.6683 H   0  0  0  0  0  0  0  0  0  0  0  0
   -0.0345   -0.0336    4.7748 C   0  0  0  0  0  0  0  0  0  0  0  0
   -0.1459    0.0168    5.8539 H   0  0  0  0  0  0  0  0  0  0  0  0
   -0.6688   -1.0467    4.0516 C   0  0  0  0  0  0  0  0  0  0  0  0
   -1.2656   -1.7911    4.5708 H   0  0  0  0  0  0  0  0  0  0  0  0
   -0.5249   -1.1104    2.6617 C   0  0  0  0  0  0  0  0  0  0  0  0
   -0.9905   -1.9309    2.1313 H   0  0  0  0  0  0  0  0  0  0  0  0
    0.1335    1.0962   -1.7251 C   0  0  0  0  0  0  0  0  0  0  0  0
    1.3292    1.0211   -1.9735 O   0  0  0  0  0  0  0  0  0  0  0  0
   -0.7295    1.4779   -2.7369 N   0  0  0  0  0  0  0  0  0  0  0  0
   -1.7228    1.4472   -2.5239 H   0  0  0  0  0  0  0  0  0  0  0  0
   -0.3062    1.7264   -4.1098 C   0  0  0  0  0  0  0  0  0  0  0  0
    0.1391    0.8245   -4.5429 H   0  0  0  0  0  0  0  0  0  0  0  0
   -1.1641    2.0182   -4.7234 H   0  0  0  0  0  0  0  0  0  0  0  0
    0.4316    2.5349   -4.1429 H   0  0  0  0  0  0  0  0  0  0  0  0
  1  2  1  0  0  0  0
  2  3  1  0  0  0  0
  2  4  1  0  0  0  0
  2  5  1  0  0  0  0
  5  6  2  0  0  0  0
  5  7  1  0  0  0  0
  7  8  1  0  0  0  0
  7  9  1  0  0  0  0
  9 10  1  0  0  0  0
  9 11  1  0  0  0  0
  9 25  1  0  0  0  0
 11 12  1  0  0  0  0
 11 13  1  0  0  0  0
 11 14  1  0  0  0  0
 14 15  1  0  0  0  0
 14 23  2  0  0  0  0
 15 16  1  0  0  0  0
 15 17  2  0  0  0  0
 17 18  1  0  0  0  0
 17 19  1  0  0  0  0
 19 20  1  0  0  0  0
 19 21  2  0  0  0  0
 21 22  1  0  0  0  0
 21 23  1  0  0  0  0
 23 24  1  0  0  0  0
 25 26  2  0  0  0  0
 25 27  1  0  0  0  0
 27 28  1  0  0  0  0
 27 29  1  0  0  0  0
 29 30  1  0  0  0  0
 29 31  1  0  0  0  0
 29 32  1  0  0  0  0
M  END
$$$$

  -OEChem-01062216093D

 32 32  0     1  0  0  0  0  0999 V2000
   -1.6453   -1.9909   -0.6437 H   0  0  0  0  0  0  0  0  0  0  0  0
   -2.5740   -1.7727   -0.1158 C   0  0  0  0  0  0  0  0  0  0  0  0
   -2.6577   -2.4248    0.7559 H   0  0  0  0  0  0  0  0  0  0  0  0
   -3.4057   -1.9885   -0.7913 H   0  0  0  0  0  0  0  0  0  0  0  0
   -2.6400   -0.3130    0.3087 C   0  0  0  0  0  0  0  0  0  0  0  0
   -3.6682    0.1015    0.8105 O   0  0  0  0  0  0  0  0  0  0  0  0
   -1.9098    0.6671   -0.3162 N   0  0  0  0  0  0  0  0  0  0  0  0
   -2.4067    1.5452   -0.1813 H   0  0  0  0  0  0  0  0  0  0  0  0
   -0.4353    0.8265   -0.3033 C   0  0  1  0  0  0  0  0  0  0  0  0
   -0.2629    1.7665    0.2300 H   0  0  0  0  0  0  0  0  0  0  0  0
    0.4350   -0.2064    0.4667 C   0  0  0  0  0  0  0  0  0  0  0  0
    0.2506   -1.2161    0.0951 H   0  0  0  0  0  0  0  0  0  0  0  0
    1.4946   -0.0015    0.2801 H   0  0  0  0  0  0  0  0  0  0  0  0
    0.2225   -0.1417    1.9648 C   0  0  0  0  0  0  0  0  0  0  0  0
    0.8852    0.8485    2.7084 C   0  0  0  0  0  0  0  0  0  0  0  0
    1.5072    1.5824    2.2040 H   0  0  0  0  0  0  0  0  0  0  0  0
    0.7485    0.9131    4.0990 C   0  0  0  0  0  0  0  0  0  0  0  0
    1.2523    1.6953    4.6592 H   0  0  0  0  0  0  0  0  0  0  0  0
   -0.0326   -0.0323    4.7681 C   0  0  0  0  0  0  0  0  0  0  0  0
   -0.1402    0.0151    5.8478 H   0  0  0  0  0  0  0  0  0  0  0  0
   -0.6619   -1.0490    4.0458 C   0  0  0  0  0  0  0  0  0  0  0  0
   -1.2525   -1.7978    4.5656 H   0  0  0  0  0  0  0  0  0  0  0  0
   -0.5223   -1.1104    2.6553 C   0  0  0  0  0  0  0  0  0  0  0  0
   -0.9838   -1.9334    2.1250 H   0  0  0  0  0  0  0  0  0  0  0  0
    0.0887    1.1218   -1.7304 C   0  0  0  0  0  0  0  0  0  0  0  0
    1.2228    0.8133   -2.0712 O   0  0  0  0  0  0  0  0  0  0  0  0
   -0.7117    1.7948   -2.6366 N   0  0  0  0  0  0  0  0  0  0  0  0
   -1.6837    1.9298   -2.3741 H   0  0  0  0  0  0  0  0  0  0  0  0
   -0.3100    2.0711   -4.0107 C   0  0  0  0  0  0  0  0  0  0  0  0
   -0.1078    1.1373   -4.5456 H   0  0  0  0  0  0  0  0  0  0  0  0
   -1.1056    2.6073   -4.5369 H   0  0  0  0  0  0  0  0  0  0  0  0
    0.5929    2.6906   -4.0282 H   0  0  0  0  0  0  0  0  0  0  0  0
  1  2  1  0  0  0  0
  2  3  1  0  0  0  0
  2  4  1  0  0  0  0
  2  5  1  0  0  0  0
  5  6  2  0  0  0  0
  5  7  1  0  0  0  0
  7  8  1  0  0  0  0
  7  9  1  0  0  0  0
  9 10  1  0  0  0  0
  9 11  1  0  0  0  0
  9 25  1  0  0  0  0
 11 12  1  0  0  0  0
 11 13  1  0  0  0  0
 11 14  1  0  0  0  0
 14 15  1  0  0  0  0
 14 23  2  0  0  0  0
 15 16  1  0  0  0  0
 15 17  2  0  0  0  0
 17 18  1  0  0  0  0
 17 19  1  0  0  0  0
 19 20  1  0  0  0  0
 19 21  2  0  0  0  0
 21 22  1  0  0  0  0
 21 23  1  0  0  0  0
 23 24  1  0  0  0  0
 25 26  2  0  0  0  0
 25 27  1  0  0  0  0
 27 28  1  0  0  0  0
 27 29  1  0  0  0  0
 29 30  1  0  0  0  0
 29 31  1  0  0  0  0
 29 32  1  0  0  0  0
M  END
$$$$

  -OEChem-01062216093D

 32 32  0     1  0  0  0  0  0999 V2000
   -1.6155   -1.9955   -0.6655 H   0  0  0  0  0  0  0  0  0  0  0  0
   -2.5502   -1.8004   -0.1387 C   0  0  0  0  0  0  0  0  0  0  0  0
   -2.6258   -2.4661    0.7233 H   0  0  0  0  0  0  0  0  0  0  0  0
   -3.3745   -2.0207   -0.8216 H   0  0  0  0  0  0  0  0  0  0  0  0
   -2.6426   -0.3481    0.3053 C   0  0  0  0  0  0  0  0  0  0  0  0
   -3.6702    0.0387    0.8305 O   0  0  0  0  0  0  0  0  0  0  0  0
   -1.9378    0.6524   -0.3159 N   0  0  0  0  0  0  0  0  0  0  0  0
   -2.4543    1.5177   -0.1767 H   0  0  0  0  0  0  0  0  0  0  0  0
   -0.4674    0.8380   -0.3043 C   0  0  1  0  0  0  0  0  0  0  0  0
   -0.3111    1.7769    0.2356 H   0  0  0  0  0  0  0  0  0  0  0  0
    0.4263   -0.1796    0.4584 C   0  0  0  0  0  0  0  0  0  0  0  0
    0.2631   -1.1916    0.0830 H   0  0  0  0  0  0  0  0  0  0  0  0
    1.4795    0.0510    0.2647 H   0  0  0  0  0  0  0  0  0  0  0  0
    0.2180   -0.1256    1.9580 C   0  0  0  0  0  0  0  0  0  0  0  0
    0.8635    0.8747    2.7031 C   0  0  0  0  0  0  0  0  0  0  0  0
    1.4721    1.6203    2.1999 H   0  0  0  0  0  0  0  0  0  0  0  0
    0.7279    0.9332    4.0940 C   0  0  0  0  0  0  0  0  0  0  0  0
    1.2213    1.7207    4.6560 H   0  0  0  0  0  0  0  0  0  0  0  0
   -0.0387   -0.0248    4.7617 C   0  0  0  0  0  0  0  0  0  0  0  0
   -0.1467    0.0193    5.8415 H   0  0  0  0  0  0  0  0  0  0  0  0
   -0.6535   -1.0491    4.0376 C   0  0  0  0  0  0  0  0  0  0  0  0
   -1.2340   -1.8066    4.5560 H   0  0  0  0  0  0  0  0  0  0  0  0
   -0.5131   -1.1060    2.6468 C   0  0  0  0  0  0  0  0  0  0  0  0
   -0.9651   -1.9329    2.1141 H   0  0  0  0  0  0  0  0  0  0  0  0
    0.0441    1.1526   -1.7300 C   0  0  0  0  0  0  0  0  0  0  0  0
    1.0585    0.6314   -2.1741 O   0  0  0  0  0  0  0  0  0  0  0  0
   -0.6274    2.0716   -2.5172 N   0  0  0  0  0  0  0  0  0  0  0  0
   -1.5228    2.4063   -2.1748 H   0  0  0  0  0  0  0  0  0  0  0  0
   -0.2357    2.3907   -3.8851 C   0  0  0  0  0  0  0  0  0  0  0  0
   -0.2830    1.4969   -4.5159 H   0  0  0  0  0  0  0  0  0  0  0  0
   -0.9064    3.1469   -4.3043 H   0  0  0  0  0  0  0  0  0  0  0  0
    0.7856    2.7852   -3.9088 H   0  0  0  0  0  0  0  0  0  0  0  0
  1  2  1  0  0  0  0
  2  3  1  0  0  0  0
  2  4  1  0  0  0  0
  2  5  1  0  0  0  0
  5  6  2  0  0  0  0
  5  7  1  0  0  0  0
  7  8  1  0  0  0  0
  7  9  1  0  0  0  0
  9 10  1  0  0  0  0
  9 11  1  0  0  0  0
  9 25  1  0  0  0  0
 11 12  1  0  0  0  0
 11 13  1  0  0  0  0
 11 14  1  0  0  0  0
 14 15  1  0  0  0  0
 14 23  2  0  0  0  0
 15 16  1  0  0  0  0
 15 17  2  0  0  0  0
 17 18  1  0  0  0  0
 17 19  1  0  0  0  0
 19 20  1  0  0  0  0
 19 21  2  0  0  0  0
 21 22  1  0  0  0  0
 21 23  1  0  0  0  0
 23 24  1  0  0  0  0
 25 26  2  0  0  0  0
 25 27  1  0  0  0  0
 27 28  1  0  0  0  0
 27 29  1  0  0  0  0
 29 30  1  0  0  0  0
 29 31  1  0  0  0  0
 29 32  1  0  0  0  0
M  END
$$$$

  -OEChem-01062216093D

 32 32  0     1  0  0  0  0  0999 V2000
   -1.6073   -1.9798   -0.6591 H   0  0  0  0  0  0  0  0  0  0  0  0
   -2.5476   -1.7950   -0.1384 C   0  0  0  0  0  0  0  0  0  0  0  0
   -2.6236   -2.4645    0.7208 H   0  0  0  0  0  0  0  0  0  0  0  0
   -3.3652   -2.0198   -0.8279 H   0  0  0  0  0  0  0  0  0  0  0  0
   -2.6552   -0.3448    0.3092 C   0  0  0  0  0  0  0  0  0  0  0  0
   -3.6847    0.0298    0.8398 O   0  0  0  0  0  0  0  0  0  0  0  0
   -1.9647    0.6639   -0.3141 N   0  0  0  0  0  0  0  0  0  0  0  0
   -2.5008    1.5203   -0.1987 H   0  0  0  0  0  0  0  0  0  0  0  0
   -0.4987    0.8741   -0.2997 C   0  0  1  0  0  0  0  0  0  0  0  0
   -0.3557    1.8116    0.2462 H   0  0  0  0  0  0  0  0  0  0  0  0
    0.4161   -0.1334    0.4491 C   0  0  0  0  0  0  0  0  0  0  0  0
    0.2702   -1.1441    0.0623 H   0  0  0  0  0  0  0  0  0  0  0  0
    1.4631    0.1203    0.2496 H   0  0  0  0  0  0  0  0  0  0  0  0
    0.2134   -0.1043    1.9498 C   0  0  0  0  0  0  0  0  0  0  0  0
    0.8411    0.8975    2.7082 C   0  0  0  0  0  0  0  0  0  0  0  0
    1.4328    1.6628    2.2147 H   0  0  0  0  0  0  0  0  0  0  0  0
    0.7100    0.9314    4.1006 C   0  0  0  0  0  0  0  0  0  0  0  0
    1.1892    1.7200    4.6733 H   0  0  0  0  0  0  0  0  0  0  0  0
   -0.0341   -0.0528    4.7557 C   0  0  0  0  0  0  0  0  0  0  0  0
   -0.1387   -0.0289    5.8365 H   0  0  0  0  0  0  0  0  0  0  0  0
   -0.6311   -1.0776    4.0172 C   0  0  0  0  0  0  0  0  0  0  0  0
   -1.1941   -1.8551    4.5253 H   0  0  0  0  0  0  0  0  0  0  0  0
   -0.4952   -1.1096    2.6253 C   0  0  0  0  0  0  0  0  0  0  0  0
   -0.9333   -1.9361    2.0806 H   0  0  0  0  0  0  0  0  0  0  0  0
    0.0058    1.1906   -1.7255 C   0  0  0  0  0  0  0  0  0  0  0  0
    0.8571    0.4962   -2.2655 O   0  0  0  0  0  0  0  0  0  0  0  0
   -0.4761    2.2991   -2.3993 N   0  0  0  0  0  0  0  0  0  0  0  0
   -1.2369    2.8147   -1.9681 H   0  0  0  0  0  0  0  0  0  0  0  0
   -0.0728    2.6470   -3.7569 C   0  0  0  0  0  0  0  0  0  0  0  0
   -0.3053    1.8296   -4.4476 H   0  0  0  0  0  0  0  0  0  0  0  0
   -0.6034    3.5437   -4.0911 H   0  0  0  0  0  0  0  0  0  0  0  0
    1.0031    2.8474   -3.7974 H   0  0  0  0  0  0  0  0  0  0  0  0
  1  2  1  0  0  0  0
  2  3  1  0  0  0  0
  2  4  1  0  0  0  0
  2  5  1  0  0  0  0
  5  6  2  0  0  0  0
  5  7  1  0  0  0  0
  7  8  1  0  0  0  0
  7  9  1  0  0  0  0
  9 10  1  0  0  0  0
  9 11  1  0  0  0  0
  9 25  1  0  0  0  0
 11 12  1  0  0  0  0
 11 13  1  0  0  0  0
 11 14  1  0  0  0  0
 14 15  1  0  0  0  0
 14 23  2  0  0  0  0
 15 16  1  0  0  0  0
 15 17  2  0  0  0  0
 17 18  1  0  0  0  0
 17 19  1  0  0  0  0
 19 20  1  0  0  0  0
 19 21  2  0  0  0  0
 21 22  1  0  0  0  0
 21 23  1  0  0  0  0
 23 24  1  0  0  0  0
 25 26  2  0  0  0  0
 25 27  1  0  0  0  0
 27 28  1  0  0  0  0
 27 29  1  0  0  0  0
 29 30  1  0  0  0  0
 29 31  1  0  0  0  0
 29 32  1  0  0  0  0
M  END
$$$$

  -OEChem-01062216093D

 32 32  0     1  0  0  0  0  0999 V2000
   -1.6057   -1.9668   -0.6382 H   0  0  0  0  0  0  0  0  0  0  0  0
   -2.5529   -1.7821   -0.1304 C   0  0  0  0  0  0  0  0  0  0  0  0
   -2.6386   -2.4473    0.7313 H   0  0  0  0  0  0  0  0  0  0  0  0
   -3.3607   -2.0120   -0.8296 H   0  0  0  0  0  0  0  0  0  0  0  0
   -2.6717   -0.3309    0.3106 C   0  0  0  0  0  0  0  0  0  0  0  0
   -3.7073    0.0373    0.8342 O   0  0  0  0  0  0  0  0  0  0  0  0
   -1.9845    0.6817   -0.3102 N   0  0  0  0  0  0  0  0  0  0  0  0
   -2.5321    1.5339   -0.2206 H   0  0  0  0  0  0  0  0  0  0  0  0
   -0.5214    0.9049   -0.2951 C   0  0  1  0  0  0  0  0  0  0  0  0
   -0.3852    1.8383    0.2591 H   0  0  0  0  0  0  0  0  0  0  0  0
    0.4080   -0.0990    0.4369 C   0  0  0  0  0  0  0  0  0  0  0  0
    0.2693   -1.1071    0.0409 H   0  0  0  0  0  0  0  0  0  0  0  0
    1.4505    0.1684    0.2317 H   0  0  0  0  0  0  0  0  0  0  0  0
    0.2085   -0.0883    1.9379 C   0  0  0  0  0  0  0  0  0  0  0  0
    0.8257    0.9138    2.7041 C   0  0  0  0  0  0  0  0  0  0  0  0
    1.4061    1.6914    2.2168 H   0  0  0  0  0  0  0  0  0  0  0  0
    0.6963    0.9332    4.0967 C   0  0  0  0  0  0  0  0  0  0  0  0
    1.1663    1.7227    4.6756 H   0  0  0  0  0  0  0  0  0  0  0  0
   -0.0344   -0.0662    4.7437 C   0  0  0  0  0  0  0  0  0  0  0  0
   -0.1378   -0.0526    5.8248 H   0  0  0  0  0  0  0  0  0  0  0  0
   -0.6190   -1.0923    3.9973 C   0  0  0  0  0  0  0  0  0  0  0  0
   -1.1706   -1.8816    4.4998 H   0  0  0  0  0  0  0  0  0  0  0  0
   -0.4846   -1.1100    2.6051 C   0  0  0  0  0  0  0  0  0  0  0  0
   -0.9106   -1.9385    2.0535 H   0  0  0  0  0  0  0  0  0  0  0  0
   -0.0208    1.2260   -1.7189 C   0  0  0  0  0  0  0  0  0  0  0  0
    0.6306    0.4082   -2.3555 O   0  0  0  0  0  0  0  0  0  0  0  0
   -0.2614    2.4719   -2.2710 N   0  0  0  0  0  0  0  0  0  0  0  0
   -0.8465    3.1153   -1.7467 H   0  0  0  0  0  0  0  0  0  0  0  0
    0.1662    2.8461   -3.6138 C   0  0  0  0  0  0  0  0  0  0  0  0
   -0.2919    2.1881   -4.3597 H   0  0  0  0  0  0  0  0  0  0  0  0
   -0.1308    3.8763   -3.8324 H   0  0  0  0  0  0  0  0  0  0  0  0
    1.2554    2.7749   -3.7027 H   0  0  0  0  0  0  0  0  0  0  0  0
  1  2  1  0  0  0  0
  2  3  1  0  0  0  0
  2  4  1  0  0  0  0
  2  5  1  0  0  0  0
  5  6  2  0  0  0  0
  5  7  1  0  0  0  0
  7  8  1  0  0  0  0
  7  9  1  0  0  0  0
  9 10  1  0  0  0  0
  9 11  1  0  0  0  0
  9 25  1  0  0  0  0
 11 12  1  0  0  0  0
 11 13  1  0  0  0  0
 11 14  1  0  0  0  0
 14 15  1  0  0  0  0
 14 23  2  0  0  0  0
 15 16  1  0  0  0  0
 15 17  2  0  0  0  0
 17 18  1  0  0  0  0
 17 19  1  0  0  0  0
 19 20  1  0  0  0  0
 19 21  2  0  0  0  0
 21 22  1  0  0  0  0
 21 23  1  0  0  0  0
 23 24  1  0  0  0  0
 25 26  2  0  0  0  0
 25 27  1  0  0  0  0
 27 28  1  0  0  0  0
 27 29  1  0  0  0  0
 29 30  1  0  0  0  0
 29 31  1  0  0  0  0
 29 32  1  0  0  0  0
M  END
$$$$

  -OEChem-01062216093D

 32 32  0     1  0  0  0  0  0999 V2000
   -1.5862   -1.9428   -0.6396 H   0  0  0  0  0  0  0  0  0  0  0  0
   -2.5377   -1.7744   -0.1342 C   0  0  0  0  0  0  0  0  0  0  0  0
   -2.6160   -2.4436    0.7252 H   0  0  0  0  0  0  0  0  0  0  0  0
   -3.3401   -2.0143   -0.8364 H   0  0  0  0  0  0  0  0  0  0  0  0
   -2.6799   -0.3263    0.3099 C   0  0  0  0  0  0  0  0  0  0  0  0
   -3.7215    0.0231    0.8349 O   0  0  0  0  0  0  0  0  0  0  0  0
   -2.0076    0.6979   -0.3081 N   0  0  0  0  0  0  0  0  0  0  0  0
   -2.5725    1.5404   -0.2351 H   0  0  0  0  0  0  0  0  0  0  0  0
   -0.5496    0.9482   -0.2866 C   0  0  1  0  0  0  0  0  0  0  0  0
   -0.4337    1.8778    0.2780 H   0  0  0  0  0  0  0  0  0  0  0  0
    0.4022   -0.0444    0.4290 C   0  0  0  0  0  0  0  0  0  0  0  0
    0.2835   -1.0492    0.0177 H   0  0  0  0  0  0  0  0  0  0  0  0
    1.4381    0.2477    0.2244 H   0  0  0  0  0  0  0  0  0  0  0  0
    0.2044   -0.0618    1.9299 C   0  0  0  0  0  0  0  0  0  0  0  0
    0.7986    0.9415    2.7126 C   0  0  0  0  0  0  0  0  0  0  0  0
    1.3587    1.7418    2.2385 H   0  0  0  0  0  0  0  0  0  0  0  0
    0.6696    0.9345    4.1055 C   0  0  0  0  0  0  0  0  0  0  0  0
    1.1186    1.7266    4.6977 H   0  0  0  0  0  0  0  0  0  0  0  0
   -0.0344   -0.0943    4.7363 C   0  0  0  0  0  0  0  0  0  0  0  0
   -0.1379   -0.1014    5.8175 H   0  0  0  0  0  0  0  0  0  0  0  0
   -0.5921   -1.1228    3.9729 C   0  0  0  0  0  0  0  0  0  0  0  0
   -1.1212   -1.9355    4.4619 H   0  0  0  0  0  0  0  0  0  0  0  0
   -0.4601   -1.1126    2.5805 C   0  0  0  0  0  0  0  0  0  0  0  0
   -0.8641   -1.9429    2.0152 H   0  0  0  0  0  0  0  0  0  0  0  0
   -0.0448    1.2780   -1.7056 C   0  0  0  0  0  0  0  0  0  0  0  0
    0.3930    0.3937   -2.4297 O   0  0  0  0  0  0  0  0  0  0  0  0
   -0.0197    2.5887   -2.1490 N   0  0  0  0  0  0  0  0  0  0  0  0
   -0.4169    3.3008   -1.5439 H   0  0  0  0  0  0  0  0  0  0  0  0
    0.4539    2.9752   -3.4728 C   0  0  0  0  0  0  0  0  0  0  0  0
   -0.1488    2.4951   -4.2511 H   0  0  0  0  0  0  0  0  0  0  0  0
    0.3815    4.0599   -3.5985 H   0  0  0  0  0  0  0  0  0  0  0  0
    1.5004    2.6814   -3.6062 H   0  0  0  0  0  0  0  0  0  0  0  0
  1  2  1  0  0  0  0
  2  3  1  0  0  0  0
  2  4  1  0  0  0  0
  2  5  1  0  0  0  0
  5  6  2  0  0  0  0
  5  7  1  0  0  0  0
  7  8  1  0  0  0  0
  7  9  1  0  0  0  0
  9 10  1  0  0  0  0
  9 11  1  0  0  0  0
  9 25  1  0  0  0  0
 11 12  1  0  0  0  0
 11 13  1  0  0  0  0
 11 14  1  0  0  0  0
 14 15  1  0  0  0  0
 14 23  2  0  0  0  0
 15 16  1  0  0  0  0
 15 17  2  0  0  0  0
 17 18  1  0  0  0  0
 17 19  1  0  0  0  0
 19 20  1  0  0  0  0
 19 21  2  0  0  0  0
 21 22  1  0  0  0  0
 21 23  1  0  0  0  0
 23 24  1  0  0  0  0
 25 26  2  0  0  0  0
 25 27  1  0  0  0  0
 27 28  1  0  0  0  0
 27 29  1  0  0  0  0
 29 30  1  0  0  0  0
 29 31  1  0  0  0  0
 29 32  1  0  0  0  0
M  END
$$$$

  -OEChem-01062216093D

 32 32  0     1  0  0  0  0  0999 V2000
   -1.5481   -1.9193   -0.6425 H   0  0  0  0  0  0  0  0  0  0  0  0
   -2.5098   -1.7651   -0.1523 C   0  0  0  0  0  0  0  0  0  0  0  0
   -2.5953   -2.4410    0.7009 H   0  0  0  0  0  0  0  0  0  0  0  0
   -3.2968   -2.0076   -0.8707 H   0  0  0  0  0  0  0  0  0  0  0  0
   -2.6743   -0.3227    0.3007 C   0  0  0  0  0  0  0  0  0  0  0  0
   -3.7213    0.0079    0.8275 O   0  0  0  0  0  0  0  0  0  0  0  0
   -2.0165    0.7125   -0.3137 N   0  0  0  0  0  0  0  0  0  0  0  0
   -2.5984    1.5443   -0.2512 H   0  0  0  0  0  0  0  0  0  0  0  0
   -0.5642    0.9922   -0.2774 C   0  0  1  0  0  0  0  0  0  0  0  0
   -0.4739    1.9202    0.2941 H   0  0  0  0  0  0  0  0  0  0  0  0
    0.4029    0.0122    0.4329 C   0  0  0  0  0  0  0  0  0  0  0  0
    0.3086   -0.9890    0.0066 H   0  0  0  0  0  0  0  0  0  0  0  0
    1.4330    0.3302    0.2383 H   0  0  0  0  0  0  0  0  0  0  0  0
    0.1996   -0.0319    1.9328 C   0  0  0  0  0  0  0  0  0  0  0  0
    0.7687    0.9722    2.7332 C   0  0  0  0  0  0  0  0  0  0  0  0
    1.3121    1.7924    2.2743 H   0  0  0  0  0  0  0  0  0  0  0  0
    0.6381    0.9397    4.1256 C   0  0  0  0  0  0  0  0  0  0  0  0
    1.0689    1.7311    4.7318 H   0  0  0  0  0  0  0  0  0  0  0  0
   -0.0431   -0.1150    4.7381 C   0  0  0  0  0  0  0  0  0  0  0  0
   -0.1472   -0.1427    5.8188 H   0  0  0  0  0  0  0  0  0  0  0  0
   -0.5769   -1.1430    3.9572 C   0  0  0  0  0  0  0  0  0  0  0  0
   -1.0884   -1.9749    4.4326 H   0  0  0  0  0  0  0  0  0  0  0  0
   -0.4430   -1.1076    2.5651 C   0  0  0  0  0  0  0  0  0  0  0  0
   -0.8279   -1.9374    1.9857 H   0  0  0  0  0  0  0  0  0  0  0  0
   -0.0473    1.3275   -1.6904 C   0  0  0  0  0  0  0  0  0  0  0  0
    0.1723    0.4306   -2.4937 O   0  0  0  0  0  0  0  0  0  0  0  0
    0.2533    2.6330   -2.0376 N   0  0  0  0  0  0  0  0  0  0  0  0
    0.0429    3.3639   -1.3647 H   0  0  0  0  0  0  0  0  0  0  0  0
    0.7639    3.0113   -3.3503 C   0  0  0  0  0  0  0  0  0  0  0  0
    0.0562    2.7221   -4.1345 H   0  0  0  0  0  0  0  0  0  0  0  0
    0.9129    4.0943   -3.4016 H   0  0  0  0  0  0  0  0  0  0  0  0
    1.7240    2.5211   -3.5434 H   0  0  0  0  0  0  0  0  0  0  0  0
  1  2  1  0  0  0  0
  2  3  1  0  0  0  0
  2  4  1  0  0  0  0
  2  5  1  0  0  0  0
  5  6  2  0  0  0  0
  5  7  1  0  0  0  0
  7  8  1  0  0  0  0
  7  9  1  0  0  0  0
  9 10  1  0  0  0  0
  9 11  1  0  0  0  0
  9 25  1  0  0  0  0
 11 12  1  0  0  0  0
 11 13  1  0  0  0  0
 11 14  1  0  0  0  0
 14 15  1  0  0  0  0
 14 23  2  0  0  0  0
 15 16  1  0  0  0  0
 15 17  2  0  0  0  0
 17 18  1  0  0  0  0
 17 19  1  0  0  0  0
 19 20  1  0  0  0  0
 19 21  2  0  0  0  0
 21 22  1  0  0  0  0
 21 23  1  0  0  0  0
 23 24  1  0  0  0  0
 25 26  2  0  0  0  0
 25 27  1  0  0  0  0
 27 28  1  0  0  0  0
 27 29  1  0  0  0  0
 29 30  1  0  0  0  0
 29 31  1  0  0  0  0
 29 32  1  0  0  0  0
M  END
$$$$

  -OEChem-01062216093D

 32 32  0     1  0  0  0  0  0999 V2000
   -1.5274   -1.9007   -0.6227 H   0  0  0  0  0  0  0  0  0  0  0  0
   -2.5003   -1.7447   -0.1559 C   0  0  0  0  0  0  0  0  0  0  0  0
   -2.6084   -2.4222    0.6937 H   0  0  0  0  0  0  0  0  0  0  0  0
   -3.2703   -1.9833   -0.8938 H   0  0  0  0  0  0  0  0  0  0  0  0
   -2.6720   -0.3030    0.2967 C   0  0  0  0  0  0  0  0  0  0  0  0
   -3.7212    0.0211    0.8233 O   0  0  0  0  0  0  0  0  0  0  0  0
   -2.0168    0.7359   -0.3140 N   0  0  0  0  0  0  0  0  0  0  0  0
   -2.6072    1.5625   -0.2671 H   0  0  0  0  0  0  0  0  0  0  0  0
   -0.5674    1.0313   -0.2704 C   0  0  1  0  0  0  0  0  0  0  0  0
   -0.4908    1.9580    0.3055 H   0  0  0  0  0  0  0  0  0  0  0  0
    0.4078    0.0532    0.4302 C   0  0  0  0  0  0  0  0  0  0  0  0
    0.3246   -0.9431   -0.0097 H   0  0  0  0  0  0  0  0  0  0  0  0
    1.4353    0.3834    0.2432 H   0  0  0  0  0  0  0  0  0  0  0  0
    0.2011   -0.0126    1.9286 C   0  0  0  0  0  0  0  0  0  0  0  0
    0.7564    0.9866    2.7443 C   0  0  0  0  0  0  0  0  0  0  0  0
    1.2902    1.8201    2.2986 H   0  0  0  0  0  0  0  0  0  0  0  0
    0.6220    0.9326    4.1356 C   0  0  0  0  0  0  0  0  0  0  0  0
    1.0413    1.7205    4.7543 H   0  0  0  0  0  0  0  0  0  0  0  0
   -0.0491   -0.1381    4.7317 C   0  0  0  0  0  0  0  0  0  0  0  0
   -0.1570   -0.1812    5.8117 H   0  0  0  0  0  0  0  0  0  0  0  0
   -0.5685   -1.1612    3.9348 C   0  0  0  0  0  0  0  0  0  0  0  0
   -1.0731   -2.0052    4.3963 H   0  0  0  0  0  0  0  0  0  0  0  0
   -0.4295   -1.1050    2.5441 C   0  0  0  0  0  0  0  0  0  0  0  0
   -0.8019   -1.9316    1.9520 H   0  0  0  0  0  0  0  0  0  0  0  0
   -0.0390    1.3709   -1.6784 C   0  0  0  0  0  0  0  0  0  0  0  0
   -0.0466    0.5216   -2.5593 O   0  0  0  0  0  0  0  0  0  0  0  0
    0.5401    2.6017   -1.9340 N   0  0  0  0  0  0  0  0  0  0  0  0
    0.5282    3.2961   -1.1932 H   0  0  0  0  0  0  0  0  0  0  0  0
    1.0904    2.9697   -3.2336 C   0  0  0  0  0  0  0  0  0  0  0  0
    0.3222    2.8964   -4.0108 H   0  0  0  0  0  0  0  0  0  0  0  0
    1.4598    3.9995   -3.2106 H   0  0  0  0  0  0  0  0  0  0  0  0
    1.9233    2.3096   -3.4979 H   0  0  0  0  0  0  0  0  0  0  0  0
  1  2  1  0  0  0  0
  2  3  1  0  0  0  0
  2  4  1  0  0  0  0
  2  5  1  0  0  0  0
  5  6  2  0  0  0  0
  5  7  1  0  0  0  0
  7  8  1  0  0  0  0
  7  9  1  0  0  0  0
  9 10  1  0  0  0  0
  9 11  1  0  0  0  0
  9 25  1  0  0  0  0
 11 12  1  0  0  0  0
 11 13  1  0  0  0  0
 11 14  1  0  0  0  0
 14 15  1  0  0  0  0
 14 23  2  0  0  0  0
 15 16  1  0  0  0  0
 15 17  2  0  0  0  0
 17 18  1  0  0  0  0
 17 19  1  0  0  0  0
 19 20  1  0  0  0  0
 19 21  2  0  0  0  0
 21 22  1  0  0  0  0
 21 23  1  0  0  0  0
 23 24  1  0  0  0  0
 25 26  2  0  0  0  0
 25 27  1  0  0  0  0
 27 28  1  0  0  0  0
 27 29  1  0  0  0  0
 29 30  1  0  0  0  0
 29 31  1  0  0  0  0
 29 32  1  0  0  0  0
M  END
$$$$

  -OEChem-01062216093D

 32 32  0     1  0  0  0  0  0999 V2000
   -1.4956   -1.8924   -0.6344 H   0  0  0  0  0  0  0  0  0  0  0  0
   -2.4737   -1.7469   -0.1758 C   0  0  0  0  0  0  0  0  0  0  0  0
   -2.5847   -2.4313    0.6679 H   0  0  0  0  0  0  0  0  0  0  0  0
   -3.2350   -1.9854   -0.9229 H   0  0  0  0  0  0  0  0  0  0  0  0
   -2.6604   -0.3100    0.2860 C   0  0  0  0  0  0  0  0  0  0  0  0
   -3.7113   -0.0022    0.8192 O   0  0  0  0  0  0  0  0  0  0  0  0
   -2.0137    0.7389   -0.3172 N   0  0  0  0  0  0  0  0  0  0  0  0
   -2.6146    1.5586   -0.2801 H   0  0  0  0  0  0  0  0  0  0  0  0
   -0.5672    1.0514   -0.2714 C   0  0  1  0  0  0  0  0  0  0  0  0
   -0.5061    1.9766    0.3090 H   0  0  0  0  0  0  0  0  0  0  0  0
    0.4148    0.0782    0.4264 C   0  0  0  0  0  0  0  0  0  0  0  0
    0.3410   -0.9163   -0.0191 H   0  0  0  0  0  0  0  0  0  0  0  0
    1.4405    0.4171    0.2458 H   0  0  0  0  0  0  0  0  0  0  0  0
    0.2045    0.0036    1.9238 C   0  0  0  0  0  0  0  0  0  0  0  0
    0.7494    1.0040    2.7455 C   0  0  0  0  0  0  0  0  0  0  0  0
    1.2789    1.8434    2.3056 H   0  0  0  0  0  0  0  0  0  0  0  0
    0.6101    0.9437    4.1362 C   0  0  0  0  0  0  0  0  0  0  0  0
    1.0205    1.7328    4.7594 H   0  0  0  0  0  0  0  0  0  0  0  0
   -0.0549   -0.1344    4.7253 C   0  0  0  0  0  0  0  0  0  0  0  0
   -0.1665   -0.1823    5.8048 H   0  0  0  0  0  0  0  0  0  0  0  0
   -0.5633   -1.1586    3.9226 C   0  0  0  0  0  0  0  0  0  0  0  0
   -1.0628   -2.0082    4.3794 H   0  0  0  0  0  0  0  0  0  0  0  0
   -0.4205   -1.0958    2.5325 C   0  0  0  0  0  0  0  0  0  0  0  0
   -0.7869   -1.9220    1.9359 H   0  0  0  0  0  0  0  0  0  0  0  0
   -0.0256    1.4081   -1.6710 C   0  0  0  0  0  0  0  0  0  0  0  0
   -0.2550    0.6844   -2.6304 O   0  0  0  0  0  0  0  0  0  0  0  0
    0.8094    2.4994   -1.8373 N   0  0  0  0  0  0  0  0  0  0  0  0
    0.9918    3.0863   -1.0291 H   0  0  0  0  0  0  0  0  0  0  0  0
    1.3978    2.8673   -3.1200 C   0  0  0  0  0  0  0  0  0  0  0  0
    0.6140    3.0689   -3.8579 H   0  0  0  0  0  0  0  0  0  0  0  0
    2.0095    3.7681   -3.0109 H   0  0  0  0  0  0  0  0  0  0  0  0
    2.0360    2.0601   -3.4950 H   0  0  0  0  0  0  0  0  0  0  0  0
  1  2  1  0  0  0  0
  2  3  1  0  0  0  0
  2  4  1  0  0  0  0
  2  5  1  0  0  0  0
  5  6  2  0  0  0  0
  5  7  1  0  0  0  0
  7  8  1  0  0  0  0
  7  9  1  0  0  0  0
  9 10  1  0  0  0  0
  9 11  1  0  0  0  0
  9 25  1  0  0  0  0
 11 12  1  0  0  0  0
 11 13  1  0  0  0  0
 11 14  1  0  0  0  0
 14 15  1  0  0  0  0
 14 23  2  0  0  0  0
 15 16  1  0  0  0  0
 15 17  2  0  0  0  0
 17 18  1  0  0  0  0
 17 19  1  0  0  0  0
 19 20  1  0  0  0  0
 19 21  2  0  0  0  0
 21 22  1  0  0  0  0
 21 23  1  0  0  0  0
 23 24  1  0  0  0  0
 25 26  2  0  0  0  0
 25 27  1  0  0  0  0
 27 28  1  0  0  0  0
 27 29  1  0  0  0  0
 29 30  1  0  0  0  0
 29 31  1  0  0  0  0
 29 32  1  0  0  0  0
M  END
$$$$

  -OEChem-01062216093D

 32 32  0     1  0  0  0  0  0999 V2000
   -1.4829   -1.8795   -0.6483 H   0  0  0  0  0  0  0  0  0  0  0  0
   -2.4627   -1.7335   -0.1941 C   0  0  0  0  0  0  0  0  0  0  0  0
   -2.5808   -2.4244    0.6433 H   0  0  0  0  0  0  0  0  0  0  0  0
   -3.2206   -1.9628   -0.9476 H   0  0  0  0  0  0  0  0  0  0  0  0
   -2.6474   -0.2996    0.2785 C   0  0  0  0  0  0  0  0  0  0  0  0
   -3.6985    0.0043    0.8134 O   0  0  0  0  0  0  0  0  0  0  0  0
   -1.9961    0.7528   -0.3134 N   0  0  0  0  0  0  0  0  0  0  0  0
   -2.5978    1.5722   -0.2857 H   0  0  0  0  0  0  0  0  0  0  0  0
   -0.5492    1.0670   -0.2685 C   0  0  1  0  0  0  0  0  0  0  0  0
   -0.4900    1.9901    0.3158 H   0  0  0  0  0  0  0  0  0  0  0  0
    0.4269    0.0865    0.4296 C   0  0  0  0  0  0  0  0  0  0  0  0
    0.3475   -0.9062   -0.0184 H   0  0  0  0  0  0  0  0  0  0  0  0
    1.4561    0.4168    0.2547 H   0  0  0  0  0  0  0  0  0  0  0  0
    0.2133    0.0084    1.9263 C   0  0  0  0  0  0  0  0  0  0  0  0
    0.7612    1.0031    2.7529 C   0  0  0  0  0  0  0  0  0  0  0  0
    1.2943    1.8425    2.3180 H   0  0  0  0  0  0  0  0  0  0  0  0
    0.6198    0.9381    4.1431 C   0  0  0  0  0  0  0  0  0  0  0  0
    1.0328    1.7230    4.7702 H   0  0  0  0  0  0  0  0  0  0  0  0
   -0.0521   -0.1389    4.7266 C   0  0  0  0  0  0  0  0  0  0  0  0
   -0.1675   -0.1899    5.8055 H   0  0  0  0  0  0  0  0  0  0  0  0
   -0.5636   -1.1578    3.9191 C   0  0  0  0  0  0  0  0  0  0  0  0
   -1.0687   -2.0065    4.3712 H   0  0  0  0  0  0  0  0  0  0  0  0
   -0.4178   -1.0903    2.5297 C   0  0  0  0  0  0  0  0  0  0  0  0
   -0.7877   -1.9122    1.9295 H   0  0  0  0  0  0  0  0  0  0  0  0
    0.0005    1.4398   -1.6635 C   0  0  0  0  0  0  0  0  0  0  0  0
   -0.4485    0.9235   -2.6778 O   0  0  0  0  0  0  0  0  0  0  0  0
    1.0626    2.3206   -1.7782 N   0  0  0  0  0  0  0  0  0  0  0  0
    1.4245    2.7424   -0.9286 H   0  0  0  0  0  0  0  0  0  0  0  0
    1.6610    2.6899   -3.0561 C   0  0  0  0  0  0  0  0  0  0  0  0
    0.9139    3.1513   -3.7106 H   0  0  0  0  0  0  0  0  0  0  0  0
    2.4733    3.4063   -2.9007 H   0  0  0  0  0  0  0  0  0  0  0  0
    2.0711    1.8068   -3.5571 H   0  0  0  0  0  0  0  0  0  0  0  0
  1  2  1  0  0  0  0
  2  3  1  0  0  0  0
  2  4  1  0  0  0  0
  2  5  1  0  0  0  0
  5  6  2  0  0  0  0
  5  7  1  0  0  0  0
  7  8  1  0  0  0  0
  7  9  1  0  0  0  0
  9 10  1  0  0  0  0
  9 11  1  0  0  0  0
  9 25  1  0  0  0  0
 11 12  1  0  0  0  0
 11 13  1  0  0  0  0
 11 14  1  0  0  0  0
 14 15  1  0  0  0  0
 14 23  2  0  0  0  0
 15 16  1  0  0  0  0
 15 17  2  0  0  0  0
 17 18  1  0  0  0  0
 17 19  1  0  0  0  0
 19 20  1  0  0  0  0
 19 21  2  0  0  0  0
 21 22  1  0  0  0  0
 21 23  1  0  0  0  0
 23 24  1  0  0  0  0
 25 26  2  0  0  0  0
 25 27  1  0  0  0  0
 27 28  1  0  0  0  0
 27 29  1  0  0  0  0
 29 30  1  0  0  0  0
 29 31  1  0  0  0  0
 29 32  1  0  0  0  0
M  END
$$$$

  -OEChem-01062216093D

 32 32  0     1  0  0  0  0  0999 V2000
   -1.4764   -1.8624   -0.6735 H   0  0  0  0  0  0  0  0  0  0  0  0
   -2.4497   -1.7178   -0.2051 C   0  0  0  0  0  0  0  0  0  0  0  0
   -2.5554   -2.4069    0.6355 H   0  0  0  0  0  0  0  0  0  0  0  0
   -3.2182   -1.9513   -0.9464 H   0  0  0  0  0  0  0  0  0  0  0  0
   -2.6319   -0.2830    0.2656 C   0  0  0  0  0  0  0  0  0  0  0  0
   -3.6909    0.0248    0.7821 O   0  0  0  0  0  0  0  0  0  0  0  0
   -1.9619    0.7663   -0.3115 N   0  0  0  0  0  0  0  0  0  0  0  0
   -2.5577    1.5906   -0.3073 H   0  0  0  0  0  0  0  0  0  0  0  0
   -0.5123    1.0701   -0.2647 C   0  0  1  0  0  0  0  0  0  0  0  0
   -0.4444    1.9915    0.3213 H   0  0  0  0  0  0  0  0  0  0  0  0
    0.4442    0.0743    0.4433 C   0  0  0  0  0  0  0  0  0  0  0  0
    0.3519   -0.9177   -0.0033 H   0  0  0  0  0  0  0  0  0  0  0  0
    1.4811    0.3834    0.2805 H   0  0  0  0  0  0  0  0  0  0  0  0
    0.2181    0.0035    1.9388 C   0  0  0  0  0  0  0  0  0  0  0  0
    0.7756    0.9918    2.7670 C   0  0  0  0  0  0  0  0  0  0  0  0
    1.3184    1.8259    2.3338 H   0  0  0  0  0  0  0  0  0  0  0  0
    0.6308    0.9283    4.1571 C   0  0  0  0  0  0  0  0  0  0  0  0
    1.0504    1.7087    4.7853 H   0  0  0  0  0  0  0  0  0  0  0  0
   -0.0525   -0.1417    4.7396 C   0  0  0  0  0  0  0  0  0  0  0  0
   -0.1682   -0.1932    5.8185 H   0  0  0  0  0  0  0  0  0  0  0  0
   -0.5758   -1.1533    3.9308 C   0  0  0  0  0  0  0  0  0  0  0  0
   -1.0914   -1.9959    4.3825 H   0  0  0  0  0  0  0  0  0  0  0  0
   -0.4276   -1.0871    2.5416 C   0  0  0  0  0  0  0  0  0  0  0  0
   -0.8056   -1.9060    1.9427 H   0  0  0  0  0  0  0  0  0  0  0  0
    0.0432    1.4545   -1.6579 C   0  0  0  0  0  0  0  0  0  0  0  0
   -0.5843    1.2188   -2.6816 O   0  0  0  0  0  0  0  0  0  0  0  0
    1.2805    2.0664   -1.7724 N   0  0  0  0  0  0  0  0  0  0  0  0
    1.7857    2.2799   -0.9181 H   0  0  0  0  0  0  0  0  0  0  0  0
    1.8632    2.4634   -3.0493 C   0  0  0  0  0  0  0  0  0  0  0  0
    1.2172    3.1874   -3.5573 H   0  0  0  0  0  0  0  0  0  0  0  0
    2.8424    2.9258   -2.8914 H   0  0  0  0  0  0  0  0  0  0  0  0
    1.9939    1.5910   -3.6984 H   0  0  0  0  0  0  0  0  0  0  0  0
  1  2  1  0  0  0  0
  2  3  1  0  0  0  0
  2  4  1  0  0  0  0
  2  5  1  0  0  0  0
  5  6  2  0  0  0  0
  5  7  1  0  0  0  0
  7  8  1  0  0  0  0
  7  9  1  0  0  0  0
  9 10  1  0  0  0  0
  9 11  1  0  0  0  0
  9 25  1  0  0  0  0
 11 12  1  0  0  0  0
 11 13  1  0  0  0  0
 11 14  1  0  0  0  0
 14 15  1  0  0  0  0
 14 23  2  0  0  0  0
 15 16  1  0  0  0  0
 15 17  2  0  0  0  0
 17 18  1  0  0  0  0
 17 19  1  0  0  0  0
 19 20  1  0  0  0  0
 19 21  2  0  0  0  0
 21 22  1  0  0  0  0
 21 23  1  0  0  0  0
 23 24  1  0  0  0  0
 25 26  2  0  0  0  0
 25 27  1  0  0  0  0
 27 28  1  0  0  0  0
 27 29  1  0  0  0  0
 29 30  1  0  0  0  0
 29 31  1  0  0  0  0
 29 32  1  0  0  0  0
M  END
$$$$

  -OEChem-01062216093D

 32 32  0     1  0  0  0  0  0999 V2000
   -1.5802   -1.9414   -0.6582 H   0  0  0  0  0  0  0  0  0  0  0  0
   -2.5016   -1.7574   -0.1045 C   0  0  0  0  0  0  0  0  0  0  0  0
   -2.5868   -2.4797    0.7108 H   0  0  0  0  0  0  0  0  0  0  0  0
   -3.3435   -1.8971   -0.7874 H   0  0  0  0  0  0  0  0  0  0  0  0
   -2.5346   -0.3425    0.4492 C   0  0  0  0  0  0  0  0  0  0  0  0
   -3.4996   -0.0145    1.1156 O   0  0  0  0  0  0  0  0  0  0  0  0
   -1.9395    0.6925   -0.2249 N   0  0  0  0  0  0  0  0  0  0  0  0
   -2.5560    1.5026   -0.2185 H   0  0  0  0  0  0  0  0  0  0  0  0
   -0.5039    1.0543   -0.2706 C   0  0  1  0  0  0  0  0  0  0  0  0
   -0.3865    1.8477    0.4737 H   0  0  0  0  0  0  0  0  0  0  0  0
    0.5567   -0.0186    0.1070 C   0  0  0  0  0  0  0  0  0  0  0  0
    0.4194   -0.8981   -0.5281 H   0  0  0  0  0  0  0  0  0  0  0  0
    1.5625    0.3570   -0.1001 H   0  0  0  0  0  0  0  0  0  0  0  0
    0.5220   -0.4193    1.5676 C   0  0  0  0  0  0  0  0  0  0  0  0
    1.1523    0.4052    2.5146 C   0  0  0  0  0  0  0  0  0  0  0  0
    1.5876    1.3521    2.2106 H   0  0  0  0  0  0  0  0  0  0  0  0
    1.2104    0.0381    3.8630 C   0  0  0  0  0  0  0  0  0  0  0  0
    1.6771    0.6986    4.5879 H   0  0  0  0  0  0  0  0  0  0  0  0
    0.6708   -1.1811    4.2782 C   0  0  0  0  0  0  0  0  0  0  0  0
    0.7112   -1.4674    5.3253 H   0  0  0  0  0  0  0  0  0  0  0  0
    0.0975   -2.0407    3.3385 C   0  0  0  0  0  0  0  0  0  0  0  0
   -0.2951   -3.0033    3.6538 H   0  0  0  0  0  0  0  0  0  0  0  0
    0.0438   -1.6701    1.9908 C   0  0  0  0  0  0  0  0  0  0  0  0
   -0.3494   -2.3832    1.2774 H   0  0  0  0  0  0  0  0  0  0  0  0
   -0.1451    1.7243   -1.6244 C   0  0  0  0  0  0  0  0  0  0  0  0
   -1.0061    1.9513   -2.4646 O   0  0  0  0  0  0  0  0  0  0  0  0
    1.1461    2.1491   -1.8931 N   0  0  0  0  0  0  0  0  0  0  0  0
    1.8500    2.0109   -1.1749 H   0  0  0  0  0  0  0  0  0  0  0  0
    1.5257    2.8369   -3.1221 C   0  0  0  0  0  0  0  0  0  0  0  0
    0.9855    3.7851   -3.2135 H   0  0  0  0  0  0  0  0  0  0  0  0
    2.5991    3.0490   -3.1208 H   0  0  0  0  0  0  0  0  0  0  0  0
    1.2978    2.2161   -3.9950 H   0  0  0  0  0  0  0  0  0  0  0  0
  1  2  1  0  0  0  0
  2  3  1  0  0  0  0
  2  4  1  0  0  0  0
  2  5  1  0  0  0  0
  5  6  2  0  0  0  0
  5  7  1  0  0  0  0
  7  8  1  0  0  0  0
  7  9  1  0  0  0  0
  9 10  1  0  0  0  0
  9 11  1  0  0  0  0
  9 25  1  0  0  0  0
 11 12  1  0  0  0  0
 11 13  1  0  0  0  0
 11 14  1  0  0  0  0
 14 15  1  0  0  0  0
 14 23  2  0  0  0  0
 15 16  1  0  0  0  0
 15 17  2  0  0  0  0
 17 18  1  0  0  0  0
 17 19  1  0  0  0  0
 19 20  1  0  0  0  0
 19 21  2  0  0  0  0
 21 22  1  0  0  0  0
 21 23  1  0  0  0  0
 23 24  1  0  0  0  0
 25 26  2  0  0  0  0
 25 27  1  0  0  0  0
 27 28  1  0  0  0  0
 27 29  1  0  0  0  0
 29 30  1  0  0  0  0
 29 31  1  0  0  0  0
 29 32  1  0  0  0  0
M  END
$$$$

  -OEChem-01062216093D

 32 32  0     1  0  0  0  0  0999 V2000
   -1.5575   -1.9304   -0.6796 H   0  0  0  0  0  0  0  0  0  0  0  0
   -2.4789   -1.7480   -0.1258 C   0  0  0  0  0  0  0  0  0  0  0  0
   -2.5622   -2.4682    0.6917 H   0  0  0  0  0  0  0  0  0  0  0  0
   -3.3211   -1.8925   -0.8074 H   0  0  0  0  0  0  0  0  0  0  0  0
   -2.5165   -0.3317    0.4239 C   0  0  0  0  0  0  0  0  0  0  0  0
   -3.4965    0.0010    1.0654 O   0  0  0  0  0  0  0  0  0  0  0  0
   -1.8967    0.7006   -0.2330 N   0  0  0  0  0  0  0  0  0  0  0  0
   -2.5012    1.5205   -0.2335 H   0  0  0  0  0  0  0  0  0  0  0  0
   -0.4560    1.0433   -0.2666 C   0  0  1  0  0  0  0  0  0  0  0  0
   -0.3323    1.8354    0.4786 H   0  0  0  0  0  0  0  0  0  0  0  0
    0.5872   -0.0414    0.1264 C   0  0  0  0  0  0  0  0  0  0  0  0
    0.4502   -0.9217   -0.5074 H   0  0  0  0  0  0  0  0  0  0  0  0
    1.6000    0.3239   -0.0615 H   0  0  0  0  0  0  0  0  0  0  0  0
    0.5304   -0.4326    1.5885 C   0  0  0  0  0  0  0  0  0  0  0  0
    1.1603    0.3888    2.5386 C   0  0  0  0  0  0  0  0  0  0  0  0
    1.6096    1.3293    2.2348 H   0  0  0  0  0  0  0  0  0  0  0  0
    1.1997    0.0274    3.8893 C   0  0  0  0  0  0  0  0  0  0  0  0
    1.6656    0.6863    4.6165 H   0  0  0  0  0  0  0  0  0  0  0  0
    0.6431   -1.1847    4.3035 C   0  0  0  0  0  0  0  0  0  0  0  0
    0.6704   -1.4671    5.3521 H   0  0  0  0  0  0  0  0  0  0  0  0
    0.0697   -2.0417    3.3614 C   0  0  0  0  0  0  0  0  0  0  0  0
   -0.3371   -2.9983    3.6767 H   0  0  0  0  0  0  0  0  0  0  0  0
    0.0347   -1.6762    2.0116 C   0  0  0  0  0  0  0  0  0  0  0  0
   -0.3573   -2.3882    1.2965 H   0  0  0  0  0  0  0  0  0  0  0  0
   -0.1002    1.7220   -1.6186 C   0  0  0  0  0  0  0  0  0  0  0  0
   -0.9798    2.2207   -2.3095 O   0  0  0  0  0  0  0  0  0  0  0  0
    1.2100    1.8702   -2.0463 N   0  0  0  0  0  0  0  0  0  0  0  0
    1.9472    1.4938   -1.4593 H   0  0  0  0  0  0  0  0  0  0  0  0
    1.5812    2.5609   -3.2765 C   0  0  0  0  0  0  0  0  0  0  0  0
    1.2416    3.6018   -3.2496 H   0  0  0  0  0  0  0  0  0  0  0  0
    2.6683    2.5560   -3.3999 H   0  0  0  0  0  0  0  0  0  0  0  0
    1.1328    2.0659   -4.1443 H   0  0  0  0  0  0  0  0  0  0  0  0
  1  2  1  0  0  0  0
  2  3  1  0  0  0  0
  2  4  1  0  0  0  0
  2  5  1  0  0  0  0
  5  6  2  0  0  0  0
  5  7  1  0  0  0  0
  7  8  1  0  0  0  0
  7  9  1  0  0  0  0
  9 10  1  0  0  0  0
  9 11  1  0  0  0  0
  9 25  1  0  0  0  0
 11 12  1  0  0  0  0
 11 13  1  0  0  0  0
 11 14  1  0  0  0  0
 14 15  1  0  0  0  0
 14 23  2  0  0  0  0
 15 16  1  0  0  0  0
 15 17  2  0  0  0  0
 17 18  1  0  0  0  0
 17 19  1  0  0  0  0
 19 20  1  0  0  0  0
 19 21  2  0  0  0  0
 21 22  1  0  0  0  0
 21 23  1  0  0  0  0
 23 24  1  0  0  0  0
 25 26  2  0  0  0  0
 25 27  1  0  0  0  0
 27 28  1  0  0  0  0
 27 29  1  0  0  0  0
 29 30  1  0  0  0  0
 29 31  1  0  0  0  0
 29 32  1  0  0  0  0
M  END
$$$$

  -OEChem-01062216093D

 32 32  0     1  0  0  0  0  0999 V2000
   -1.5307   -1.9216   -0.6833 H   0  0  0  0  0  0  0  0  0  0  0  0
   -2.4608   -1.7355   -0.1461 C   0  0  0  0  0  0  0  0  0  0  0  0
   -2.5604   -2.4546    0.6704 H   0  0  0  0  0  0  0  0  0  0  0  0
   -3.2915   -1.8784   -0.8419 H   0  0  0  0  0  0  0  0  0  0  0  0
   -2.5038   -0.3183    0.4009 C   0  0  0  0  0  0  0  0  0  0  0  0
   -3.4957    0.0191    1.0210 O   0  0  0  0  0  0  0  0  0  0  0  0
   -1.8621    0.7107   -0.2401 N   0  0  0  0  0  0  0  0  0  0  0  0
   -2.4489    1.5439   -0.2293 H   0  0  0  0  0  0  0  0  0  0  0  0
   -0.4162    1.0266   -0.2624 C   0  0  1  0  0  0  0  0  0  0  0  0
   -0.2856    1.8152    0.4853 H   0  0  0  0  0  0  0  0  0  0  0  0
    0.6152   -0.0651    0.1395 C   0  0  0  0  0  0  0  0  0  0  0  0
    0.4801   -0.9470   -0.4922 H   0  0  0  0  0  0  0  0  0  0  0  0
    1.6306    0.3000   -0.0395 H   0  0  0  0  0  0  0  0  0  0  0  0
    0.5440   -0.4486    1.6029 C   0  0  0  0  0  0  0  0  0  0  0  0
    1.1746    0.3728    2.5524 C   0  0  0  0  0  0  0  0  0  0  0  0
    1.6348    1.3073    2.2458 H   0  0  0  0  0  0  0  0  0  0  0  0
    1.1991    0.0199    3.9056 C   0  0  0  0  0  0  0  0  0  0  0  0
    1.6646    0.6796    4.6321 H   0  0  0  0  0  0  0  0  0  0  0  0
    0.6269   -1.1836    4.3232 C   0  0  0  0  0  0  0  0  0  0  0  0
    0.6440   -1.4596    5.3737 H   0  0  0  0  0  0  0  0  0  0  0  0
    0.0507   -2.0402    3.3825 C   0  0  0  0  0  0  0  0  0  0  0  0
   -0.3689   -2.9900    3.7012 H   0  0  0  0  0  0  0  0  0  0  0  0
    0.0289   -1.6830    2.0301 C   0  0  0  0  0  0  0  0  0  0  0  0
   -0.3685   -2.3946    1.3175 H   0  0  0  0  0  0  0  0  0  0  0  0
   -0.0592    1.7135   -1.6080 C   0  0  0  0  0  0  0  0  0  0  0  0
   -0.8745    2.4556   -2.1407 O   0  0  0  0  0  0  0  0  0  0  0  0
    1.1875    1.5941   -2.2019 N   0  0  0  0  0  0  0  0  0  0  0  0
    1.8661    0.9802   -1.7635 H   0  0  0  0  0  0  0  0  0  0  0  0
    1.5528    2.2675   -3.4434 C   0  0  0  0  0  0  0  0  0  0  0  0
    1.4667    3.3534   -3.3305 H   0  0  0  0  0  0  0  0  0  0  0  0
    2.5863    2.0301   -3.7130 H   0  0  0  0  0  0  0  0  0  0  0  0
    0.8992    1.9452   -4.2606 H   0  0  0  0  0  0  0  0  0  0  0  0
  1  2  1  0  0  0  0
  2  3  1  0  0  0  0
  2  4  1  0  0  0  0
  2  5  1  0  0  0  0
  5  6  2  0  0  0  0
  5  7  1  0  0  0  0
  7  8  1  0  0  0  0
  7  9  1  0  0  0  0
  9 10  1  0  0  0  0
  9 11  1  0  0  0  0
  9 25  1  0  0  0  0
 11 12  1  0  0  0  0
 11 13  1  0  0  0  0
 11 14  1  0  0  0  0
 14 15  1  0  0  0  0
 14 23  2  0  0  0  0
 15 16  1  0  0  0  0
 15 17  2  0  0  0  0
 17 18  1  0  0  0  0
 17 19  1  0  0  0  0
 19 20  1  0  0  0  0
 19 21  2  0  0  0  0
 21 22  1  0  0  0  0
 21 23  1  0  0  0  0
 23 24  1  0  0  0  0
 25 26  2  0  0  0  0
 25 27  1  0  0  0  0
 27 28  1  0  0  0  0
 27 29  1  0  0  0  0
 29 30  1  0  0  0  0
 29 31  1  0  0  0  0
 29 32  1  0  0  0  0
M  END
$$$$

  -OEChem-01062216093D

 32 32  0     1  0  0  0  0  0999 V2000
   -1.5061   -1.9210   -0.6778 H   0  0  0  0  0  0  0  0  0  0  0  0
   -2.4439   -1.7261   -0.1572 C   0  0  0  0  0  0  0  0  0  0  0  0
   -2.5613   -2.4387    0.6626 H   0  0  0  0  0  0  0  0  0  0  0  0
   -3.2635   -1.8696   -0.8659 H   0  0  0  0  0  0  0  0  0  0  0  0
   -2.4893   -0.3056    0.3808 C   0  0  0  0  0  0  0  0  0  0  0  0
   -3.4868    0.0388    0.9876 O   0  0  0  0  0  0  0  0  0  0  0  0
   -1.8349    0.7188   -0.2554 N   0  0  0  0  0  0  0  0  0  0  0  0
   -2.4099    1.5602   -0.2281 H   0  0  0  0  0  0  0  0  0  0  0  0
   -0.3862    1.0184   -0.2618 C   0  0  1  0  0  0  0  0  0  0  0  0
   -0.2561    1.8076    0.4859 H   0  0  0  0  0  0  0  0  0  0  0  0
    0.6385   -0.0748    0.1491 C   0  0  0  0  0  0  0  0  0  0  0  0
    0.5077   -0.9581   -0.4817 H   0  0  0  0  0  0  0  0  0  0  0  0
    1.6539    0.2944   -0.0271 H   0  0  0  0  0  0  0  0  0  0  0  0
    0.5551   -0.4576    1.6121 C   0  0  0  0  0  0  0  0  0  0  0  0
    1.1805    0.3627    2.5658 C   0  0  0  0  0  0  0  0  0  0  0  0
    1.6488    1.2942    2.2614 H   0  0  0  0  0  0  0  0  0  0  0  0
    1.1907    0.0124    3.9198 C   0  0  0  0  0  0  0  0  0  0  0  0
    1.6544    0.6707    4.6487 H   0  0  0  0  0  0  0  0  0  0  0  0
    0.6062   -1.1858    4.3350 C   0  0  0  0  0  0  0  0  0  0  0  0
    0.6098   -1.4585    5.3863 H   0  0  0  0  0  0  0  0  0  0  0  0
    0.0344   -2.0415    3.3908 C   0  0  0  0  0  0  0  0  0  0  0  0
   -0.3947   -2.9876    3.7081 H   0  0  0  0  0  0  0  0  0  0  0  0
    0.0287   -1.6880    2.0372 C   0  0  0  0  0  0  0  0  0  0  0  0
   -0.3667   -2.3987    1.3228 H   0  0  0  0  0  0  0  0  0  0  0  0
   -0.0178    1.6994   -1.6038 C   0  0  0  0  0  0  0  0  0  0  0  0
   -0.7124    2.6197   -2.0146 O   0  0  0  0  0  0  0  0  0  0  0  0
    1.0977    1.3413   -2.3442 N   0  0  0  0  0  0  0  0  0  0  0  0
    1.6504    0.5554   -2.0177 H   0  0  0  0  0  0  0  0  0  0  0  0
    1.4527    1.9693   -3.6122 C   0  0  0  0  0  0  0  0  0  0  0  0
    1.6051    3.0455   -3.4786 H   0  0  0  0  0  0  0  0  0  0  0  0
    2.3785    1.5364   -4.0033 H   0  0  0  0  0  0  0  0  0  0  0  0
    0.6592    1.8155   -4.3511 H   0  0  0  0  0  0  0  0  0  0  0  0
  1  2  1  0  0  0  0
  2  3  1  0  0  0  0
  2  4  1  0  0  0  0
  2  5  1  0  0  0  0
  5  6  2  0  0  0  0
  5  7  1  0  0  0  0
  7  8  1  0  0  0  0
  7  9  1  0  0  0  0
  9 10  1  0  0  0  0
  9 11  1  0  0  0  0
  9 25  1  0  0  0  0
 11 12  1  0  0  0  0
 11 13  1  0  0  0  0
 11 14  1  0  0  0  0
 14 15  1  0  0  0  0
 14 23  2  0  0  0  0
 15 16  1  0  0  0  0
 15 17  2  0  0  0  0
 17 18  1  0  0  0  0
 17 19  1  0  0  0  0
 19 20  1  0  0  0  0
 19 21  2  0  0  0  0
 21 22  1  0  0  0  0
 21 23  1  0  0  0  0
 23 24  1  0  0  0  0
 25 26  2  0  0  0  0
 25 27  1  0  0  0  0
 27 28  1  0  0  0  0
 27 29  1  0  0  0  0
 29 30  1  0  0  0  0
 29 31  1  0  0  0  0
 29 32  1  0  0  0  0
M  END
$$$$

  -OEChem-01062216093D

 32 32  0     1  0  0  0  0  0999 V2000
   -1.4994   -1.9236   -0.6727 H   0  0  0  0  0  0  0  0  0  0  0  0
   -2.4385   -1.7203   -0.1581 C   0  0  0  0  0  0  0  0  0  0  0  0
   -2.5612   -2.4250    0.6678 H   0  0  0  0  0  0  0  0  0  0  0  0
   -3.2558   -1.8676   -0.8686 H   0  0  0  0  0  0  0  0  0  0  0  0
   -2.4806   -0.2946    0.3665 C   0  0  0  0  0  0  0  0  0  0  0  0
   -3.4799    0.0600    0.9639 O   0  0  0  0  0  0  0  0  0  0  0  0
   -1.8178    0.7223   -0.2733 N   0  0  0  0  0  0  0  0  0  0  0  0
   -2.3826    1.5703   -0.2323 H   0  0  0  0  0  0  0  0  0  0  0  0
   -0.3673    1.0086   -0.2680 C   0  0  1  0  0  0  0  0  0  0  0  0
   -0.2379    1.8009    0.4769 H   0  0  0  0  0  0  0  0  0  0  0  0
    0.6520   -0.0841    0.1522 C   0  0  0  0  0  0  0  0  0  0  0  0
    0.5222   -0.9707   -0.4737 H   0  0  0  0  0  0  0  0  0  0  0  0
    1.6672    0.2859   -0.0275 H   0  0  0  0  0  0  0  0  0  0  0  0
    0.5612   -0.4640    1.6155 C   0  0  0  0  0  0  0  0  0  0  0  0
    1.1834    0.3571    2.5704 C   0  0  0  0  0  0  0  0  0  0  0  0
    1.6542    1.2872    2.2658 H   0  0  0  0  0  0  0  0  0  0  0  0
    1.1883    0.0086    3.9249 C   0  0  0  0  0  0  0  0  0  0  0  0
    1.6505    0.6675    4.6545 H   0  0  0  0  0  0  0  0  0  0  0  0
    0.6014   -1.1889    4.3398 C   0  0  0  0  0  0  0  0  0  0  0  0
    0.6020   -1.4604    5.3917 H   0  0  0  0  0  0  0  0  0  0  0  0
    0.0313   -2.0448    3.3947 C   0  0  0  0  0  0  0  0  0  0  0  0
   -0.3991   -2.9901    3.7119 H   0  0  0  0  0  0  0  0  0  0  0  0
    0.0304   -1.6927    2.0407 C   0  0  0  0  0  0  0  0  0  0  0  0
   -0.3638   -2.4038    1.3260 H   0  0  0  0  0  0  0  0  0  0  0  0
    0.0179    1.6753   -1.6086 C   0  0  0  0  0  0  0  0  0  0  0  0
   -0.5074    2.7371   -1.9145 O   0  0  0  0  0  0  0  0  0  0  0  0
    0.9407    1.1164   -2.4781 N   0  0  0  0  0  0  0  0  0  0  0  0
    1.3217    0.2059   -2.2415 H   0  0  0  0  0  0  0  0  0  0  0  0
    1.2794    1.7048   -3.7690 C   0  0  0  0  0  0  0  0  0  0  0  0
    1.6705    2.7194   -3.6377 H   0  0  0  0  0  0  0  0  0  0  0  0
    2.0437    1.1037   -4.2708 H   0  0  0  0  0  0  0  0  0  0  0  0
    0.3951    1.7487   -4.4133 H   0  0  0  0  0  0  0  0  0  0  0  0
  1  2  1  0  0  0  0
  2  3  1  0  0  0  0
  2  4  1  0  0  0  0
  2  5  1  0  0  0  0
  5  6  2  0  0  0  0
  5  7  1  0  0  0  0
  7  8  1  0  0  0  0
  7  9  1  0  0  0  0
  9 10  1  0  0  0  0
  9 11  1  0  0  0  0
  9 25  1  0  0  0  0
 11 12  1  0  0  0  0
 11 13  1  0  0  0  0
 11 14  1  0  0  0  0
 14 15  1  0  0  0  0
 14 23  2  0  0  0  0
 15 16  1  0  0  0  0
 15 17  2  0  0  0  0
 17 18  1  0  0  0  0
 17 19  1  0  0  0  0
 19 20  1  0  0  0  0
 19 21  2  0  0  0  0
 21 22  1  0  0  0  0
 21 23  1  0  0  0  0
 23 24  1  0  0  0  0
 25 26  2  0  0  0  0
 25 27  1  0  0  0  0
 27 28  1  0  0  0  0
 27 29  1  0  0  0  0
 29 30  1  0  0  0  0
 29 31  1  0  0  0  0
 29 32  1  0  0  0  0
M  END
$$$$

  -OEChem-01062216093D

 32 32  0     1  0  0  0  0  0999 V2000
   -1.5018   -1.9330   -0.6765 H   0  0  0  0  0  0  0  0  0  0  0  0
   -2.4378   -1.7232   -0.1587 C   0  0  0  0  0  0  0  0  0  0  0  0
   -2.5598   -2.4234    0.6711 H   0  0  0  0  0  0  0  0  0  0  0  0
   -3.2590   -1.8706   -0.8647 H   0  0  0  0  0  0  0  0  0  0  0  0
   -2.4716   -0.2949    0.3593 C   0  0  0  0  0  0  0  0  0  0  0  0
   -3.4686    0.0703    0.9540 O   0  0  0  0  0  0  0  0  0  0  0  0
   -1.8049    0.7145   -0.2876 N   0  0  0  0  0  0  0  0  0  0  0  0
   -2.3608    1.5671   -0.2303 H   0  0  0  0  0  0  0  0  0  0  0  0
   -0.3528    0.9883   -0.2782 C   0  0  1  0  0  0  0  0  0  0  0  0
   -0.2218    1.7823    0.4649 H   0  0  0  0  0  0  0  0  0  0  0  0
    0.6638   -0.1040    0.1468 C   0  0  0  0  0  0  0  0  0  0  0  0
    0.5309   -0.9951   -0.4718 H   0  0  0  0  0  0  0  0  0  0  0  0
    1.6789    0.2628   -0.0408 H   0  0  0  0  0  0  0  0  0  0  0  0
    0.5687   -0.4757    1.6117 C   0  0  0  0  0  0  0  0  0  0  0  0
    1.1911    0.3500    2.5623 C   0  0  0  0  0  0  0  0  0  0  0  0
    1.6685    1.2747    2.2512 H   0  0  0  0  0  0  0  0  0  0  0  0
    1.1871    0.0136    3.9197 C   0  0  0  0  0  0  0  0  0  0  0  0
    1.6501    0.6761    4.6451 H   0  0  0  0  0  0  0  0  0  0  0  0
    0.5889   -1.1757    4.3420 C   0  0  0  0  0  0  0  0  0  0  0  0
    0.5807   -1.4368    5.3965 H   0  0  0  0  0  0  0  0  0  0  0  0
    0.0190   -2.0369    3.4014 C   0  0  0  0  0  0  0  0  0  0  0  0
   -0.4204   -2.9759    3.7255 H   0  0  0  0  0  0  0  0  0  0  0  0
    0.0282   -1.6975    2.0442 C   0  0  0  0  0  0  0  0  0  0  0  0
   -0.3670   -2.4121    1.3338 H   0  0  0  0  0  0  0  0  0  0  0  0
    0.0482    1.6411   -1.6171 C   0  0  0  0  0  0  0  0  0  0  0  0
   -0.2535    2.8081   -1.8244 O   0  0  0  0  0  0  0  0  0  0  0  0
    0.7235    0.9363   -2.5993 N   0  0  0  0  0  0  0  0  0  0  0  0
    0.8798   -0.0543   -2.4432 H   0  0  0  0  0  0  0  0  0  0  0  0
    1.0477    1.5019   -3.9037 C   0  0  0  0  0  0  0  0  0  0  0  0
    1.6495    2.4098   -3.7893 H   0  0  0  0  0  0  0  0  0  0  0  0
    1.6204    0.7827   -4.4972 H   0  0  0  0  0  0  0  0  0  0  0  0
    0.1321    1.7527   -4.4499 H   0  0  0  0  0  0  0  0  0  0  0  0
  1  2  1  0  0  0  0
  2  3  1  0  0  0  0
  2  4  1  0  0  0  0
  2  5  1  0  0  0  0
  5  6  2  0  0  0  0
  5  7  1  0  0  0  0
  7  8  1  0  0  0  0
  7  9  1  0  0  0  0
  9 10  1  0  0  0  0
  9 11  1  0  0  0  0
  9 25  1  0  0  0  0
 11 12  1  0  0  0  0
 11 13  1  0  0  0  0
 11 14  1  0  0  0  0
 14 15  1  0  0  0  0
 14 23  2  0  0  0  0
 15 16  1  0  0  0  0
 15 17  2  0  0  0  0
 17 18  1  0  0  0  0
 17 19  1  0  0  0  0
 19 20  1  0  0  0  0
 19 21  2  0  0  0  0
 21 22  1  0  0  0  0
 21 23  1  0  0  0  0
 23 24  1  0  0  0  0
 25 26  2  0  0  0  0
 25 27  1  0  0  0  0
 27 28  1  0  0  0  0
 27 29  1  0  0  0  0
 29 30  1  0  0  0  0
 29 31  1  0  0  0  0
 29 32  1  0  0  0  0
M  END
$$$$

  -OEChem-01062216093D

 32 32  0     1  0  0  0  0  0999 V2000
   -1.5155   -1.9462   -0.6540 H   0  0  0  0  0  0  0  0  0  0  0  0
   -2.4491   -1.7275   -0.1353 C   0  0  0  0  0  0  0  0  0  0  0  0
   -2.5674   -2.4136    0.7067 H   0  0  0  0  0  0  0  0  0  0  0  0
   -3.2743   -1.8860   -0.8343 H   0  0  0  0  0  0  0  0  0  0  0  0
   -2.4786   -0.2909    0.3591 C   0  0  0  0  0  0  0  0  0  0  0  0
   -3.4759    0.0888    0.9438 O   0  0  0  0  0  0  0  0  0  0  0  0
   -1.8097    0.7068   -0.3038 N   0  0  0  0  0  0  0  0  0  0  0  0
   -2.3620    1.5615   -0.2435 H   0  0  0  0  0  0  0  0  0  0  0  0
   -0.3563    0.9750   -0.2920 C   0  0  1  0  0  0  0  0  0  0  0  0
   -0.2251    1.7746    0.4456 H   0  0  0  0  0  0  0  0  0  0  0  0
    0.6598   -0.1144    0.1379 C   0  0  0  0  0  0  0  0  0  0  0  0
    0.5282   -1.0080   -0.4774 H   0  0  0  0  0  0  0  0  0  0  0  0
    1.6742    0.2528   -0.0540 H   0  0  0  0  0  0  0  0  0  0  0  0
    0.5655   -0.4816    1.6038 C   0  0  0  0  0  0  0  0  0  0  0  0
    1.1880    0.3487    2.5501 C   0  0  0  0  0  0  0  0  0  0  0  0
    1.6631    1.2732    2.2346 H   0  0  0  0  0  0  0  0  0  0  0  0
    1.1885    0.0162    3.9084 C   0  0  0  0  0  0  0  0  0  0  0  0
    1.6523    0.6819    4.6304 H   0  0  0  0  0  0  0  0  0  0  0  0
    0.5957   -1.1740    4.3359 C   0  0  0  0  0  0  0  0  0  0  0  0
    0.5931   -1.4334    5.3907 H   0  0  0  0  0  0  0  0  0  0  0  0
    0.0242   -2.0388    3.3996 C   0  0  0  0  0  0  0  0  0  0  0  0
   -0.4118   -2.9781    3.7271 H   0  0  0  0  0  0  0  0  0  0  0  0
    0.0292   -1.7034    2.0415 C   0  0  0  0  0  0  0  0  0  0  0  0
   -0.3644   -2.4215    1.3337 H   0  0  0  0  0  0  0  0  0  0  0  0
    0.0601    1.6030   -1.6361 C   0  0  0  0  0  0  0  0  0  0  0  0
    0.0355    2.8185   -1.7664 O   0  0  0  0  0  0  0  0  0  0  0  0
    0.4555    0.8144   -2.7026 N   0  0  0  0  0  0  0  0  0  0  0  0
    0.3593   -0.1908   -2.5999 H   0  0  0  0  0  0  0  0  0  0  0  0
    0.7826    1.3583   -4.0152 C   0  0  0  0  0  0  0  0  0  0  0  0
    1.5873    2.0967   -3.9347 H   0  0  0  0  0  0  0  0  0  0  0  0
    1.1158    0.5589   -4.6839 H   0  0  0  0  0  0  0  0  0  0  0  0
   -0.0945    1.8404   -4.4594 H   0  0  0  0  0  0  0  0  0  0  0  0
  1  2  1  0  0  0  0
  2  3  1  0  0  0  0
  2  4  1  0  0  0  0
  2  5  1  0  0  0  0
  5  6  2  0  0  0  0
  5  7  1  0  0  0  0
  7  8  1  0  0  0  0
  7  9  1  0  0  0  0
  9 10  1  0  0  0  0
  9 11  1  0  0  0  0
  9 25  1  0  0  0  0
 11 12  1  0  0  0  0
 11 13  1  0  0  0  0
 11 14  1  0  0  0  0
 14 15  1  0  0  0  0
 14 23  2  0  0  0  0
 15 16  1  0  0  0  0
 15 17  2  0  0  0  0
 17 18  1  0  0  0  0
 17 19  1  0  0  0  0
 19 20  1  0  0  0  0
 19 21  2  0  0  0  0
 21 22  1  0  0  0  0
 21 23  1  0  0  0  0
 23 24  1  0  0  0  0
 25 26  2  0  0  0  0
 25 27  1  0  0  0  0
 27 28  1  0  0  0  0
 27 29  1  0  0  0  0
 29 30  1  0  0  0  0
 29 31  1  0  0  0  0
 29 32  1  0  0  0  0
M  END
$$$$

  -OEChem-01062216093D

 32 32  0     1  0  0  0  0  0999 V2000
   -1.5404   -1.9604   -0.6249 H   0  0  0  0  0  0  0  0  0  0  0  0
   -2.4675   -1.7325   -0.0984 C   0  0  0  0  0  0  0  0  0  0  0  0
   -2.5740   -2.4023    0.7583 H   0  0  0  0  0  0  0  0  0  0  0  0
   -3.3018   -1.9056   -0.7831 H   0  0  0  0  0  0  0  0  0  0  0  0
   -2.4923   -0.2870    0.3689 C   0  0  0  0  0  0  0  0  0  0  0  0
   -3.4910    0.1083    0.9403 O   0  0  0  0  0  0  0  0  0  0  0  0
   -1.8239    0.6980   -0.3133 N   0  0  0  0  0  0  0  0  0  0  0  0
   -2.3745    1.5539   -0.2549 H   0  0  0  0  0  0  0  0  0  0  0  0
   -0.3693    0.9624   -0.3050 C   0  0  1  0  0  0  0  0  0  0  0  0
   -0.2352    1.7689    0.4245 H   0  0  0  0  0  0  0  0  0  0  0  0
    0.6497   -0.1233    0.1242 C   0  0  0  0  0  0  0  0  0  0  0  0
    0.5176   -1.0176   -0.4902 H   0  0  0  0  0  0  0  0  0  0  0  0
    1.6628    0.2458   -0.0728 H   0  0  0  0  0  0  0  0  0  0  0  0
    0.5610   -0.4867    1.5913 C   0  0  0  0  0  0  0  0  0  0  0  0
    1.1849    0.3476    2.5329 C   0  0  0  0  0  0  0  0  0  0  0  0
    1.6560    1.2725    2.2122 H   0  0  0  0  0  0  0  0  0  0  0  0
    1.1916    0.0188    3.8922 C   0  0  0  0  0  0  0  0  0  0  0  0
    1.6557    0.6882    4.6107 H   0  0  0  0  0  0  0  0  0  0  0  0
    0.6045   -1.1720    4.3251 C   0  0  0  0  0  0  0  0  0  0  0  0
    0.6068   -1.4277    5.3808 H   0  0  0  0  0  0  0  0  0  0  0  0
    0.0349   -2.0426    3.3932 C   0  0  0  0  0  0  0  0  0  0  0  0
   -0.3936   -2.9838    3.7252 H   0  0  0  0  0  0  0  0  0  0  0  0
    0.0335   -1.7105    2.0340 C   0  0  0  0  0  0  0  0  0  0  0  0
   -0.3559   -2.4337    1.3290 H   0  0  0  0  0  0  0  0  0  0  0  0
    0.0541    1.5643   -1.6572 C   0  0  0  0  0  0  0  0  0  0  0  0
    0.3496    2.7484   -1.7304 O   0  0  0  0  0  0  0  0  0  0  0  0
    0.1483    0.7660   -2.7827 N   0  0  0  0  0  0  0  0  0  0  0  0
   -0.2187   -0.1778   -2.7102 H   0  0  0  0  0  0  0  0  0  0  0  0
    0.4934    1.2869   -4.0998 C   0  0  0  0  0  0  0  0  0  0  0  0
    1.4590    1.8029   -4.0675 H   0  0  0  0  0  0  0  0  0  0  0  0
    0.5652    0.4691   -4.8231 H   0  0  0  0  0  0  0  0  0  0  0  0
   -0.2706    1.9914   -4.4450 H   0  0  0  0  0  0  0  0  0  0  0  0
  1  2  1  0  0  0  0
  2  3  1  0  0  0  0
  2  4  1  0  0  0  0
  2  5  1  0  0  0  0
  5  6  2  0  0  0  0
  5  7  1  0  0  0  0
  7  8  1  0  0  0  0
  7  9  1  0  0  0  0
  9 10  1  0  0  0  0
  9 11  1  0  0  0  0
  9 25  1  0  0  0  0
 11 12  1  0  0  0  0
 11 13  1  0  0  0  0
 11 14  1  0  0  0  0
 14 15  1  0  0  0  0
 14 23  2  0  0  0  0
 15 16  1  0  0  0  0
 15 17  2  0  0  0  0
 17 18  1  0  0  0  0
 17 19  1  0  0  0  0
 19 20  1  0  0  0  0
 19 21  2  0  0  0  0
 21 22  1  0  0  0  0
 21 23  1  0  0  0  0
 23 24  1  0  0  0  0
 25 26  2  0  0  0  0
 25 27  1  0  0  0  0
 27 28  1  0  0  0  0
 27 29  1  0  0  0  0
 29 30  1  0  0  0  0
 29 31  1  0  0  0  0
 29 32  1  0  0  0  0
M  END
$$$$

  -OEChem-01062216093D

 32 32  0     1  0  0  0  0  0999 V2000
   -1.5653   -1.9750   -0.5939 H   0  0  0  0  0  0  0  0  0  0  0  0
   -2.4892   -1.7364   -0.0661 C   0  0  0  0  0  0  0  0  0  0  0  0
   -2.5944   -2.3946    0.7997 H   0  0  0  0  0  0  0  0  0  0  0  0
   -3.3275   -1.9149   -0.7444 H   0  0  0  0  0  0  0  0  0  0  0  0
   -2.5058   -0.2850    0.3830 C   0  0  0  0  0  0  0  0  0  0  0  0
   -3.5027    0.1239    0.9480 O   0  0  0  0  0  0  0  0  0  0  0  0
   -1.8399    0.6882   -0.3179 N   0  0  0  0  0  0  0  0  0  0  0  0
   -2.3876    1.5456   -0.2586 H   0  0  0  0  0  0  0  0  0  0  0  0
   -0.3838    0.9491   -0.3166 C   0  0  1  0  0  0  0  0  0  0  0  0
   -0.2448    1.7639    0.4027 H   0  0  0  0  0  0  0  0  0  0  0  0
    0.6346   -0.1353    0.1139 C   0  0  0  0  0  0  0  0  0  0  0  0
    0.4984   -1.0311   -0.4973 H   0  0  0  0  0  0  0  0  0  0  0  0
    1.6476    0.2306   -0.0898 H   0  0  0  0  0  0  0  0  0  0  0  0
    0.5523   -0.4916    1.5832 C   0  0  0  0  0  0  0  0  0  0  0  0
    1.1817    0.3464    2.5179 C   0  0  0  0  0  0  0  0  0  0  0  0
    1.6499    1.2704    2.1905 H   0  0  0  0  0  0  0  0  0  0  0  0
    1.1977    0.0225    3.8783 C   0  0  0  0  0  0  0  0  0  0  0  0
    1.6655    0.6951    4.5915 H   0  0  0  0  0  0  0  0  0  0  0  0
    0.6166   -1.1687    4.3185 C   0  0  0  0  0  0  0  0  0  0  0  0
    0.6259   -1.4214    5.3748 H   0  0  0  0  0  0  0  0  0  0  0  0
    0.0437   -2.0439    3.3926 C   0  0  0  0  0  0  0  0  0  0  0  0
   -0.3782   -2.9866    3.7286 H   0  0  0  0  0  0  0  0  0  0  0  0
    0.0314   -1.7155    2.0327 C   0  0  0  0  0  0  0  0  0  0  0  0
   -0.3599   -2.4420    1.3320 H   0  0  0  0  0  0  0  0  0  0  0  0
    0.0428    1.5276   -1.6770 C   0  0  0  0  0  0  0  0  0  0  0  0
    0.6344    2.5962   -1.7288 O   0  0  0  0  0  0  0  0  0  0  0  0
   -0.1608    0.7994   -2.8346 N   0  0  0  0  0  0  0  0  0  0  0  0
   -0.7498   -0.0244   -2.7578 H   0  0  0  0  0  0  0  0  0  0  0  0
    0.1848    1.2972   -4.1604 C   0  0  0  0  0  0  0  0  0  0  0  0
    1.2446    1.5695   -4.2040 H   0  0  0  0  0  0  0  0  0  0  0  0
   -0.0026    0.5268   -4.9145 H   0  0  0  0  0  0  0  0  0  0  0  0
   -0.4162    2.1789   -4.4063 H   0  0  0  0  0  0  0  0  0  0  0  0
  1  2  1  0  0  0  0
  2  3  1  0  0  0  0
  2  4  1  0  0  0  0
  2  5  1  0  0  0  0
  5  6  2  0  0  0  0
  5  7  1  0  0  0  0
  7  8  1  0  0  0  0
  7  9  1  0  0  0  0
  9 10  1  0  0  0  0
  9 11  1  0  0  0  0
  9 25  1  0  0  0  0
 11 12  1  0  0  0  0
 11 13  1  0  0  0  0
 11 14  1  0  0  0  0
 14 15  1  0  0  0  0
 14 23  2  0  0  0  0
 15 16  1  0  0  0  0
 15 17  2  0  0  0  0
 17 18  1  0  0  0  0
 17 19  1  0  0  0  0
 19 20  1  0  0  0  0
 19 21  2  0  0  0  0
 21 22  1  0  0  0  0
 21 23  1  0  0  0  0
 23 24  1  0  0  0  0
 25 26  2  0  0  0  0
 25 27  1  0  0  0  0
 27 28  1  0  0  0  0
 27 29  1  0  0  0  0
 29 30  1  0  0  0  0
 29 31  1  0  0  0  0
 29 32  1  0  0  0  0
M  END
$$$$

  -OEChem-01062216093D

 32 32  0     1  0  0  0  0  0999 V2000
   -1.5896   -1.9994   -0.5805 H   0  0  0  0  0  0  0  0  0  0  0  0
   -2.5055   -1.7581   -0.0397 C   0  0  0  0  0  0  0  0  0  0  0  0
   -2.5977   -2.4121    0.8308 H   0  0  0  0  0  0  0  0  0  0  0  0
   -3.3540   -1.9400   -0.7041 H   0  0  0  0  0  0  0  0  0  0  0  0
   -2.5148   -0.3042    0.4014 C   0  0  0  0  0  0  0  0  0  0  0  0
   -3.5060    0.1112    0.9713 O   0  0  0  0  0  0  0  0  0  0  0  0
   -1.8589    0.6639   -0.3158 N   0  0  0  0  0  0  0  0  0  0  0  0
   -2.4077    1.5202   -0.2518 H   0  0  0  0  0  0  0  0  0  0  0  0
   -0.4019    0.9281   -0.3282 C   0  0  1  0  0  0  0  0  0  0  0  0
   -0.2573    1.7507    0.3807 H   0  0  0  0  0  0  0  0  0  0  0  0
    0.6179   -0.1548    0.1047 C   0  0  0  0  0  0  0  0  0  0  0  0
    0.4754   -1.0548   -0.4993 H   0  0  0  0  0  0  0  0  0  0  0  0
    1.6308    0.2061   -0.1084 H   0  0  0  0  0  0  0  0  0  0  0  0
    0.5451   -0.4990    1.5774 C   0  0  0  0  0  0  0  0  0  0  0  0
    1.1822    0.3457    2.5007 C   0  0  0  0  0  0  0  0  0  0  0  0
    1.6503    1.2656    2.1615 H   0  0  0  0  0  0  0  0  0  0  0  0
    1.2065    0.0335    3.8637 C   0  0  0  0  0  0  0  0  0  0  0  0
    1.6799    0.7116    4.5679 H   0  0  0  0  0  0  0  0  0  0  0  0
    0.6265   -1.1531    4.3179 C   0  0  0  0  0  0  0  0  0  0  0  0
    0.6431   -1.3974    5.3761 H   0  0  0  0  0  0  0  0  0  0  0  0
    0.0469   -2.0357    3.4033 C   0  0  0  0  0  0  0  0  0  0  0  0
   -0.3740   -2.9749    3.7501 H   0  0  0  0  0  0  0  0  0  0  0  0
    0.0268   -1.7190    2.0407 C   0  0  0  0  0  0  0  0  0  0  0  0
   -0.3678   -2.4514    1.3482 H   0  0  0  0  0  0  0  0  0  0  0  0
    0.0206    1.4937   -1.6961 C   0  0  0  0  0  0  0  0  0  0  0  0
    0.8414    2.3979   -1.7564 O   0  0  0  0  0  0  0  0  0  0  0  0
   -0.4515    0.9173   -2.8606 N   0  0  0  0  0  0  0  0  0  0  0  0
   -1.1976    0.2348   -2.7599 H   0  0  0  0  0  0  0  0  0  0  0  0
   -0.1219    1.4150   -4.1903 C   0  0  0  0  0  0  0  0  0  0  0  0
    0.9628    1.4181   -4.3411 H   0  0  0  0  0  0  0  0  0  0  0  0
   -0.5728    0.7760   -4.9554 H   0  0  0  0  0  0  0  0  0  0  0  0
   -0.4990    2.4346   -4.3218 H   0  0  0  0  0  0  0  0  0  0  0  0
  1  2  1  0  0  0  0
  2  3  1  0  0  0  0
  2  4  1  0  0  0  0
  2  5  1  0  0  0  0
  5  6  2  0  0  0  0
  5  7  1  0  0  0  0
  7  8  1  0  0  0  0
  7  9  1  0  0  0  0
  9 10  1  0  0  0  0
  9 11  1  0  0  0  0
  9 25  1  0  0  0  0
 11 12  1  0  0  0  0
 11 13  1  0  0  0  0
 11 14  1  0  0  0  0
 14 15  1  0  0  0  0
 14 23  2  0  0  0  0
 15 16  1  0  0  0  0
 15 17  2  0  0  0  0
 17 18  1  0  0  0  0
 17 19  1  0  0  0  0
 19 20  1  0  0  0  0
 19 21  2  0  0  0  0
 21 22  1  0  0  0  0
 21 23  1  0  0  0  0
 23 24  1  0  0  0  0
 25 26  2  0  0  0  0
 25 27  1  0  0  0  0
 27 28  1  0  0  0  0
 27 29  1  0  0  0  0
 29 30  1  0  0  0  0
 29 31  1  0  0  0  0
 29 32  1  0  0  0  0
M  END
$$$$

  -OEChem-01062216093D

 32 32  0     1  0  0  0  0  0999 V2000
   -1.6158   -2.0331   -0.5556 H   0  0  0  0  0  0  0  0  0  0  0  0
   -2.5304   -1.7797   -0.0185 C   0  0  0  0  0  0  0  0  0  0  0  0
   -2.6352   -2.4338    0.8505 H   0  0  0  0  0  0  0  0  0  0  0  0
   -3.3782   -1.9483   -0.6875 H   0  0  0  0  0  0  0  0  0  0  0  0
   -2.5196   -0.3269    0.4264 C   0  0  0  0  0  0  0  0  0  0  0  0
   -3.4962    0.0958    1.0161 O   0  0  0  0  0  0  0  0  0  0  0  0
   -1.8746    0.6375   -0.3055 N   0  0  0  0  0  0  0  0  0  0  0  0
   -2.4191    1.4949   -0.2253 H   0  0  0  0  0  0  0  0  0  0  0  0
   -0.4162    0.9000   -0.3412 C   0  0  1  0  0  0  0  0  0  0  0  0
   -0.2593    1.7280    0.3583 H   0  0  0  0  0  0  0  0  0  0  0  0
    0.6006   -0.1870    0.0929 C   0  0  0  0  0  0  0  0  0  0  0  0
    0.4443   -1.0924   -0.4994 H   0  0  0  0  0  0  0  0  0  0  0  0
    1.6147    0.1613   -0.1334 H   0  0  0  0  0  0  0  0  0  0  0  0
    0.5407   -0.5128    1.5710 C   0  0  0  0  0  0  0  0  0  0  0  0
    1.1948    0.3375    2.4773 C   0  0  0  0  0  0  0  0  0  0  0  0
    1.6706    1.2469    2.1212 H   0  0  0  0  0  0  0  0  0  0  0  0
    1.2266    0.0442    3.8444 C   0  0  0  0  0  0  0  0  0  0  0  0
    1.7135    0.7265    4.5351 H   0  0  0  0  0  0  0  0  0  0  0  0
    0.6364   -1.1287    4.3205 C   0  0  0  0  0  0  0  0  0  0  0  0
    0.6583   -1.3578    5.3821 H   0  0  0  0  0  0  0  0  0  0  0  0
    0.0392   -2.0169    3.4231 C   0  0  0  0  0  0  0  0  0  0  0  0
   -0.3906   -2.9454    3.7873 H   0  0  0  0  0  0  0  0  0  0  0  0
    0.0122   -1.7199    2.0562 C   0  0  0  0  0  0  0  0  0  0  0  0
   -0.3977   -2.4573    1.3781 H   0  0  0  0  0  0  0  0  0  0  0  0
   -0.0051    1.4597   -1.7170 C   0  0  0  0  0  0  0  0  0  0  0  0
    0.9754    2.1839   -1.8147 O   0  0  0  0  0  0  0  0  0  0  0  0
   -0.7060    1.1035   -2.8542 N   0  0  0  0  0  0  0  0  0  0  0  0
   -1.5490    0.5523   -2.7159 H   0  0  0  0  0  0  0  0  0  0  0  0
   -0.4025    1.6214   -4.1826 C   0  0  0  0  0  0  0  0  0  0  0  0
    0.6327    1.3925   -4.4568 H   0  0  0  0  0  0  0  0  0  0  0  0
   -1.0642    1.1662   -4.9257 H   0  0  0  0  0  0  0  0  0  0  0  0
   -0.5425    2.7070   -4.2111 H   0  0  0  0  0  0  0  0  0  0  0  0
  1  2  1  0  0  0  0
  2  3  1  0  0  0  0
  2  4  1  0  0  0  0
  2  5  1  0  0  0  0
  5  6  2  0  0  0  0
  5  7  1  0  0  0  0
  7  8  1  0  0  0  0
  7  9  1  0  0  0  0
  9 10  1  0  0  0  0
  9 11  1  0  0  0  0
  9 25  1  0  0  0  0
 11 12  1  0  0  0  0
 11 13  1  0  0  0  0
 11 14  1  0  0  0  0
 14 15  1  0  0  0  0
 14 23  2  0  0  0  0
 15 16  1  0  0  0  0
 15 17  2  0  0  0  0
 17 18  1  0  0  0  0
 17 19  1  0  0  0  0
 19 20  1  0  0  0  0
 19 21  2  0  0  0  0
 21 22  1  0  0  0  0
 21 23  1  0  0  0  0
 23 24  1  0  0  0  0
 25 26  2  0  0  0  0
 25 27  1  0  0  0  0
 27 28  1  0  0  0  0
 27 29  1  0  0  0  0
 29 30  1  0  0  0  0
 29 31  1  0  0  0  0
 29 32  1  0  0  0  0
M  END
$$$$

  -OEChem-01062216093D

 32 32  0     1  0  0  0  0  0999 V2000
   -1.6434   -2.0577   -0.5397 H   0  0  0  0  0  0  0  0  0  0  0  0
   -2.5513   -1.8027    0.0080 C   0  0  0  0  0  0  0  0  0  0  0  0
   -2.6459   -2.4556    0.8791 H   0  0  0  0  0  0  0  0  0  0  0  0
   -3.4072   -1.9716   -0.6505 H   0  0  0  0  0  0  0  0  0  0  0  0
   -2.5339   -0.3493    0.4511 C   0  0  0  0  0  0  0  0  0  0  0  0
   -3.5004    0.0737    1.0571 O   0  0  0  0  0  0  0  0  0  0  0  0
   -1.9041    0.6182   -0.2899 N   0  0  0  0  0  0  0  0  0  0  0  0
   -2.4490    1.4735   -0.1907 H   0  0  0  0  0  0  0  0  0  0  0  0
   -0.4467    0.8883   -0.3471 C   0  0  1  0  0  0  0  0  0  0  0  0
   -0.2840    1.7181    0.3485 H   0  0  0  0  0  0  0  0  0  0  0  0
    0.5735   -0.1999    0.0829 C   0  0  0  0  0  0  0  0  0  0  0  0
    0.4081   -1.1080   -0.5028 H   0  0  0  0  0  0  0  0  0  0  0  0
    1.5881    0.1401   -0.1528 H   0  0  0  0  0  0  0  0  0  0  0  0
    0.5275   -0.5159    1.5631 C   0  0  0  0  0  0  0  0  0  0  0  0
    1.1926    0.3396    2.4561 C   0  0  0  0  0  0  0  0  0  0  0  0
    1.6635    1.2469    2.0881 H   0  0  0  0  0  0  0  0  0  0  0  0
    1.2415    0.0544    3.8245 C   0  0  0  0  0  0  0  0  0  0  0  0
    1.7368    0.7412    4.5048 H   0  0  0  0  0  0  0  0  0  0  0  0
    0.6593   -1.1171    4.3139 C   0  0  0  0  0  0  0  0  0  0  0  0
    0.6957   -1.3407    5.3762 H   0  0  0  0  0  0  0  0  0  0  0  0
    0.0526   -2.0115    3.4288 C   0  0  0  0  0  0  0  0  0  0  0  0
   -0.3698   -2.9396    3.8027 H   0  0  0  0  0  0  0  0  0  0  0  0
    0.0080   -1.7219    2.0607 C   0  0  0  0  0  0  0  0  0  0  0  0
   -0.4067   -2.4647    1.3911 H   0  0  0  0  0  0  0  0  0  0  0  0
   -0.0517    1.4514   -1.7298 C   0  0  0  0  0  0  0  0  0  0  0  0
    1.0372    1.9858   -1.8885 O   0  0  0  0  0  0  0  0  0  0  0  0
   -0.9180    1.3561   -2.8034 N   0  0  0  0  0  0  0  0  0  0  0  0
   -1.8174    0.9148   -2.6299 H   0  0  0  0  0  0  0  0  0  0  0  0
   -0.6191    1.8754   -4.1319 C   0  0  0  0  0  0  0  0  0  0  0  0
    0.2875    1.4080   -4.5305 H   0  0  0  0  0  0  0  0  0  0  0  0
   -1.4461    1.6636   -4.8160 H   0  0  0  0  0  0  0  0  0  0  0  0
   -0.4697    2.9596   -4.0944 H   0  0  0  0  0  0  0  0  0  0  0  0
  1  2  1  0  0  0  0
  2  3  1  0  0  0  0
  2  4  1  0  0  0  0
  2  5  1  0  0  0  0
  5  6  2  0  0  0  0
  5  7  1  0  0  0  0
  7  8  1  0  0  0  0
  7  9  1  0  0  0  0
  9 10  1  0  0  0  0
  9 11  1  0  0  0  0
  9 25  1  0  0  0  0
 11 12  1  0  0  0  0
 11 13  1  0  0  0  0
 11 14  1  0  0  0  0
 14 15  1  0  0  0  0
 14 23  2  0  0  0  0
 15 16  1  0  0  0  0
 15 17  2  0  0  0  0
 17 18  1  0  0  0  0
 17 19  1  0  0  0  0
 19 20  1  0  0  0  0
 19 21  2  0  0  0  0
 21 22  1  0  0  0  0
 21 23  1  0  0  0  0
 23 24  1  0  0  0  0
 25 26  2  0  0  0  0
 25 27  1  0  0  0  0
 27 28  1  0  0  0  0
 27 29  1  0  0  0  0
 29 30  1  0  0  0  0
 29 31  1  0  0  0  0
 29 32  1  0  0  0  0
M  END
$$$$

  -OEChem-01062216093D

 32 32  0     1  0  0  0  0  0999 V2000
   -1.6475   -2.0743   -0.5403 H   0  0  0  0  0  0  0  0  0  0  0  0
   -2.5601   -1.8201    0.0000 C   0  0  0  0  0  0  0  0  0  0  0  0
   -2.6695   -2.4855    0.8600 H   0  0  0  0  0  0  0  0  0  0  0  0
   -3.4087   -1.9732   -0.6714 H   0  0  0  0  0  0  0  0  0  0  0  0
   -2.5383   -0.3732    0.4640 C   0  0  0  0  0  0  0  0  0  0  0  0
   -3.4954    0.0423    1.0899 O   0  0  0  0  0  0  0  0  0  0  0  0
   -1.9233    0.6033   -0.2766 N   0  0  0  0  0  0  0  0  0  0  0  0
   -2.4680    1.4550   -0.1512 H   0  0  0  0  0  0  0  0  0  0  0  0
   -0.4674    0.8806   -0.3498 C   0  0  1  0  0  0  0  0  0  0  0  0
   -0.3005    1.7100    0.3450 H   0  0  0  0  0  0  0  0  0  0  0  0
    0.5553   -0.2086    0.0797 C   0  0  0  0  0  0  0  0  0  0  0  0
    0.3873   -1.1185   -0.5018 H   0  0  0  0  0  0  0  0  0  0  0  0
    1.5701    0.1265   -0.1601 H   0  0  0  0  0  0  0  0  0  0  0  0
    0.5206   -0.5178    1.5624 C   0  0  0  0  0  0  0  0  0  0  0  0
    1.1946    0.3408    2.4458 C   0  0  0  0  0  0  0  0  0  0  0  0
    1.6648    1.2448    2.0692 H   0  0  0  0  0  0  0  0  0  0  0  0
    1.2561    0.0614    3.8146 C   0  0  0  0  0  0  0  0  0  0  0  0
    1.7603    0.7499    4.4865 H   0  0  0  0  0  0  0  0  0  0  0  0
    0.6761   -1.1066    4.3147 C   0  0  0  0  0  0  0  0  0  0  0  0
    0.7219   -1.3257    5.3774 H   0  0  0  0  0  0  0  0  0  0  0  0
    0.0584   -2.0031    3.4397 C   0  0  0  0  0  0  0  0  0  0  0  0
   -0.3623   -2.9287    3.8218 H   0  0  0  0  0  0  0  0  0  0  0  0
    0.0006   -1.7191    2.0710 C   0  0  0  0  0  0  0  0  0  0  0  0
   -0.4262   -2.4624    1.4098 H   0  0  0  0  0  0  0  0  0  0  0  0
   -0.0963    1.4576   -1.7370 C   0  0  0  0  0  0  0  0  0  0  0  0
    1.0535    1.7940   -1.9853 O   0  0  0  0  0  0  0  0  0  0  0  0
   -1.0676    1.6469   -2.7038 N   0  0  0  0  0  0  0  0  0  0  0  0
   -1.9994    1.3015   -2.4892 H   0  0  0  0  0  0  0  0  0  0  0  0
   -0.7917    2.1697   -4.0364 C   0  0  0  0  0  0  0  0  0  0  0  0
   -0.0970    1.5121   -4.5691 H   0  0  0  0  0  0  0  0  0  0  0  0
   -1.7177    2.2378   -4.6152 H   0  0  0  0  0  0  0  0  0  0  0  0
   -0.3512    3.1703   -3.9723 H   0  0  0  0  0  0  0  0  0  0  0  0
  1  2  1  0  0  0  0
  2  3  1  0  0  0  0
  2  4  1  0  0  0  0
  2  5  1  0  0  0  0
  5  6  2  0  0  0  0
  5  7  1  0  0  0  0
  7  8  1  0  0  0  0
  7  9  1  0  0  0  0
  9 10  1  0  0  0  0
  9 11  1  0  0  0  0
  9 25  1  0  0  0  0
 11 12  1  0  0  0  0
 11 13  1  0  0  0  0
 11 14  1  0  0  0  0
 14 15  1  0  0  0  0
 14 23  2  0  0  0  0
 15 16  1  0  0  0  0
 15 17  2  0  0  0  0
 17 18  1  0  0  0  0
 17 19  1  0  0  0  0
 19 20  1  0  0  0  0
 19 21  2  0  0  0  0
 21 22  1  0  0  0  0
 21 23  1  0  0  0  0
 23 24  1  0  0  0  0
 25 26  2  0  0  0  0
 25 27  1  0  0  0  0
 27 28  1  0  0  0  0
 27 29  1  0  0  0  0
 29 30  1  0  0  0  0
 29 31  1  0  0  0  0
 29 32  1  0  0  0  0
M  END
$$$$

  -OEChem-01062216093D

 32 32  0     1  0  0  0  0  0999 V2000
   -1.6533   -2.0810   -0.5533 H   0  0  0  0  0  0  0  0  0  0  0  0
   -2.5632   -1.8303   -0.0069 C   0  0  0  0  0  0  0  0  0  0  0  0
   -2.6713   -2.5060    0.8451 H   0  0  0  0  0  0  0  0  0  0  0  0
   -3.4145   -1.9715   -0.6773 H   0  0  0  0  0  0  0  0  0  0  0  0
   -2.5341   -0.3893    0.4747 C   0  0  0  0  0  0  0  0  0  0  0  0
   -3.4779    0.0195    1.1251 O   0  0  0  0  0  0  0  0  0  0  0  0
   -1.9342    0.5965   -0.2654 N   0  0  0  0  0  0  0  0  0  0  0  0
   -2.4785    1.4431   -0.1111 H   0  0  0  0  0  0  0  0  0  0  0  0
   -0.4805    0.8820   -0.3505 C   0  0  1  0  0  0  0  0  0  0  0  0
   -0.3105    1.7101    0.3448 H   0  0  0  0  0  0  0  0  0  0  0  0
    0.5462   -0.2078    0.0745 C   0  0  0  0  0  0  0  0  0  0  0  0
    0.3758   -1.1175   -0.5068 H   0  0  0  0  0  0  0  0  0  0  0  0
    1.5605    0.1267   -0.1671 H   0  0  0  0  0  0  0  0  0  0  0  0
    0.5201   -0.5160    1.5581 C   0  0  0  0  0  0  0  0  0  0  0  0
    1.1979    0.3412    2.4401 C   0  0  0  0  0  0  0  0  0  0  0  0
    1.6705    1.2437    2.0634 H   0  0  0  0  0  0  0  0  0  0  0  0
    1.2621    0.0611    3.8089 C   0  0  0  0  0  0  0  0  0  0  0  0
    1.7694    0.7474    4.4807 H   0  0  0  0  0  0  0  0  0  0  0  0
    0.6802   -1.1054    4.3106 C   0  0  0  0  0  0  0  0  0  0  0  0
    0.7288   -1.3253    5.3732 H   0  0  0  0  0  0  0  0  0  0  0  0
    0.0579   -2.0000    3.4369 C   0  0  0  0  0  0  0  0  0  0  0  0
   -0.3661   -2.9235    3.8199 H   0  0  0  0  0  0  0  0  0  0  0  0
   -0.0011   -1.7163    2.0682 C   0  0  0  0  0  0  0  0  0  0  0  0
   -0.4300   -2.4583    1.4068 H   0  0  0  0  0  0  0  0  0  0  0  0
   -0.1345    1.4709   -1.7423 C   0  0  0  0  0  0  0  0  0  0  0  0
    1.0263    1.5882   -2.1110 O   0  0  0  0  0  0  0  0  0  0  0  0
   -1.1378    1.9439   -2.5701 N   0  0  0  0  0  0  0  0  0  0  0  0
   -2.0920    1.7336   -2.2915 H   0  0  0  0  0  0  0  0  0  0  0  0
   -0.8966    2.4831   -3.9032 C   0  0  0  0  0  0  0  0  0  0  0  0
   -0.4456    1.7226   -4.5492 H   0  0  0  0  0  0  0  0  0  0  0  0
   -1.8387    2.8075   -4.3552 H   0  0  0  0  0  0  0  0  0  0  0  0
   -0.2244    3.3462   -3.8525 H   0  0  0  0  0  0  0  0  0  0  0  0
  1  2  1  0  0  0  0
  2  3  1  0  0  0  0
  2  4  1  0  0  0  0
  2  5  1  0  0  0  0
  5  6  2  0  0  0  0
  5  7  1  0  0  0  0
  7  8  1  0  0  0  0
  7  9  1  0  0  0  0
  9 10  1  0  0  0  0
  9 11  1  0  0  0  0
  9 25  1  0  0  0  0
 11 12  1  0  0  0  0
 11 13  1  0  0  0  0
 11 14  1  0  0  0  0
 14 15  1  0  0  0  0
 14 23  2  0  0  0  0
 15 16  1  0  0  0  0
 15 17  2  0  0  0  0
 17 18  1  0  0  0  0
 17 19  1  0  0  0  0
 19 20  1  0  0  0  0
 19 21  2  0  0  0  0
 21 22  1  0  0  0  0
 21 23  1  0  0  0  0
 23 24  1  0  0  0  0
 25 26  2  0  0  0  0
 25 27  1  0  0  0  0
 27 28  1  0  0  0  0
 27 29  1  0  0  0  0
 29 30  1  0  0  0  0
 29 31  1  0  0  0  0
 29 32  1  0  0  0  0
M  END
$$$$

  -OEChem-01062216093D

 32 32  0     1  0  0  0  0  0999 V2000
   -1.6595   -2.0988   -0.5820 H   0  0  0  0  0  0  0  0  0  0  0  0
   -2.5637   -1.8615   -0.0202 C   0  0  0  0  0  0  0  0  0  0  0  0
   -2.6520   -2.5440    0.8286 H   0  0  0  0  0  0  0  0  0  0  0  0
   -3.4238   -2.0076   -0.6781 H   0  0  0  0  0  0  0  0  0  0  0  0
   -2.5423   -0.4232    0.4700 C   0  0  0  0  0  0  0  0  0  0  0  0
   -3.4783   -0.0266    1.1392 O   0  0  0  0  0  0  0  0  0  0  0  0
   -1.9556    0.5751   -0.2640 N   0  0  0  0  0  0  0  0  0  0  0  0
   -2.5061    1.4137   -0.0940 H   0  0  0  0  0  0  0  0  0  0  0  0
   -0.5043    0.8680   -0.3568 C   0  0  1  0  0  0  0  0  0  0  0  0
   -0.3371    1.6928    0.3431 H   0  0  0  0  0  0  0  0  0  0  0  0
    0.5319   -0.2135    0.0672 C   0  0  0  0  0  0  0  0  0  0  0  0
    0.3665   -1.1267   -0.5100 H   0  0  0  0  0  0  0  0  0  0  0  0
    1.5433    0.1284   -0.1779 H   0  0  0  0  0  0  0  0  0  0  0  0
    0.5121   -0.5133    1.5520 C   0  0  0  0  0  0  0  0  0  0  0  0
    1.1871    0.3532    2.4270 C   0  0  0  0  0  0  0  0  0  0  0  0
    1.6525    1.2566    2.0435 H   0  0  0  0  0  0  0  0  0  0  0  0
    1.2554    0.0821    3.7973 C   0  0  0  0  0  0  0  0  0  0  0  0
    1.7598    0.7756    4.4638 H   0  0  0  0  0  0  0  0  0  0  0  0
    0.6812   -1.0848    4.3068 C   0  0  0  0  0  0  0  0  0  0  0  0
    0.7326   -1.2976    5.3707 H   0  0  0  0  0  0  0  0  0  0  0  0
    0.0625   -1.9885    3.4396 C   0  0  0  0  0  0  0  0  0  0  0  0
   -0.3548   -2.9127    3.8285 H   0  0  0  0  0  0  0  0  0  0  0  0
   -0.0018   -1.7131    2.0695 C   0  0  0  0  0  0  0  0  0  0  0  0
   -0.4291   -2.4603    1.4127 H   0  0  0  0  0  0  0  0  0  0  0  0
   -0.1734    1.4750   -1.7450 C   0  0  0  0  0  0  0  0  0  0  0  0
    0.9386    1.3646   -2.2441 O   0  0  0  0  0  0  0  0  0  0  0  0
   -1.1199    2.2258   -2.4213 N   0  0  0  0  0  0  0  0  0  0  0  0
   -2.0659    2.2128   -2.0529 H   0  0  0  0  0  0  0  0  0  0  0  0
   -0.8850    2.8254   -3.7300 C   0  0  0  0  0  0  0  0  0  0  0  0
   -0.6958    2.0494   -4.4790 H   0  0  0  0  0  0  0  0  0  0  0  0
   -1.7589    3.4047   -4.0430 H   0  0  0  0  0  0  0  0  0  0  0  0
   -0.0217    3.4984   -3.6945 H   0  0  0  0  0  0  0  0  0  0  0  0
  1  2  1  0  0  0  0
  2  3  1  0  0  0  0
  2  4  1  0  0  0  0
  2  5  1  0  0  0  0
  5  6  2  0  0  0  0
  5  7  1  0  0  0  0
  7  8  1  0  0  0  0
  7  9  1  0  0  0  0
  9 10  1  0  0  0  0
  9 11  1  0  0  0  0
  9 25  1  0  0  0  0
 11 12  1  0  0  0  0
 11 13  1  0  0  0  0
 11 14  1  0  0  0  0
 14 15  1  0  0  0  0
 14 23  2  0  0  0  0
 15 16  1  0  0  0  0
 15 17  2  0  0  0  0
 17 18  1  0  0  0  0
 17 19  1  0  0  0  0
 19 20  1  0  0  0  0
 19 21  2  0  0  0  0
 21 22  1  0  0  0  0
 21 23  1  0  0  0  0
 23 24  1  0  0  0  0
 25 26  2  0  0  0  0
 25 27  1  0  0  0  0
 27 28  1  0  0  0  0
 27 29  1  0  0  0  0
 29 30  1  0  0  0  0
 29 31  1  0  0  0  0
 29 32  1  0  0  0  0
M  END
$$$$

  -OEChem-01062216093D

 32 32  0     1  0  0  0  0  0999 V2000
   -1.6502   -2.0898   -0.5933 H   0  0  0  0  0  0  0  0  0  0  0  0
   -2.5578   -1.8669   -0.0311 C   0  0  0  0  0  0  0  0  0  0  0  0
   -2.6387   -2.5553    0.8136 H   0  0  0  0  0  0  0  0  0  0  0  0
   -3.4154   -2.0189   -0.6912 H   0  0  0  0  0  0  0  0  0  0  0  0
   -2.5538   -0.4315    0.4674 C   0  0  0  0  0  0  0  0  0  0  0  0
   -3.4926   -0.0490    1.1413 O   0  0  0  0  0  0  0  0  0  0  0  0
   -1.9765    0.5763   -0.2606 N   0  0  0  0  0  0  0  0  0  0  0  0
   -2.5429    1.4065   -0.1055 H   0  0  0  0  0  0  0  0  0  0  0  0
   -0.5286    0.8811   -0.3497 C   0  0  1  0  0  0  0  0  0  0  0  0
   -0.3679    1.7020    0.3558 H   0  0  0  0  0  0  0  0  0  0  0  0
    0.5204   -0.1901    0.0658 C   0  0  0  0  0  0  0  0  0  0  0  0
    0.3672   -1.1014   -0.5181 H   0  0  0  0  0  0  0  0  0  0  0  0
    1.5248    0.1704   -0.1819 H   0  0  0  0  0  0  0  0  0  0  0  0
    0.5074   -0.5024    1.5485 C   0  0  0  0  0  0  0  0  0  0  0  0
    1.1731    0.3643    2.4308 C   0  0  0  0  0  0  0  0  0  0  0  0
    1.6298    1.2752    2.0552 H   0  0  0  0  0  0  0  0  0  0  0  0
    1.2447    0.0825    3.7989 C   0  0  0  0  0  0  0  0  0  0  0  0
    1.7410    0.7761    4.4714 H   0  0  0  0  0  0  0  0  0  0  0  0
    0.6840   -1.0951    4.2987 C   0  0  0  0  0  0  0  0  0  0  0  0
    0.7387   -1.3168    5.3606 H   0  0  0  0  0  0  0  0  0  0  0  0
    0.0743   -1.9981    3.4244 C   0  0  0  0  0  0  0  0  0  0  0  0
   -0.3334   -2.9297    3.8058 H   0  0  0  0  0  0  0  0  0  0  0  0
    0.0063   -1.7117    2.0566 C   0  0  0  0  0  0  0  0  0  0  0  0
   -0.4139   -2.4574    1.3937 H   0  0  0  0  0  0  0  0  0  0  0  0
   -0.2079    1.4980   -1.7346 C   0  0  0  0  0  0  0  0  0  0  0  0
    0.7807    1.1635   -2.3747 O   0  0  0  0  0  0  0  0  0  0  0  0
   -1.0252    2.4844   -2.2597 N   0  0  0  0  0  0  0  0  0  0  0  0
   -1.8840    2.6942   -1.7615 H   0  0  0  0  0  0  0  0  0  0  0  0
   -0.7957    3.1094   -3.5572 C   0  0  0  0  0  0  0  0  0  0  0  0
   -0.8663    2.3665   -4.3585 H   0  0  0  0  0  0  0  0  0  0  0  0
   -1.5422    3.8882   -3.7395 H   0  0  0  0  0  0  0  0  0  0  0  0
    0.1973    3.5702   -3.5899 H   0  0  0  0  0  0  0  0  0  0  0  0
  1  2  1  0  0  0  0
  2  3  1  0  0  0  0
  2  4  1  0  0  0  0
  2  5  1  0  0  0  0
  5  6  2  0  0  0  0
  5  7  1  0  0  0  0
  7  8  1  0  0  0  0
  7  9  1  0  0  0  0
  9 10  1  0  0  0  0
  9 11  1  0  0  0  0
  9 25  1  0  0  0  0
 11 12  1  0  0  0  0
 11 13  1  0  0  0  0
 11 14  1  0  0  0  0
 14 15  1  0  0  0  0
 14 23  2  0  0  0  0
 15 16  1  0  0  0  0
 15 17  2  0  0  0  0
 17 18  1  0  0  0  0
 17 19  1  0  0  0  0
 19 20  1  0  0  0  0
 19 21  2  0  0  0  0
 21 22  1  0  0  0  0
 21 23  1  0  0  0  0
 23 24  1  0  0  0  0
 25 26  2  0  0  0  0
 25 27  1  0  0  0  0
 27 28  1  0  0  0  0
 27 29  1  0  0  0  0
 29 30  1  0  0  0  0
 29 31  1  0  0  0  0
 29 32  1  0  0  0  0
M  END
$$$$

  -OEChem-01062216093D

 32 32  0     1  0  0  0  0  0999 V2000
   -1.6482   -2.0716   -0.5867 H   0  0  0  0  0  0  0  0  0  0  0  0
   -2.5597   -1.8576   -0.0271 C   0  0  0  0  0  0  0  0  0  0  0  0
   -2.6355   -2.5446    0.8193 H   0  0  0  0  0  0  0  0  0  0  0  0
   -3.4132   -2.0210   -0.6896 H   0  0  0  0  0  0  0  0  0  0  0  0
   -2.5731   -0.4210    0.4680 C   0  0  0  0  0  0  0  0  0  0  0  0
   -3.5236   -0.0452    1.1296 O   0  0  0  0  0  0  0  0  0  0  0  0
   -1.9942    0.5891   -0.2556 N   0  0  0  0  0  0  0  0  0  0  0  0
   -2.5768    1.4139   -0.1389 H   0  0  0  0  0  0  0  0  0  0  0  0
   -0.5493    0.9043   -0.3373 C   0  0  1  0  0  0  0  0  0  0  0  0
   -0.3931    1.7212    0.3740 H   0  0  0  0  0  0  0  0  0  0  0  0
    0.5112   -0.1579    0.0666 C   0  0  0  0  0  0  0  0  0  0  0  0
    0.3667   -1.0648   -0.5266 H   0  0  0  0  0  0  0  0  0  0  0  0
    1.5090    0.2189   -0.1842 H   0  0  0  0  0  0  0  0  0  0  0  0
    0.5035   -0.4885    1.5453 C   0  0  0  0  0  0  0  0  0  0  0  0
    1.1596    0.3750    2.4380 C   0  0  0  0  0  0  0  0  0  0  0  0
    1.6046    1.2963    2.0742 H   0  0  0  0  0  0  0  0  0  0  0  0
    1.2373    0.0763    3.8022 C   0  0  0  0  0  0  0  0  0  0  0  0
    1.7281    0.7657    4.4830 H   0  0  0  0  0  0  0  0  0  0  0  0
    0.6896   -1.1134    4.2878 C   0  0  0  0  0  0  0  0  0  0  0  0
    0.7482   -1.3478    5.3467 H   0  0  0  0  0  0  0  0  0  0  0  0
    0.0880   -2.0114    3.4029 C   0  0  0  0  0  0  0  0  0  0  0  0
   -0.3097   -2.9517    3.7734 H   0  0  0  0  0  0  0  0  0  0  0  0
    0.0154   -1.7089    2.0389 C   0  0  0  0  0  0  0  0  0  0  0  0
   -0.3982   -2.4506    1.3671 H   0  0  0  0  0  0  0  0  0  0  0  0
   -0.2351    1.5216   -1.7201 C   0  0  0  0  0  0  0  0  0  0  0  0
    0.5811    1.0136   -2.4781 O   0  0  0  0  0  0  0  0  0  0  0  0
   -0.8595    2.6947   -2.1075 N   0  0  0  0  0  0  0  0  0  0  0  0
   -1.5608    3.0841   -1.4855 H   0  0  0  0  0  0  0  0  0  0  0  0
   -0.6239    3.3407   -3.3934 C   0  0  0  0  0  0  0  0  0  0  0  0
   -0.9120    2.6760   -4.2146 H   0  0  0  0  0  0  0  0  0  0  0  0
   -1.2127    4.2598   -3.4691 H   0  0  0  0  0  0  0  0  0  0  0  0
    0.4345    3.5995   -3.5035 H   0  0  0  0  0  0  0  0  0  0  0  0
  1  2  1  0  0  0  0
  2  3  1  0  0  0  0
  2  4  1  0  0  0  0
  2  5  1  0  0  0  0
  5  6  2  0  0  0  0
  5  7  1  0  0  0  0
  7  8  1  0  0  0  0
  7  9  1  0  0  0  0
  9 10  1  0  0  0  0
  9 11  1  0  0  0  0
  9 25  1  0  0  0  0
 11 12  1  0  0  0  0
 11 13  1  0  0  0  0
 11 14  1  0  0  0  0
 14 15  1  0  0  0  0
 14 23  2  0  0  0  0
 15 16  1  0  0  0  0
 15 17  2  0  0  0  0
 17 18  1  0  0  0  0
 17 19  1  0  0  0  0
 19 20  1  0  0  0  0
 19 21  2  0  0  0  0
 21 22  1  0  0  0  0
 21 23  1  0  0  0  0
 23 24  1  0  0  0  0
 25 26  2  0  0  0  0
 25 27  1  0  0  0  0
 27 28  1  0  0  0  0
 27 29  1  0  0  0  0
 29 30  1  0  0  0  0
 29 31  1  0  0  0  0
 29 32  1  0  0  0  0
M  END
$$$$

  -OEChem-01062216093D

 32 32  0     1  0  0  0  0  0999 V2000
   -1.6523   -2.0399   -0.5874 H   0  0  0  0  0  0  0  0  0  0  0  0
   -2.5604   -1.8409   -0.0168 C   0  0  0  0  0  0  0  0  0  0  0  0
   -2.6143   -2.5271    0.8318 H   0  0  0  0  0  0  0  0  0  0  0  0
   -3.4189   -2.0198   -0.6691 H   0  0  0  0  0  0  0  0  0  0  0  0
   -2.5917   -0.4036    0.4743 C   0  0  0  0  0  0  0  0  0  0  0  0
   -3.5511   -0.0366    1.1283 O   0  0  0  0  0  0  0  0  0  0  0  0
   -2.0150    0.6095   -0.2467 N   0  0  0  0  0  0  0  0  0  0  0  0
   -2.6106    1.4289   -0.1581 H   0  0  0  0  0  0  0  0  0  0  0  0
   -0.5739    0.9388   -0.3189 C   0  0  1  0  0  0  0  0  0  0  0  0
   -0.4274    1.7506    0.3999 H   0  0  0  0  0  0  0  0  0  0  0  0
    0.4991   -0.1140    0.0710 C   0  0  0  0  0  0  0  0  0  0  0  0
    0.3622   -1.0150   -0.5338 H   0  0  0  0  0  0  0  0  0  0  0  0
    1.4908    0.2784   -0.1801 H   0  0  0  0  0  0  0  0  0  0  0  0
    0.4972   -0.4690    1.5438 C   0  0  0  0  0  0  0  0  0  0  0  0
    1.1416    0.3878    2.4514 C   0  0  0  0  0  0  0  0  0  0  0  0
    1.5712    1.3228    2.1047 H   0  0  0  0  0  0  0  0  0  0  0  0
    1.2267    0.0643    3.8097 C   0  0  0  0  0  0  0  0  0  0  0  0
    1.7074    0.7482    4.5031 H   0  0  0  0  0  0  0  0  0  0  0  0
    0.7007   -1.1436    4.2734 C   0  0  0  0  0  0  0  0  0  0  0  0
    0.7659   -1.3982    5.3272 H   0  0  0  0  0  0  0  0  0  0  0  0
    0.1126   -2.0344    3.3724 C   0  0  0  0  0  0  0  0  0  0  0  0
   -0.2675   -2.9891    3.7245 H   0  0  0  0  0  0  0  0  0  0  0  0
    0.0318   -1.7068    2.0149 C   0  0  0  0  0  0  0  0  0  0  0  0
   -0.3692   -2.4432    1.3298 H   0  0  0  0  0  0  0  0  0  0  0  0
   -0.2585    1.5552   -1.6996 C   0  0  0  0  0  0  0  0  0  0  0  0
    0.3557    0.9256   -2.5511 O   0  0  0  0  0  0  0  0  0  0  0  0
   -0.6375    2.8577   -1.9745 N   0  0  0  0  0  0  0  0  0  0  0  0
   -1.1658    3.3572   -1.2657 H   0  0  0  0  0  0  0  0  0  0  0  0
   -0.3771    3.5139   -3.2505 C   0  0  0  0  0  0  0  0  0  0  0  0
   -0.8691    2.9742   -4.0665 H   0  0  0  0  0  0  0  0  0  0  0  0
   -0.7589    4.5391   -3.2338 H   0  0  0  0  0  0  0  0  0  0  0  0
    0.6991    3.5499   -3.4497 H   0  0  0  0  0  0  0  0  0  0  0  0
  1  2  1  0  0  0  0
  2  3  1  0  0  0  0
  2  4  1  0  0  0  0
  2  5  1  0  0  0  0
  5  6  2  0  0  0  0
  5  7  1  0  0  0  0
  7  8  1  0  0  0  0
  7  9  1  0  0  0  0
  9 10  1  0  0  0  0
  9 11  1  0  0  0  0
  9 25  1  0  0  0  0
 11 12  1  0  0  0  0
 11 13  1  0  0  0  0
 11 14  1  0  0  0  0
 14 15  1  0  0  0  0
 14 23  2  0  0  0  0
 15 16  1  0  0  0  0
 15 17  2  0  0  0  0
 17 18  1  0  0  0  0
 17 19  1  0  0  0  0
 19 20  1  0  0  0  0
 19 21  2  0  0  0  0
 21 22  1  0  0  0  0
 21 23  1  0  0  0  0
 23 24  1  0  0  0  0
 25 26  2  0  0  0  0
 25 27  1  0  0  0  0
 27 28  1  0  0  0  0
 27 29  1  0  0  0  0
 29 30  1  0  0  0  0
 29 31  1  0  0  0  0
 29 32  1  0  0  0  0
M  END
$$$$

  -OEChem-01062216093D

 32 32  0     1  0  0  0  0  0999 V2000
   -1.6580   -2.0122   -0.5913 H   0  0  0  0  0  0  0  0  0  0  0  0
   -2.5622   -1.8217   -0.0112 C   0  0  0  0  0  0  0  0  0  0  0  0
   -2.6063   -2.5144    0.8328 H   0  0  0  0  0  0  0  0  0  0  0  0
   -3.4252   -1.9994   -0.6576 H   0  0  0  0  0  0  0  0  0  0  0  0
   -2.5951   -0.3878    0.4899 C   0  0  0  0  0  0  0  0  0  0  0  0
   -3.5485   -0.0293    1.1573 O   0  0  0  0  0  0  0  0  0  0  0  0
   -2.0295    0.6305   -0.2321 N   0  0  0  0  0  0  0  0  0  0  0  0
   -2.6346    1.4436   -0.1504 H   0  0  0  0  0  0  0  0  0  0  0  0
   -0.5928    0.9764   -0.2979 C   0  0  1  0  0  0  0  0  0  0  0  0
   -0.4558    1.7835    0.4282 H   0  0  0  0  0  0  0  0  0  0  0  0
    0.4920   -0.0688    0.0745 C   0  0  0  0  0  0  0  0  0  0  0  0
    0.3628   -0.9618   -0.5438 H   0  0  0  0  0  0  0  0  0  0  0  0
    1.4782    0.3389   -0.1731 H   0  0  0  0  0  0  0  0  0  0  0  0
    0.4958   -0.4491    1.5407 C   0  0  0  0  0  0  0  0  0  0  0  0
    1.1299    0.3987    2.4639 C   0  0  0  0  0  0  0  0  0  0  0  0
    1.5488    1.3451    2.1354 H   0  0  0  0  0  0  0  0  0  0  0  0
    1.2174    0.0513    3.8162 C   0  0  0  0  0  0  0  0  0  0  0  0
    1.6883    0.7285    4.5227 H   0  0  0  0  0  0  0  0  0  0  0  0
    0.7051   -1.1710    4.2573 C   0  0  0  0  0  0  0  0  0  0  0  0
    0.7709   -1.4436    5.3066 H   0  0  0  0  0  0  0  0  0  0  0  0
    0.1294   -2.0529    3.3397 C   0  0  0  0  0  0  0  0  0  0  0  0
   -0.2388   -3.0186    3.6738 H   0  0  0  0  0  0  0  0  0  0  0  0
    0.0458   -1.7013    1.9884 C   0  0  0  0  0  0  0  0  0  0  0  0
   -0.3454   -2.4288    1.2881 H   0  0  0  0  0  0  0  0  0  0  0  0
   -0.2743    1.5925   -1.6764 C   0  0  0  0  0  0  0  0  0  0  0  0
    0.1172    0.8923   -2.6011 O   0  0  0  0  0  0  0  0  0  0  0  0
   -0.3745    2.9599   -1.8646 N   0  0  0  0  0  0  0  0  0  0  0  0
   -0.7254    3.5207   -1.0941 H   0  0  0  0  0  0  0  0  0  0  0  0
   -0.0758    3.6151   -3.1328 C   0  0  0  0  0  0  0  0  0  0  0  0
   -0.7568    3.2635   -3.9151 H   0  0  0  0  0  0  0  0  0  0  0  0
   -0.1899    4.6990   -3.0353 H   0  0  0  0  0  0  0  0  0  0  0  0
    0.9537    3.4036   -3.4408 H   0  0  0  0  0  0  0  0  0  0  0  0
  1  2  1  0  0  0  0
  2  3  1  0  0  0  0
  2  4  1  0  0  0  0
  2  5  1  0  0  0  0
  5  6  2  0  0  0  0
  5  7  1  0  0  0  0
  7  8  1  0  0  0  0
  7  9  1  0  0  0  0
  9 10  1  0  0  0  0
  9 11  1  0  0  0  0
  9 25  1  0  0  0  0
 11 12  1  0  0  0  0
 11 13  1  0  0  0  0
 11 14  1  0  0  0  0
 14 15  1  0  0  0  0
 14 23  2  0  0  0  0
 15 16  1  0  0  0  0
 15 17  2  0  0  0  0
 17 18  1  0  0  0  0
 17 19  1  0  0  0  0
 19 20  1  0  0  0  0
 19 21  2  0  0  0  0
 21 22  1  0  0  0  0
 21 23  1  0  0  0  0
 23 24  1  0  0  0  0
 25 26  2  0  0  0  0
 25 27  1  0  0  0  0
 27 28  1  0  0  0  0
 27 29  1  0  0  0  0
 29 30  1  0  0  0  0
 29 31  1  0  0  0  0
 29 32  1  0  0  0  0
M  END
$$$$

  -OEChem-01062216093D

 32 32  0     1  0  0  0  0  0999 V2000
   -1.6585   -1.9819   -0.6067 H   0  0  0  0  0  0  0  0  0  0  0  0
   -2.5592   -1.8033   -0.0172 C   0  0  0  0  0  0  0  0  0  0  0  0
   -2.5909   -2.5024    0.8217 H   0  0  0  0  0  0  0  0  0  0  0  0
   -3.4268   -1.9822   -0.6572 H   0  0  0  0  0  0  0  0  0  0  0  0
   -2.5963   -0.3739    0.4955 C   0  0  0  0  0  0  0  0  0  0  0  0
   -3.5456   -0.0255    1.1742 O   0  0  0  0  0  0  0  0  0  0  0  0
   -2.0377    0.6501   -0.2237 N   0  0  0  0  0  0  0  0  0  0  0  0
   -2.6500    1.4586   -0.1466 H   0  0  0  0  0  0  0  0  0  0  0  0
   -0.6040    1.0089   -0.2806 C   0  0  1  0  0  0  0  0  0  0  0  0
   -0.4795    1.8101    0.4537 H   0  0  0  0  0  0  0  0  0  0  0  0
    0.4894   -0.0300    0.0798 C   0  0  0  0  0  0  0  0  0  0  0  0
    0.3684   -0.9156   -0.5510 H   0  0  0  0  0  0  0  0  0  0  0  0
    1.4721    0.3901   -0.1610 H   0  0  0  0  0  0  0  0  0  0  0  0
    0.4943   -0.4310    1.5404 C   0  0  0  0  0  0  0  0  0  0  0  0
    1.1183    0.4098    2.4767 C   0  0  0  0  0  0  0  0  0  0  0  0
    1.5281    1.3647    2.1623 H   0  0  0  0  0  0  0  0  0  0  0  0
    1.2076    0.0440    3.8239 C   0  0  0  0  0  0  0  0  0  0  0  0
    1.6707    0.7155    4.5408 H   0  0  0  0  0  0  0  0  0  0  0  0
    0.7072   -1.1895    4.2468 C   0  0  0  0  0  0  0  0  0  0  0  0
    0.7746   -1.4762    5.2922 H   0  0  0  0  0  0  0  0  0  0  0  0
    0.1421   -2.0640    3.3157 C   0  0  0  0  0  0  0  0  0  0  0  0
   -0.2174   -3.0378    3.6355 H   0  0  0  0  0  0  0  0  0  0  0  0
    0.0567   -1.6941    1.9695 C   0  0  0  0  0  0  0  0  0  0  0  0
   -0.3261   -2.4160    1.2587 H   0  0  0  0  0  0  0  0  0  0  0  0
   -0.2746    1.6285   -1.6540 C   0  0  0  0  0  0  0  0  0  0  0  0
   -0.1225    0.9146   -2.6362 O   0  0  0  0  0  0  0  0  0  0  0  0
   -0.0770    2.9927   -1.7761 N   0  0  0  0  0  0  0  0  0  0  0  0
   -0.2310    3.5705   -0.9554 H   0  0  0  0  0  0  0  0  0  0  0  0
    0.2520    3.6409   -3.0405 C   0  0  0  0  0  0  0  0  0  0  0  0
   -0.5494    3.4856   -3.7705 H   0  0  0  0  0  0  0  0  0  0  0  0
    0.3809    4.7172   -2.8919 H   0  0  0  0  0  0  0  0  0  0  0  0
    1.1838    3.2355   -3.4487 H   0  0  0  0  0  0  0  0  0  0  0  0
  1  2  1  0  0  0  0
  2  3  1  0  0  0  0
  2  4  1  0  0  0  0
  2  5  1  0  0  0  0
  5  6  2  0  0  0  0
  5  7  1  0  0  0  0
  7  8  1  0  0  0  0
  7  9  1  0  0  0  0
  9 10  1  0  0  0  0
  9 11  1  0  0  0  0
  9 25  1  0  0  0  0
 11 12  1  0  0  0  0
 11 13  1  0  0  0  0
 11 14  1  0  0  0  0
 14 15  1  0  0  0  0
 14 23  2  0  0  0  0
 15 16  1  0  0  0  0
 15 17  2  0  0  0  0
 17 18  1  0  0  0  0
 17 19  1  0  0  0  0
 19 20  1  0  0  0  0
 19 21  2  0  0  0  0
 21 22  1  0  0  0  0
 21 23  1  0  0  0  0
 23 24  1  0  0  0  0
 25 26  2  0  0  0  0
 25 27  1  0  0  0  0
 27 28  1  0  0  0  0
 27 29  1  0  0  0  0
 29 30  1  0  0  0  0
 29 31  1  0  0  0  0
 29 32  1  0  0  0  0
M  END
$$$$

  -OEChem-01062216093D

 32 32  0     1  0  0  0  0  0999 V2000
   -1.6517   -1.9615   -0.6131 H   0  0  0  0  0  0  0  0  0  0  0  0
   -2.5535   -1.7884   -0.0234 C   0  0  0  0  0  0  0  0  0  0  0  0
   -2.5842   -2.4916    0.8122 H   0  0  0  0  0  0  0  0  0  0  0  0
   -3.4201   -1.9659   -0.6653 H   0  0  0  0  0  0  0  0  0  0  0  0
   -2.5948   -0.3616    0.4962 C   0  0  0  0  0  0  0  0  0  0  0  0
   -3.5436   -0.0210    1.1798 O   0  0  0  0  0  0  0  0  0  0  0  0
   -2.0385    0.6658   -0.2195 N   0  0  0  0  0  0  0  0  0  0  0  0
   -2.6570    1.4706   -0.1553 H   0  0  0  0  0  0  0  0  0  0  0  0
   -0.6070    1.0345   -0.2715 C   0  0  1  0  0  0  0  0  0  0  0  0
   -0.4921    1.8332    0.4670 H   0  0  0  0  0  0  0  0  0  0  0  0
    0.4905   -0.0013    0.0819 C   0  0  0  0  0  0  0  0  0  0  0  0
    0.3727   -0.8821   -0.5565 H   0  0  0  0  0  0  0  0  0  0  0  0
    1.4724    0.4234   -0.1541 H   0  0  0  0  0  0  0  0  0  0  0  0
    0.4957   -0.4151    1.5393 C   0  0  0  0  0  0  0  0  0  0  0  0
    1.1139    0.4202    2.4845 C   0  0  0  0  0  0  0  0  0  0  0  0
    1.5175    1.3810    2.1806 H   0  0  0  0  0  0  0  0  0  0  0  0
    1.2042    0.0419    3.8283 C   0  0  0  0  0  0  0  0  0  0  0  0
    1.6625    0.7091    4.5524 H   0  0  0  0  0  0  0  0  0  0  0  0
    0.7104   -1.1984    4.2392 C   0  0  0  0  0  0  0  0  0  0  0  0
    0.7782   -1.4946    5.2820 H   0  0  0  0  0  0  0  0  0  0  0  0
    0.1497   -2.0664    3.2995 C   0  0  0  0  0  0  0  0  0  0  0  0
   -0.2062   -3.0445    3.6100 H   0  0  0  0  0  0  0  0  0  0  0  0
    0.0638   -1.6842    1.9567 C   0  0  0  0  0  0  0  0  0  0  0  0
   -0.3156   -2.4015    1.2397 H   0  0  0  0  0  0  0  0  0  0  0  0
   -0.2675    1.6586   -1.6405 C   0  0  0  0  0  0  0  0  0  0  0  0
   -0.3655    0.9977   -2.6656 O   0  0  0  0  0  0  0  0  0  0  0  0
    0.2253    2.9495   -1.7159 N   0  0  0  0  0  0  0  0  0  0  0  0
    0.2836    3.4869   -0.8563 H   0  0  0  0  0  0  0  0  0  0  0  0
    0.5866    3.5934   -2.9735 C   0  0  0  0  0  0  0  0  0  0  0  0
   -0.2860    3.6673   -3.6312 H   0  0  0  0  0  0  0  0  0  0  0  0
    0.9653    4.6027   -2.7860 H   0  0  0  0  0  0  0  0  0  0  0  0
    1.3670    3.0216   -3.4866 H   0  0  0  0  0  0  0  0  0  0  0  0
  1  2  1  0  0  0  0
  2  3  1  0  0  0  0
  2  4  1  0  0  0  0
  2  5  1  0  0  0  0
  5  6  2  0  0  0  0
  5  7  1  0  0  0  0
  7  8  1  0  0  0  0
  7  9  1  0  0  0  0
  9 10  1  0  0  0  0
  9 11  1  0  0  0  0
  9 25  1  0  0  0  0
 11 12  1  0  0  0  0
 11 13  1  0  0  0  0
 11 14  1  0  0  0  0
 14 15  1  0  0  0  0
 14 23  2  0  0  0  0
 15 16  1  0  0  0  0
 15 17  2  0  0  0  0
 17 18  1  0  0  0  0
 17 19  1  0  0  0  0
 19 20  1  0  0  0  0
 19 21  2  0  0  0  0
 21 22  1  0  0  0  0
 21 23  1  0  0  0  0
 23 24  1  0  0  0  0
 25 26  2  0  0  0  0
 25 27  1  0  0  0  0
 27 28  1  0  0  0  0
 27 29  1  0  0  0  0
 29 30  1  0  0  0  0
 29 31  1  0  0  0  0
 29 32  1  0  0  0  0
M  END
$$$$

  -OEChem-01062216093D

 32 32  0     1  0  0  0  0  0999 V2000
   -1.6434   -1.9463   -0.6307 H   0  0  0  0  0  0  0  0  0  0  0  0
   -2.5449   -1.7770   -0.0395 C   0  0  0  0  0  0  0  0  0  0  0  0
   -2.5766   -2.4873    0.7900 H   0  0  0  0  0  0  0  0  0  0  0  0
   -3.4113   -1.9480   -0.6833 H   0  0  0  0  0  0  0  0  0  0  0  0
   -2.5846   -0.3544    0.4917 C   0  0  0  0  0  0  0  0  0  0  0  0
   -3.5311   -0.0202    1.1816 O   0  0  0  0  0  0  0  0  0  0  0  0
   -2.0293    0.6762   -0.2200 N   0  0  0  0  0  0  0  0  0  0  0  0
   -2.6538    1.4772   -0.1682 H   0  0  0  0  0  0  0  0  0  0  0  0
   -0.5997    1.0542   -0.2665 C   0  0  1  0  0  0  0  0  0  0  0  0
   -0.4948    1.8528    0.4737 H   0  0  0  0  0  0  0  0  0  0  0  0
    0.4983    0.0188    0.0860 C   0  0  0  0  0  0  0  0  0  0  0  0
    0.3836   -0.8584   -0.5579 H   0  0  0  0  0  0  0  0  0  0  0  0
    1.4807    0.4454   -0.1434 H   0  0  0  0  0  0  0  0  0  0  0  0
    0.5001   -0.4034    1.5407 C   0  0  0  0  0  0  0  0  0  0  0  0
    1.1137    0.4274    2.4927 C   0  0  0  0  0  0  0  0  0  0  0  0
    1.5167    1.3907    2.1967 H   0  0  0  0  0  0  0  0  0  0  0  0
    1.2012    0.0411    3.8344 C   0  0  0  0  0  0  0  0  0  0  0  0
    1.6560    0.7049    4.5638 H   0  0  0  0  0  0  0  0  0  0  0  0
    0.7084   -1.2024    4.2365 C   0  0  0  0  0  0  0  0  0  0  0  0
    0.7741   -1.5047    5.2778 H   0  0  0  0  0  0  0  0  0  0  0  0
    0.1515   -2.0656    3.2901 C   0  0  0  0  0  0  0  0  0  0  0  0
   -0.2041   -3.0460    3.5941 H   0  0  0  0  0  0  0  0  0  0  0  0
    0.0688   -1.6755    1.9493 C   0  0  0  0  0  0  0  0  0  0  0  0
   -0.3092   -2.3886    1.2272 H   0  0  0  0  0  0  0  0  0  0  0  0
   -0.2466    1.6838   -1.6305 C   0  0  0  0  0  0  0  0  0  0  0  0
   -0.5877    1.1457   -2.6751 O   0  0  0  0  0  0  0  0  0  0  0  0
    0.5205    2.8344   -1.6884 N   0  0  0  0  0  0  0  0  0  0  0  0
    0.7816    3.2768   -0.8125 H   0  0  0  0  0  0  0  0  0  0  0  0
    0.9002    3.4780   -2.9409 C   0  0  0  0  0  0  0  0  0  0  0  0
    0.0104    3.8120   -3.4848 H   0  0  0  0  0  0  0  0  0  0  0  0
    1.5317    4.3491   -2.7422 H   0  0  0  0  0  0  0  0  0  0  0  0
    1.4609    2.7831   -3.5751 H   0  0  0  0  0  0  0  0  0  0  0  0
  1  2  1  0  0  0  0
  2  3  1  0  0  0  0
  2  4  1  0  0  0  0
  2  5  1  0  0  0  0
  5  6  2  0  0  0  0
  5  7  1  0  0  0  0
  7  8  1  0  0  0  0
  7  9  1  0  0  0  0
  9 10  1  0  0  0  0
  9 11  1  0  0  0  0
  9 25  1  0  0  0  0
 11 12  1  0  0  0  0
 11 13  1  0  0  0  0
 11 14  1  0  0  0  0
 14 15  1  0  0  0  0
 14 23  2  0  0  0  0
 15 16  1  0  0  0  0
 15 17  2  0  0  0  0
 17 18  1  0  0  0  0
 17 19  1  0  0  0  0
 19 20  1  0  0  0  0
 19 21  2  0  0  0  0
 21 22  1  0  0  0  0
 21 23  1  0  0  0  0
 23 24  1  0  0  0  0
 25 26  2  0  0  0  0
 25 27  1  0  0  0  0
 27 28  1  0  0  0  0
 27 29  1  0  0  0  0
 29 30  1  0  0  0  0
 29 31  1  0  0  0  0
 29 32  1  0  0  0  0
M  END
$$$$

  -OEChem-01062216093D

 32 32  0     1  0  0  0  0  0999 V2000
   -2.8060   -2.0418   -1.0064 H   0  0  0  0  0  0  0  0  0  0  0  0
   -3.3299   -1.5192   -0.2023 C   0  0  0  0  0  0  0  0  0  0  0  0
   -3.6637   -2.2536    0.5361 H   0  0  0  0  0  0  0  0  0  0  0  0
   -4.2041   -1.0107   -0.6159 H   0  0  0  0  0  0  0  0  0  0  0  0
   -2.4035   -0.5085    0.4476 C   0  0  0  0  0  0  0  0  0  0  0  0
   -2.3225   -0.4677    1.6616 O   0  0  0  0  0  0  0  0  0  0  0  0
   -1.8606    0.4968   -0.3215 N   0  0  0  0  0  0  0  0  0  0  0  0
   -2.1394    0.4233   -1.3007 H   0  0  0  0  0  0  0  0  0  0  0  0
   -0.5328    1.1342   -0.1814 C   0  0  1  0  0  0  0  0  0  0  0  0
   -0.6296    1.9995    0.4807 H   0  0  0  0  0  0  0  0  0  0  0  0
    0.6736    0.2647    0.2830 C   0  0  0  0  0  0  0  0  0  0  0  0
    0.7616   -0.5835   -0.4048 H   0  0  0  0  0  0  0  0  0  0  0  0
    1.5926    0.8504    0.1754 H   0  0  0  0  0  0  0  0  0  0  0  0
    0.6577   -0.2722    1.6942 C   0  0  0  0  0  0  0  0  0  0  0  0
    1.0441    0.5543    2.7606 C   0  0  0  0  0  0  0  0  0  0  0  0
    1.2732    1.6000    2.5835 H   0  0  0  0  0  0  0  0  0  0  0  0
    1.1240    0.0489    4.0629 C   0  0  0  0  0  0  0  0  0  0  0  0
    1.4021    0.7032    4.8834 H   0  0  0  0  0  0  0  0  0  0  0  0
    0.8443   -1.2982    4.3086 C   0  0  0  0  0  0  0  0  0  0  0  0
    0.8996   -1.6905    5.3195 H   0  0  0  0  0  0  0  0  0  0  0  0
    0.4948   -2.1403    3.2493 C   0  0  0  0  0  0  0  0  0  0  0  0
    0.2815   -3.1882    3.4360 H   0  0  0  0  0  0  0  0  0  0  0  0
    0.4147   -1.6326    1.9480 C   0  0  0  0  0  0  0  0  0  0  0  0
    0.1486   -2.2998    1.1347 H   0  0  0  0  0  0  0  0  0  0  0  0
   -0.0948    1.5903   -1.5919 C   0  0  0  0  0  0  0  0  0  0  0  0
   -0.5173    1.0115   -2.5882 O   0  0  0  0  0  0  0  0  0  0  0  0
    0.7213    2.6959   -1.7505 N   0  0  0  0  0  0  0  0  0  0  0  0
    1.0212    3.1866   -0.9129 H   0  0  0  0  0  0  0  0  0  0  0  0
    1.1229    3.2148   -3.0527 C   0  0  0  0  0  0  0  0  0  0  0  0
    0.2441    3.5059   -3.6378 H   0  0  0  0  0  0  0  0  0  0  0  0
    1.7618    4.0944   -2.9282 H   0  0  0  0  0  0  0  0  0  0  0  0
    1.6826    2.4572   -3.6112 H   0  0  0  0  0  0  0  0  0  0  0  0
  1  2  1  0  0  0  0
  2  3  1  0  0  0  0
  2  4  1  0  0  0  0
  2  5  1  0  0  0  0
  5  6  2  0  0  0  0
  5  7  1  0  0  0  0
  7  8  1  0  0  0  0
  7  9  1  0  0  0  0
  9 10  1  0  0  0  0
  9 11  1  0  0  0  0
  9 25  1  0  0  0  0
 11 12  1  0  0  0  0
 11 13  1  0  0  0  0
 11 14  1  0  0  0  0
 14 15  1  0  0  0  0
 14 23  2  0  0  0  0
 15 16  1  0  0  0  0
 15 17  2  0  0  0  0
 17 18  1  0  0  0  0
 17 19  1  0  0  0  0
 19 20  1  0  0  0  0
 19 21  2  0  0  0  0
 21 22  1  0  0  0  0
 21 23  1  0  0  0  0
 23 24  1  0  0  0  0
 25 26  2  0  0  0  0
 25 27  1  0  0  0  0
 27 28  1  0  0  0  0
 27 29  1  0  0  0  0
 29 30  1  0  0  0  0
 29 31  1  0  0  0  0
 29 32  1  0  0  0  0
M  END
$$$$

  -OEChem-01062216093D

 32 32  0     1  0  0  0  0  0999 V2000
   -1.6162   -1.9401   -0.6663 H   0  0  0  0  0  0  0  0  0  0  0  0
   -2.5208   -1.7670   -0.0817 C   0  0  0  0  0  0  0  0  0  0  0  0
   -2.5717   -2.4905    0.7354 H   0  0  0  0  0  0  0  0  0  0  0  0
   -3.3834   -1.9141   -0.7362 H   0  0  0  0  0  0  0  0  0  0  0  0
   -2.5474   -0.3527    0.4726 C   0  0  0  0  0  0  0  0  0  0  0  0
   -3.4940   -0.0264    1.1659 O   0  0  0  0  0  0  0  0  0  0  0  0
   -1.9789    0.6832   -0.2220 N   0  0  0  0  0  0  0  0  0  0  0  0
   -2.6051    1.4849   -0.1982 H   0  0  0  0  0  0  0  0  0  0  0  0
   -0.5479    1.0618   -0.2719 C   0  0  1  0  0  0  0  0  0  0  0  0
   -0.4397    1.8591    0.4698 H   0  0  0  0  0  0  0  0  0  0  0  0
    0.5313    0.0065    0.0925 C   0  0  0  0  0  0  0  0  0  0  0  0
    0.4007   -0.8723   -0.5454 H   0  0  0  0  0  0  0  0  0  0  0  0
    1.5273    0.4027   -0.1277 H   0  0  0  0  0  0  0  0  0  0  0  0
    0.5138   -0.4041    1.5504 C   0  0  0  0  0  0  0  0  0  0  0  0
    1.1356    0.4229    2.5007 C   0  0  0  0  0  0  0  0  0  0  0  0
    1.5550    1.3784    2.2019 H   0  0  0  0  0  0  0  0  0  0  0  0
    1.2053    0.0460    3.8461 C   0  0  0  0  0  0  0  0  0  0  0  0
    1.6636    0.7086    4.5744 H   0  0  0  0  0  0  0  0  0  0  0  0
    0.6880   -1.1856    4.2538 C   0  0  0  0  0  0  0  0  0  0  0  0
    0.7386   -1.4801    5.2980 H   0  0  0  0  0  0  0  0  0  0  0  0
    0.1246   -2.0469    3.3098 C   0  0  0  0  0  0  0  0  0  0  0  0
   -0.2508   -3.0184    3.6187 H   0  0  0  0  0  0  0  0  0  0  0  0
    0.0590   -1.6660    1.9655 C   0  0  0  0  0  0  0  0  0  0  0  0
   -0.3251   -2.3791    1.2469 H   0  0  0  0  0  0  0  0  0  0  0  0
   -0.1852    1.7153   -1.6289 C   0  0  0  0  0  0  0  0  0  0  0  0
   -0.9377    1.6481   -2.5918 O   0  0  0  0  0  0  0  0  0  0  0  0
    1.0009    2.4162   -1.7718 N   0  0  0  0  0  0  0  0  0  0  0  0
    1.6010    2.5037   -0.9575 H   0  0  0  0  0  0  0  0  0  0  0  0
    1.3897    3.0913   -3.0052 C   0  0  0  0  0  0  0  0  0  0  0  0
    0.6734    3.8823   -3.2512 H   0  0  0  0  0  0  0  0  0  0  0  0
    2.3798    3.5435   -2.8930 H   0  0  0  0  0  0  0  0  0  0  0  0
    1.4285    2.3802   -3.8373 H   0  0  0  0  0  0  0  0  0  0  0  0
  1  2  1  0  0  0  0
  2  3  1  0  0  0  0
  2  4  1  0  0  0  0
  2  5  1  0  0  0  0
  5  6  2  0  0  0  0
  5  7  1  0  0  0  0
  7  8  1  0  0  0  0
  7  9  1  0  0  0  0
  9 10  1  0  0  0  0
  9 11  1  0  0  0  0
  9 25  1  0  0  0  0
 11 12  1  0  0  0  0
 11 13  1  0  0  0  0
 11 14  1  0  0  0  0
 14 15  1  0  0  0  0
 14 23  2  0  0  0  0
 15 16  1  0  0  0  0
 15 17  2  0  0  0  0
 17 18  1  0  0  0  0
 17 19  1  0  0  0  0
 19 20  1  0  0  0  0
 19 21  2  0  0  0  0
 21 22  1  0  0  0  0
 21 23  1  0  0  0  0
 23 24  1  0  0  0  0
 25 26  2  0  0  0  0
 25 27  1  0  0  0  0
 27 28  1  0  0  0  0
 27 29  1  0  0  0  0
 29 30  1  0  0  0  0
 29 31  1  0  0  0  0
 29 32  1  0  0  0  0
M  END
$$$$

  -OEChem-01062216093D

 32 32  0     1  0  0  0  0  0999 V2000
   -3.6432   -2.1978    0.7864 H   0  0  0  0  0  0  0  0  0  0  0  0
   -3.4109   -1.4032    0.0721 C   0  0  0  0  0  0  0  0  0  0  0  0
   -4.3053   -0.7955   -0.0842 H   0  0  0  0  0  0  0  0  0  0  0  0
   -3.1165   -1.8578   -0.8768 H   0  0  0  0  0  0  0  0  0  0  0  0
   -2.2846   -0.5374    0.6037 C   0  0  0  0  0  0  0  0  0  0  0  0
   -1.9492   -0.6417    1.7700 O   0  0  0  0  0  0  0  0  0  0  0  0
   -1.8011    0.4919   -0.1744 N   0  0  0  0  0  0  0  0  0  0  0  0
   -2.2614    0.5905   -1.0804 H   0  0  0  0  0  0  0  0  0  0  0  0
   -0.4741    1.1413   -0.1204 C   0  0  1  0  0  0  0  0  0  0  0  0
   -0.4261    1.8036    0.7493 H   0  0  0  0  0  0  0  0  0  0  0  0
    0.7486    0.1708   -0.1215 C   0  0  0  0  0  0  0  0  0  0  0  0
    0.6724   -0.4670   -1.0086 H   0  0  0  0  0  0  0  0  0  0  0  0
    1.6714    0.7480   -0.2289 H   0  0  0  0  0  0  0  0  0  0  0  0
    0.9435   -0.7126    1.0866 C   0  0  0  0  0  0  0  0  0  0  0  0
    1.5509   -0.1979    2.2421 C   0  0  0  0  0  0  0  0  0  0  0  0
    1.8153    0.8528    2.2966 H   0  0  0  0  0  0  0  0  0  0  0  0
    1.8060   -1.0243    3.3416 C   0  0  0  0  0  0  0  0  0  0  0  0
    2.2559   -0.6106    4.2388 H   0  0  0  0  0  0  0  0  0  0  0  0
    1.4777   -2.3817    3.2873 C   0  0  0  0  0  0  0  0  0  0  0  0
    1.6697   -3.0228    4.1422 H   0  0  0  0  0  0  0  0  0  0  0  0
    0.8996   -2.9121    2.1305 C   0  0  0  0  0  0  0  0  0  0  0  0
    0.6457   -3.9665    2.0855 H   0  0  0  0  0  0  0  0  0  0  0  0
    0.6429   -2.0838    1.0325 C   0  0  0  0  0  0  0  0  0  0  0  0
    0.1975   -2.5100    0.1396 H   0  0  0  0  0  0  0  0  0  0  0  0
   -0.3032    1.9667   -1.4245 C   0  0  0  0  0  0  0  0  0  0  0  0
   -1.1704    1.9377   -2.2934 O   0  0  0  0  0  0  0  0  0  0  0  0
    0.8457    2.6993   -1.6726 N   0  0  0  0  0  0  0  0  0  0  0  0
    1.5500    2.7340   -0.9414 H   0  0  0  0  0  0  0  0  0  0  0  0
    1.0616    3.4681   -2.8927 C   0  0  0  0  0  0  0  0  0  0  0  0
    0.2889    4.2362   -3.0036 H   0  0  0  0  0  0  0  0  0  0  0  0
    2.0377    3.9616   -2.8608 H   0  0  0  0  0  0  0  0  0  0  0  0
    1.0353    2.8121   -3.7692 H   0  0  0  0  0  0  0  0  0  0  0  0
  1  2  1  0  0  0  0
  2  3  1  0  0  0  0
  2  4  1  0  0  0  0
  2  5  1  0  0  0  0
  5  6  2  0  0  0  0
  5  7  1  0  0  0  0
  7  8  1  0  0  0  0
  7  9  1  0  0  0  0
  9 10  1  0  0  0  0
  9 11  1  0  0  0  0
  9 25  1  0  0  0  0
 11 12  1  0  0  0  0
 11 13  1  0  0  0  0
 11 14  1  0  0  0  0
 14 15  1  0  0  0  0
 14 23  2  0  0  0  0
 15 16  1  0  0  0  0
 15 17  2  0  0  0  0
 17 18  1  0  0  0  0
 17 19  1  0  0  0  0
 19 20  1  0  0  0  0
 19 21  2  0  0  0  0
 21 22  1  0  0  0  0
 21 23  1  0  0  0  0
 23 24  1  0  0  0  0
 25 26  2  0  0  0  0
 25 27  1  0  0  0  0
 27 28  1  0  0  0  0
 27 29  1  0  0  0  0
 29 30  1  0  0  0  0
 29 31  1  0  0  0  0
 29 32  1  0  0  0  0
M  END
$$$$

  -OEChem-01062216093D

 32 32  0     1  0  0  0  0  0999 V2000
   -3.6996   -2.1693    0.7169 H   0  0  0  0  0  0  0  0  0  0  0  0
   -3.4549   -1.3551    0.0294 C   0  0  0  0  0  0  0  0  0  0  0  0
   -4.3287   -0.7077   -0.0777 H   0  0  0  0  0  0  0  0  0  0  0  0
   -3.2028   -1.7807   -0.9448 H   0  0  0  0  0  0  0  0  0  0  0  0
   -2.2822   -0.5553    0.5642 C   0  0  0  0  0  0  0  0  0  0  0  0
   -1.9341   -0.7111    1.7205 O   0  0  0  0  0  0  0  0  0  0  0  0
   -1.7742    0.4774   -0.1939 N   0  0  0  0  0  0  0  0  0  0  0  0
   -2.2664    0.6440   -1.0727 H   0  0  0  0  0  0  0  0  0  0  0  0
   -0.4445    1.1227   -0.1320 C   0  0  1  0  0  0  0  0  0  0  0  0
   -0.4014    1.7890    0.7347 H   0  0  0  0  0  0  0  0  0  0  0  0
    0.7767    0.1479   -0.1081 C   0  0  0  0  0  0  0  0  0  0  0  0
    0.7127   -0.4954   -0.9922 H   0  0  0  0  0  0  0  0  0  0  0  0
    1.7020    0.7227   -0.1998 H   0  0  0  0  0  0  0  0  0  0  0  0
    0.9615   -0.7261    1.1087 C   0  0  0  0  0  0  0  0  0  0  0  0
    1.5599   -0.2031    2.2655 C   0  0  0  0  0  0  0  0  0  0  0  0
    1.8178    0.8495    2.3170 H   0  0  0  0  0  0  0  0  0  0  0  0
    1.8166   -1.0240    3.3691 C   0  0  0  0  0  0  0  0  0  0  0  0
    2.2620   -0.6050    4.2661 H   0  0  0  0  0  0  0  0  0  0  0  0
    1.4972   -2.3837    3.3183 C   0  0  0  0  0  0  0  0  0  0  0  0
    1.6903   -3.0206    4.1762 H   0  0  0  0  0  0  0  0  0  0  0  0
    0.9274   -2.9223    2.1612 C   0  0  0  0  0  0  0  0  0  0  0  0
    0.6795   -3.9785    2.1192 H   0  0  0  0  0  0  0  0  0  0  0  0
    0.6711   -2.0998    1.0589 C   0  0  0  0  0  0  0  0  0  0  0  0
    0.2321   -2.5325    0.1661 H   0  0  0  0  0  0  0  0  0  0  0  0
   -0.2840    1.9546   -1.4393 C   0  0  0  0  0  0  0  0  0  0  0  0
   -1.2520    2.1299   -2.1745 O   0  0  0  0  0  0  0  0  0  0  0  0
    0.9383    2.4490   -1.8670 N   0  0  0  0  0  0  0  0  0  0  0  0
    1.7384    2.3238   -1.2543 H   0  0  0  0  0  0  0  0  0  0  0  0
    1.1137    3.2091   -3.0998 C   0  0  0  0  0  0  0  0  0  0  0  0
    0.5009    4.1166   -3.0807 H   0  0  0  0  0  0  0  0  0  0  0  0
    2.1613    3.5021   -3.2184 H   0  0  0  0  0  0  0  0  0  0  0  0
    0.8243    2.6062   -3.9669 H   0  0  0  0  0  0  0  0  0  0  0  0
  1  2  1  0  0  0  0
  2  3  1  0  0  0  0
  2  4  1  0  0  0  0
  2  5  1  0  0  0  0
  5  6  2  0  0  0  0
  5  7  1  0  0  0  0
  7  8  1  0  0  0  0
  7  9  1  0  0  0  0
  9 10  1  0  0  0  0
  9 11  1  0  0  0  0
  9 25  1  0  0  0  0
 11 12  1  0  0  0  0
 11 13  1  0  0  0  0
 11 14  1  0  0  0  0
 14 15  1  0  0  0  0
 14 23  2  0  0  0  0
 15 16  1  0  0  0  0
 15 17  2  0  0  0  0
 17 18  1  0  0  0  0
 17 19  1  0  0  0  0
 19 20  1  0  0  0  0
 19 21  2  0  0  0  0
 21 22  1  0  0  0  0
 21 23  1  0  0  0  0
 23 24  1  0  0  0  0
 25 26  2  0  0  0  0
 25 27  1  0  0  0  0
 27 28  1  0  0  0  0
 27 29  1  0  0  0  0
 29 30  1  0  0  0  0
 29 31  1  0  0  0  0
 29 32  1  0  0  0  0
M  END
$$$$

  -OEChem-01062216093D

 32 32  0     1  0  0  0  0  0999 V2000
   -3.7696   -2.1372    0.6367 H   0  0  0  0  0  0  0  0  0  0  0  0
   -3.5079   -1.3026   -0.0196 C   0  0  0  0  0  0  0  0  0  0  0  0
   -4.3566   -0.6166   -0.0749 H   0  0  0  0  0  0  0  0  0  0  0  0
   -3.2981   -1.6932   -1.0181 H   0  0  0  0  0  0  0  0  0  0  0  0
   -2.2900   -0.5758    0.5196 C   0  0  0  0  0  0  0  0  0  0  0  0
   -1.9214   -0.8028    1.6567 O   0  0  0  0  0  0  0  0  0  0  0  0
   -1.7559    0.4625   -0.2131 N   0  0  0  0  0  0  0  0  0  0  0  0
   -2.2817    0.7072   -1.0529 H   0  0  0  0  0  0  0  0  0  0  0  0
   -0.4198    1.0951   -0.1428 C   0  0  1  0  0  0  0  0  0  0  0  0
   -0.3817    1.7610    0.7248 H   0  0  0  0  0  0  0  0  0  0  0  0
    0.8049    0.1262   -0.0984 C   0  0  0  0  0  0  0  0  0  0  0  0
    0.7555   -0.5231   -0.9788 H   0  0  0  0  0  0  0  0  0  0  0  0
    1.7264    0.7094   -0.1784 H   0  0  0  0  0  0  0  0  0  0  0  0
    0.9850   -0.7385    1.1254 C   0  0  0  0  0  0  0  0  0  0  0  0
    1.5714   -0.2026    2.2826 C   0  0  0  0  0  0  0  0  0  0  0  0
    1.8200    0.8527    2.3289 H   0  0  0  0  0  0  0  0  0  0  0  0
    1.8283   -1.0139    3.3930 C   0  0  0  0  0  0  0  0  0  0  0  0
    2.2629   -0.5841    4.2903 H   0  0  0  0  0  0  0  0  0  0  0  0
    1.5221   -2.3770    3.3492 C   0  0  0  0  0  0  0  0  0  0  0  0
    1.7145   -3.0064    4.2127 H   0  0  0  0  0  0  0  0  0  0  0  0
    0.9660   -2.9285    2.1916 C   0  0  0  0  0  0  0  0  0  0  0  0
    0.7278   -3.9868    2.1545 H   0  0  0  0  0  0  0  0  0  0  0  0
    0.7105   -2.1158    1.0819 C   0  0  0  0  0  0  0  0  0  0  0  0
    0.2821   -2.5580    0.1885 H   0  0  0  0  0  0  0  0  0  0  0  0
   -0.2699    1.9399   -1.4448 C   0  0  0  0  0  0  0  0  0  0  0  0
   -1.2783    2.3394   -2.0192 O   0  0  0  0  0  0  0  0  0  0  0  0
    0.9469    2.1899   -2.0619 N   0  0  0  0  0  0  0  0  0  0  0  0
    1.7875    1.8545   -1.6020 H   0  0  0  0  0  0  0  0  0  0  0  0
    1.0834    2.9354   -3.3085 C   0  0  0  0  0  0  0  0  0  0  0  0
    0.6827    3.9484   -3.1956 H   0  0  0  0  0  0  0  0  0  0  0  0
    2.1381    3.0108   -3.5900 H   0  0  0  0  0  0  0  0  0  0  0  0
    0.5453    2.4313   -4.1181 H   0  0  0  0  0  0  0  0  0  0  0  0
  1  2  1  0  0  0  0
  2  3  1  0  0  0  0
  2  4  1  0  0  0  0
  2  5  1  0  0  0  0
  5  6  2  0  0  0  0
  5  7  1  0  0  0  0
  7  8  1  0  0  0  0
  7  9  1  0  0  0  0
  9 10  1  0  0  0  0
  9 11  1  0  0  0  0
  9 25  1  0  0  0  0
 11 12  1  0  0  0  0
 11 13  1  0  0  0  0
 11 14  1  0  0  0  0
 14 15  1  0  0  0  0
 14 23  2  0  0  0  0
 15 16  1  0  0  0  0
 15 17  2  0  0  0  0
 17 18  1  0  0  0  0
 17 19  1  0  0  0  0
 19 20  1  0  0  0  0
 19 21  2  0  0  0  0
 21 22  1  0  0  0  0
 21 23  1  0  0  0  0
 23 24  1  0  0  0  0
 25 26  2  0  0  0  0
 25 27  1  0  0  0  0
 27 28  1  0  0  0  0
 27 29  1  0  0  0  0
 29 30  1  0  0  0  0
 29 31  1  0  0  0  0
 29 32  1  0  0  0  0
M  END
$$$$

  -OEChem-01062216093D

 32 32  0     1  0  0  0  0  0999 V2000
   -3.8750   -2.0730    0.5857 H   0  0  0  0  0  0  0  0  0  0  0  0
   -3.5738   -1.2436   -0.0604 C   0  0  0  0  0  0  0  0  0  0  0  0
   -4.3801   -0.5065   -0.0870 H   0  0  0  0  0  0  0  0  0  0  0  0
   -3.4058   -1.6276   -1.0694 H   0  0  0  0  0  0  0  0  0  0  0  0
   -2.3046   -0.6016    0.4687 C   0  0  0  0  0  0  0  0  0  0  0  0
   -1.9076   -0.9096    1.5759 O   0  0  0  0  0  0  0  0  0  0  0  0
   -1.7468    0.4417   -0.2397 N   0  0  0  0  0  0  0  0  0  0  0  0
   -2.3000    0.7583   -1.0361 H   0  0  0  0  0  0  0  0  0  0  0  0
   -0.4053    1.0613   -0.1574 C   0  0  1  0  0  0  0  0  0  0  0  0
   -0.3758    1.7258    0.7116 H   0  0  0  0  0  0  0  0  0  0  0  0
    0.8301    0.1087   -0.0930 C   0  0  0  0  0  0  0  0  0  0  0  0
    0.7965   -0.5503   -0.9669 H   0  0  0  0  0  0  0  0  0  0  0  0
    1.7410    0.7097   -0.1721 H   0  0  0  0  0  0  0  0  0  0  0  0
    1.0106   -0.7470    1.1372 C   0  0  0  0  0  0  0  0  0  0  0  0
    1.5789   -0.1964    2.2965 C   0  0  0  0  0  0  0  0  0  0  0  0
    1.8104    0.8630    2.3395 H   0  0  0  0  0  0  0  0  0  0  0  0
    1.8394   -0.9979    3.4133 C   0  0  0  0  0  0  0  0  0  0  0  0
    2.2592   -0.5574    4.3126 H   0  0  0  0  0  0  0  0  0  0  0  0
    1.5569   -2.3662    3.3735 C   0  0  0  0  0  0  0  0  0  0  0  0
    1.7512   -2.9882    4.2420 H   0  0  0  0  0  0  0  0  0  0  0  0
    1.0219   -2.9324    2.2132 C   0  0  0  0  0  0  0  0  0  0  0  0
    0.8026   -3.9949    2.1785 H   0  0  0  0  0  0  0  0  0  0  0  0
    0.7615   -2.1291    1.0978 C   0  0  0  0  0  0  0  0  0  0  0  0
    0.3470   -2.5828    0.2036 H   0  0  0  0  0  0  0  0  0  0  0  0
   -0.2594    1.9183   -1.4496 C   0  0  0  0  0  0  0  0  0  0  0  0
   -1.2380    2.5310   -1.8630 O   0  0  0  0  0  0  0  0  0  0  0  0
    0.8780    1.9343   -2.2435 N   0  0  0  0  0  0  0  0  0  0  0  0
    1.6773    1.3900   -1.9341 H   0  0  0  0  0  0  0  0  0  0  0  0
    0.9761    2.6671   -3.5011 C   0  0  0  0  0  0  0  0  0  0  0  0
    0.8125    3.7371   -3.3353 H   0  0  0  0  0  0  0  0  0  0  0  0
    1.9699    2.5342   -3.9393 H   0  0  0  0  0  0  0  0  0  0  0  0
    0.2312    2.3029   -4.2165 H   0  0  0  0  0  0  0  0  0  0  0  0
  1  2  1  0  0  0  0
  2  3  1  0  0  0  0
  2  4  1  0  0  0  0
  2  5  1  0  0  0  0
  5  6  2  0  0  0  0
  5  7  1  0  0  0  0
  7  8  1  0  0  0  0
  7  9  1  0  0  0  0
  9 10  1  0  0  0  0
  9 11  1  0  0  0  0
  9 25  1  0  0  0  0
 11 12  1  0  0  0  0
 11 13  1  0  0  0  0
 11 14  1  0  0  0  0
 14 15  1  0  0  0  0
 14 23  2  0  0  0  0
 15 16  1  0  0  0  0
 15 17  2  0  0  0  0
 17 18  1  0  0  0  0
 17 19  1  0  0  0  0
 19 20  1  0  0  0  0
 19 21  2  0  0  0  0
 21 22  1  0  0  0  0
 21 23  1  0  0  0  0
 23 24  1  0  0  0  0
 25 26  2  0  0  0  0
 25 27  1  0  0  0  0
 27 28  1  0  0  0  0
 27 29  1  0  0  0  0
 29 30  1  0  0  0  0
 29 31  1  0  0  0  0
 29 32  1  0  0  0  0
M  END
$$$$

  -OEChem-01062216093D

 32 32  0     1  0  0  0  0  0999 V2000
   -3.9358   -2.0350    0.5765 H   0  0  0  0  0  0  0  0  0  0  0  0
   -3.6167   -1.2138   -0.0714 C   0  0  0  0  0  0  0  0  0  0  0  0
   -4.3963   -0.4483   -0.0804 H   0  0  0  0  0  0  0  0  0  0  0  0
   -3.4810   -1.5986   -1.0848 H   0  0  0  0  0  0  0  0  0  0  0  0
   -2.3159   -0.6212    0.4376 C   0  0  0  0  0  0  0  0  0  0  0  0
   -1.8971   -0.9757    1.5217 O   0  0  0  0  0  0  0  0  0  0  0  0
   -1.7482    0.4228   -0.2627 N   0  0  0  0  0  0  0  0  0  0  0  0
   -2.3201    0.7774   -1.0282 H   0  0  0  0  0  0  0  0  0  0  0  0
   -0.4023    1.0329   -0.1781 C   0  0  1  0  0  0  0  0  0  0  0  0
   -0.3773    1.6982    0.6908 H   0  0  0  0  0  0  0  0  0  0  0  0
    0.8400    0.0914   -0.1022 C   0  0  0  0  0  0  0  0  0  0  0  0
    0.8112   -0.5803   -0.9662 H   0  0  0  0  0  0  0  0  0  0  0  0
    1.7429    0.7042   -0.1936 H   0  0  0  0  0  0  0  0  0  0  0  0
    1.0252   -0.7549    1.1338 C   0  0  0  0  0  0  0  0  0  0  0  0
    1.5860   -0.1898    2.2896 C   0  0  0  0  0  0  0  0  0  0  0  0
    1.8093    0.8717    2.3239 H   0  0  0  0  0  0  0  0  0  0  0  0
    1.8509   -0.9795    3.4138 C   0  0  0  0  0  0  0  0  0  0  0  0
    2.2660   -0.5265    4.3090 H   0  0  0  0  0  0  0  0  0  0  0  0
    1.5780   -2.3501    3.3857 C   0  0  0  0  0  0  0  0  0  0  0  0
    1.7740   -2.9627    4.2603 H   0  0  0  0  0  0  0  0  0  0  0  0
    1.0496   -2.9306    2.2295 C   0  0  0  0  0  0  0  0  0  0  0  0
    0.8355   -3.9945    2.2049 H   0  0  0  0  0  0  0  0  0  0  0  0
    0.7872   -2.1394    1.1058 C   0  0  0  0  0  0  0  0  0  0  0  0
    0.3761   -2.6038    0.2157 H   0  0  0  0  0  0  0  0  0  0  0  0
   -0.2525    1.8949   -1.4618 C   0  0  0  0  0  0  0  0  0  0  0  0
   -1.1369    2.6995   -1.7280 O   0  0  0  0  0  0  0  0  0  0  0  0
    0.7372    1.6969   -2.4133 N   0  0  0  0  0  0  0  0  0  0  0  0
    1.4360    0.9842   -2.2263 H   0  0  0  0  0  0  0  0  0  0  0  0
    0.8118    2.4403   -3.6663 C   0  0  0  0  0  0  0  0  0  0  0  0
    0.9026    3.5139   -3.4700 H   0  0  0  0  0  0  0  0  0  0  0  0
    1.6836    2.1205   -4.2450 H   0  0  0  0  0  0  0  0  0  0  0  0
   -0.0854    2.2670   -4.2697 H   0  0  0  0  0  0  0  0  0  0  0  0
  1  2  1  0  0  0  0
  2  3  1  0  0  0  0
  2  4  1  0  0  0  0
  2  5  1  0  0  0  0
  5  6  2  0  0  0  0
  5  7  1  0  0  0  0
  7  8  1  0  0  0  0
  7  9  1  0  0  0  0
  9 10  1  0  0  0  0
  9 11  1  0  0  0  0
  9 25  1  0  0  0  0
 11 12  1  0  0  0  0
 11 13  1  0  0  0  0
 11 14  1  0  0  0  0
 14 15  1  0  0  0  0
 14 23  2  0  0  0  0
 15 16  1  0  0  0  0
 15 17  2  0  0  0  0
 17 18  1  0  0  0  0
 17 19  1  0  0  0  0
 19 20  1  0  0  0  0
 19 21  2  0  0  0  0
 21 22  1  0  0  0  0
 21 23  1  0  0  0  0
 23 24  1  0  0  0  0
 25 26  2  0  0  0  0
 25 27  1  0  0  0  0
 27 28  1  0  0  0  0
 27 29  1  0  0  0  0
 29 30  1  0  0  0  0
 29 31  1  0  0  0  0
 29 32  1  0  0  0  0
M  END
$$$$

  -OEChem-01062216093D

 32 32  0     1  0  0  0  0  0999 V2000
   -3.9566   -2.0288    0.5933 H   0  0  0  0  0  0  0  0  0  0  0  0
   -3.6381   -1.2121   -0.0606 C   0  0  0  0  0  0  0  0  0  0  0  0
   -4.4139   -0.4426   -0.0671 H   0  0  0  0  0  0  0  0  0  0  0  0
   -3.5119   -1.6022   -1.0732 H   0  0  0  0  0  0  0  0  0  0  0  0
   -2.3301   -0.6248    0.4359 C   0  0  0  0  0  0  0  0  0  0  0  0
   -1.8998   -0.9864    1.5128 O   0  0  0  0  0  0  0  0  0  0  0  0
   -1.7642    0.4167   -0.2705 N   0  0  0  0  0  0  0  0  0  0  0  0
   -2.3430    0.7698   -1.0301 H   0  0  0  0  0  0  0  0  0  0  0  0
   -0.4128    1.0164   -0.1962 C   0  0  1  0  0  0  0  0  0  0  0  0
   -0.3818    1.6796    0.6742 H   0  0  0  0  0  0  0  0  0  0  0  0
    0.8298    0.0758   -0.1226 C   0  0  0  0  0  0  0  0  0  0  0  0
    0.7911   -0.6083   -0.9759 H   0  0  0  0  0  0  0  0  0  0  0  0
    1.7324    0.6862   -0.2363 H   0  0  0  0  0  0  0  0  0  0  0  0
    1.0207   -0.7622    1.1183 C   0  0  0  0  0  0  0  0  0  0  0  0
    1.5879   -0.1845    2.2644 C   0  0  0  0  0  0  0  0  0  0  0  0
    1.8085    0.8780    2.2848 H   0  0  0  0  0  0  0  0  0  0  0  0
    1.8623   -0.9616    3.3948 C   0  0  0  0  0  0  0  0  0  0  0  0
    2.2829   -0.4987    4.2823 H   0  0  0  0  0  0  0  0  0  0  0  0
    1.5927   -2.3328    3.3826 C   0  0  0  0  0  0  0  0  0  0  0  0
    1.7969   -2.9354    4.2622 H   0  0  0  0  0  0  0  0  0  0  0  0
    1.0577   -2.9264    2.2359 C   0  0  0  0  0  0  0  0  0  0  0  0
    0.8474   -3.9913    2.2235 H   0  0  0  0  0  0  0  0  0  0  0  0
    0.7855   -2.1475    1.1058 C   0  0  0  0  0  0  0  0  0  0  0  0
    0.3700   -2.6224    0.2234 H   0  0  0  0  0  0  0  0  0  0  0  0
   -0.2518    1.8811   -1.4721 C   0  0  0  0  0  0  0  0  0  0  0  0
   -0.9646    2.8670   -1.6010 O   0  0  0  0  0  0  0  0  0  0  0  0
    0.5257    1.5016   -2.5555 N   0  0  0  0  0  0  0  0  0  0  0  0
    1.0706    0.6492   -2.4689 H   0  0  0  0  0  0  0  0  0  0  0  0
    0.6022    2.2616   -3.7981 C   0  0  0  0  0  0  0  0  0  0  0  0
    0.9592    3.2786   -3.6043 H   0  0  0  0  0  0  0  0  0  0  0  0
    1.2953    1.7799   -4.4944 H   0  0  0  0  0  0  0  0  0  0  0  0
   -0.3824    2.3187   -4.2742 H   0  0  0  0  0  0  0  0  0  0  0  0
  1  2  1  0  0  0  0
  2  3  1  0  0  0  0
  2  4  1  0  0  0  0
  2  5  1  0  0  0  0
  5  6  2  0  0  0  0
  5  7  1  0  0  0  0
  7  8  1  0  0  0  0
  7  9  1  0  0  0  0
  9 10  1  0  0  0  0
  9 11  1  0  0  0  0
  9 25  1  0  0  0  0
 11 12  1  0  0  0  0
 11 13  1  0  0  0  0
 11 14  1  0  0  0  0
 14 15  1  0  0  0  0
 14 23  2  0  0  0  0
 15 16  1  0  0  0  0
 15 17  2  0  0  0  0
 17 18  1  0  0  0  0
 17 19  1  0  0  0  0
 19 20  1  0  0  0  0
 19 21  2  0  0  0  0
 21 22  1  0  0  0  0
 21 23  1  0  0  0  0
 23 24  1  0  0  0  0
 25 26  2  0  0  0  0
 25 27  1  0  0  0  0
 27 28  1  0  0  0  0
 27 29  1  0  0  0  0
 29 30  1  0  0  0  0
 29 31  1  0  0  0  0
 29 32  1  0  0  0  0
M  END
$$$$

  -OEChem-01062216093D

 32 32  0     1  0  0  0  0  0999 V2000
   -3.9712   -2.0203    0.6398 H   0  0  0  0  0  0  0  0  0  0  0  0
   -3.6512   -1.2195   -0.0328 C   0  0  0  0  0  0  0  0  0  0  0  0
   -4.4251   -0.4485   -0.0546 H   0  0  0  0  0  0  0  0  0  0  0  0
   -3.5277   -1.6325   -1.0367 H   0  0  0  0  0  0  0  0  0  0  0  0
   -2.3414   -0.6240    0.4489 C   0  0  0  0  0  0  0  0  0  0  0  0
   -1.9022   -0.9744    1.5257 O   0  0  0  0  0  0  0  0  0  0  0  0
   -1.7855    0.4139   -0.2709 N   0  0  0  0  0  0  0  0  0  0  0  0
   -2.3638    0.7424   -1.0406 H   0  0  0  0  0  0  0  0  0  0  0  0
   -0.4340    1.0150   -0.2030 C   0  0  1  0  0  0  0  0  0  0  0  0
   -0.4010    1.6800    0.6664 H   0  0  0  0  0  0  0  0  0  0  0  0
    0.8145    0.0826   -0.1377 C   0  0  0  0  0  0  0  0  0  0  0  0
    0.7780   -0.6029   -0.9892 H   0  0  0  0  0  0  0  0  0  0  0  0
    1.7110    0.7004   -0.2599 H   0  0  0  0  0  0  0  0  0  0  0  0
    1.0153   -0.7551    1.1017 C   0  0  0  0  0  0  0  0  0  0  0  0
    1.5838   -0.1768    2.2470 C   0  0  0  0  0  0  0  0  0  0  0  0
    1.8004    0.8866    2.2689 H   0  0  0  0  0  0  0  0  0  0  0  0
    1.8646   -0.9550    3.3751 C   0  0  0  0  0  0  0  0  0  0  0  0
    2.2851   -0.4917    4.2624 H   0  0  0  0  0  0  0  0  0  0  0  0
    1.6010   -2.3274    3.3609 C   0  0  0  0  0  0  0  0  0  0  0  0
    1.8112   -2.9310    4.2383 H   0  0  0  0  0  0  0  0  0  0  0  0
    1.0645   -2.9212    2.2151 C   0  0  0  0  0  0  0  0  0  0  0  0
    0.8587   -3.9868    2.2016 H   0  0  0  0  0  0  0  0  0  0  0  0
    0.7851   -2.1413    1.0877 C   0  0  0  0  0  0  0  0  0  0  0  0
    0.3702   -2.6169    0.2056 H   0  0  0  0  0  0  0  0  0  0  0  0
   -0.2659    1.8718   -1.4795 C   0  0  0  0  0  0  0  0  0  0  0  0
   -0.7362    3.0000   -1.5011 O   0  0  0  0  0  0  0  0  0  0  0  0
    0.2548    1.3576   -2.6565 N   0  0  0  0  0  0  0  0  0  0  0  0
    0.6042    0.4042   -2.6392 H   0  0  0  0  0  0  0  0  0  0  0  0
    0.3478    2.1190   -3.8968 C   0  0  0  0  0  0  0  0  0  0  0  0
    0.9920    2.9941   -3.7614 H   0  0  0  0  0  0  0  0  0  0  0  0
    0.7713    1.4975   -4.6915 H   0  0  0  0  0  0  0  0  0  0  0  0
   -0.6439    2.4572   -4.2151 H   0  0  0  0  0  0  0  0  0  0  0  0
  1  2  1  0  0  0  0
  2  3  1  0  0  0  0
  2  4  1  0  0  0  0
  2  5  1  0  0  0  0
  5  6  2  0  0  0  0
  5  7  1  0  0  0  0
  7  8  1  0  0  0  0
  7  9  1  0  0  0  0
  9 10  1  0  0  0  0
  9 11  1  0  0  0  0
  9 25  1  0  0  0  0
 11 12  1  0  0  0  0
 11 13  1  0  0  0  0
 11 14  1  0  0  0  0
 14 15  1  0  0  0  0
 14 23  2  0  0  0  0
 15 16  1  0  0  0  0
 15 17  2  0  0  0  0
 17 18  1  0  0  0  0
 17 19  1  0  0  0  0
 19 20  1  0  0  0  0
 19 21  2  0  0  0  0
 21 22  1  0  0  0  0
 21 23  1  0  0  0  0
 23 24  1  0  0  0  0
 25 26  2  0  0  0  0
 25 27  1  0  0  0  0
 27 28  1  0  0  0  0
 27 29  1  0  0  0  0
 29 30  1  0  0  0  0
 29 31  1  0  0  0  0
 29 32  1  0  0  0  0
M  END
$$$$

  -OEChem-01062216093D

 32 32  0     1  0  0  0  0  0999 V2000
   -3.9370   -2.0513    0.7140 H   0  0  0  0  0  0  0  0  0  0  0  0
   -3.6431   -1.2550    0.0239 C   0  0  0  0  0  0  0  0  0  0  0  0
   -4.4407   -0.5090   -0.0131 H   0  0  0  0  0  0  0  0  0  0  0  0
   -3.5079   -1.6855   -0.9708 H   0  0  0  0  0  0  0  0  0  0  0  0
   -2.3517   -0.6094    0.4911 C   0  0  0  0  0  0  0  0  0  0  0  0
   -1.9092   -0.9095    1.5818 O   0  0  0  0  0  0  0  0  0  0  0  0
   -1.8188    0.4231   -0.2541 N   0  0  0  0  0  0  0  0  0  0  0  0
   -2.3912    0.7019   -1.0468 H   0  0  0  0  0  0  0  0  0  0  0  0
   -0.4686    1.0302   -0.2007 C   0  0  1  0  0  0  0  0  0  0  0  0
   -0.4265    1.6963    0.6677 H   0  0  0  0  0  0  0  0  0  0  0  0
    0.7822    0.1006   -0.1598 C   0  0  0  0  0  0  0  0  0  0  0  0
    0.7415   -0.5764   -1.0180 H   0  0  0  0  0  0  0  0  0  0  0  0
    1.6758    0.7223   -0.2872 H   0  0  0  0  0  0  0  0  0  0  0  0
    0.9968   -0.7435    1.0724 C   0  0  0  0  0  0  0  0  0  0  0  0
    1.5773   -0.1706    2.2139 C   0  0  0  0  0  0  0  0  0  0  0  0
    1.7973    0.8923    2.2356 H   0  0  0  0  0  0  0  0  0  0  0  0
    1.8644   -0.9536    3.3372 C   0  0  0  0  0  0  0  0  0  0  0  0
    2.2949   -0.4952    4.2223 H   0  0  0  0  0  0  0  0  0  0  0  0
    1.5946   -2.3248    3.3216 C   0  0  0  0  0  0  0  0  0  0  0  0
    1.8096   -2.9314    4.1960 H   0  0  0  0  0  0  0  0  0  0  0  0
    1.0466   -2.9131    2.1783 C   0  0  0  0  0  0  0  0  0  0  0  0
    0.8384   -3.9785    2.1631 H   0  0  0  0  0  0  0  0  0  0  0  0
    0.7601   -2.1285    1.0557 C   0  0  0  0  0  0  0  0  0  0  0  0
    0.3365   -2.6001    0.1755 H   0  0  0  0  0  0  0  0  0  0  0  0
   -0.2966    1.8741   -1.4823 C   0  0  0  0  0  0  0  0  0  0  0  0
   -0.4471    3.0858   -1.4333 O   0  0  0  0  0  0  0  0  0  0  0  0
   -0.0685    1.2817   -2.7136 N   0  0  0  0  0  0  0  0  0  0  0  0
    0.0594    0.2744   -2.7327 H   0  0  0  0  0  0  0  0  0  0  0  0
    0.0877    2.0368   -3.9513 C   0  0  0  0  0  0  0  0  0  0  0  0
    0.9491    2.7097   -3.8833 H   0  0  0  0  0  0  0  0  0  0  0  0
    0.2466    1.3552   -4.7924 H   0  0  0  0  0  0  0  0  0  0  0  0
   -0.8092    2.6315   -4.1542 H   0  0  0  0  0  0  0  0  0  0  0  0
  1  2  1  0  0  0  0
  2  3  1  0  0  0  0
  2  4  1  0  0  0  0
  2  5  1  0  0  0  0
  5  6  2  0  0  0  0
  5  7  1  0  0  0  0
  7  8  1  0  0  0  0
  7  9  1  0  0  0  0
  9 10  1  0  0  0  0
  9 11  1  0  0  0  0
  9 25  1  0  0  0  0
 11 12  1  0  0  0  0
 11 13  1  0  0  0  0
 11 14  1  0  0  0  0
 14 15  1  0  0  0  0
 14 23  2  0  0  0  0
 15 16  1  0  0  0  0
 15 17  2  0  0  0  0
 17 18  1  0  0  0  0
 17 19  1  0  0  0  0
 19 20  1  0  0  0  0
 19 21  2  0  0  0  0
 21 22  1  0  0  0  0
 21 23  1  0  0  0  0
 23 24  1  0  0  0  0
 25 26  2  0  0  0  0
 25 27  1  0  0  0  0
 27 28  1  0  0  0  0
 27 29  1  0  0  0  0
 29 30  1  0  0  0  0
 29 31  1  0  0  0  0
 29 32  1  0  0  0  0
M  END
$$$$

  -OEChem-01062216093D

 32 32  0     1  0  0  0  0  0999 V2000
   -3.8645   -2.1028    0.7765 H   0  0  0  0  0  0  0  0  0  0  0  0
   -3.6140   -1.2953    0.0824 C   0  0  0  0  0  0  0  0  0  0  0  0
   -4.4497   -0.5923    0.0445 H   0  0  0  0  0  0  0  0  0  0  0  0
   -3.4582   -1.7228   -0.9108 H   0  0  0  0  0  0  0  0  0  0  0  0
   -2.3577   -0.5814    0.5453 C   0  0  0  0  0  0  0  0  0  0  0  0
   -1.9239   -0.8181    1.6553 O   0  0  0  0  0  0  0  0  0  0  0  0
   -1.8499    0.4443   -0.2265 N   0  0  0  0  0  0  0  0  0  0  0  0
   -2.4137    0.6724   -1.0409 H   0  0  0  0  0  0  0  0  0  0  0  0
   -0.5043    1.0635   -0.1854 C   0  0  1  0  0  0  0  0  0  0  0  0
   -0.4532    1.7320    0.6808 H   0  0  0  0  0  0  0  0  0  0  0  0
    0.7438    0.1316   -0.1722 C   0  0  0  0  0  0  0  0  0  0  0  0
    0.6939   -0.5312   -1.0412 H   0  0  0  0  0  0  0  0  0  0  0  0
    1.6370    0.7539   -0.3013 H   0  0  0  0  0  0  0  0  0  0  0  0
    0.9716   -0.7263    1.0482 C   0  0  0  0  0  0  0  0  0  0  0  0
    1.5684   -0.1690    2.1889 C   0  0  0  0  0  0  0  0  0  0  0  0
    1.7960    0.8920    2.2186 H   0  0  0  0  0  0  0  0  0  0  0  0
    1.8641   -0.9656    3.3002 C   0  0  0  0  0  0  0  0  0  0  0  0
    2.3106   -0.5195    4.1837 H   0  0  0  0  0  0  0  0  0  0  0  0
    1.5835   -2.3346    3.2734 C   0  0  0  0  0  0  0  0  0  0  0  0
    1.8078   -2.9523    4.1376 H   0  0  0  0  0  0  0  0  0  0  0  0
    1.0131   -2.9066    2.1326 C   0  0  0  0  0  0  0  0  0  0  0  0
    0.7949   -3.9697    2.1103 H   0  0  0  0  0  0  0  0  0  0  0  0
    0.7187   -2.1083    1.0219 C   0  0  0  0  0  0  0  0  0  0  0  0
    0.2795   -2.5668    0.1425 H   0  0  0  0  0  0  0  0  0  0  0  0
   -0.3284    1.8909   -1.4750 C   0  0  0  0  0  0  0  0  0  0  0  0
   -0.1576    3.0989   -1.4096 O   0  0  0  0  0  0  0  0  0  0  0  0
   -0.4001    1.2868   -2.7196 N   0  0  0  0  0  0  0  0  0  0  0  0
   -0.4611    0.2733   -2.7420 H   0  0  0  0  0  0  0  0  0  0  0  0
   -0.1931    2.0082   -3.9699 C   0  0  0  0  0  0  0  0  0  0  0  0
    0.8099    2.4471   -3.9979 H   0  0  0  0  0  0  0  0  0  0  0  0
   -0.2975    1.3282   -4.8208 H   0  0  0  0  0  0  0  0  0  0  0  0
   -0.9314    2.8100   -4.0763 H   0  0  0  0  0  0  0  0  0  0  0  0
  1  2  1  0  0  0  0
  2  3  1  0  0  0  0
  2  4  1  0  0  0  0
  2  5  1  0  0  0  0
  5  6  2  0  0  0  0
  5  7  1  0  0  0  0
  7  8  1  0  0  0  0
  7  9  1  0  0  0  0
  9 10  1  0  0  0  0
  9 11  1  0  0  0  0
  9 25  1  0  0  0  0
 11 12  1  0  0  0  0
 11 13  1  0  0  0  0
 11 14  1  0  0  0  0
 14 15  1  0  0  0  0
 14 23  2  0  0  0  0
 15 16  1  0  0  0  0
 15 17  2  0  0  0  0
 17 18  1  0  0  0  0
 17 19  1  0  0  0  0
 19 20  1  0  0  0  0
 19 21  2  0  0  0  0
 21 22  1  0  0  0  0
 21 23  1  0  0  0  0
 23 24  1  0  0  0  0
 25 26  2  0  0  0  0
 25 27  1  0  0  0  0
 27 28  1  0  0  0  0
 27 29  1  0  0  0  0
 29 30  1  0  0  0  0
 29 31  1  0  0  0  0
 29 32  1  0  0  0  0
M  END
$$$$

  -OEChem-01062216093D

 32 32  0     1  0  0  0  0  0999 V2000
   -3.8639   -2.1076    0.8314 H   0  0  0  0  0  0  0  0  0  0  0  0
   -3.6133   -1.3140    0.1216 C   0  0  0  0  0  0  0  0  0  0  0  0
   -4.4525   -0.6167    0.0632 H   0  0  0  0  0  0  0  0  0  0  0  0
   -3.4490   -1.7620   -0.8611 H   0  0  0  0  0  0  0  0  0  0  0  0
   -2.3633   -0.5836    0.5765 C   0  0  0  0  0  0  0  0  0  0  0  0
   -1.9256   -0.8040    1.6883 O   0  0  0  0  0  0  0  0  0  0  0  0
   -1.8687    0.4425   -0.2038 N   0  0  0  0  0  0  0  0  0  0  0  0
   -2.4458    0.6731   -1.0077 H   0  0  0  0  0  0  0  0  0  0  0  0
   -0.5291    1.0778   -0.1685 C   0  0  1  0  0  0  0  0  0  0  0  0
   -0.4758    1.7457    0.6979 H   0  0  0  0  0  0  0  0  0  0  0  0
    0.7231    0.1520   -0.1759 C   0  0  0  0  0  0  0  0  0  0  0  0
    0.6688   -0.4989   -1.0541 H   0  0  0  0  0  0  0  0  0  0  0  0
    1.6134    0.7787   -0.3038 H   0  0  0  0  0  0  0  0  0  0  0  0
    0.9624   -0.7156    1.0354 C   0  0  0  0  0  0  0  0  0  0  0  0
    1.5651   -0.1666    2.1771 C   0  0  0  0  0  0  0  0  0  0  0  0
    1.7941    0.8941    2.2124 H   0  0  0  0  0  0  0  0  0  0  0  0
    1.8633   -0.9709    3.2826 C   0  0  0  0  0  0  0  0  0  0  0  0
    2.3119   -0.5313    4.1683 H   0  0  0  0  0  0  0  0  0  0  0  0
    1.5807   -2.3394    3.2482 C   0  0  0  0  0  0  0  0  0  0  0  0
    1.8053   -2.9625    4.1085 H   0  0  0  0  0  0  0  0  0  0  0  0
    1.0070   -2.9030    2.1051 C   0  0  0  0  0  0  0  0  0  0  0  0
    0.7881   -3.9657    2.0764 H   0  0  0  0  0  0  0  0  0  0  0  0
    0.7092   -2.0972    1.0006 C   0  0  0  0  0  0  0  0  0  0  0  0
    0.2669   -2.5490    0.1195 H   0  0  0  0  0  0  0  0  0  0  0  0
   -0.3523    1.9011   -1.4602 C   0  0  0  0  0  0  0  0  0  0  0  0
    0.0985    3.0357   -1.4088 O   0  0  0  0  0  0  0  0  0  0  0  0
   -0.7125    1.3691   -2.6879 N   0  0  0  0  0  0  0  0  0  0  0  0
   -0.9456    0.3811   -2.7109 H   0  0  0  0  0  0  0  0  0  0  0  0
   -0.4890    2.0657   -3.9496 C   0  0  0  0  0  0  0  0  0  0  0  0
    0.5805    2.2410   -4.1060 H   0  0  0  0  0  0  0  0  0  0  0  0
   -0.8684    1.4689   -4.7846 H   0  0  0  0  0  0  0  0  0  0  0  0
   -1.0078    3.0302   -3.9526 H   0  0  0  0  0  0  0  0  0  0  0  0
  1  2  1  0  0  0  0
  2  3  1  0  0  0  0
  2  4  1  0  0  0  0
  2  5  1  0  0  0  0
  5  6  2  0  0  0  0
  5  7  1  0  0  0  0
  7  8  1  0  0  0  0
  7  9  1  0  0  0  0
  9 10  1  0  0  0  0
  9 11  1  0  0  0  0
  9 25  1  0  0  0  0
 11 12  1  0  0  0  0
 11 13  1  0  0  0  0
 11 14  1  0  0  0  0
 14 15  1  0  0  0  0
 14 23  2  0  0  0  0
 15 16  1  0  0  0  0
 15 17  2  0  0  0  0
 17 18  1  0  0  0  0
 17 19  1  0  0  0  0
 19 20  1  0  0  0  0
 19 21  2  0  0  0  0
 21 22  1  0  0  0  0
 21 23  1  0  0  0  0
 23 24  1  0  0  0  0
 25 26  2  0  0  0  0
 25 27  1  0  0  0  0
 27 28  1  0  0  0  0
 27 29  1  0  0  0  0
 29 30  1  0  0  0  0
 29 31  1  0  0  0  0
 29 32  1  0  0  0  0
M  END
$$$$

  -OEChem-01062216093D

 32 32  0     1  0  0  0  0  0999 V2000
   -3.8563   -2.1211    0.8853 H   0  0  0  0  0  0  0  0  0  0  0  0
   -3.6189   -1.3294    0.1688 C   0  0  0  0  0  0  0  0  0  0  0  0
   -4.4628   -0.6371    0.1173 H   0  0  0  0  0  0  0  0  0  0  0  0
   -3.4640   -1.7816   -0.8134 H   0  0  0  0  0  0  0  0  0  0  0  0
   -2.3673   -0.5905    0.6047 C   0  0  0  0  0  0  0  0  0  0  0  0
   -1.9258   -0.7919    1.7186 O   0  0  0  0  0  0  0  0  0  0  0  0
   -1.8839    0.4318   -0.1884 N   0  0  0  0  0  0  0  0  0  0  0  0
   -2.4809    0.6740   -0.9735 H   0  0  0  0  0  0  0  0  0  0  0  0
   -0.5518    1.0865   -0.1560 C   0  0  1  0  0  0  0  0  0  0  0  0
   -0.5012    1.7569    0.7086 H   0  0  0  0  0  0  0  0  0  0  0  0
    0.7015    0.1613   -0.1694 C   0  0  0  0  0  0  0  0  0  0  0  0
    0.6448   -0.4843   -1.0517 H   0  0  0  0  0  0  0  0  0  0  0  0
    1.5929    0.7870   -0.2954 H   0  0  0  0  0  0  0  0  0  0  0  0
    0.9479   -0.7101    1.0372 C   0  0  0  0  0  0  0  0  0  0  0  0
    1.5547   -0.1667    2.1792 C   0  0  0  0  0  0  0  0  0  0  0  0
    1.7800    0.8945    2.2201 H   0  0  0  0  0  0  0  0  0  0  0  0
    1.8621   -0.9778    3.2769 C   0  0  0  0  0  0  0  0  0  0  0  0
    2.3139   -0.5422    4.1627 H   0  0  0  0  0  0  0  0  0  0  0  0
    1.5863   -2.3474    3.2335 C   0  0  0  0  0  0  0  0  0  0  0  0
    1.8205   -2.9767    4.0867 H   0  0  0  0  0  0  0  0  0  0  0  0
    1.0089   -2.9055    2.0892 C   0  0  0  0  0  0  0  0  0  0  0  0
    0.7965   -3.9693    2.0524 H   0  0  0  0  0  0  0  0  0  0  0  0
    0.7010   -2.0925    0.9928 C   0  0  0  0  0  0  0  0  0  0  0  0
    0.2582   -2.5395    0.1093 H   0  0  0  0  0  0  0  0  0  0  0  0
   -0.3605    1.9022   -1.4536 C   0  0  0  0  0  0  0  0  0  0  0  0
    0.2991    2.9312   -1.4370 O   0  0  0  0  0  0  0  0  0  0  0  0
   -0.9641    1.5083   -2.6379 N   0  0  0  0  0  0  0  0  0  0  0  0
   -1.3340    0.5638   -2.6688 H   0  0  0  0  0  0  0  0  0  0  0  0
   -0.7619    2.2152   -3.8980 C   0  0  0  0  0  0  0  0  0  0  0  0
    0.2917    2.1777   -4.1945 H   0  0  0  0  0  0  0  0  0  0  0  0
   -1.3624    1.7567   -4.6895 H   0  0  0  0  0  0  0  0  0  0  0  0
   -1.0633    3.2639   -3.8027 H   0  0  0  0  0  0  0  0  0  0  0  0
  1  2  1  0  0  0  0
  2  3  1  0  0  0  0
  2  4  1  0  0  0  0
  2  5  1  0  0  0  0
  5  6  2  0  0  0  0
  5  7  1  0  0  0  0
  7  8  1  0  0  0  0
  7  9  1  0  0  0  0
  9 10  1  0  0  0  0
  9 11  1  0  0  0  0
  9 25  1  0  0  0  0
 11 12  1  0  0  0  0
 11 13  1  0  0  0  0
 11 14  1  0  0  0  0
 14 15  1  0  0  0  0
 14 23  2  0  0  0  0
 15 16  1  0  0  0  0
 15 17  2  0  0  0  0
 17 18  1  0  0  0  0
 17 19  1  0  0  0  0
 19 20  1  0  0  0  0
 19 21  2  0  0  0  0
 21 22  1  0  0  0  0
 21 23  1  0  0  0  0
 23 24  1  0  0  0  0
 25 26  2  0  0  0  0
 25 27  1  0  0  0  0
 27 28  1  0  0  0  0
 27 29  1  0  0  0  0
 29 30  1  0  0  0  0
 29 31  1  0  0  0  0
 29 32  1  0  0  0  0
M  END
$$$$

  -OEChem-01062216093D

 32 32  0     1  0  0  0  0  0999 V2000
   -3.8451   -2.1398    0.9256 H   0  0  0  0  0  0  0  0  0  0  0  0
   -3.6022   -1.3652    0.1922 C   0  0  0  0  0  0  0  0  0  0  0  0
   -4.4493   -0.6797    0.1118 H   0  0  0  0  0  0  0  0  0  0  0  0
   -3.4317   -1.8419   -0.7760 H   0  0  0  0  0  0  0  0  0  0  0  0
   -2.3603   -0.6084    0.6254 C   0  0  0  0  0  0  0  0  0  0  0  0
   -1.9237   -0.7916    1.7443 O   0  0  0  0  0  0  0  0  0  0  0  0
   -1.8888    0.4147   -0.1737 N   0  0  0  0  0  0  0  0  0  0  0  0
   -2.5066    0.6670   -0.9375 H   0  0  0  0  0  0  0  0  0  0  0  0
   -0.5610    1.0811   -0.1546 C   0  0  1  0  0  0  0  0  0  0  0  0
   -0.5073    1.7515    0.7096 H   0  0  0  0  0  0  0  0  0  0  0  0
    0.6875    0.1457   -0.1684 C   0  0  0  0  0  0  0  0  0  0  0  0
    0.6170   -0.5045   -1.0463 H   0  0  0  0  0  0  0  0  0  0  0  0
    1.5851    0.7592   -0.3049 H   0  0  0  0  0  0  0  0  0  0  0  0
    0.9394   -0.7195    1.0421 C   0  0  0  0  0  0  0  0  0  0  0  0
    1.5593   -0.1710    2.1748 C   0  0  0  0  0  0  0  0  0  0  0  0
    1.7916    0.8892    2.2053 H   0  0  0  0  0  0  0  0  0  0  0  0
    1.8731   -0.9758    3.2756 C   0  0  0  0  0  0  0  0  0  0  0  0
    2.3370   -0.5366    4.1535 H   0  0  0  0  0  0  0  0  0  0  0  0
    1.5886   -2.3441    3.2451 C   0  0  0  0  0  0  0  0  0  0  0  0
    1.8265   -2.9685    4.1009 H   0  0  0  0  0  0  0  0  0  0  0  0
    0.9973   -2.9072    2.1106 C   0  0  0  0  0  0  0  0  0  0  0  0
    0.7784   -3.9700    2.0845 H   0  0  0  0  0  0  0  0  0  0  0  0
    0.6851   -2.1009    1.0106 C   0  0  0  0  0  0  0  0  0  0  0  0
    0.2314   -2.5514    0.1347 H   0  0  0  0  0  0  0  0  0  0  0  0
   -0.3654    1.9021   -1.4527 C   0  0  0  0  0  0  0  0  0  0  0  0
    0.4639    2.8006   -1.4858 O   0  0  0  0  0  0  0  0  0  0  0  0
   -1.1802    1.7141   -2.5594 N   0  0  0  0  0  0  0  0  0  0  0  0
   -1.7019    0.8460   -2.5984 H   0  0  0  0  0  0  0  0  0  0  0  0
   -1.0087    2.4669   -3.7973 C   0  0  0  0  0  0  0  0  0  0  0  0
   -0.0278    2.2614   -4.2385 H   0  0  0  0  0  0  0  0  0  0  0  0
   -1.7810    2.1871   -4.5201 H   0  0  0  0  0  0  0  0  0  0  0  0
   -1.0904    3.5425   -3.6075 H   0  0  0  0  0  0  0  0  0  0  0  0
  1  2  1  0  0  0  0
  2  3  1  0  0  0  0
  2  4  1  0  0  0  0
  2  5  1  0  0  0  0
  5  6  2  0  0  0  0
  5  7  1  0  0  0  0
  7  8  1  0  0  0  0
  7  9  1  0  0  0  0
  9 10  1  0  0  0  0
  9 11  1  0  0  0  0
  9 25  1  0  0  0  0
 11 12  1  0  0  0  0
 11 13  1  0  0  0  0
 11 14  1  0  0  0  0
 14 15  1  0  0  0  0
 14 23  2  0  0  0  0
 15 16  1  0  0  0  0
 15 17  2  0  0  0  0
 17 18  1  0  0  0  0
 17 19  1  0  0  0  0
 19 20  1  0  0  0  0
 19 21  2  0  0  0  0
 21 22  1  0  0  0  0
 21 23  1  0  0  0  0
 23 24  1  0  0  0  0
 25 26  2  0  0  0  0
 25 27  1  0  0  0  0
 27 28  1  0  0  0  0
 27 29  1  0  0  0  0
 29 30  1  0  0  0  0
 29 31  1  0  0  0  0
 29 32  1  0  0  0  0
M  END
$$$$

  -OEChem-01062216093D

 32 32  0     1  0  0  0  0  0999 V2000
   -3.3639   -2.3120    1.0401 H   0  0  0  0  0  0  0  0  0  0  0  0
   -3.2321   -1.5649    0.2521 C   0  0  0  0  0  0  0  0  0  0  0  0
   -4.2031   -1.1202    0.0212 H   0  0  0  0  0  0  0  0  0  0  0  0
   -2.8426   -2.0623   -0.6392 H   0  0  0  0  0  0  0  0  0  0  0  0
   -2.2655   -0.4908    0.7138 C   0  0  0  0  0  0  0  0  0  0  0  0
   -1.9887   -0.3972    1.8958 O   0  0  0  0  0  0  0  0  0  0  0  0
   -1.8840    0.5097   -0.1562 N   0  0  0  0  0  0  0  0  0  0  0  0
   -2.2824    0.3584   -1.0761 H   0  0  0  0  0  0  0  0  0  0  0  0
   -0.5294    1.1188   -0.1909 C   0  0  1  0  0  0  0  0  0  0  0  0
   -0.4146    1.7929    0.6642 H   0  0  0  0  0  0  0  0  0  0  0  0
    0.6533    0.0953   -0.2143 C   0  0  0  0  0  0  0  0  0  0  0  0
    0.5200   -0.5659   -1.0763 H   0  0  0  0  0  0  0  0  0  0  0  0
    1.5931    0.6340   -0.3772 H   0  0  0  0  0  0  0  0  0  0  0  0
    0.8647   -0.7497    1.0194 C   0  0  0  0  0  0  0  0  0  0  0  0
    1.5455   -0.2158    2.1232 C   0  0  0  0  0  0  0  0  0  0  0  0
    1.8628    0.8224    2.1135 H   0  0  0  0  0  0  0  0  0  0  0  0
    1.8081   -1.0045    3.2482 C   0  0  0  0  0  0  0  0  0  0  0  0
    2.3185   -0.5737    4.1040 H   0  0  0  0  0  0  0  0  0  0  0  0
    1.4123   -2.3448    3.2708 C   0  0  0  0  0  0  0  0  0  0  0  0
    1.6111   -2.9555    4.1462 H   0  0  0  0  0  0  0  0  0  0  0  0
    0.7635   -2.8976    2.1631 C   0  0  0  0  0  0  0  0  0  0  0  0
    0.4643   -3.9410    2.1758 H   0  0  0  0  0  0  0  0  0  0  0  0
    0.5012   -2.1070    1.0390 C   0  0  0  0  0  0  0  0  0  0  0  0
    0.0092   -2.5528    0.1813 H   0  0  0  0  0  0  0  0  0  0  0  0
   -0.3527    1.9311   -1.5038 C   0  0  0  0  0  0  0  0  0  0  0  0
    0.7063    2.4879   -1.7620 O   0  0  0  0  0  0  0  0  0  0  0  0
   -1.3727    2.0145   -2.4407 N   0  0  0  0  0  0  0  0  0  0  0  0
   -2.3065    1.8113   -2.1019 H   0  0  0  0  0  0  0  0  0  0  0  0
   -1.2548    2.8162   -3.6547 C   0  0  0  0  0  0  0  0  0  0  0  0
   -0.4030    2.4804   -4.2558 H   0  0  0  0  0  0  0  0  0  0  0  0
   -2.1605    2.7204   -4.2612 H   0  0  0  0  0  0  0  0  0  0  0  0
   -1.1137    3.8731   -3.4045 H   0  0  0  0  0  0  0  0  0  0  0  0
  1  2  1  0  0  0  0
  2  3  1  0  0  0  0
  2  4  1  0  0  0  0
  2  5  1  0  0  0  0
  5  6  2  0  0  0  0
  5  7  1  0  0  0  0
  7  8  1  0  0  0  0
  7  9  1  0  0  0  0
  9 10  1  0  0  0  0
  9 11  1  0  0  0  0
  9 25  1  0  0  0  0
 11 12  1  0  0  0  0
 11 13  1  0  0  0  0
 11 14  1  0  0  0  0
 14 15  1  0  0  0  0
 14 23  2  0  0  0  0
 15 16  1  0  0  0  0
 15 17  2  0  0  0  0
 17 18  1  0  0  0  0
 17 19  1  0  0  0  0
 19 20  1  0  0  0  0
 19 21  2  0  0  0  0
 21 22  1  0  0  0  0
 21 23  1  0  0  0  0
 23 24  1  0  0  0  0
 25 26  2  0  0  0  0
 25 27  1  0  0  0  0
 27 28  1  0  0  0  0
 27 29  1  0  0  0  0
 29 30  1  0  0  0  0
 29 31  1  0  0  0  0
 29 32  1  0  0  0  0
M  END
$$$$

  -OEChem-01062216093D

 32 32  0     1  0  0  0  0  0999 V2000
   -3.3478   -2.3155    0.9863 H   0  0  0  0  0  0  0  0  0  0  0  0
   -3.2245   -1.5480    0.2167 C   0  0  0  0  0  0  0  0  0  0  0  0
   -4.1979   -1.0976    0.0080 H   0  0  0  0  0  0  0  0  0  0  0  0
   -2.8448   -2.0219   -0.6916 H   0  0  0  0  0  0  0  0  0  0  0  0
   -2.2532   -0.4860    0.6958 C   0  0  0  0  0  0  0  0  0  0  0  0
   -1.9862   -0.4043    1.8809 O   0  0  0  0  0  0  0  0  0  0  0  0
   -1.8587    0.5216   -0.1595 N   0  0  0  0  0  0  0  0  0  0  0  0
   -2.2593    0.3967   -1.0844 H   0  0  0  0  0  0  0  0  0  0  0  0
   -0.4996    1.1203   -0.1866 C   0  0  1  0  0  0  0  0  0  0  0  0
   -0.3826    1.7943    0.6683 H   0  0  0  0  0  0  0  0  0  0  0  0
    0.6783    0.0910   -0.2020 C   0  0  0  0  0  0  0  0  0  0  0  0
    0.5498   -0.5681   -1.0665 H   0  0  0  0  0  0  0  0  0  0  0  0
    1.6214    0.6271   -0.3541 H   0  0  0  0  0  0  0  0  0  0  0  0
    0.8783   -0.7546    1.0336 C   0  0  0  0  0  0  0  0  0  0  0  0
    1.5547   -0.2265    2.1432 C   0  0  0  0  0  0  0  0  0  0  0  0
    1.8782    0.8098    2.1379 H   0  0  0  0  0  0  0  0  0  0  0  0
    1.8050   -1.0194    3.2684 C   0  0  0  0  0  0  0  0  0  0  0  0
    2.3115   -0.5935    4.1291 H   0  0  0  0  0  0  0  0  0  0  0  0
    1.4024   -2.3579    3.2848 C   0  0  0  0  0  0  0  0  0  0  0  0
    1.5927   -2.9722    4.1595 H   0  0  0  0  0  0  0  0  0  0  0  0
    0.7586   -2.9049    2.1713 C   0  0  0  0  0  0  0  0  0  0  0  0
    0.4536   -3.9467    2.1793 H   0  0  0  0  0  0  0  0  0  0  0  0
    0.5087   -2.1102    1.0475 C   0  0  0  0  0  0  0  0  0  0  0  0
    0.0210   -2.5521    0.1853 H   0  0  0  0  0  0  0  0  0  0  0  0
   -0.3527    1.9379   -1.5021 C   0  0  0  0  0  0  0  0  0  0  0  0
    0.7379    2.2798   -1.9406 O   0  0  0  0  0  0  0  0  0  0  0  0
   -1.4774    2.2661   -2.2446 N   0  0  0  0  0  0  0  0  0  0  0  0
   -2.3643    2.2093   -1.7525 H   0  0  0  0  0  0  0  0  0  0  0  0
   -1.4170    3.0796   -3.4548 C   0  0  0  0  0  0  0  0  0  0  0  0
   -0.7773    2.6036   -4.2056 H   0  0  0  0  0  0  0  0  0  0  0  0
   -2.4176    3.1963   -3.8821 H   0  0  0  0  0  0  0  0  0  0  0  0
   -1.0166    4.0738   -3.2307 H   0  0  0  0  0  0  0  0  0  0  0  0
  1  2  1  0  0  0  0
  2  3  1  0  0  0  0
  2  4  1  0  0  0  0
  2  5  1  0  0  0  0
  5  6  2  0  0  0  0
  5  7  1  0  0  0  0
  7  8  1  0  0  0  0
  7  9  1  0  0  0  0
  9 10  1  0  0  0  0
  9 11  1  0  0  0  0
  9 25  1  0  0  0  0
 11 12  1  0  0  0  0
 11 13  1  0  0  0  0
 11 14  1  0  0  0  0
 14 15  1  0  0  0  0
 14 23  2  0  0  0  0
 15 16  1  0  0  0  0
 15 17  2  0  0  0  0
 17 18  1  0  0  0  0
 17 19  1  0  0  0  0
 19 20  1  0  0  0  0
 19 21  2  0  0  0  0
 21 22  1  0  0  0  0
 21 23  1  0  0  0  0
 23 24  1  0  0  0  0
 25 26  2  0  0  0  0
 25 27  1  0  0  0  0
 27 28  1  0  0  0  0
 27 29  1  0  0  0  0
 29 30  1  0  0  0  0
 29 31  1  0  0  0  0
 29 32  1  0  0  0  0
M  END
$$$$

  -OEChem-01062216093D

 32 32  0     1  0  0  0  0  0999 V2000
   -3.4043   -2.2869    0.9483 H   0  0  0  0  0  0  0  0  0  0  0  0
   -3.2414   -1.5268    0.1788 C   0  0  0  0  0  0  0  0  0  0  0  0
   -4.1961   -1.0504   -0.0561 H   0  0  0  0  0  0  0  0  0  0  0  0
   -2.8528   -2.0150   -0.7180 H   0  0  0  0  0  0  0  0  0  0  0  0
   -2.2523   -0.4900    0.6756 C   0  0  0  0  0  0  0  0  0  0  0  0
   -1.9832   -0.4320    1.8616 O   0  0  0  0  0  0  0  0  0  0  0  0
   -1.8432    0.5253   -0.1631 N   0  0  0  0  0  0  0  0  0  0  0  0
   -2.2587    0.4405   -1.0870 H   0  0  0  0  0  0  0  0  0  0  0  0
   -0.4811    1.1145   -0.1827 C   0  0  1  0  0  0  0  0  0  0  0  0
   -0.3664    1.7856    0.6744 H   0  0  0  0  0  0  0  0  0  0  0  0
    0.6971    0.0864   -0.1904 C   0  0  0  0  0  0  0  0  0  0  0  0
    0.5744   -0.5735   -1.0550 H   0  0  0  0  0  0  0  0  0  0  0  0
    1.6383    0.6271   -0.3382 H   0  0  0  0  0  0  0  0  0  0  0  0
    0.8917   -0.7587    1.0466 C   0  0  0  0  0  0  0  0  0  0  0  0
    1.5619   -0.2303    2.1600 C   0  0  0  0  0  0  0  0  0  0  0  0
    1.8831    0.8067    2.1578 H   0  0  0  0  0  0  0  0  0  0  0  0
    1.8116   -1.0250    3.2842 C   0  0  0  0  0  0  0  0  0  0  0  0
    2.3156   -0.6004    4.1469 H   0  0  0  0  0  0  0  0  0  0  0  0
    1.4126   -2.3647    3.2971 C   0  0  0  0  0  0  0  0  0  0  0  0
    1.6023   -2.9801    4.1711 H   0  0  0  0  0  0  0  0  0  0  0  0
    0.7724   -2.9111    2.1812 C   0  0  0  0  0  0  0  0  0  0  0  0
    0.4691   -3.9535    2.1863 H   0  0  0  0  0  0  0  0  0  0  0  0
    0.5227   -2.1146    1.0583 C   0  0  0  0  0  0  0  0  0  0  0  0
    0.0362   -2.5548    0.1944 H   0  0  0  0  0  0  0  0  0  0  0  0
   -0.3539    1.9404   -1.4949 C   0  0  0  0  0  0  0  0  0  0  0  0
    0.6967    2.0610   -2.1123 O   0  0  0  0  0  0  0  0  0  0  0  0
   -1.4880    2.5267   -2.0344 N   0  0  0  0  0  0  0  0  0  0  0  0
   -2.3051    2.5653   -1.4306 H   0  0  0  0  0  0  0  0  0  0  0  0
   -1.4662    3.3592   -3.2323 C   0  0  0  0  0  0  0  0  0  0  0  0
   -1.0942    2.7878   -4.0895 H   0  0  0  0  0  0  0  0  0  0  0  0
   -2.4753    3.7113   -3.4665 H   0  0  0  0  0  0  0  0  0  0  0  0
   -0.8202    4.2310   -3.0830 H   0  0  0  0  0  0  0  0  0  0  0  0
  1  2  1  0  0  0  0
  2  3  1  0  0  0  0
  2  4  1  0  0  0  0
  2  5  1  0  0  0  0
  5  6  2  0  0  0  0
  5  7  1  0  0  0  0
  7  8  1  0  0  0  0
  7  9  1  0  0  0  0
  9 10  1  0  0  0  0
  9 11  1  0  0  0  0
  9 25  1  0  0  0  0
 11 12  1  0  0  0  0
 11 13  1  0  0  0  0
 11 14  1  0  0  0  0
 14 15  1  0  0  0  0
 14 23  2  0  0  0  0
 15 16  1  0  0  0  0
 15 17  2  0  0  0  0
 17 18  1  0  0  0  0
 17 19  1  0  0  0  0
 19 20  1  0  0  0  0
 19 21  2  0  0  0  0
 21 22  1  0  0  0  0
 21 23  1  0  0  0  0
 23 24  1  0  0  0  0
 25 26  2  0  0  0  0
 25 27  1  0  0  0  0
 27 28  1  0  0  0  0
 27 29  1  0  0  0  0
 29 30  1  0  0  0  0
 29 31  1  0  0  0  0
 29 32  1  0  0  0  0
M  END
$$$$

  -OEChem-01062216093D

 32 32  0     1  0  0  0  0  0999 V2000
   -3.4487   -2.2727    0.9064 H   0  0  0  0  0  0  0  0  0  0  0  0
   -3.2690   -1.5059    0.1474 C   0  0  0  0  0  0  0  0  0  0  0  0
   -4.2124   -1.0028   -0.0776 H   0  0  0  0  0  0  0  0  0  0  0  0
   -2.8951   -1.9904   -0.7576 H   0  0  0  0  0  0  0  0  0  0  0  0
   -2.2525   -0.5013    0.6557 C   0  0  0  0  0  0  0  0  0  0  0  0
   -1.9744   -0.4725    1.8408 O   0  0  0  0  0  0  0  0  0  0  0  0
   -1.8306    0.5226   -0.1659 N   0  0  0  0  0  0  0  0  0  0  0  0
   -2.2590    0.4749   -1.0869 H   0  0  0  0  0  0  0  0  0  0  0  0
   -0.4675    1.1060   -0.1770 C   0  0  1  0  0  0  0  0  0  0  0  0
   -0.3547    1.7718    0.6843 H   0  0  0  0  0  0  0  0  0  0  0  0
    0.7164    0.0862   -0.1829 C   0  0  0  0  0  0  0  0  0  0  0  0
    0.5985   -0.5761   -1.0469 H   0  0  0  0  0  0  0  0  0  0  0  0
    1.6522    0.6358   -0.3327 H   0  0  0  0  0  0  0  0  0  0  0  0
    0.9086   -0.7598    1.0532 C   0  0  0  0  0  0  0  0  0  0  0  0
    1.5697   -0.2294    2.1709 C   0  0  0  0  0  0  0  0  0  0  0  0
    1.8875    0.8084    2.1714 H   0  0  0  0  0  0  0  0  0  0  0  0
    1.8146   -1.0234    3.2965 C   0  0  0  0  0  0  0  0  0  0  0  0
    2.3119   -0.5974    4.1626 H   0  0  0  0  0  0  0  0  0  0  0  0
    1.4188   -2.3641    3.3068 C   0  0  0  0  0  0  0  0  0  0  0  0
    1.6043   -2.9794    4.1819 H   0  0  0  0  0  0  0  0  0  0  0  0
    0.7871   -2.9120    2.1869 C   0  0  0  0  0  0  0  0  0  0  0  0
    0.4848   -3.9545    2.1902 H   0  0  0  0  0  0  0  0  0  0  0  0
    0.5439   -2.1166    1.0620 C   0  0  0  0  0  0  0  0  0  0  0  0
    0.0636   -2.5574    0.1948 H   0  0  0  0  0  0  0  0  0  0  0  0
   -0.3525    1.9419   -1.4809 C   0  0  0  0  0  0  0  0  0  0  0  0
    0.5861    1.8540   -2.2627 O   0  0  0  0  0  0  0  0  0  0  0  0
   -1.4039    2.7749   -1.8235 N   0  0  0  0  0  0  0  0  0  0  0  0
   -2.1353    2.8983   -1.1278 H   0  0  0  0  0  0  0  0  0  0  0  0
   -1.4071    3.6242   -3.0092 C   0  0  0  0  0  0  0  0  0  0  0  0
   -1.3223    3.0165   -3.9162 H   0  0  0  0  0  0  0  0  0  0  0  0
   -2.3393    4.1947   -3.0632 H   0  0  0  0  0  0  0  0  0  0  0  0
   -0.5700    4.3295   -2.9777 H   0  0  0  0  0  0  0  0  0  0  0  0
  1  2  1  0  0  0  0
  2  3  1  0  0  0  0
  2  4  1  0  0  0  0
  2  5  1  0  0  0  0
  5  6  2  0  0  0  0
  5  7  1  0  0  0  0
  7  8  1  0  0  0  0
  7  9  1  0  0  0  0
  9 10  1  0  0  0  0
  9 11  1  0  0  0  0
  9 25  1  0  0  0  0
 11 12  1  0  0  0  0
 11 13  1  0  0  0  0
 11 14  1  0  0  0  0
 14 15  1  0  0  0  0
 14 23  2  0  0  0  0
 15 16  1  0  0  0  0
 15 17  2  0  0  0  0
 17 18  1  0  0  0  0
 17 19  1  0  0  0  0
 19 20  1  0  0  0  0
 19 21  2  0  0  0  0
 21 22  1  0  0  0  0
 21 23  1  0  0  0  0
 23 24  1  0  0  0  0
 25 26  2  0  0  0  0
 25 27  1  0  0  0  0
 27 28  1  0  0  0  0
 27 29  1  0  0  0  0
 29 30  1  0  0  0  0
 29 31  1  0  0  0  0
 29 32  1  0  0  0  0
M  END
$$$$

  -OEChem-01062216093D

 32 32  0     1  0  0  0  0  0999 V2000
   -3.4648   -2.2699    0.8709 H   0  0  0  0  0  0  0  0  0  0  0  0
   -3.2803   -1.4938    0.1227 C   0  0  0  0  0  0  0  0  0  0  0  0
   -4.2203   -0.9809   -0.0942 H   0  0  0  0  0  0  0  0  0  0  0  0
   -2.9107   -1.9680   -0.7896 H   0  0  0  0  0  0  0  0  0  0  0  0
   -2.2570   -0.5033    0.6442 C   0  0  0  0  0  0  0  0  0  0  0  0
   -1.9778   -0.4923    1.8294 O   0  0  0  0  0  0  0  0  0  0  0  0
   -1.8283    0.5277   -0.1639 N   0  0  0  0  0  0  0  0  0  0  0  0
   -2.2584    0.4980   -1.0850 H   0  0  0  0  0  0  0  0  0  0  0  0
   -0.4648    1.1048   -0.1664 C   0  0  1  0  0  0  0  0  0  0  0  0
   -0.3527    1.7615    0.7021 H   0  0  0  0  0  0  0  0  0  0  0  0
    0.7221    0.0898   -0.1739 C   0  0  0  0  0  0  0  0  0  0  0  0
    0.6050   -0.5744   -1.0365 H   0  0  0  0  0  0  0  0  0  0  0  0
    1.6537    0.6455   -0.3287 H   0  0  0  0  0  0  0  0  0  0  0  0
    0.9135   -0.7619    1.0586 C   0  0  0  0  0  0  0  0  0  0  0  0
    1.5697   -0.2310    2.1788 C   0  0  0  0  0  0  0  0  0  0  0  0
    1.8843    0.8077    2.1819 H   0  0  0  0  0  0  0  0  0  0  0  0
    1.8163   -1.0253    3.3036 C   0  0  0  0  0  0  0  0  0  0  0  0
    2.3097   -0.5978    4.1710 H   0  0  0  0  0  0  0  0  0  0  0  0
    1.4269   -2.3676    3.3108 C   0  0  0  0  0  0  0  0  0  0  0  0
    1.6138   -2.9833    4.1852 H   0  0  0  0  0  0  0  0  0  0  0  0
    0.7994   -2.9162    2.1887 C   0  0  0  0  0  0  0  0  0  0  0  0
    0.5030   -3.9605    2.1900 H   0  0  0  0  0  0  0  0  0  0  0  0
    0.5534   -2.1200    1.0646 C   0  0  0  0  0  0  0  0  0  0  0  0
    0.0760   -2.5617    0.1962 H   0  0  0  0  0  0  0  0  0  0  0  0
   -0.3475    1.9524   -1.4590 C   0  0  0  0  0  0  0  0  0  0  0  0
    0.4133    1.6791   -2.3792 O   0  0  0  0  0  0  0  0  0  0  0  0
   -1.2268    3.0066   -1.6301 N   0  0  0  0  0  0  0  0  0  0  0  0
   -1.8556    3.2152   -0.8586 H   0  0  0  0  0  0  0  0  0  0  0  0
   -1.2489    3.8593   -2.8128 C   0  0  0  0  0  0  0  0  0  0  0  0
   -1.4627    3.2669   -3.7086 H   0  0  0  0  0  0  0  0  0  0  0  0
   -2.0238    4.6252   -2.7121 H   0  0  0  0  0  0  0  0  0  0  0  0
   -0.2835    4.3594   -2.9427 H   0  0  0  0  0  0  0  0  0  0  0  0
  1  2  1  0  0  0  0
  2  3  1  0  0  0  0
  2  4  1  0  0  0  0
  2  5  1  0  0  0  0
  5  6  2  0  0  0  0
  5  7  1  0  0  0  0
  7  8  1  0  0  0  0
  7  9  1  0  0  0  0
  9 10  1  0  0  0  0
  9 11  1  0  0  0  0
  9 25  1  0  0  0  0
 11 12  1  0  0  0  0
 11 13  1  0  0  0  0
 11 14  1  0  0  0  0
 14 15  1  0  0  0  0
 14 23  2  0  0  0  0
 15 16  1  0  0  0  0
 15 17  2  0  0  0  0
 17 18  1  0  0  0  0
 17 19  1  0  0  0  0
 19 20  1  0  0  0  0
 19 21  2  0  0  0  0
 21 22  1  0  0  0  0
 21 23  1  0  0  0  0
 23 24  1  0  0  0  0
 25 26  2  0  0  0  0
 25 27  1  0  0  0  0
 27 28  1  0  0  0  0
 27 29  1  0  0  0  0
 29 30  1  0  0  0  0
 29 31  1  0  0  0  0
 29 32  1  0  0  0  0
M  END
$$$$

  -OEChem-01062216093D

 32 32  0     1  0  0  0  0  0999 V2000
   -3.4503   -2.2838    0.8493 H   0  0  0  0  0  0  0  0  0  0  0  0
   -3.2861   -1.4881    0.1172 C   0  0  0  0  0  0  0  0  0  0  0  0
   -4.2336   -0.9768   -0.0689 H   0  0  0  0  0  0  0  0  0  0  0  0
   -2.9310   -1.9366   -0.8136 H   0  0  0  0  0  0  0  0  0  0  0  0
   -2.2598   -0.5029    0.6431 C   0  0  0  0  0  0  0  0  0  0  0  0
   -1.9765   -0.5019    1.8277 O   0  0  0  0  0  0  0  0  0  0  0  0
   -1.8294    0.5317   -0.1595 N   0  0  0  0  0  0  0  0  0  0  0  0
   -2.2532    0.5049   -1.0839 H   0  0  0  0  0  0  0  0  0  0  0  0
   -0.4685    1.1108   -0.1514 C   0  0  1  0  0  0  0  0  0  0  0  0
   -0.3630    1.7602    0.7230 H   0  0  0  0  0  0  0  0  0  0  0  0
    0.7251    0.1046   -0.1622 C   0  0  0  0  0  0  0  0  0  0  0  0
    0.6133   -0.5585   -1.0264 H   0  0  0  0  0  0  0  0  0  0  0  0
    1.6519    0.6677   -0.3165 H   0  0  0  0  0  0  0  0  0  0  0  0
    0.9173   -0.7554    1.0647 C   0  0  0  0  0  0  0  0  0  0  0  0
    1.5652   -0.2311    2.1933 C   0  0  0  0  0  0  0  0  0  0  0  0
    1.8744    0.8090    2.2081 H   0  0  0  0  0  0  0  0  0  0  0  0
    1.8100   -1.0343    3.3124 C   0  0  0  0  0  0  0  0  0  0  0  0
    2.2966   -0.6128    4.1866 H   0  0  0  0  0  0  0  0  0  0  0  0
    1.4274   -2.3787    3.3055 C   0  0  0  0  0  0  0  0  0  0  0  0
    1.6126   -3.0018    4.1751 H   0  0  0  0  0  0  0  0  0  0  0  0
    0.8074   -2.9202    2.1758 C   0  0  0  0  0  0  0  0  0  0  0  0
    0.5153   -3.9658    2.1660 H   0  0  0  0  0  0  0  0  0  0  0  0
    0.5634   -2.1153    1.0575 C   0  0  0  0  0  0  0  0  0  0  0  0
    0.0918   -2.5516    0.1831 H   0  0  0  0  0  0  0  0  0  0  0  0
   -0.3393    1.9628   -1.4366 C   0  0  0  0  0  0  0  0  0  0  0  0
    0.1892    1.5441   -2.4591 O   0  0  0  0  0  0  0  0  0  0  0  0
   -0.9805    3.1872   -1.4822 N   0  0  0  0  0  0  0  0  0  0  0  0
   -1.4754    3.4850   -0.6455 H   0  0  0  0  0  0  0  0  0  0  0  0
   -1.0062    4.0446   -2.6616 C   0  0  0  0  0  0  0  0  0  0  0  0
   -1.4922    3.5323   -3.4986 H   0  0  0  0  0  0  0  0  0  0  0  0
   -1.5619    4.9630   -2.4489 H   0  0  0  0  0  0  0  0  0  0  0  0
    0.0118    4.3183   -2.9588 H   0  0  0  0  0  0  0  0  0  0  0  0
  1  2  1  0  0  0  0
  2  3  1  0  0  0  0
  2  4  1  0  0  0  0
  2  5  1  0  0  0  0
  5  6  2  0  0  0  0
  5  7  1  0  0  0  0
  7  8  1  0  0  0  0
  7  9  1  0  0  0  0
  9 10  1  0  0  0  0
  9 11  1  0  0  0  0
  9 25  1  0  0  0  0
 11 12  1  0  0  0  0
 11 13  1  0  0  0  0
 11 14  1  0  0  0  0
 14 15  1  0  0  0  0
 14 23  2  0  0  0  0
 15 16  1  0  0  0  0
 15 17  2  0  0  0  0
 17 18  1  0  0  0  0
 17 19  1  0  0  0  0
 19 20  1  0  0  0  0
 19 21  2  0  0  0  0
 21 22  1  0  0  0  0
 21 23  1  0  0  0  0
 23 24  1  0  0  0  0
 25 26  2  0  0  0  0
 25 27  1  0  0  0  0
 27 28  1  0  0  0  0
 27 29  1  0  0  0  0
 29 30  1  0  0  0  0
 29 31  1  0  0  0  0
 29 32  1  0  0  0  0
M  END
$$$$

  -OEChem-01062216093D

 32 32  0     1  0  0  0  0  0999 V2000
   -3.4757   -2.2586    0.8582 H   0  0  0  0  0  0  0  0  0  0  0  0
   -3.2791   -1.4831    0.1124 C   0  0  0  0  0  0  0  0  0  0  0  0
   -4.2150   -0.9683   -0.1179 H   0  0  0  0  0  0  0  0  0  0  0  0
   -2.8981   -1.9581   -0.7949 H   0  0  0  0  0  0  0  0  0  0  0  0
   -2.2605   -0.4943    0.6469 C   0  0  0  0  0  0  0  0  0  0  0  0
   -1.9790   -0.4980    1.8322 O   0  0  0  0  0  0  0  0  0  0  0  0
   -1.8252    0.5404   -0.1528 N   0  0  0  0  0  0  0  0  0  0  0  0
   -2.2327    0.5090   -1.0850 H   0  0  0  0  0  0  0  0  0  0  0  0
   -0.4680    1.1241   -0.1280 C   0  0  1  0  0  0  0  0  0  0  0  0
   -0.3727    1.7671    0.7522 H   0  0  0  0  0  0  0  0  0  0  0  0
    0.7316    0.1280   -0.1453 C   0  0  0  0  0  0  0  0  0  0  0  0
    0.6314   -0.5249   -1.0190 H   0  0  0  0  0  0  0  0  0  0  0  0
    1.6547    0.7002   -0.2870 H   0  0  0  0  0  0  0  0  0  0  0  0
    0.9202   -0.7466    1.0715 C   0  0  0  0  0  0  0  0  0  0  0  0
    1.5561   -0.2338    2.2121 C   0  0  0  0  0  0  0  0  0  0  0  0
    1.8581    0.8080    2.2440 H   0  0  0  0  0  0  0  0  0  0  0  0
    1.7981   -1.0518    3.3213 C   0  0  0  0  0  0  0  0  0  0  0  0
    2.2771   -0.6411    4.2048 H   0  0  0  0  0  0  0  0  0  0  0  0
    1.4212   -2.3975    3.2935 C   0  0  0  0  0  0  0  0  0  0  0  0
    1.6038   -3.0311    4.1562 H   0  0  0  0  0  0  0  0  0  0  0  0
    0.8095   -2.9257    2.1532 C   0  0  0  0  0  0  0  0  0  0  0  0
    0.5200   -3.9715    2.1289 H   0  0  0  0  0  0  0  0  0  0  0  0
    0.5700   -2.1069    1.0443 C   0  0  0  0  0  0  0  0  0  0  0  0
    0.1037   -2.5315    0.1615 H   0  0  0  0  0  0  0  0  0  0  0  0
   -0.3201    1.9740   -1.4098 C   0  0  0  0  0  0  0  0  0  0  0  0
   -0.0634    1.4625   -2.4931 O   0  0  0  0  0  0  0  0  0  0  0  0
   -0.6795    3.3088   -1.3777 N   0  0  0  0  0  0  0  0  0  0  0  0
   -1.0049    3.6834   -0.4905 H   0  0  0  0  0  0  0  0  0  0  0  0
   -0.7201    4.1616   -2.5601 C   0  0  0  0  0  0  0  0  0  0  0  0
   -1.4744    3.8010   -3.2672 H   0  0  0  0  0  0  0  0  0  0  0  0
   -0.9729    5.1880   -2.2770 H   0  0  0  0  0  0  0  0  0  0  0  0
    0.2548    4.1723   -3.0591 H   0  0  0  0  0  0  0  0  0  0  0  0
  1  2  1  0  0  0  0
  2  3  1  0  0  0  0
  2  4  1  0  0  0  0
  2  5  1  0  0  0  0
  5  6  2  0  0  0  0
  5  7  1  0  0  0  0
  7  8  1  0  0  0  0
  7  9  1  0  0  0  0
  9 10  1  0  0  0  0
  9 11  1  0  0  0  0
  9 25  1  0  0  0  0
 11 12  1  0  0  0  0
 11 13  1  0  0  0  0
 11 14  1  0  0  0  0
 14 15  1  0  0  0  0
 14 23  2  0  0  0  0
 15 16  1  0  0  0  0
 15 17  2  0  0  0  0
 17 18  1  0  0  0  0
 17 19  1  0  0  0  0
 19 20  1  0  0  0  0
 19 21  2  0  0  0  0
 21 22  1  0  0  0  0
 21 23  1  0  0  0  0
 23 24  1  0  0  0  0
 25 26  2  0  0  0  0
 25 27  1  0  0  0  0
 27 28  1  0  0  0  0
 27 29  1  0  0  0  0
 29 30  1  0  0  0  0
 29 31  1  0  0  0  0
 29 32  1  0  0  0  0
M  END
$$$$

  -OEChem-01062216093D

 32 32  0     1  0  0  0  0  0999 V2000
   -3.4677   -2.2648    0.8502 H   0  0  0  0  0  0  0  0  0  0  0  0
   -3.2858   -1.4767    0.1143 C   0  0  0  0  0  0  0  0  0  0  0  0
   -4.2270   -0.9627   -0.0948 H   0  0  0  0  0  0  0  0  0  0  0  0
   -2.9153   -1.9346   -0.8058 H   0  0  0  0  0  0  0  0  0  0  0  0
   -2.2647   -0.4911    0.6502 C   0  0  0  0  0  0  0  0  0  0  0  0
   -1.9804   -0.4991    1.8352 O   0  0  0  0  0  0  0  0  0  0  0  0
   -1.8236    0.5399   -0.1506 N   0  0  0  0  0  0  0  0  0  0  0  0
   -2.2193    0.5058   -1.0885 H   0  0  0  0  0  0  0  0  0  0  0  0
   -0.4709    1.1309   -0.1141 C   0  0  1  0  0  0  0  0  0  0  0  0
   -0.3868    1.7738    0.7673 H   0  0  0  0  0  0  0  0  0  0  0  0
    0.7345    0.1445   -0.1356 C   0  0  0  0  0  0  0  0  0  0  0  0
    0.6414   -0.5000   -1.0163 H   0  0  0  0  0  0  0  0  0  0  0  0
    1.6552    0.7232   -0.2670 H   0  0  0  0  0  0  0  0  0  0  0  0
    0.9219   -0.7396    1.0740 C   0  0  0  0  0  0  0  0  0  0  0  0
    1.5483   -0.2329    2.2225 C   0  0  0  0  0  0  0  0  0  0  0  0
    1.8453    0.8099    2.2646 H   0  0  0  0  0  0  0  0  0  0  0  0
    1.7870   -1.0581    3.3268 C   0  0  0  0  0  0  0  0  0  0  0  0
    2.2579   -0.6513    4.2164 H   0  0  0  0  0  0  0  0  0  0  0  0
    1.4169   -2.4054    3.2861 C   0  0  0  0  0  0  0  0  0  0  0  0
    1.5975   -3.0455    4.1443 H   0  0  0  0  0  0  0  0  0  0  0  0
    0.8141   -2.9275    2.1381 C   0  0  0  0  0  0  0  0  0  0  0  0
    0.5286   -3.9744    2.1034 H   0  0  0  0  0  0  0  0  0  0  0  0
    0.5770   -2.1009    1.0344 C   0  0  0  0  0  0  0  0  0  0  0  0
    0.1165   -2.5211    0.1462 H   0  0  0  0  0  0  0  0  0  0  0  0
   -0.3088    1.9718   -1.3975 C   0  0  0  0  0  0  0  0  0  0  0  0
   -0.3106    1.4349   -2.4992 O   0  0  0  0  0  0  0  0  0  0  0  0
   -0.3667    3.3516   -1.3264 N   0  0  0  0  0  0  0  0  0  0  0  0
   -0.4891    3.7691   -0.4079 H   0  0  0  0  0  0  0  0  0  0  0  0
   -0.3813    4.2165   -2.5004 C   0  0  0  0  0  0  0  0  0  0  0  0
   -1.2758    4.0292   -3.1036 H   0  0  0  0  0  0  0  0  0  0  0  0
   -0.3826    5.2675   -2.1955 H   0  0  0  0  0  0  0  0  0  0  0  0
    0.5048    4.0390   -3.1190 H   0  0  0  0  0  0  0  0  0  0  0  0
  1  2  1  0  0  0  0
  2  3  1  0  0  0  0
  2  4  1  0  0  0  0
  2  5  1  0  0  0  0
  5  6  2  0  0  0  0
  5  7  1  0  0  0  0
  7  8  1  0  0  0  0
  7  9  1  0  0  0  0
  9 10  1  0  0  0  0
  9 11  1  0  0  0  0
  9 25  1  0  0  0  0
 11 12  1  0  0  0  0
 11 13  1  0  0  0  0
 11 14  1  0  0  0  0
 14 15  1  0  0  0  0
 14 23  2  0  0  0  0
 15 16  1  0  0  0  0
 15 17  2  0  0  0  0
 17 18  1  0  0  0  0
 17 19  1  0  0  0  0
 19 20  1  0  0  0  0
 19 21  2  0  0  0  0
 21 22  1  0  0  0  0
 21 23  1  0  0  0  0
 23 24  1  0  0  0  0
 25 26  2  0  0  0  0
 25 27  1  0  0  0  0
 27 28  1  0  0  0  0
 27 29  1  0  0  0  0
 29 30  1  0  0  0  0
 29 31  1  0  0  0  0
 29 32  1  0  0  0  0
M  END
$$$$

  -OEChem-01062216093D

 32 32  0     1  0  0  0  0  0999 V2000
   -3.4904   -2.2578    0.8629 H   0  0  0  0  0  0  0  0  0  0  0  0
   -3.3010   -1.4758    0.1224 C   0  0  0  0  0  0  0  0  0  0  0  0
   -4.2371   -0.9537   -0.0891 H   0  0  0  0  0  0  0  0  0  0  0  0
   -2.9357   -1.9428   -0.7953 H   0  0  0  0  0  0  0  0  0  0  0  0
   -2.2702   -0.4970    0.6523 C   0  0  0  0  0  0  0  0  0  0  0  0
   -1.9765   -0.5107    1.8350 O   0  0  0  0  0  0  0  0  0  0  0  0
   -1.8252    0.5304   -0.1511 N   0  0  0  0  0  0  0  0  0  0  0  0
   -2.2180    0.5013   -1.0911 H   0  0  0  0  0  0  0  0  0  0  0  0
   -0.4788    1.1346   -0.1076 C   0  0  1  0  0  0  0  0  0  0  0  0
   -0.4051    1.7797    0.7730 H   0  0  0  0  0  0  0  0  0  0  0  0
    0.7339    0.1599   -0.1332 C   0  0  0  0  0  0  0  0  0  0  0  0
    0.6486   -0.4767   -1.0206 H   0  0  0  0  0  0  0  0  0  0  0  0
    1.6501    0.7473   -0.2560 H   0  0  0  0  0  0  0  0  0  0  0  0
    0.9250   -0.7299    1.0710 C   0  0  0  0  0  0  0  0  0  0  0  0
    1.5438   -0.2254    2.2244 C   0  0  0  0  0  0  0  0  0  0  0  0
    1.8351    0.8187    2.2732 H   0  0  0  0  0  0  0  0  0  0  0  0
    1.7803   -1.0550    3.3256 C   0  0  0  0  0  0  0  0  0  0  0  0
    2.2450   -0.6509    4.2195 H   0  0  0  0  0  0  0  0  0  0  0  0
    1.4154   -2.4035    3.2773 C   0  0  0  0  0  0  0  0  0  0  0  0
    1.5933   -3.0462    4.1343 H   0  0  0  0  0  0  0  0  0  0  0  0
    0.8205   -2.9228    2.1240 C   0  0  0  0  0  0  0  0  0  0  0  0
    0.5381   -3.9701    2.0837 H   0  0  0  0  0  0  0  0  0  0  0  0
    0.5854   -2.0921    1.0231 C   0  0  0  0  0  0  0  0  0  0  0  0
    0.1283   -2.5083    0.1314 H   0  0  0  0  0  0  0  0  0  0  0  0
   -0.3065    1.9659   -1.3949 C   0  0  0  0  0  0  0  0  0  0  0  0
   -0.5221    1.4573   -2.4894 O   0  0  0  0  0  0  0  0  0  0  0  0
   -0.0642    3.3249   -1.3173 N   0  0  0  0  0  0  0  0  0  0  0  0
    0.0052    3.7376   -0.3915 H   0  0  0  0  0  0  0  0  0  0  0  0
   -0.0151    4.1997   -2.4827 C   0  0  0  0  0  0  0  0  0  0  0  0
   -0.9848    4.2169   -2.9910 H   0  0  0  0  0  0  0  0  0  0  0  0
    0.2344    5.2208   -2.1781 H   0  0  0  0  0  0  0  0  0  0  0  0
    0.7474    3.8553   -3.1892 H   0  0  0  0  0  0  0  0  0  0  0  0
  1  2  1  0  0  0  0
  2  3  1  0  0  0  0
  2  4  1  0  0  0  0
  2  5  1  0  0  0  0
  5  6  2  0  0  0  0
  5  7  1  0  0  0  0
  7  8  1  0  0  0  0
  7  9  1  0  0  0  0
  9 10  1  0  0  0  0
  9 11  1  0  0  0  0
  9 25  1  0  0  0  0
 11 12  1  0  0  0  0
 11 13  1  0  0  0  0
 11 14  1  0  0  0  0
 14 15  1  0  0  0  0
 14 23  2  0  0  0  0
 15 16  1  0  0  0  0
 15 17  2  0  0  0  0
 17 18  1  0  0  0  0
 17 19  1  0  0  0  0
 19 20  1  0  0  0  0
 19 21  2  0  0  0  0
 21 22  1  0  0  0  0
 21 23  1  0  0  0  0
 23 24  1  0  0  0  0
 25 26  2  0  0  0  0
 25 27  1  0  0  0  0
 27 28  1  0  0  0  0
 27 29  1  0  0  0  0
 29 30  1  0  0  0  0
 29 31  1  0  0  0  0
 29 32  1  0  0  0  0
M  END
$$$$

  -OEChem-01062216093D

 32 32  0     1  0  0  0  0  0999 V2000
   -3.5375   -2.2372    0.8749 H   0  0  0  0  0  0  0  0  0  0  0  0
   -3.3209   -1.4722    0.1240 C   0  0  0  0  0  0  0  0  0  0  0  0
   -4.2440   -0.9380   -0.1136 H   0  0  0  0  0  0  0  0  0  0  0  0
   -2.9483   -1.9620   -0.7789 H   0  0  0  0  0  0  0  0  0  0  0  0
   -2.2820   -0.5017    0.6533 C   0  0  0  0  0  0  0  0  0  0  0  0
   -1.9784   -0.5256    1.8334 O   0  0  0  0  0  0  0  0  0  0  0  0
   -1.8334    0.5224   -0.1519 N   0  0  0  0  0  0  0  0  0  0  0  0
   -2.2297    0.5033   -1.0914 H   0  0  0  0  0  0  0  0  0  0  0  0
   -0.4936    1.1407   -0.1051 C   0  0  1  0  0  0  0  0  0  0  0  0
   -0.4300    1.7916    0.7720 H   0  0  0  0  0  0  0  0  0  0  0  0
    0.7248    0.1740   -0.1313 C   0  0  0  0  0  0  0  0  0  0  0  0
    0.6421   -0.4600   -1.0211 H   0  0  0  0  0  0  0  0  0  0  0  0
    1.6391    0.7652   -0.2517 H   0  0  0  0  0  0  0  0  0  0  0  0
    0.9213   -0.7179    1.0700 C   0  0  0  0  0  0  0  0  0  0  0  0
    1.5360   -0.2131    2.2255 C   0  0  0  0  0  0  0  0  0  0  0  0
    1.8173    0.8335    2.2797 H   0  0  0  0  0  0  0  0  0  0  0  0
    1.7817   -1.0458    3.3224 C   0  0  0  0  0  0  0  0  0  0  0  0
    2.2435   -0.6413    4.2177 H   0  0  0  0  0  0  0  0  0  0  0  0
    1.4296   -2.3974    3.2679 C   0  0  0  0  0  0  0  0  0  0  0  0
    1.6151   -3.0428    4.1212 H   0  0  0  0  0  0  0  0  0  0  0  0
    0.8379   -2.9163    2.1127 C   0  0  0  0  0  0  0  0  0  0  0  0
    0.5656   -3.9660    2.0677 H   0  0  0  0  0  0  0  0  0  0  0  0
    0.5938   -2.0829    1.0160 C   0  0  0  0  0  0  0  0  0  0  0  0
    0.1400   -2.5002    0.1229 H   0  0  0  0  0  0  0  0  0  0  0  0
   -0.3123    1.9641   -1.3966 C   0  0  0  0  0  0  0  0  0  0  0  0
   -0.7156    1.5228   -2.4677 O   0  0  0  0  0  0  0  0  0  0  0  0
    0.2181    3.2402   -1.3441 N   0  0  0  0  0  0  0  0  0  0  0  0
    0.4813    3.6050   -0.4330 H   0  0  0  0  0  0  0  0  0  0  0  0
    0.3475    4.1023   -2.5127 C   0  0  0  0  0  0  0  0  0  0  0  0
   -0.6383    4.3316   -2.9304 H   0  0  0  0  0  0  0  0  0  0  0  0
    0.8342    5.0428   -2.2370 H   0  0  0  0  0  0  0  0  0  0  0  0
    0.9527    3.6145   -3.2841 H   0  0  0  0  0  0  0  0  0  0  0  0
  1  2  1  0  0  0  0
  2  3  1  0  0  0  0
  2  4  1  0  0  0  0
  2  5  1  0  0  0  0
  5  6  2  0  0  0  0
  5  7  1  0  0  0  0
  7  8  1  0  0  0  0
  7  9  1  0  0  0  0
  9 10  1  0  0  0  0
  9 11  1  0  0  0  0
  9 25  1  0  0  0  0
 11 12  1  0  0  0  0
 11 13  1  0  0  0  0
 11 14  1  0  0  0  0
 14 15  1  0  0  0  0
 14 23  2  0  0  0  0
 15 16  1  0  0  0  0
 15 17  2  0  0  0  0
 17 18  1  0  0  0  0
 17 19  1  0  0  0  0
 19 20  1  0  0  0  0
 19 21  2  0  0  0  0
 21 22  1  0  0  0  0
 21 23  1  0  0  0  0
 23 24  1  0  0  0  0
 25 26  2  0  0  0  0
 25 27  1  0  0  0  0
 27 28  1  0  0  0  0
 27 29  1  0  0  0  0
 29 30  1  0  0  0  0
 29 31  1  0  0  0  0
 29 32  1  0  0  0  0
M  END
$$$$

  -OEChem-01062216093D

 32 32  0     1  0  0  0  0  0999 V2000
   -3.5662   -2.2315    0.8643 H   0  0  0  0  0  0  0  0  0  0  0  0
   -3.3500   -1.4606    0.1192 C   0  0  0  0  0  0  0  0  0  0  0  0
   -4.2683   -0.9089   -0.0958 H   0  0  0  0  0  0  0  0  0  0  0  0
   -2.9996   -1.9447   -0.7955 H   0  0  0  0  0  0  0  0  0  0  0  0
   -2.2875   -0.5132    0.6430 C   0  0  0  0  0  0  0  0  0  0  0  0
   -1.9723   -0.5538    1.8195 O   0  0  0  0  0  0  0  0  0  0  0  0
   -1.8327    0.5106   -0.1593 N   0  0  0  0  0  0  0  0  0  0  0  0
   -2.2445    0.5185   -1.0928 H   0  0  0  0  0  0  0  0  0  0  0  0
   -0.4993    1.1436   -0.1109 C   0  0  1  0  0  0  0  0  0  0  0  0
   -0.4438    1.7987    0.7637 H   0  0  0  0  0  0  0  0  0  0  0  0
    0.7234    0.1811   -0.1327 C   0  0  0  0  0  0  0  0  0  0  0  0
    0.6420   -0.4534   -1.0221 H   0  0  0  0  0  0  0  0  0  0  0  0
    1.6370    0.7730   -0.2534 H   0  0  0  0  0  0  0  0  0  0  0  0
    0.9253   -0.7098    1.0690 C   0  0  0  0  0  0  0  0  0  0  0  0
    1.5381   -0.2021    2.2245 C   0  0  0  0  0  0  0  0  0  0  0  0
    1.8134    0.8458    2.2795 H   0  0  0  0  0  0  0  0  0  0  0  0
    1.7898   -1.0336    3.3211 C   0  0  0  0  0  0  0  0  0  0  0  0
    2.2500   -0.6275    4.2165 H   0  0  0  0  0  0  0  0  0  0  0  0
    1.4450   -2.3870    3.2661 C   0  0  0  0  0  0  0  0  0  0  0  0
    1.6333   -3.0314    4.1195 H   0  0  0  0  0  0  0  0  0  0  0  0
    0.8557   -2.9092    2.1111 C   0  0  0  0  0  0  0  0  0  0  0  0
    0.5891   -3.9606    2.0662 H   0  0  0  0  0  0  0  0  0  0  0  0
    0.6061   -2.0766    1.0149 C   0  0  0  0  0  0  0  0  0  0  0  0
    0.1530   -2.4960    0.1227 H   0  0  0  0  0  0  0  0  0  0  0  0
   -0.3144    1.9639   -1.4063 C   0  0  0  0  0  0  0  0  0  0  0  0
   -0.8864    1.6263   -2.4381 O   0  0  0  0  0  0  0  0  0  0  0  0
    0.4736    3.1007   -1.4102 N   0  0  0  0  0  0  0  0  0  0  0  0
    0.8997    3.3837   -0.5323 H   0  0  0  0  0  0  0  0  0  0  0  0
    0.6665    3.9371   -2.5888 C   0  0  0  0  0  0  0  0  0  0  0  0
   -0.2888    4.3554   -2.9228 H   0  0  0  0  0  0  0  0  0  0  0  0
    1.3449    4.7643   -2.3588 H   0  0  0  0  0  0  0  0  0  0  0  0
    1.1009    3.3524   -3.4066 H   0  0  0  0  0  0  0  0  0  0  0  0
  1  2  1  0  0  0  0
  2  3  1  0  0  0  0
  2  4  1  0  0  0  0
  2  5  1  0  0  0  0
  5  6  2  0  0  0  0
  5  7  1  0  0  0  0
  7  8  1  0  0  0  0
  7  9  1  0  0  0  0
  9 10  1  0  0  0  0
  9 11  1  0  0  0  0
  9 25  1  0  0  0  0
 11 12  1  0  0  0  0
 11 13  1  0  0  0  0
 11 14  1  0  0  0  0
 14 15  1  0  0  0  0
 14 23  2  0  0  0  0
 15 16  1  0  0  0  0
 15 17  2  0  0  0  0
 17 18  1  0  0  0  0
 17 19  1  0  0  0  0
 19 20  1  0  0  0  0
 19 21  2  0  0  0  0
 21 22  1  0  0  0  0
 21 23  1  0  0  0  0
 23 24  1  0  0  0  0
 25 26  2  0  0  0  0
 25 27  1  0  0  0  0
 27 28  1  0  0  0  0
 27 29  1  0  0  0  0
 29 30  1  0  0  0  0
 29 31  1  0  0  0  0
 29 32  1  0  0  0  0
M  END
$$$$

  -OEChem-01062216093D

 32 32  0     1  0  0  0  0  0999 V2000
   -3.6183   -2.2054    0.8466 H   0  0  0  0  0  0  0  0  0  0  0  0
   -3.3791   -1.4387    0.1042 C   0  0  0  0  0  0  0  0  0  0  0  0
   -4.2812   -0.8601   -0.1092 H   0  0  0  0  0  0  0  0  0  0  0  0
   -3.0430   -1.9297   -0.8123 H   0  0  0  0  0  0  0  0  0  0  0  0
   -2.2900   -0.5230    0.6302 C   0  0  0  0  0  0  0  0  0  0  0  0
   -1.9637   -0.5884    1.8024 O   0  0  0  0  0  0  0  0  0  0  0  0
   -1.8244    0.5019   -0.1646 N   0  0  0  0  0  0  0  0  0  0  0  0
   -2.2556    0.5446   -1.0888 H   0  0  0  0  0  0  0  0  0  0  0  0
   -0.4965    1.1477   -0.1138 C   0  0  1  0  0  0  0  0  0  0  0  0
   -0.4462    1.8078    0.7573 H   0  0  0  0  0  0  0  0  0  0  0  0
    0.7278    0.1845   -0.1284 C   0  0  0  0  0  0  0  0  0  0  0  0
    0.6484   -0.4504   -1.0176 H   0  0  0  0  0  0  0  0  0  0  0  0
    1.6443    0.7717   -0.2443 H   0  0  0  0  0  0  0  0  0  0  0  0
    0.9298   -0.7043    1.0744 C   0  0  0  0  0  0  0  0  0  0  0  0
    1.5400   -0.1947    2.2305 C   0  0  0  0  0  0  0  0  0  0  0  0
    1.8073    0.8552    2.2881 H   0  0  0  0  0  0  0  0  0  0  0  0
    1.7981   -1.0271    3.3250 C   0  0  0  0  0  0  0  0  0  0  0  0
    2.2547   -0.6194    4.2216 H   0  0  0  0  0  0  0  0  0  0  0  0
    1.4651   -2.3834    3.2665 C   0  0  0  0  0  0  0  0  0  0  0  0
    1.6589   -3.0284    4.1181 H   0  0  0  0  0  0  0  0  0  0  0  0
    0.8795   -2.9073    2.1107 C   0  0  0  0  0  0  0  0  0  0  0  0
    0.6212   -3.9606    2.0632 H   0  0  0  0  0  0  0  0  0  0  0  0
    0.6225   -2.0739    1.0169 C   0  0  0  0  0  0  0  0  0  0  0  0
    0.1732   -2.4949    0.1234 H   0  0  0  0  0  0  0  0  0  0  0  0
   -0.3142    1.9667   -1.4144 C   0  0  0  0  0  0  0  0  0  0  0  0
   -1.0402    1.7621   -2.3830 O   0  0  0  0  0  0  0  0  0  0  0  0
    0.6853    2.9187   -1.5169 N   0  0  0  0  0  0  0  0  0  0  0  0
    1.2611    3.0896   -0.6975 H   0  0  0  0  0  0  0  0  0  0  0  0
    0.9133    3.7152   -2.7166 C   0  0  0  0  0  0  0  0  0  0  0  0
    0.0297    4.3184   -2.9499 H   0  0  0  0  0  0  0  0  0  0  0  0
    1.7628    4.3888   -2.5682 H   0  0  0  0  0  0  0  0  0  0  0  0
    1.1329    3.0663   -3.5710 H   0  0  0  0  0  0  0  0  0  0  0  0
  1  2  1  0  0  0  0
  2  3  1  0  0  0  0
  2  4  1  0  0  0  0
  2  5  1  0  0  0  0
  5  6  2  0  0  0  0
  5  7  1  0  0  0  0
  7  8  1  0  0  0  0
  7  9  1  0  0  0  0
  9 10  1  0  0  0  0
  9 11  1  0  0  0  0
  9 25  1  0  0  0  0
 11 12  1  0  0  0  0
 11 13  1  0  0  0  0
 11 14  1  0  0  0  0
 14 15  1  0  0  0  0
 14 23  2  0  0  0  0
 15 16  1  0  0  0  0
 15 17  2  0  0  0  0
 17 18  1  0  0  0  0
 17 19  1  0  0  0  0
 19 20  1  0  0  0  0
 19 21  2  0  0  0  0
 21 22  1  0  0  0  0
 21 23  1  0  0  0  0
 23 24  1  0  0  0  0
 25 26  2  0  0  0  0
 25 27  1  0  0  0  0
 27 28  1  0  0  0  0
 27 29  1  0  0  0  0
 29 30  1  0  0  0  0
 29 31  1  0  0  0  0
 29 32  1  0  0  0  0
M  END
$$$$
